### 
### Created by X-TOOL on Mon Sep 10 21:13:24 2018
### 

@<TRIPOS>MOLECULE
4rme_ligand
  210   211     1     0     0
SMALL
GAST_HUCK


@<TRIPOS>ATOM
      1 N          67.7770   43.8120    6.7560 N.4       1 LYS         0.2379
      2 CA         67.8030   44.0620    8.2240 C.3       1 LYS         0.0650
      3 C          66.4370   44.5300    8.7270 C.2       1 LYS         0.2268
      4 O          65.5700   44.9050    7.9340 O.2       1 LYS        -0.3907
      5 CB         68.8840   45.1040    8.5570 C.3       1 LYS         0.0080
      6 CG         68.8460   46.3580    7.6860 C.3       1 LYS        -0.0410
      7 CD         69.9600   47.3290    8.0620 C.3       1 LYS        -0.0123
      8 CE         70.0460   48.5000    7.0840 C.3       1 LYS        -0.0354
      9 NZ         68.7960   49.3110    7.0420 N.4       1 LYS         0.2185
     10 N          66.2620   44.5000   10.0480 N.am      1 HIS        -0.2598
     11 CA         65.0200   44.9070   10.7060 C.3       1 HIS         0.1370
     12 C          63.7930   44.2660   10.0520 C.2       1 HIS         0.2054
     13 O          62.8060   44.9510    9.7730 O.2       1 HIS        -0.3942
     14 CB         64.8690   46.4380   10.6910 C.3       1 HIS         0.0145
     15 CG         66.1650   47.1820   10.8070 C.2       1 HIS        -0.0027
     16 ND1        67.1520   46.8300   11.7040 N.2       1 HIS        -0.3252
     17 CD2        66.6390   48.2530   10.1260 C.2       1 HIS         0.0291
     18 CE1        68.1800   47.6500   11.5670 C.2       1 HIS         0.0907
     19 NE2        67.8940   48.5220   10.6170 N.pl3     1 HIS        -0.2752
     20 N          63.8620   42.9550    9.8210 N.am      1 LYS        -0.2636
     21 CA         62.7720   42.1980    9.1980 C.3       1 LYS         0.1310
     22 C          61.4080   42.3210    9.8880 C.2       1 LYS         0.2039
     23 O          60.4220   42.7430    9.2790 O.2       1 LYS        -0.3944
     24 CB         63.1420   40.7110    9.1170 C.3       1 LYS        -0.0122
     25 CG         64.1240   40.3580    8.0130 C.3       1 LYS        -0.0440
     26 CD         64.2650   38.8510    7.8800 C.3       1 LYS        -0.0124
     27 CE         64.9870   38.4730    6.5960 C.3       1 LYS        -0.0354
     28 NZ         65.0160   36.9940    6.3980 N.4       1 LYS         0.2185
     29 N          61.3630   41.9280   11.1550 N.am      1 ILE        -0.2635
     30 CA         60.1430   41.9670   11.9470 C.3       1 ILE         0.1335
     31 C          59.4770   43.3450   11.9410 C.2       1 ILE         0.2042
     32 O          58.2990   43.4750   11.5930 O.2       1 ILE        -0.3944
     33 CB         60.4420   41.5470   13.3970 C.3       1 ILE        -0.0037
     34 CG1        61.0750   40.1470   13.4000 C.3       1 ILE        -0.0491
     35 CG2        59.1630   41.5730   14.2260 C.3       1 ILE        -0.0582
     36 CD1        61.7140   39.7470   14.7180 C.3       1 ILE        -0.0648
     37 N          60.2380   44.3680   12.3150 N.am      1 LEU        -0.2637
     38 CA         59.7190   45.7240   12.3630 C.3       1 LEU         0.1312
     39 C          59.0470   46.1410   11.0540 C.2       1 LEU         0.2040
     40 O          57.9330   46.6640   11.0690 O.2       1 LEU        -0.3944
     41 CB         60.8410   46.7030   12.7150 C.3       1 LEU        -0.0101
     42 CG         60.4310   48.1640   12.9190 C.3       1 LEU        -0.0425
     43 CD1        59.4020   48.2620   14.0140 C.3       1 LEU        -0.0625
     44 CD2        61.6500   48.9970   13.2770 C.3       1 LEU        -0.0625
     45 N          59.7180   45.9100    9.9270 N.am      1 HIS        -0.2625
     46 CA         59.1670   46.2720    8.6200 C.3       1 HIS         0.1369
     47 C          57.8350   45.5750    8.3610 C.2       1 HIS         0.2054
     48 O          56.8570   46.2140    7.9670 O.2       1 HIS        -0.3942
     49 CB         60.1380   45.9080    7.4860 C.3       1 HIS         0.0145
     50 CG         61.1720   46.9550    7.1990 C.2       1 HIS        -0.0027
     51 ND1        62.3690   47.0310    7.8800 N.2       1 HIS        -0.3252
     52 CD2        61.1940   47.9610    6.2920 C.2       1 HIS         0.0291
     53 CE1        63.0840   48.0360    7.4040 C.2       1 HIS         0.0907
     54 NE2        62.3930   48.6160    6.4390 N.pl3     1 HIS        -0.2752
     55 N          57.8090   44.2630    8.5800 N.am      1 ARG        -0.2636
     56 CA         56.6040   43.4650    8.3620 C.3       1 ARG         0.1311
     57 C          55.4370   43.9820    9.1760 C.2       1 ARG         0.2039
     58 O          54.3090   44.0420    8.6870 O.2       1 ARG        -0.3944
     59 CB         56.8660   42.0060    8.7290 C.3       1 ARG        -0.0092
     60 CG         57.7950   41.3140    7.7750 C.3       1 ARG        -0.0156
     61 CD         58.2390   39.9750    8.2980 C.3       1 ARG         0.0627
     62 NE         58.9960   39.2700    7.2760 N.pl3     1 ARG        -0.2723
     63 CZ         59.7120   38.1760    7.4960 C.cat     1 ARG         0.2882
     64 NH1        59.7770   37.6580    8.7160 N.pl3     1 ARG        -0.2849
     65 NH2        60.3580   37.5990    6.4900 N.pl3     1 ARG        -0.2849
     66 N          55.7160   44.3700   10.4160 N.am      1 LEU        -0.2637
     67 CA         54.6720   44.8710   11.2940 C.3       1 LEU         0.1312
     68 C          54.1280   46.2230   10.8550 C.2       1 LEU         0.2039
     69 O          52.9230   46.4550   10.9170 O.2       1 LEU        -0.3944
     70 CB         55.1860   44.9370   12.7390 C.3       1 LEU        -0.0101
     71 CG         55.5740   43.5640   13.3170 C.3       1 LEU        -0.0425
     72 CD1        56.0770   43.7290   14.7330 C.3       1 LEU        -0.0625
     73 CD2        54.3690   42.6100   13.2870 C.3       1 LEU        -0.0625
     74 N          55.0070   47.1060   10.3900 N.am      1 LEU        -0.2637
     75 CA         54.5900   48.4410    9.9550 C.3       1 LEU         0.1312
     76 C          53.7900   48.4500    8.6510 C.2       1 LEU         0.2039
     77 O          52.8920   49.2710    8.4680 O.2       1 LEU        -0.3944
     78 CB         55.8190   49.3450    9.8050 C.3       1 LEU        -0.0101
     79 CG         56.4790   49.7810   11.1140 C.3       1 LEU        -0.0425
     80 CD1        57.8330   50.4240   10.8370 C.3       1 LEU        -0.0625
     81 CD2        55.5530   50.7450   11.8390 C.3       1 LEU        -0.0625
     82 N          54.1260   47.5310    7.7530 N.am      1 GLN        -0.2636
     83 CA         53.4680   47.4250    6.4580 C.3       1 GLN         0.1330
     84 C          52.0390   46.9140    6.5370 C.2       1 GLN         0.2036
     85 O          51.1560   47.4480    5.8710 O.2       1 GLN        -0.3944
     86 CB         54.3060   46.5260    5.5370 C.3       1 GLN         0.0045
     87 CG         53.6070   46.0080    4.2740 C.3       1 GLN         0.0412
     88 CD         52.8030   44.7280    4.5060 C.2       1 GLN         0.1737
     89 OE1        53.1470   43.9040    5.3630 O.2       1 GLN        -0.3973
     90 NE2        51.7380   44.5470    3.7220 N.am      1 GLN        -0.3009
     91 N          51.8140   45.8920    7.3560 N.am      1 ASP        -0.2679
     92 CA         50.4890   45.2880    7.5090 C.3       1 ASP         0.1057
     93 C          49.3900   46.2660    7.9530 C.2       1 ASP         0.0618
     94 O          49.0120   46.2460    9.1430 O.co2     1 ASP        -0.5665
     95 CB         50.5630   44.1030    8.4860 C.3       1 ASP         0.0351
     96 CG         49.2420   43.3540    8.5960 C.2       1 ASP         0.0387
     97 OD1        48.6440   43.0550    7.5380 O.co2     1 ASP        -0.5688
     98 OD2        48.8040   43.0600    9.7310 O.co2     1 ASP        -0.5688
     99 OXT        48.9080   47.0520    7.1110 O.co2     1 ASP        -0.5665
    100 H1         68.6876   43.5054    6.4512 H         1 LYS         0.2015
    101 H2         67.5304   44.6626    6.2746 H         1 LYS         0.2015
    102 H3         67.0955   43.0988    6.5486 H         1 LYS         0.2015
    103 H4         68.0552   43.1202    8.7333 H         1 LYS         0.1098
    104 H5         69.8685   44.6293    8.4326 H         1 LYS         0.0346
    105 H6         68.7544   45.4102    9.6055 H         1 LYS         0.0346
    106 H7         67.8752   46.8577    7.8197 H         1 LYS         0.0270
    107 H8         68.9661   46.0660    6.6323 H         1 LYS         0.0270
    108 H9         70.9189   46.7900    8.0572 H         1 LYS         0.0317
    109 H10        69.7649   47.7214    9.0709 H         1 LYS         0.0317
    110 H11        70.2413   48.1031    6.0769 H         1 LYS         0.0813
    111 H12        70.8778   49.1521    7.3888 H         1 LYS         0.0813
    112 H13        68.9075   50.0664    6.3839 H         1 LYS         0.1994
    113 H14        68.6092   49.6882    7.9579 H         1 LYS         0.1994
    114 H15        68.0260   48.7269    6.7557 H         1 LYS         0.1994
    115 H16        67.0190   44.1828   10.6192 H         1 HIS         0.1886
    116 H17        65.0657   44.5727   11.7530 H         1 HIS         0.0817
    117 H18        64.2264   46.7300   11.5347 H         1 HIS         0.0420
    118 H19        64.3875   46.7284    9.7456 H         1 HIS         0.0420
    119 H20        66.1224   48.7983    9.3375 H         1 HIS         0.0729
    120 H21        69.1053   47.6128   12.1400 H         1 HIS         0.1199
    121 H22        68.5119   49.2810   10.2960 H         1 HIS         0.2361
    122 H23        64.6938   42.4664   10.0842 H         1 LYS         0.1883
    123 H24        62.6570   42.5832    8.1741 H         1 LYS         0.0800
    124 H25        62.2185   40.1372    8.9498 H         1 LYS         0.0312
    125 H26        63.5878   40.4164   10.0785 H         1 LYS         0.0312
    126 H27        65.1060   40.7927    8.2509 H         1 LYS         0.0269
    127 H28        63.7607   40.7719    7.0608 H         1 LYS         0.0269
    128 H29        63.2632   38.3968    7.8743 H         1 LYS         0.0317
    129 H30        64.8365   38.4678    8.7382 H         1 LYS         0.0317
    130 H31        66.0203   38.8472    6.6438 H         1 LYS         0.0813
    131 H32        64.4679   38.9372    5.7445 H         1 LYS         0.0813
    132 H33        65.5004   36.7793    5.5405 H         1 LYS         0.1994
    133 H34        64.0724   36.6431    6.3478 H         1 LYS         0.1994
    134 H35        65.4949   36.5607    7.1719 H         1 LYS         0.1994
    135 H36        62.2019   41.5913   11.5827 H         1 ILE         0.1883
    136 H37        59.4351   41.2456   11.5129 H         1 ILE         0.0803
    137 H38        61.1573   42.2591   13.8344 H         1 ILE         0.0345
    138 H39        61.8502   40.1189   12.6201 H         1 ILE         0.0267
    139 H40        60.2895   39.4144   13.1629 H         1 ILE         0.0267
    140 H41        58.7333   42.5854   14.2055 H         1 ILE         0.0235
    141 H42        59.3935   41.2935   15.2646 H         1 ILE         0.0235
    142 H43        58.4393   40.8590   13.8061 H         1 ILE         0.0235
    143 H44        62.1388   38.7364   14.6277 H         1 ILE         0.0230
    144 H45        60.9528   39.7551   15.5120 H         1 ILE         0.0230
    145 H46        62.5134   40.4596   14.9691 H         1 ILE         0.0230
    146 H47        61.1905   44.2005   12.5694 H         1 LEU         0.1883
    147 H48        58.9609   45.7667   13.1589 H         1 LEU         0.0800
    148 H49        61.5790   46.6733   11.8998 H         1 LEU         0.0315
    149 H50        61.3097   46.3538   13.6469 H         1 LEU         0.0315
    150 H51        59.9966   48.5480   11.9842 H         1 LEU         0.0298
    151 H52        59.1138   49.3144   14.1532 H         1 LEU         0.0232
    152 H53        59.8251   47.8707   14.9509 H         1 LEU         0.0232
    153 H54        58.5153   47.6726   13.7378 H         1 LEU         0.0232
    154 H55        62.3960   48.9198   12.4723 H         1 LEU         0.0232
    155 H56        62.0847   48.6258   14.2168 H         1 LEU         0.0232
    156 H57        61.3520   50.0486   13.4010 H         1 LEU         0.0232
    157 H58        60.6192   45.4792    9.9747 H         1 HIS         0.1885
    158 H59        59.0027   47.3596    8.6078 H         1 HIS         0.0817
    159 H60        59.5516   45.7429    6.5701 H         1 HIS         0.0420
    160 H61        60.6568   44.9781    7.7619 H         1 HIS         0.0420
    161 H62        60.4078   48.2052    5.5791 H         1 HIS         0.0729
    162 H63        64.0730   48.3345    7.7484 H         1 HIS         0.1199
    163 H64        62.7029   49.4279    5.8861 H         1 HIS         0.2361
    164 H65        58.6392   43.8090    8.9036 H         1 ARG         0.1883
    165 H66        56.3392   43.5212    7.2958 H         1 ARG         0.0800
    166 H67        55.9061   41.4689    8.7337 H         1 ARG         0.0313
    167 H68        57.3097   41.9728    9.7350 H         1 ARG         0.0313
    168 H69        58.6812   41.9468    7.6192 H         1 ARG         0.0301
    169 H70        57.2760   41.1672    6.8163 H         1 ARG         0.0301
    170 H71        57.3558   39.3798    8.5730 H         1 ARG         0.0689
    171 H72        58.8729   40.1219    9.1849 H         1 ARG         0.0689
    172 H73        58.9745   39.6456    6.3172 H         1 ARG         0.2642
    173 H74        60.3336   36.8081    8.8857 H         1 ARG         0.2615
    174 H75        59.2709   38.1059    9.4933 H         1 ARG         0.2615
    175 H76        60.3053   38.0038    5.5444 H         1 ARG         0.2615
    176 H77        60.9119   36.7465    6.6551 H         1 ARG         0.2615
    177 H78        56.6572   44.3165   10.7495 H         1 LEU         0.1883
    178 H79        53.8386   44.1538   11.2619 H         1 LEU         0.0800
    179 H80        54.3957   45.3695   13.3701 H         1 LEU         0.0315
    180 H81        56.0723   45.5880   12.7637 H         1 LEU         0.0315
    181 H82        56.3788   43.1350   12.7021 H         1 LEU         0.0298
    182 H83        56.3527   42.7454   15.1411 H         1 LEU         0.0232
    183 H84        55.2857   44.1747   15.3536 H         1 LEU         0.0232
    184 H85        56.9586   44.3869   14.7347 H         1 LEU         0.0232
    185 H86        54.0143   42.4998   12.2516 H         1 LEU         0.0232
    186 H87        53.5606   43.0207   13.9097 H         1 LEU         0.0232
    187 H88        54.6698   41.6269   13.6781 H         1 LEU         0.0232
    188 H89        55.9730   46.8532   10.3362 H         1 LEU         0.1883
    189 H90        53.9456   48.8589   10.7424 H         1 LEU         0.0800
    190 H91        55.5093   50.2510    9.2634 H         1 LEU         0.0315
    191 H92        56.5692   48.8015    9.2118 H         1 LEU         0.0315
    192 H93        56.6354   48.8955   11.7476 H         1 LEU         0.0298
    193 H94        58.2941   50.7316   11.7872 H         1 LEU         0.0232
    194 H95        57.6955   51.3057   10.1938 H         1 LEU         0.0232
    195 H96        58.4866   49.6987   10.3302 H         1 LEU         0.0232
    196 H97        54.5860   50.2547   12.0249 H         1 LEU         0.0232
    197 H98        55.3970   51.6400   11.2188 H         1 LEU         0.0232
    198 H99        56.0060   51.0376   12.7977 H         1 LEU         0.0232
    199 H100       54.8586   46.8874    7.9744 H         1 GLN         0.1883
    200 H101       53.4332   48.4329    6.0187 H         1 GLN         0.0801
    201 H102       54.6285   45.6531    6.1235 H         1 GLN         0.0337
    202 H103       55.1885   47.1009    5.2198 H         1 GLN         0.0337
    203 H104       54.3722   45.8053    3.5103 H         1 GLN         0.0504
    204 H105       52.9227   46.7882    3.9094 H         1 GLN         0.0504
    205 H106       51.1732   43.7284    3.8269 H         1 GLN         0.1814
    206 H107       51.5049   45.2300    3.0297 H         1 GLN         0.1814
    207 H108       52.5767   45.5223    7.8867 H         1 ASP         0.1876
    208 H109       50.1956   44.8980    6.5232 H         1 ASP         0.0745
    209 H110       50.8368   44.4830    9.4813 H         1 ASP         0.0471
    210 H111       51.3364   43.4041    8.1348 H         1 ASP         0.0471
@<TRIPOS>BOND
     1    1    2 1  
     2    2    3 1  
     3    2    5 1  
     4    3    4 2  
     5    3   10 am 
     6    5    6 1  
     7    6    7 1  
     8    7    8 1  
     9    8    9 1  
    10   10   11 1  
    11   11   12 1  
    12   11   14 1  
    13   12   13 2  
    14   12   20 am 
    15   14   15 1  
    16   15   16 1  
    17   15   17 2  
    18   16   18 2  
    19   17   19 1  
    20   18   19 1  
    21   20   21 1  
    22   21   22 1  
    23   21   24 1  
    24   22   23 2  
    25   22   29 am 
    26   24   25 1  
    27   25   26 1  
    28   26   27 1  
    29   27   28 1  
    30   29   30 1  
    31   30   31 1  
    32   30   33 1  
    33   31   32 2  
    34   31   37 am 
    35   33   34 1  
    36   33   35 1  
    37   34   36 1  
    38   37   38 1  
    39   38   39 1  
    40   38   41 1  
    41   39   40 2  
    42   39   45 am 
    43   41   42 1  
    44   42   43 1  
    45   42   44 1  
    46   45   46 1  
    47   46   47 1  
    48   46   49 1  
    49   47   48 2  
    50   47   55 am 
    51   49   50 1  
    52   50   51 1  
    53   50   52 2  
    54   51   53 2  
    55   52   54 1  
    56   53   54 1  
    57   55   56 1  
    58   56   57 1  
    59   56   59 1  
    60   57   58 2  
    61   57   66 am 
    62   59   60 1  
    63   60   61 1  
    64   61   62 1  
    65   62   63 ar 
    66   63   64 ar 
    67   63   65 ar 
    68   66   67 1  
    69   67   68 1  
    70   67   70 1  
    71   68   69 2  
    72   68   74 am 
    73   70   71 1  
    74   71   72 1  
    75   71   73 1  
    76   74   75 1  
    77   75   76 1  
    78   75   78 1  
    79   76   77 2  
    80   76   82 am 
    81   78   79 1  
    82   79   80 1  
    83   79   81 1  
    84   82   83 1  
    85   83   84 1  
    86   83   86 1  
    87   84   85 2  
    88   84   91 am 
    89   86   87 1  
    90   87   88 1  
    91   88   89 2  
    92   88   90 am 
    93   91   92 1  
    94   92   93 1  
    95   92   95 1  
    96   93   94 ar 
    97   93   99 ar 
    98   95   96 1  
    99   96   97 ar 
   100   96   98 ar 
   101    1  100 1  
   102    1  101 1  
   103    1  102 1  
   104    2  103 1  
   105    5  104 1  
   106    5  105 1  
   107    6  106 1  
   108    6  107 1  
   109    7  108 1  
   110    7  109 1  
   111    8  110 1  
   112    8  111 1  
   113    9  112 1  
   114    9  113 1  
   115    9  114 1  
   116   10  115 1  
   117   11  116 1  
   118   14  117 1  
   119   14  118 1  
   120   17  119 1  
   121   18  120 1  
   122   19  121 1  
   123   20  122 1  
   124   21  123 1  
   125   24  124 1  
   126   24  125 1  
   127   25  126 1  
   128   25  127 1  
   129   26  128 1  
   130   26  129 1  
   131   27  130 1  
   132   27  131 1  
   133   28  132 1  
   134   28  133 1  
   135   28  134 1  
   136   29  135 1  
   137   30  136 1  
   138   33  137 1  
   139   34  138 1  
   140   34  139 1  
   141   35  140 1  
   142   35  141 1  
   143   35  142 1  
   144   36  143 1  
   145   36  144 1  
   146   36  145 1  
   147   37  146 1  
   148   38  147 1  
   149   41  148 1  
   150   41  149 1  
   151   42  150 1  
   152   43  151 1  
   153   43  152 1  
   154   43  153 1  
   155   44  154 1  
   156   44  155 1  
   157   44  156 1  
   158   45  157 1  
   159   46  158 1  
   160   49  159 1  
   161   49  160 1  
   162   52  161 1  
   163   53  162 1  
   164   54  163 1  
   165   55  164 1  
   166   56  165 1  
   167   59  166 1  
   168   59  167 1  
   169   60  168 1  
   170   60  169 1  
   171   61  170 1  
   172   61  171 1  
   173   62  172 1  
   174   64  173 1  
   175   64  174 1  
   176   65  175 1  
   177   65  176 1  
   178   66  177 1  
   179   67  178 1  
   180   70  179 1  
   181   70  180 1  
   182   71  181 1  
   183   72  182 1  
   184   72  183 1  
   185   72  184 1  
   186   73  185 1  
   187   73  186 1  
   188   73  187 1  
   189   74  188 1  
   190   75  189 1  
   191   78  190 1  
   192   78  191 1  
   193   79  192 1  
   194   80  193 1  
   195   80  194 1  
   196   80  195 1  
   197   81  196 1  
   198   81  197 1  
   199   81  198 1  
   200   82  199 1  
   201   83  200 1  
   202   86  201 1  
   203   86  202 1  
   204   87  203 1  
   205   87  204 1  
   206   90  205 1  
   207   90  206 1  
   208   91  207 1  
   209   92  208 1  
   210   95  209 1  
   211   95  210 1  
@<TRIPOS>SUBSTRUCTURE
     1 LYS         1

