4rme_ligand
  -I-interpret- 

209210  0  0  0  0  0  0  0  0999 V2000
   67.7770   43.8120    6.7560 N   0  3  0  0  0
   67.8030   44.0620    8.2240 C   0  0  0  0  0
   66.4370   44.5300    8.7270 C   0  0  0  0  0
   65.5700   44.9050    7.9340 O   0  0  0  0  0
   68.8840   45.1040    8.5570 C   0  0  0  0  0
   68.8460   46.3580    7.6860 C   0  0  0  0  0
   69.9600   47.3290    8.0620 C   0  0  0  0  0
   70.0460   48.5000    7.0840 C   0  0  0  0  0
   68.7960   49.3110    7.0420 N   0  3  0  0  0
   66.2620   44.5000   10.0480 N   0  0  0  0  0
   65.0200   44.9070   10.7060 C   0  0  0  0  0
   63.7930   44.2660   10.0520 C   0  0  0  0  0
   62.8060   44.9510    9.7730 O   0  0  0  0  0
   64.8690   46.4380   10.6910 C   0  0  0  0  0
   66.1650   47.1820   10.8070 C   0  0  0  0  0
   67.1520   46.8300   11.7040 N   0  0  0  0  0
   66.6390   48.2530   10.1260 C   0  0  0  0  0
   68.1800   47.6500   11.5670 C   0  0  0  0  0
   67.8940   48.5220   10.6170 N   0  0  0  0  0
   63.8620   42.9550    9.8210 N   0  0  0  0  0
   62.7720   42.1980    9.1980 C   0  0  0  0  0
   61.4080   42.3210    9.8880 C   0  0  0  0  0
   60.4220   42.7430    9.2790 O   0  0  0  0  0
   63.1420   40.7110    9.1170 C   0  0  0  0  0
   64.1240   40.3580    8.0130 C   0  0  0  0  0
   64.2650   38.8510    7.8800 C   0  0  0  0  0
   64.9870   38.4730    6.5960 C   0  0  0  0  0
   65.0160   36.9940    6.3980 N   0  3  0  0  0
   61.3630   41.9280   11.1550 N   0  0  0  0  0
   60.1430   41.9670   11.9470 C   0  0  0  0  0
   59.4770   43.3450   11.9410 C   0  0  0  0  0
   58.2990   43.4750   11.5930 O   0  0  0  0  0
   60.4420   41.5470   13.3970 C   0  0  0  0  0
   61.0750   40.1470   13.4000 C   0  0  0  0  0
   59.1630   41.5730   14.2260 C   0  0  0  0  0
   61.7140   39.7470   14.7180 C   0  0  0  0  0
   60.2380   44.3680   12.3150 N   0  0  0  0  0
   59.7190   45.7240   12.3630 C   0  0  0  0  0
   59.0470   46.1410   11.0540 C   0  0  0  0  0
   57.9330   46.6640   11.0690 O   0  0  0  0  0
   60.8410   46.7030   12.7150 C   0  0  0  0  0
   60.4310   48.1640   12.9190 C   0  0  0  0  0
   59.4020   48.2620   14.0140 C   0  0  0  0  0
   61.6500   48.9970   13.2770 C   0  0  0  0  0
   59.7180   45.9100    9.9270 N   0  0  0  0  0
   59.1670   46.2720    8.6200 C   0  0  0  0  0
   57.8350   45.5750    8.3610 C   0  0  0  0  0
   56.8570   46.2140    7.9670 O   0  0  0  0  0
   60.1380   45.9080    7.4860 C   0  0  0  0  0
   61.1720   46.9550    7.1990 C   0  0  0  0  0
   62.3690   47.0310    7.8800 N   0  0  0  0  0
   61.1940   47.9610    6.2920 C   0  0  0  0  0
   63.0840   48.0360    7.4040 C   0  0  0  0  0
   62.3930   48.6160    6.4390 N   0  0  0  0  0
   57.8090   44.2630    8.5800 N   0  0  0  0  0
   56.6040   43.4650    8.3620 C   0  0  0  0  0
   55.4370   43.9820    9.1760 C   0  0  0  0  0
   54.3090   44.0420    8.6870 O   0  0  0  0  0
   56.8660   42.0060    8.7290 C   0  0  0  0  0
   57.7950   41.3140    7.7750 C   0  0  0  0  0
   58.2390   39.9750    8.2980 C   0  0  0  0  0
   58.9960   39.2700    7.2760 N   0  0  0  0  0
   59.7120   38.1760    7.4960 C   0  0  0  0  0
   59.7770   37.6580    8.7160 N   0  0  0  0  0
   60.3580   37.5990    6.4900 N   0  0  0  0  0
   55.7160   44.3700   10.4160 N   0  0  0  0  0
   54.6720   44.8710   11.2940 C   0  0  0  0  0
   54.1280   46.2230   10.8550 C   0  0  0  0  0
   52.9230   46.4550   10.9170 O   0  0  0  0  0
   55.1860   44.9370   12.7390 C   0  0  0  0  0
   55.5740   43.5640   13.3170 C   0  0  0  0  0
   56.0770   43.7290   14.7330 C   0  0  0  0  0
   54.3690   42.6100   13.2870 C   0  0  0  0  0
   55.0070   47.1060   10.3900 N   0  0  0  0  0
   54.5900   48.4410    9.9550 C   0  0  0  0  0
   53.7900   48.4500    8.6510 C   0  0  0  0  0
   52.8920   49.2710    8.4680 O   0  0  0  0  0
   55.8190   49.3450    9.8050 C   0  0  0  0  0
   56.4790   49.7810   11.1140 C   0  0  0  0  0
   57.8330   50.4240   10.8370 C   0  0  0  0  0
   55.5530   50.7450   11.8390 C   0  0  0  0  0
   54.1260   47.5310    7.7530 N   0  0  0  0  0
   53.4680   47.4250    6.4580 C   0  0  0  0  0
   52.0390   46.9140    6.5370 C   0  0  0  0  0
   51.1560   47.4480    5.8710 O   0  0  0  0  0
   54.3060   46.5260    5.5370 C   0  0  0  0  0
   53.6070   46.0080    4.2740 C   0  0  0  0  0
   52.8030   44.7280    4.5060 C   0  0  0  0  0
   53.1470   43.9040    5.3630 O   0  0  0  0  0
   51.7380   44.5470    3.7220 N   0  0  0  0  0
   51.8140   45.8920    7.3560 N   0  0  0  0  0
   50.4890   45.2880    7.5090 C   0  0  0  0  0
   49.3900   46.2660    7.9530 C   0  0  0  0  0
   49.0120   46.2460    9.1430 O   0  0  0  0  0
   50.5630   44.1030    8.4860 C   0  0  0  0  0
   49.2420   43.3540    8.5960 C   0  0  0  0  0
   48.6440   43.0550    7.5380 O   0  0  0  0  0
   48.8040   43.0600    9.7310 O   0  0  0  0  0
   48.9080   47.0520    7.1110 O   0  0  0  0  0
   67.0582   43.1204    6.5428 H   0  0  0  0  0
   67.5682   44.6828    6.2677 H   0  0  0  0  0
   68.6869   43.4622    6.4557 H   0  0  0  0  0
   68.0416   43.1260    8.7291 H   0  0  0  0  0
   69.8493   44.6271    8.3871 H   0  0  0  0  0
   68.7120   45.4244    9.5845 H   0  0  0  0  0
   67.8876   46.8552    7.8358 H   0  0  0  0  0
   68.9809   46.0617    6.6458 H   0  0  0  0  0
   70.9073   46.7904    8.0359 H   0  0  0  0  0
   69.7477   47.7264    9.0545 H   0  0  0  0  0
   70.2120   48.0909    6.0874 H   0  0  0  0  0
   70.8554   49.1513    7.4137 H   0  0  0  0  0
   68.9100   50.0750    6.3759 H   0  0  0  0  0
   68.0176   48.7190    6.7522 H   0  0  0  0  0
   68.6081   49.6921    7.9693 H   0  0  0  0  0
   67.0342   44.1764   10.6307 H   0  0  0  0  0
   65.0791   44.5599   11.7376 H   0  0  0  0  0
   64.2623   46.7107   11.5545 H   0  0  0  0  0
   64.4263   46.7090    9.7325 H   0  0  0  0  0
   66.1220   48.7988    9.3368 H   0  0  0  0  0
   69.1062   47.6128   12.1405 H   0  0  0  0  0
   64.7105   42.4566   10.0895 H   0  0  0  0  0
   62.6577   42.6454    8.2106 H   0  0  0  0  0
   62.2212   40.1668    8.9073 H   0  0  0  0  0
   63.6211   40.4522   10.0613 H   0  0  0  0  0
   65.0975   40.7823    8.2588 H   0  0  0  0  0
   63.7540   40.7615    7.0705 H   0  0  0  0  0
   63.2683   38.4103    7.8595 H   0  0  0  0  0
   64.8454   38.4815    8.7254 H   0  0  0  0  0
   66.0141   38.8325    6.6594 H   0  0  0  0  0
   64.4562   38.9228    5.7569 H   0  0  0  0  0
   65.5063   36.7779    5.5301 H   0  0  0  0  0
   65.5007   36.5567    7.1817 H   0  0  0  0  0
   64.0607   36.6402    6.3474 H   0  0  0  0  0
   62.2186   41.5846   11.5913 H   0  0  0  0  0
   59.4459   41.2664   11.4874 H   0  0  0  0  0
   61.1446   42.2495   13.8453 H   0  0  0  0  0
   61.8668   40.1536   12.6509 H   0  0  0  0  0
   60.2736   39.4344   13.2051 H   0  0  0  0  0
   58.7505   42.5819   14.2236 H   0  0  0  0  0
   58.4384   40.8818   13.7955 H   0  0  0  0  0
   59.3888   41.2738   15.2495 H   0  0  0  0  0
   62.5059   40.4539   14.9657 H   0  0  0  0  0
   60.9587   39.7555   15.5039 H   0  0  0  0  0
   62.1345   38.7455   14.6273 H   0  0  0  0  0
   61.2095   44.1972   12.5745 H   0  0  0  0  0
   58.9530   45.7486   13.1381 H   0  0  0  0  0
   61.5255   46.6964   11.8667 H   0  0  0  0  0
   61.2477   46.3669   13.6688 H   0  0  0  0  0
   59.9993   48.5444   11.9932 H   0  0  0  0  0
   58.5240   47.6775   13.7391 H   0  0  0  0  0
   59.8225   47.8740   14.9418 H   0  0  0  0  0
   59.1173   49.3052   14.1510 H   0  0  0  0  0
   62.0922   48.6148   14.1971 H   0  0  0  0  0
   62.3796   48.9367   12.4694 H   0  0  0  0  0
   61.3498   50.0350   13.4204 H   0  0  0  0  0
   60.6372   45.4706    9.9757 H   0  0  0  0  0
   59.0121   47.3508    8.6371 H   0  0  0  0  0
   59.5431   45.7882    6.5806 H   0  0  0  0  0
   60.6699   45.0084    7.7957 H   0  0  0  0  0
   60.4071   48.2054    5.5784 H   0  0  0  0  0
   64.0739   48.3348    7.7487 H   0  0  0  0  0
   58.6558   43.7999    8.9101 H   0  0  0  0  0
   56.3475   43.5424    7.3054 H   0  0  0  0  0
   55.9110   41.4813    8.6992 H   0  0  0  0  0
   57.3332   41.9919    9.7137 H   0  0  0  0  0
   58.6778   41.9395    7.6426 H   0  0  0  0  0
   57.2653   41.1559    6.8356 H   0  0  0  0  0
   57.3624   39.3855    8.5665 H   0  0  0  0  0
   58.8699   40.1229    9.1745 H   0  0  0  0  0
   58.9747   39.6420    6.3265 H   0  0  0  0  0
   59.2758   38.1015    9.4857 H   0  0  0  0  0
   60.9066   36.7547    6.6535 H   0  0  0  0  0
   60.3058   37.9999    5.5535 H   0  0  0  0  0
   56.6761   44.3154   10.7562 H   0  0  0  0  0
   53.8398   44.1695   11.2358 H   0  0  0  0  0
   54.3801   45.3356   13.3552 H   0  0  0  0  0
   56.0822   45.5574   12.7396 H   0  0  0  0  0
   56.3677   43.1346   12.7056 H   0  0  0  0  0
   56.9505   44.3810   14.7333 H   0  0  0  0  0
   55.2921   44.1707   15.3469 H   0  0  0  0  0
   56.3499   42.7538   15.1362 H   0  0  0  0  0
   53.5592   43.0308   13.8830 H   0  0  0  0  0
   54.0350   42.4809   12.2575 H   0  0  0  0  0
   54.6614   41.6443   13.6993 H   0  0  0  0  0
   55.9923   46.8481   10.3351 H   0  0  0  0  0
   53.9215   48.8158   10.7300 H   0  0  0  0  0
   55.4769   50.2548    9.3117 H   0  0  0  0  0
   56.5646   48.7672    9.2587 H   0  0  0  0  0
   56.6509   48.9107   11.7473 H   0  0  0  0  0
   58.4796   49.7044   10.3348 H   0  0  0  0  0
   57.6954   51.2974   10.1996 H   0  0  0  0  0
   58.2888   50.7284   11.7792 H   0  0  0  0  0
   55.3729   51.6165   11.2096 H   0  0  0  0  0
   54.6069   50.2473   12.0519 H   0  0  0  0  0
   56.0177   51.0598   12.7734 H   0  0  0  0  0
   54.8733   46.8745    7.9788 H   0  0  0  0  0
   53.4001   48.4343    6.0520 H   0  0  0  0  0
   54.5631   45.6448    6.1248 H   0  0  0  0  0
   55.1404   47.1373    5.1932 H   0  0  0  0  0
   54.3804   45.7816    3.5400 H   0  0  0  0  0
   52.9099   46.7786    3.9450 H   0  0  0  0  0
   51.1723   43.7036    3.8169 H   0  0  0  0  0
   51.4898   45.2521    3.0280 H   0  0  0  0  0
   52.5920   45.5149    7.8973 H   0  0  0  0  0
   50.2002   44.9502    6.5137 H   0  0  0  0  0
   49.5034   45.5750    9.6224 H   0  0  0  0  0
   50.8100   44.4956    9.4724 H   0  0  0  0  0
   51.3142   43.4066    8.1134 H   0  0  0  0  0
   49.4128   43.3804   10.4006 H   0  0  0  0  0
  1  2  1  0  0  0
  2  3  1  0  0  0
  2  5  1  0  0  0
  3  4  2  0  0  0
  3 10  1  0  0  0
  5  6  1  0  0  0
  6  7  1  0  0  0
  7  8  1  0  0  0
  8  9  1  0  0  0
 10 11  1  0  0  0
 11 12  1  0  0  0
 11 14  1  0  0  0
 12 13  2  0  0  0
 12 20  1  0  0  0
 14 15  1  0  0  0
 15 16  4  0  0  0
 15 17  4  0  0  0
 16 18  4  0  0  0
 17 19  4  0  0  0
 18 19  4  0  0  0
 20 21  1  0  0  0
 21 22  1  0  0  0
 21 24  1  0  0  0
 22 23  2  0  0  0
 22 29  1  0  0  0
 24 25  1  0  0  0
 25 26  1  0  0  0
 26 27  1  0  0  0
 27 28  1  0  0  0
 29 30  1  0  0  0
 30 31  1  0  0  0
 30 33  1  0  0  0
 31 32  2  0  0  0
 31 37  1  0  0  0
 33 34  1  0  0  0
 33 35  1  0  0  0
 34 36  1  0  0  0
 37 38  1  0  0  0
 38 39  1  0  0  0
 38 41  1  0  0  0
 39 40  2  0  0  0
 39 45  1  0  0  0
 41 42  1  0  0  0
 42 43  1  0  0  0
 42 44  1  0  0  0
 45 46  1  0  0  0
 46 47  1  0  0  0
 46 49  1  0  0  0
 47 48  2  0  0  0
 47 55  1  0  0  0
 49 50  1  0  0  0
 50 51  4  0  0  0
 50 52  4  0  0  0
 51 53  4  0  0  0
 52 54  4  0  0  0
 53 54  4  0  0  0
 55 56  1  0  0  0
 56 57  1  0  0  0
 56 59  1  0  0  0
 57 58  2  0  0  0
 57 66  1  0  0  0
 59 60  1  0  0  0
 60 61  1  0  0  0
 61 62  1  0  0  0
 62 63  1  0  0  0
 63 64  2  0  0  0
 63 65  1  0  0  0
 66 67  1  0  0  0
 67 68  1  0  0  0
 67 70  1  0  0  0
 68 69  2  0  0  0
 68 74  1  0  0  0
 70 71  1  0  0  0
 71 72  1  0  0  0
 71 73  1  0  0  0
 74 75  1  0  0  0
 75 76  1  0  0  0
 75 78  1  0  0  0
 76 77  2  0  0  0
 76 82  1  0  0  0
 78 79  1  0  0  0
 79 80  1  0  0  0
 79 81  1  0  0  0
 82 83  1  0  0  0
 83 84  1  0  0  0
 83 86  1  0  0  0
 84 85  2  0  0  0
 84 91  1  0  0  0
 86 87  1  0  0  0
 87 88  1  0  0  0
 88 89  2  0  0  0
 88 90  1  0  0  0
 91 92  1  0  0  0
 92 93  1  0  0  0
 92 95  1  0  0  0
 93 94  1  0  0  0
 93 99  2  0  0  0
 95 96  1  0  0  0
 96 97  2  0  0  0
 96 98  1  0  0  0
  1100  1  0  0  0
  1101  1  0  0  0
  1102  1  0  0  0
  2103  1  0  0  0
  5104  1  0  0  0
  5105  1  0  0  0
  6106  1  0  0  0
  6107  1  0  0  0
  7108  1  0  0  0
  7109  1  0  0  0
  8110  1  0  0  0
  8111  1  0  0  0
  9112  1  0  0  0
  9113  1  0  0  0
  9114  1  0  0  0
 10115  1  0  0  0
 11116  1  0  0  0
 14117  1  0  0  0
 14118  1  0  0  0
 17119  1  0  0  0
 18120  1  0  0  0
 20121  1  0  0  0
 21122  1  0  0  0
 24123  1  0  0  0
 24124  1  0  0  0
 25125  1  0  0  0
 25126  1  0  0  0
 26127  1  0  0  0
 26128  1  0  0  0
 27129  1  0  0  0
 27130  1  0  0  0
 28131  1  0  0  0
 28132  1  0  0  0
 28133  1  0  0  0
 29134  1  0  0  0
 30135  1  0  0  0
 33136  1  0  0  0
 34137  1  0  0  0
 34138  1  0  0  0
 35139  1  0  0  0
 35140  1  0  0  0
 35141  1  0  0  0
 36142  1  0  0  0
 36143  1  0  0  0
 36144  1  0  0  0
 37145  1  0  0  0
 38146  1  0  0  0
 41147  1  0  0  0
 41148  1  0  0  0
 42149  1  0  0  0
 43150  1  0  0  0
 43151  1  0  0  0
 43152  1  0  0  0
 44153  1  0  0  0
 44154  1  0  0  0
 44155  1  0  0  0
 45156  1  0  0  0
 46157  1  0  0  0
 49158  1  0  0  0
 49159  1  0  0  0
 52160  1  0  0  0
 53161  1  0  0  0
 55162  1  0  0  0
 56163  1  0  0  0
 59164  1  0  0  0
 59165  1  0  0  0
 60166  1  0  0  0
 60167  1  0  0  0
 61168  1  0  0  0
 61169  1  0  0  0
 62170  1  0  0  0
 64171  1  0  0  0
 65172  1  0  0  0
 65173  1  0  0  0
 66174  1  0  0  0
 67175  1  0  0  0
 70176  1  0  0  0
 70177  1  0  0  0
 71178  1  0  0  0
 72179  1  0  0  0
 72180  1  0  0  0
 72181  1  0  0  0
 73182  1  0  0  0
 73183  1  0  0  0
 73184  1  0  0  0
 74185  1  0  0  0
 75186  1  0  0  0
 78187  1  0  0  0
 78188  1  0  0  0
 79189  1  0  0  0
 80190  1  0  0  0
 80191  1  0  0  0
 80192  1  0  0  0
 81193  1  0  0  0
 81194  1  0  0  0
 81195  1  0  0  0
 82196  1  0  0  0
 83197  1  0  0  0
 86198  1  0  0  0
 86199  1  0  0  0
 87200  1  0  0  0
 87201  1  0  0  0
 90202  1  0  0  0
 90203  1  0  0  0
 91204  1  0  0  0
 92205  1  0  0  0
 94206  1  0  0  0
 95207  1  0  0  0
 95208  1  0  0  0
 98209  1  0  0  0
M  END
$$$$
