5wi1_ligand
  -I-interpret- 

 28 29  0  0  0  0  0  0  0  0999 V2000
   15.8800    8.6010    4.9310 N   0  0  0  0  0
   15.5670    6.9100    0.1920 C   0  0  0  0  0
   16.8970    7.0970    0.8930 C   0  0  0  0  0
   16.6890    7.4330    2.3530 C   0  0  0  0  0
   15.4360    8.9330    6.2330 C   0  0  0  0  0
   14.2920    9.7140    6.4120 C   0  0  0  0  0
   14.5740    9.5920    8.7990 C   0  0  0  0  0
   15.5440    8.3940    2.5650 C   0  0  0  0  0
   15.2790    8.9380    3.7980 C   0  0  0  0  0
   14.5600    8.6950    1.5250 C   0  0  0  0  0
   14.5820    7.9760    0.3830 O   0  0  0  0  0
   13.7050    9.5430    1.6190 O   0  0  0  0  0
   13.8690   10.0410    7.6930 C   0  0  0  0  0
   15.7210    8.8320    8.6230 C   0  0  0  0  0
   16.1510    8.4940    7.3450 C   0  0  0  0  0
   15.1247    6.0071    0.6129 H   0  0  0  0  0
   15.7858    6.8847   -0.8755 H   0  0  0  0  0
   17.4347    7.9164    0.4159 H   0  0  0  0  0
   17.4661    6.1700    0.8223 H   0  0  0  0  0
   17.5988    7.9055    2.7232 H   0  0  0  0  0
   16.4559    6.5088    2.8818 H   0  0  0  0  0
   13.7316   10.0666    5.5461 H   0  0  0  0  0
   14.2281    9.8354    9.8036 H   0  0  0  0  0
   16.5026    8.7045    2.1494 H   0  0  0  0  0
   14.5115    9.7103    3.8494 H   0  0  0  0  0
   12.9781   10.6539    7.8300 H   0  0  0  0  0
   16.2883    8.4979    9.4917 H   0  0  0  0  0
   17.0463    7.8864    7.2132 H   0  0  0  0  0
  1  5  1  0  0  0
  9  1  2  0  0  0
  3  2  1  0  0  0
  2 11  1  0  0  0
  4  3  1  0  0  0
  8  4  1  0  0  0
  5  6  4  0  0  0
  5 15  4  0  0  0
  6 13  4  0  0  0
 13  7  4  0  0  0
  7 14  4  0  0  0
  8  9  1  0  0  0
  8 10  1  0  0  0
 10 11  1  0  0  0
 10 12  2  0  0  0
 14 15  4  0  0  0
  2 16  1  0  0  0
  2 17  1  0  0  0
  3 18  1  0  0  0
  3 19  1  0  0  0
  4 20  1  0  0  0
  4 21  1  0  0  0
  6 22  1  0  0  0
  7 23  1  0  0  0
  8 24  1  0  0  0
  9 25  1  0  0  0
 13 26  1  0  0  0
 14 27  1  0  0  0
 15 28  1  0  0  0
M  END
$$$$
