5nf6_ligand
  -I-interpret- 

 23 24  0  0  0  0  0  0  0  0999 V2000
   19.8260   -7.4290  104.0380 C   0  0  0  0  0
   21.5590   -6.8100  105.5830 C   0  0  0  0  0
   19.5310   -5.5640  106.6740 C   0  0  0  0  0
   20.2290   -6.8680  106.3940 C   0  0  0  0  0
   19.2220   -7.5060  105.4490 C   0  0  0  0  0
   20.2010   -4.4540  107.4770 C   0  0  0  0  0
   22.6700   -7.6900  106.2090 C   0  0  0  0  0
   18.0500   -6.6950  105.5020 O   0  0  0  0  0
   21.1710   -4.7430  108.2100 O   0  0  0  0  0
   22.7540   -7.7660  107.4500 O   0  0  0  0  0
   23.4730   -8.2960  105.4640 O   0  0  0  0  0
   21.2760   -7.3580  104.2450 N   0  3  0  0  0
   18.3620   -5.4930  106.1830 N   0  0  0  0  0
   19.7420   -3.2940  107.3650 O   0  0  0  0  0
   19.4551   -6.5641  103.4880 H   0  0  0  0  0
   19.5475   -8.2921  103.4333 H   0  0  0  0  0
   21.9060   -5.7769  105.5659 H   0  0  0  0  0
   20.4977   -7.3454  107.3363 H   0  0  0  0  0
   18.9899   -8.5391  105.7075 H   0  0  0  0  0
   23.2526   -8.1189  104.5466 H   0  0  0  0  0
   21.6899   -6.7521  103.5365 H   0  0  0  0  0
   21.6748   -8.2939  104.1712 H   0  0  0  0  0
   19.0020   -3.3015  106.7535 H   0  0  0  0  0
  1  5  1  0  0  0
 12  1  1  0  0  0
  2  4  1  0  0  0
  2  7  1  0  0  0
  2 12  1  0  0  0
  4  3  1  0  0  0
  3  6  1  0  0  0
  3 13  2  0  0  0
  4  5  1  0  0  0
  5  8  1  0  0  0
  6  9  2  0  0  0
  6 14  1  0  0  0
  7 10  2  0  0  0
  7 11  1  0  0  0
  8 13  1  0  0  0
  1 15  1  0  0  0
  1 16  1  0  0  0
  2 17  1  0  0  0
  4 18  1  0  0  0
  5 19  1  0  0  0
 11 20  1  0  0  0
 12 21  1  0  0  0
 12 22  1  0  0  0
 14 23  1  0  0  0
M  END
$$$$
