4zz3_ligand
  -I-interpret- 

 50 52  0  0  0  0  0  0  0  0999 V2000
   62.1970   48.2070   18.6850 C   0  0  0  0  0
   61.0110   48.9110   18.8520 C   0  0  0  0  0
   59.8670   48.5330   18.1590 C   0  0  0  0  0
   59.9370   47.4440   17.3000 C   0  0  0  0  0
   61.1170   46.7320   17.1240 C   0  0  0  0  0
   62.2570   47.1190   17.8210 C   0  0  0  0  0
   63.4070   48.6700   19.4680 C   0  0  0  0  0
   63.4080   48.5630   20.9790 C   0  0  0  0  0
   62.3130   47.6790   21.5400 C   0  0  0  0  0
   62.1410   46.3270   21.2800 C   0  0  0  0  0
   61.0620   45.9180   21.9630 N   0  0  0  0  0
   60.5400   46.9450   22.6480 C   0  0  0  0  0
   61.3020   48.0750   22.4060 C   0  0  0  0  0
   60.9450   49.2670   23.0190 C   0  0  0  0  0
   61.5940   50.2830   22.8290 O   0  0  0  0  0
   59.8750   49.3020   23.8250 N   0  0  0  0  0
   59.1520   48.1920   24.0430 C   0  0  0  0  0
   59.4800   47.0270   23.4620 N   0  0  0  0  0
   58.0210   48.2330   24.8980 N   0  0  0  0  0
   58.6530   47.0500   16.5490 C   0  0  0  0  0
   57.6690   47.7540   16.6490 O   0  0  0  0  0
   58.6620   45.8700   15.7620 N   0  0  0  0  0
   57.4700   45.5120   15.0800 C   0  0  0  0  0
   57.7440   44.9000   13.7220 C   0  0  0  0  0
   59.0230   44.1090   13.5680 C   0  0  0  0  0
   59.1360   43.1580   12.3960 C   0  0  0  0  0
   58.2000   43.0850   11.5580 O   0  0  0  0  0
   60.1640   42.4430   12.2640 O   0  0  0  0  0
   56.7810   44.4820   15.9500 C   0  0  0  0  0
   56.2460   44.8720   17.0220 O   0  0  0  0  0
   56.7480   43.2710   15.6070 O   0  0  0  0  0
   60.9775   49.7640   19.5298 H   0  0  0  0  0
   58.9333   49.0805   18.2872 H   0  0  0  0  0
   61.1492   45.8787   16.4466 H   0  0  0  0  0
   63.1913   46.5729   17.6907 H   0  0  0  0  0
   63.4718   49.7395   19.2677 H   0  0  0  0  0
   64.2127   48.0109   19.1448 H   0  0  0  0  0
   63.2444   49.5663   21.3724 H   0  0  0  0  0
   64.3601   48.1188   21.2692 H   0  0  0  0  0
   62.7688   45.7097   20.6374 H   0  0  0  0  0
   58.9163   46.1963   23.6424 H   0  0  0  0  0
   57.7545   49.1079   25.3496 H   0  0  0  0  0
   59.5013   45.2951   15.6883 H   0  0  0  0  0
   56.8646   46.4024   14.9104 H   0  0  0  0  0
   57.8287   45.7383   13.0305 H   0  0  0  0  0
   56.9343   44.1916   13.5472 H   0  0  0  0  0
   59.0819   43.4802   14.4564 H   0  0  0  0  0
   59.8049   44.8524   13.4126 H   0  0  0  0  0
   60.7724   42.6232   12.9844 H   0  0  0  0  0
   56.3714   45.8192   17.1148 H   0  0  0  0  0
  1  2  4  0  0  0
  1  6  4  0  0  0
  1  7  1  0  0  0
  2  3  4  0  0  0
  3  4  4  0  0  0
  4  5  4  0  0  0
  4 20  1  0  0  0
  5  6  4  0  0  0
  7  8  1  0  0  0
  8  9  1  0  0  0
  9 10  4  0  0  0
  9 13  4  0  0  0
 10 11  4  0  0  0
 11 12  4  0  0  0
 12 13  4  0  0  0
 12 18  1  0  0  0
 13 14  1  0  0  0
 14 15  2  0  0  0
 14 16  1  0  0  0
 16 17  4  0  0  0
 17 18  1  0  0  0
 17 19  2  0  0  0
 20 21  2  0  0  0
 20 22  1  0  0  0
 22 23  1  0  0  0
 23 24  1  0  0  0
 23 29  1  0  0  0
 24 25  1  0  0  0
 25 26  1  0  0  0
 26 27  2  0  0  0
 26 28  1  0  0  0
 29 30  1  0  0  0
 29 31  2  0  0  0
  2 32  1  0  0  0
  3 33  1  0  0  0
  5 34  1  0  0  0
  6 35  1  0  0  0
  7 36  1  0  0  0
  7 37  1  0  0  0
  8 38  1  0  0  0
  8 39  1  0  0  0
 10 40  1  0  0  0
 18 41  1  0  0  0
 19 42  1  0  0  0
 22 43  1  0  0  0
 23 44  1  0  0  0
 24 45  1  0  0  0
 24 46  1  0  0  0
 25 47  1  0  0  0
 25 48  1  0  0  0
 28 49  1  0  0  0
 30 50  1  0  0  0
M  END
$$$$
