5ekn_ligand
  -I-interpret- 

 50 52  0  0  0  0  0  0  0  0999 V2000
  -13.2500   12.0370  -26.3670 O   0  0  0  0  0
  -14.3090   11.4290  -26.4540 C   0  0  0  0  0
  -15.2570   11.6730  -25.3710 N   0  0  0  0  0
  -15.0510   12.5400  -24.2230 C   0  0  0  0  0
  -14.5850   13.8720  -24.1110 C   0  0  0  0  0
  -14.5630   14.2590  -22.7280 C   0  0  0  0  0
  -14.1360   15.6140  -22.1310 C   0  0  0  0  0
  -12.7110   15.9940  -22.5520 C   0  0  0  0  0
  -14.1330   15.6130  -20.5930 C   0  0  0  0  0
  -15.0390   16.7750  -22.5760 C   0  0  0  0  0
  -15.0130   13.1830  -21.9990 N   0  0  0  0  0
  -15.3000   12.1690  -22.8950 N   0  0  0  0  0
  -15.8120   10.8440  -22.4810 C   0  0  0  0  0
  -14.5300   10.5440  -27.5880 N   0  0  0  0  0
  -13.6310   10.2480  -28.7210 C   0  0  0  0  0
  -12.2370   10.4220  -28.6940 C   0  0  0  0  0
  -11.3830   10.1360  -29.7750 C   0  0  0  0  0
  -11.8480    9.6360  -30.9800 C   0  0  0  0  0
  -13.2240    9.4510  -31.0580 C   0  0  0  0  0
  -14.0790    9.7370  -29.9760 C   0  0  0  0  0
  -10.7690    9.2870  -32.3600 S   0  0  0  0  0
  -10.5460   10.7720  -33.3400 C   0  0  0  0  0
   -9.6480   10.8260  -34.4060 C   0  0  0  0  0
   -9.5250   12.0270  -35.1260 C   0  0  0  0  0
  -10.2340   13.1460  -34.8420 N   0  0  0  0  0
  -11.0980   13.0750  -33.8040 C   0  0  0  0  0
  -11.2840   11.9190  -33.0350 C   0  0  0  0  0
  -16.1522   11.1871  -25.4254 H   0  0  0  0  0
  -14.2884   14.5066  -24.9461 H   0  0  0  0  0
  -12.4672   16.9799  -22.1561 H   0  0  0  0  0
  -12.0090   15.2591  -22.1581 H   0  0  0  0  0
  -12.6476   16.0122  -23.6400 H   0  0  0  0  0
  -13.4064   14.8847  -20.2328 H   0  0  0  0  0
  -13.8647   16.6054  -20.2308 H   0  0  0  0  0
  -15.1258   15.3482  -20.2292 H   0  0  0  0  0
  -14.7164   17.6932  -22.0852 H   0  0  0  0  0
  -14.9680   16.8951  -23.6570 H   0  0  0  0  0
  -16.0709   16.5573  -22.3003 H   0  0  0  0  0
  -16.7833   10.6703  -22.9442 H   0  0  0  0  0
  -15.1130   10.0703  -22.7986 H   0  0  0  0  0
  -15.9156   10.8187  -21.3962 H   0  0  0  0  0
  -15.4290   10.0623  -27.6019 H   0  0  0  0  0
  -11.7883   10.8030  -27.7766 H   0  0  0  0  0
  -10.3140   10.3149  -29.6596 H   0  0  0  0  0
  -13.6542    9.0729  -31.9854 H   0  0  0  0  0
  -15.1464    9.5574  -30.1048 H   0  0  0  0  0
   -9.0529    9.9535  -34.6756 H   0  0  0  0  0
   -8.8212   12.0598  -35.9577 H   0  0  0  0  0
  -11.6791   13.9623  -33.5530 H   0  0  0  0  0
  -11.9954   11.9141  -32.2091 H   0  0  0  0  0
  1  2  2  0  0  0
  2  3  1  0  0  0
  2 14  1  0  0  0
  3  4  1  0  0  0
  4  5  4  0  0  0
  4 12  4  0  0  0
  5  6  4  0  0  0
  6  7  1  0  0  0
  6 11  4  0  0  0
  7  8  1  0  0  0
  7  9  1  0  0  0
  7 10  1  0  0  0
 11 12  4  0  0  0
 12 13  1  0  0  0
 14 15  1  0  0  0
 15 16  4  0  0  0
 15 20  4  0  0  0
 16 17  4  0  0  0
 17 18  4  0  0  0
 18 19  4  0  0  0
 18 21  1  0  0  0
 19 20  4  0  0  0
 21 22  1  0  0  0
 22 23  4  0  0  0
 22 27  4  0  0  0
 23 24  4  0  0  0
 24 25  4  0  0  0
 25 26  4  0  0  0
 26 27  4  0  0  0
  3 28  1  0  0  0
  5 29  1  0  0  0
  8 30  1  0  0  0
  8 31  1  0  0  0
  8 32  1  0  0  0
  9 33  1  0  0  0
  9 34  1  0  0  0
  9 35  1  0  0  0
 10 36  1  0  0  0
 10 37  1  0  0  0
 10 38  1  0  0  0
 13 39  1  0  0  0
 13 40  1  0  0  0
 13 41  1  0  0  0
 14 42  1  0  0  0
 16 43  1  0  0  0
 17 44  1  0  0  0
 19 45  1  0  0  0
 20 46  1  0  0  0
 23 47  1  0  0  0
 24 48  1  0  0  0
 26 49  1  0  0  0
 27 50  1  0  0  0
M  END
$$$$
