1sb1_ligand
  -I-interpret- 

 78 82  0  0  0  0  0  0  0  0999 V2000
   10.2600  -13.7020   15.0490 N   0  0  0  0  0
   10.5710  -12.3900   15.6190 C   0  0  0  0  0
    9.5900  -12.6210   16.8250 C   0  0  0  0  0
    8.4750  -13.4070   16.2010 C   0  0  0  0  0
    9.3230  -14.5840   15.7800 C   0  0  0  0  0
   11.9710  -12.1810   16.1990 C   0  0  0  0  0
   12.0720  -11.4380   17.1950 O   0  0  0  0  0
   13.0980  -12.8640   15.5190 N   0  0  0  0  0
   14.4890  -12.6600   16.0300 C   0  0  0  0  0
   14.9880  -11.3300   15.3740 C   0  0  0  0  0
   15.8590  -11.4800   14.1330 C   0  0  0  0  0
   16.2950  -10.0690   13.2480 S   0  0  0  0  0
   17.1920  -11.1080   12.0590 C   0  0  0  0  0
   17.8310  -10.5530   10.9810 N   0  0  0  0  0
   17.1310  -12.3740   12.3690 N   0  0  0  0  0
   16.3400  -12.6680   13.5960 C   0  0  0  0  0
   16.0970  -14.0550   14.1900 C   0  0  0  0  0
   15.3730  -14.0020   15.6670 C   0  0  0  0  0
   10.7970  -14.1300   13.6970 C   0  0  0  0  0
   11.5270  -13.3320   13.0290 O   0  0  0  0  0
   10.3460  -15.5480   13.1120 C   0  0  0  0  0
   11.3260  -16.4730   13.9990 N   0  0  0  0  0
   13.0050  -16.7040   13.7760 S   0  0  0  0  0
   13.7590  -16.6480   12.5800 O   0  0  0  0  0
   13.5390  -17.4550   14.8680 O   0  0  0  0  0
   12.2270  -18.2760   13.0680 C   0  0  0  0  0
   13.1590  -19.2610   12.3180 C   0  0  0  0  0
   12.9240  -19.3990   10.8450 C   0  0  0  0  0
   13.7790  -20.2810   10.0350 C   0  0  0  0  0
   14.8920  -21.0430   10.6850 C   0  0  0  0  0
   15.1210  -20.9160   12.1410 C   0  0  0  0  0
   14.2450  -20.0120   12.9740 C   0  0  0  0  0
   10.6100  -15.6370   11.5500 C   0  0  0  0  0
    9.1870  -14.7650   11.1570 C   0  0  0  0  0
    7.7460  -15.5260   11.5660 C   0  0  0  0  0
    6.4220  -14.6620   11.2240 C   0  0  0  0  0
    6.4480  -14.0050    9.7640 C   0  0  0  0  0
    7.8460  -13.3470    9.3730 C   0  0  0  0  0
    9.0690  -14.3320    9.6570 C   0  0  0  0  0
   10.4987  -11.5552   14.9219 H   0  0  0  0  0
    9.2502  -11.6904   17.2796 H   0  0  0  0  0
   10.0596  -13.1407   17.6602 H   0  0  0  0  0
    7.9092  -12.9085   15.4139 H   0  0  0  0  0
    7.6187  -13.6273   16.8384 H   0  0  0  0  0
    9.7148  -15.2546   16.5448 H   0  0  0  0  0
    8.8530  -15.4123   15.2498 H   0  0  0  0  0
   12.9269  -13.4653   14.7130 H   0  0  0  0  0
   14.5710  -12.5488   17.1112 H   0  0  0  0  0
   15.6059  -10.8338   16.1223 H   0  0  0  0  0
   14.0945  -10.7924   15.0565 H   0  0  0  0  0
   17.8068   -9.5434   10.8380 H   0  0  0  0  0
   18.3308  -11.1496   10.3217 H   0  0  0  0  0
   17.0659  -14.5393   14.3116 H   0  0  0  0  0
   15.4343  -14.5951   13.5138 H   0  0  0  0  0
   14.6663  -14.8318   15.6783 H   0  0  0  0  0
   16.1850  -14.0250   16.3938 H   0  0  0  0  0
    9.2891  -15.8057   13.1808 H   0  0  0  0  0
   10.8973  -16.9742   14.7771 H   0  0  0  0  0
   11.5024  -17.9368   12.3278 H   0  0  0  0  0
   11.8477  -18.8283   13.9278 H   0  0  0  0  0
   12.1153  -18.8430   10.3707 H   0  0  0  0  0
   13.6025  -20.3795    8.9639 H   0  0  0  0  0
   15.5326  -21.6904   10.0862 H   0  0  0  0  0
   15.9261  -21.4779   12.6145 H   0  0  0  0  0
   14.4131  -19.9157   14.0466 H   0  0  0  0  0
   10.7450  -16.6242   11.1081 H   0  0  0  0  0
   11.5610  -15.2653   11.1686 H   0  0  0  0  0
    9.3198  -13.8823   11.7825 H   0  0  0  0  0
    7.7590  -15.6825   12.6446 H   0  0  0  0  0
    7.6903  -16.4454   10.9832 H   0  0  0  0  0
    6.3649  -13.8493   11.9481 H   0  0  0  0  0
    5.5692  -15.3397   11.2633 H   0  0  0  0  0
    5.7027  -13.2097    9.7544 H   0  0  0  0  0
    6.2549  -14.8031    9.0472 H   0  0  0  0  0
    7.9823  -12.4505    9.9778 H   0  0  0  0  0
    7.8304  -13.1207    8.3069 H   0  0  0  0  0
    8.9066  -15.2343    9.0674 H   0  0  0  0  0
    9.9846  -13.8011    9.3963 H   0  0  0  0  0
  1  2  1  0  0  0
  1  5  1  0  0  0
  1 19  1  0  0  0
  2  3  1  0  0  0
  2  6  1  0  0  0
  3  4  1  0  0  0
  5  4  1  0  0  0
  6  7  2  0  0  0
  6  8  1  0  0  0
  8  9  1  0  0  0
  9 10  1  0  0  0
  9 18  1  0  0  0
 10 11  1  0  0  0
 11 12  4  0  0  0
 11 16  4  0  0  0
 12 13  4  0  0  0
 13 14  1  0  0  0
 13 15  4  0  0  0
 16 15  4  0  0  0
 16 17  1  0  0  0
 18 17  1  0  0  0
 19 20  2  0  0  0
 19 21  1  0  0  0
 21 22  1  0  0  0
 21 33  1  0  0  0
 22 23  1  0  0  0
 23 24  2  0  0  0
 23 25  2  0  0  0
 23 26  1  0  0  0
 26 27  1  0  0  0
 27 28  4  0  0  0
 27 32  4  0  0  0
 28 29  4  0  0  0
 29 30  4  0  0  0
 30 31  4  0  0  0
 32 31  4  0  0  0
 33 34  1  0  0  0
 34 35  1  0  0  0
 34 39  1  0  0  0
 35 36  1  0  0  0
 36 37  1  0  0  0
 37 38  1  0  0  0
 38 39  1  0  0  0
  2 40  1  0  0  0
  3 41  1  0  0  0
  3 42  1  0  0  0
  4 43  1  0  0  0
  4 44  1  0  0  0
  5 45  1  0  0  0
  5 46  1  0  0  0
  8 47  1  0  0  0
  9 48  1  0  0  0
 10 49  1  0  0  0
 10 50  1  0  0  0
 14 51  1  0  0  0
 14 52  1  0  0  0
 17 53  1  0  0  0
 17 54  1  0  0  0
 18 55  1  0  0  0
 18 56  1  0  0  0
 21 57  1  0  0  0
 22 58  1  0  0  0
 26 59  1  0  0  0
 26 60  1  0  0  0
 28 61  1  0  0  0
 29 62  1  0  0  0
 30 63  1  0  0  0
 31 64  1  0  0  0
 32 65  1  0  0  0
 33 66  1  0  0  0
 33 67  1  0  0  0
 34 68  1  0  0  0
 35 69  1  0  0  0
 35 70  1  0  0  0
 36 71  1  0  0  0
 36 72  1  0  0  0
 37 73  1  0  0  0
 37 74  1  0  0  0
 38 75  1  0  0  0
 38 76  1  0  0  0
 39 77  1  0  0  0
 39 78  1  0  0  0
M  END
$$$$
