5ory_ligand
  -I-interpret- 

 19 20  0  0  0  0  0  0  0  0999 V2000
  -11.6840   11.2840  -15.1560 N   0  0  0  0  0
  -11.4420   14.1710  -17.3760 C   0  0  0  0  0
  -12.2300   15.3050  -17.5340 C   0  0  0  0  0
  -11.8920   16.2540  -18.4710 C   0  0  0  0  0
  -10.7730   16.1200  -19.2800 C   0  0  0  0  0
   -9.9970   15.0040  -19.1230 C   0  0  0  0  0
  -12.8690   13.1410  -15.4970 C   0  0  0  0  0
  -12.7530   11.9700  -14.7700 C   0  0  0  0  0
  -11.1150   12.0280  -16.1390 N   0  0  0  0  0
  -11.8110   13.1620  -16.3710 C   0  0  0  0  0
  -10.3060   14.0270  -18.1900 C   0  0  0  0  0
   -9.4950   12.9400  -18.0830 O   0  0  0  0  0
   -8.8940   14.8480  -19.9040 F   0  0  0  0  0
  -12.6710   17.3520  -18.6130 F   0  0  0  0  0
  -13.1166   15.4426  -16.9150 H   0  0  0  0  0
  -10.5196   16.8807  -20.0184 H   0  0  0  0  0
  -13.6470   13.8977  -15.3958 H   0  0  0  0  0
  -13.4438   11.6541  -13.9883 H   0  0  0  0  0
   -8.7759   13.0152  -18.7146 H   0  0  0  0  0
  8  1  4  0  0  0
  1  9  4  0  0  0
  2  3  4  0  0  0
 10  2  1  0  0  0
  2 11  4  0  0  0
  3  4  4  0  0  0
  4  5  4  0  0  0
  4 14  1  0  0  0
  6  5  4  0  0  0
 11  6  4  0  0  0
  6 13  1  0  0  0
  7  8  4  0  0  0
  7 10  4  0  0  0
  9 10  4  0  0  0
 11 12  1  0  0  0
  3 15  1  0  0  0
  5 16  1  0  0  0
  7 17  1  0  0  0
  8 18  1  0  0  0
 12 19  1  0  0  0
M  END
$$$$
