6n5h_ligand
  -I-interpret- 

 62 66  0  0  0  0  0  0  0  0999 V2000
   15.2980  -30.1890  -18.4640 C   0  0  0  0  0
   14.1940  -31.7370  -16.9840 C   0  0  0  0  0
   14.0680  -29.7180  -18.8970 C   0  0  0  0  0
   12.9700  -31.2680  -17.4160 C   0  0  0  0  0
   15.3520  -31.1910  -17.5070 C   0  0  0  0  0
   12.9030  -30.2620  -18.3690 C   0  0  0  0  0
   16.6850  -31.7290  -17.0110 C   0  0  0  0  0
    8.6480  -25.2230  -22.4460 C   0  0  0  0  0
   10.0810  -27.7270  -21.4330 C   0  0  0  0  0
   10.7110  -26.3050  -19.4740 C   0  0  0  0  0
   10.5780  -28.9770  -20.7010 C   0  0  0  0  0
   11.1170  -27.5490  -18.6900 C   0  0  0  0  0
    8.5900  -22.6450  -27.0490 C   0  0  0  0  0
    6.6560  -21.5640  -25.8120 C   0  0  0  0  0
    6.3950  -23.8490  -26.6550 C   0  0  0  0  0
    8.7470  -22.1030  -24.6440 C   0  0  0  0  0
    8.5960  -24.3680  -25.5420 C   0  0  0  0  0
    6.6760  -23.4040  -24.2340 C   0  0  0  0  0
    8.2130  -21.6250  -25.9470 C   0  0  0  0  0
    7.8190  -24.0150  -26.8620 C   0  0  0  0  0
    6.0770  -22.9450  -25.4720 C   0  0  0  0  0
    9.6350  -26.5830  -20.5210 C   0  0  0  0  0
   11.5890  -28.6920  -19.5790 C   0  0  0  0  0
    8.1800  -23.5060  -24.3680 C   0  0  0  0  0
    9.6380  -25.4510  -21.4180 N   0  0  0  0  0
    8.9020  -24.0240  -23.2240 N   0  0  0  0  0
   16.6940  -32.8140  -16.3780 O   0  0  0  0  0
    7.7070  -25.9430  -22.5950 O   0  0  0  0  0
   17.7550  -31.1050  -17.2360 O   0  0  0  0  0
   11.6310  -29.8400  -18.7660 O   0  0  0  0  0
   16.2185  -29.7735  -18.8740 H   0  0  0  0  0
   14.2475  -32.5299  -16.2380 H   0  0  0  0  0
   14.0150  -28.9274  -19.6455 H   0  0  0  0  0
   12.0520  -31.6898  -17.0067 H   0  0  0  0  0
    9.2086  -28.0267  -22.0137 H   0  0  0  0  0
   10.9175  -27.3529  -22.0232 H   0  0  0  0  0
   11.5950  -25.9389  -19.9961 H   0  0  0  0  0
   10.3050  -25.5838  -18.7647 H   0  0  0  0  0
   11.0838  -29.6007  -21.4380 H   0  0  0  0  0
    9.7089  -29.4451  -20.2387 H   0  0  0  0  0
   10.2396  -27.8961  -18.1443 H   0  0  0  0  0
   11.9467  -27.2728  -18.0393 H   0  0  0  0  0
    9.6605  -22.8405  -26.9861 H   0  0  0  0  0
    8.3158  -22.2244  -28.0165 H   0  0  0  0  0
    6.2359  -21.2335  -26.7619 H   0  0  0  0  0
    6.4020  -20.8717  -25.0093 H   0  0  0  0  0
    5.9689  -24.8313  -26.4507 H   0  0  0  0  0
    5.9772  -23.3891  -27.5505 H   0  0  0  0  0
    8.4515  -21.4195  -23.8480 H   0  0  0  0  0
    9.8357  -22.1427  -24.6805 H   0  0  0  0  0
    9.6570  -24.1962  -25.7230 H   0  0  0  0  0
    8.3731  -25.4049  -25.2905 H   0  0  0  0  0
    6.2773  -24.3901  -23.9959 H   0  0  0  0  0
    6.4418  -22.6895  -23.4449 H   0  0  0  0  0
    8.6207  -20.6482  -26.2072 H   0  0  0  0  0
    7.8207  -24.7322  -27.6828 H   0  0  0  0  0
    4.9983  -22.9331  -25.3159 H   0  0  0  0  0
    8.6903  -26.7892  -20.0180 H   0  0  0  0  0
   12.5513  -28.4348  -20.0216 H   0  0  0  0  0
   10.3884  -24.7672  -21.3195 H   0  0  0  0  0
    9.7020  -23.4676  -22.9225 H   0  0  0  0  0
   17.5596  -30.3040  -17.7277 H   0  0  0  0  0
  3  1  4  0  0  0
  1  5  4  0  0  0
  4  2  4  0  0  0
  2  5  4  0  0  0
  6  3  4  0  0  0
  6  4  4  0  0  0
  5  7  1  0  0  0
 30  6  1  0  0  0
  7 27  2  0  0  0
  7 29  1  0  0  0
  8 25  1  0  0  0
 26  8  1  0  0  0
  8 28  2  0  0  0
  9 11  1  0  0  0
 22  9  1  0  0  0
 10 12  1  0  0  0
 22 10  1  0  0  0
 11 23  1  0  0  0
 12 23  1  0  0  0
 19 13  1  0  0  0
 20 13  1  0  0  0
 19 14  1  0  0  0
 21 14  1  0  0  0
 20 15  1  0  0  0
 21 15  1  0  0  0
 16 19  1  0  0  0
 24 16  1  0  0  0
 17 20  1  0  0  0
 24 17  1  0  0  0
 18 21  1  0  0  0
 24 18  1  0  0  0
 25 22  1  0  0  0
 23 30  1  0  0  0
 24 26  1  0  0  0
  1 31  1  0  0  0
  2 32  1  0  0  0
  3 33  1  0  0  0
  4 34  1  0  0  0
  9 35  1  0  0  0
  9 36  1  0  0  0
 10 37  1  0  0  0
 10 38  1  0  0  0
 11 39  1  0  0  0
 11 40  1  0  0  0
 12 41  1  0  0  0
 12 42  1  0  0  0
 13 43  1  0  0  0
 13 44  1  0  0  0
 14 45  1  0  0  0
 14 46  1  0  0  0
 15 47  1  0  0  0
 15 48  1  0  0  0
 16 49  1  0  0  0
 16 50  1  0  0  0
 17 51  1  0  0  0
 17 52  1  0  0  0
 18 53  1  0  0  0
 18 54  1  0  0  0
 19 55  1  0  0  0
 20 56  1  0  0  0
 21 57  1  0  0  0
 22 58  1  0  0  0
 23 59  1  0  0  0
 25 60  1  0  0  0
 26 61  1  0  0  0
 29 62  1  0  0  0
M  END
$$$$
