3dxh_ligand
  -I-interpret- 

 39 40  0  0  0  0  0  0  0  0999 V2000
   36.4350   -2.0050   11.9870 N   0  0  0  0  0
   35.2420   -2.1710   11.3440 C   0  0  0  0  0
   34.5440   -3.3470   11.5030 N   0  0  0  0  0
   35.0230   -4.3700   12.2990 C   0  0  0  0  0
   36.2460   -4.1980   12.9610 C   0  0  0  0  0
   36.9140   -2.9780   12.8320 C   0  0  0  0  0
   34.7960   -1.2630   10.6420 O   0  0  0  0  0
   34.3380   -5.4010   12.3930 O   0  0  0  0  0
   37.1470   -0.7240   11.7560 C   0  0  0  0  0
   36.6930    0.4060   12.6710 C   0  0  0  0  0
   36.6160    1.6170   11.9210 O   0  0  0  0  0
   37.8520    0.4810   13.6240 C   0  0  0  0  0
   39.0500    0.1330   12.7350 C   0  0  0  0  0
   38.5510   -0.9050   11.9070 O   0  0  0  0  0
   37.9330    1.7410   14.2660 O   0  0  0  0  0
   40.2940   -0.3260   13.4860 C   0  0  0  0  0
   39.8840   -0.9690   14.6690 O   0  0  0  0  0
   40.1000   -0.2940   16.1200 P   0  0  0  0  0
   40.1090    1.1900   16.0240 O   0  0  0  0  0
   39.0410   -0.7110   17.0680 O   0  0  0  0  0
   41.5370   -0.8310   16.6050 O   0  0  0  0  0
   42.0980   -2.2710   16.1500 P   0  0  0  0  0
   40.9800   -3.2310   15.9870 O   0  0  0  0  0
   42.7860   -2.1220   14.8430 O   0  0  0  0  0
   43.0370   -2.7770   17.1830 O   0  0  0  0  0
   33.6524   -3.4659   11.0220 H   0  0  0  0  0
   36.6681   -5.0010   13.5652 H   0  0  0  0  0
   37.8225   -2.7959   13.4060 H   0  0  0  0  0
   36.9006   -0.4298   10.7358 H   0  0  0  0  0
   35.7215    0.2558   13.1418 H   0  0  0  0  0
   36.3300    2.3306   12.4960 H   0  0  0  0  0
   37.7766   -0.2005   14.4713 H   0  0  0  0  0
   39.3979    1.0159   12.1988 H   0  0  0  0  0
   38.6841    1.7466   14.8639 H   0  0  0  0  0
   40.9237    0.5309   13.7252 H   0  0  0  0  0
   40.8716   -1.0133   12.8678 H   0  0  0  0  0
   40.7940    1.4657   15.4105 H   0  0  0  0  0
   43.5133   -1.5021   14.9343 H   0  0  0  0  0
   43.7607   -2.1551   17.2882 H   0  0  0  0  0
  1  2  1  0  0  0
  1  6  1  0  0  0
  1  9  1  0  0  0
  2  3  1  0  0  0
  2  7  2  0  0  0
  3  4  1  0  0  0
  4  5  1  0  0  0
  4  8  2  0  0  0
  5  6  2  0  0  0
  9 10  1  0  0  0
  9 14  1  0  0  0
 10 11  1  0  0  0
 10 12  1  0  0  0
 12 13  1  0  0  0
 12 15  1  0  0  0
 13 14  1  0  0  0
 13 16  1  0  0  0
 16 17  1  0  0  0
 17 18  1  0  0  0
 18 19  1  0  0  0
 18 20  2  0  0  0
 18 21  1  0  0  0
 21 22  1  0  0  0
 22 23  2  0  0  0
 22 24  1  0  0  0
 22 25  1  0  0  0
  3 26  1  0  0  0
  5 27  1  0  0  0
  6 28  1  0  0  0
  9 29  1  0  0  0
 10 30  1  0  0  0
 11 31  1  0  0  0
 12 32  1  0  0  0
 13 33  1  0  0  0
 15 34  1  0  0  0
 16 35  1  0  0  0
 16 36  1  0  0  0
 19 37  1  0  0  0
 24 38  1  0  0  0
 25 39  1  0  0  0
M  END
$$$$
