### 
### Created by X-TOOL on Mon Sep 10 21:13:15 2018
### 

@<TRIPOS>MOLECULE
4jfd_ligand
  151   150     1     0     0
SMALL
GAST_HUCK


@<TRIPOS>ATOM
      1 N          50.0500  -14.5100   31.7160 N.4       1 GLU         0.2380
      2 CA         49.2960  -13.3220   32.1500 C.3       1 GLU         0.0665
      3 C          49.9840  -12.0170   31.6930 C.2       1 GLU         0.2268
      4 O          50.9850  -11.5830   32.2870 O.2       1 GLU        -0.3907
      5 CB         49.1850  -13.3330   33.6750 C.3       1 GLU         0.0194
      6 CG         48.4700  -12.1070   34.2790 C.3       1 GLU         0.0075
      7 CD         46.9870  -12.0770   34.0120 C.2       1 GLU         0.0351
      8 OE1        46.4060  -13.1380   33.6580 O.co2     1 GLU        -0.5690
      9 OE2        46.3720  -11.0310   34.2970 O.co2     1 GLU        -0.5690
     10 N          49.4200  -11.3660   30.6870 N.am      1 LEU        -0.2610
     11 CA         49.9890  -10.0950   30.1970 C.3       1 LEU         0.1313
     12 C          49.8980   -9.0170   31.2480 C.2       1 LEU         0.2039
     13 O          48.9630   -9.0170   32.0940 O.2       1 LEU        -0.3944
     14 CB         49.2400   -9.6040   28.9370 C.3       1 LEU        -0.0101
     15 CG         49.3630  -10.3790   27.6310 C.3       1 LEU        -0.0425
     16 CD1        48.3190   -9.8950   26.6070 C.3       1 LEU        -0.0625
     17 CD2        50.7390  -10.2790   27.0780 C.3       1 LEU        -0.0625
     18 N          50.8310   -8.0570   31.1810 N.am      1 ALA        -0.2640
     19 CA         50.8010   -6.8760   32.0800 C.3       1 ALA         0.1282
     20 C          49.5860   -6.0890   31.7540 C.2       1 ALA         0.2036
     21 O          49.2520   -5.9360   30.5890 O.2       1 ALA        -0.3944
     22 CB         51.9960   -6.0220   31.8520 C.3       1 ALA        -0.0244
     23 N          48.9050   -5.5990   32.7720 N.am      1 ALA        -0.2640
     24 CA         47.7160   -4.7580   32.5810 C.3       1 ALA         0.1282
     25 C          47.9600   -3.3860   33.1780 C.2       1 ALA         0.2036
     26 O          47.0560   -2.6810   33.4290 O.2       1 ALA        -0.3944
     27 CB         46.4510   -5.4050   33.2290 C.3       1 ALA        -0.0244
     28 N          49.1930   -3.1280   33.5570 N.am      1 ILE        -0.2635
     29 CA         49.6000   -1.8460   34.0500 C.3       1 ILE         0.1335
     30 C          51.0540   -1.6100   33.6000 C.2       1 ILE         0.2040
     31 O          51.7120   -2.5230   33.1370 O.2       1 ILE        -0.3944
     32 CB         49.5050   -1.7580   35.5450 C.3       1 ILE        -0.0037
     33 CG1        50.4720   -2.7680   36.2260 C.3       1 ILE        -0.0491
     34 CG2        47.9980   -1.9690   36.0140 C.3       1 ILE        -0.0582
     35 CD1        50.4840   -2.6530   37.8180 C.3       1 ILE        -0.0648
     36 N          51.5150   -0.3720   33.6980 N.am      1 GLY        -0.2664
     37 CA         52.8640   -0.0260   33.3240 C.3       1 GLY         0.1201
     38 C          53.1870   -0.0710   31.8490 C.2       1 GLY         0.2008
     39 O          54.3530   -0.0260   31.4780 O.2       1 GLY        -0.3947
     40 N          52.1570   -0.0740   31.0070 N.am      1 ILE        -0.2637
     41 CA         52.3390   -0.1240   29.5670 C.3       1 ILE         0.1335
     42 C          51.8220    1.1610   28.9190 C.2       1 ILE         0.2042
     43 O          50.6250    1.2910   28.6300 O.2       1 ILE        -0.3944
     44 CB         51.6120   -1.3130   28.9610 C.3       1 ILE        -0.0037
     45 CG1        52.1160   -2.6150   29.5800 C.3       1 ILE        -0.0491
     46 CG2        51.7940   -1.3350   27.4450 C.3       1 ILE        -0.0582
     47 CD1        53.6260   -2.8640   29.4000 C.3       1 ILE        -0.0648
     48 N          52.7370    2.0940   28.6740 N.am      1 LEU        -0.2637
     49 CA         52.3970    3.3680   28.0930 C.3       1 LEU         0.1312
     50 C          53.0760    3.6000   26.8060 C.2       1 LEU         0.2040
     51 O          54.0670    2.9510   26.4930 O.2       1 LEU        -0.3944
     52 CB         52.7750    4.5140   29.0450 C.3       1 LEU        -0.0101
     53 CG         51.8090    4.8020   30.1750 C.3       1 LEU        -0.0425
     54 CD1        51.6040    3.5630   31.0710 C.3       1 LEU        -0.0625
     55 CD2        52.3000    6.0100   30.9830 C.3       1 LEU        -0.0625
     56 N          52.5950    4.6110   26.0770 N.am      1 THR        -0.2613
     57 CA         53.1730    4.9700   24.8290 C.3       1 THR         0.1564
     58 C          54.4540    5.7030   25.1390 C.2       1 THR         0.2059
     59 O          54.6180    6.2170   26.2320 O.2       1 THR        -0.3943
     60 CB         52.2190    5.8510   23.9660 C.3       1 THR         0.0924
     61 OG1        51.9680    7.1080   24.6260 O.3       1 THR        -0.3874
     62 CG2        50.9490    5.1650   23.7640 C.3       1 THR        -0.0346
     63 N          55.3780    5.6930   24.1870 N.am      1 VAL        -0.2692
     64 CA         56.6920    6.3200   24.3620 C.3       1 VAL         0.0967
     65 C          56.6030    7.8310   24.2370 C.2       1 VAL         0.0603
     66 O          57.6100    8.5680   24.4680 O.co2     1 VAL        -0.5666
     67 CB         57.6940    5.7770   23.3280 C.3       1 VAL        -0.0118
     68 CG1        57.7940    4.2250   23.4360 C.3       1 VAL        -0.0590
     69 CG2        57.2870    6.1640   21.9720 C.3       1 VAL        -0.0590
     70 OXT        55.5050    8.3720   23.9120 O.co2     1 VAL        -0.5666
     71 H1         49.5754  -15.3422   32.0295 H         1 GLU         0.2015
     72 H2         50.9768  -14.4827   32.1114 H         1 GLU         0.2015
     73 H3         50.1139  -14.5185   30.7101 H         1 GLU         0.2015
     74 H4         48.2875  -13.3619   31.7127 H         1 GLU         0.1099
     75 H5         50.2019  -13.3762   34.0921 H         1 GLU         0.0363
     76 H6         48.6285  -14.2343   33.9714 H         1 GLU         0.0363
     77 H7         48.9181  -11.1981   33.8511 H         1 GLU         0.0434
     78 H8         48.6265  -12.1154   35.3678 H         1 GLU         0.0434
     79 H9         48.5994  -11.7396   30.2544 H         1 LEU         0.1884
     80 H10        51.0466  -10.2610   29.9443 H         1 LEU         0.0800
     81 H11        49.5931   -8.5820   28.7349 H         1 LEU         0.0315
     82 H12        48.1704   -9.5786   29.1923 H         1 LEU         0.0315
     83 H13        49.1612  -11.4388   27.8456 H         1 LEU         0.0298
     84 H14        48.4272  -10.4680   25.6743 H         1 LEU         0.0232
     85 H15        48.4758   -8.8259   26.4008 H         1 LEU         0.0232
     86 H16        47.3084  -10.0455   27.0146 H         1 LEU         0.0232
     87 H17        51.4622  -10.6303   27.8287 H         1 LEU         0.0232
     88 H18        50.9560   -9.2315   26.8219 H         1 LEU         0.0232
     89 H19        50.8171  -10.9012   26.1743 H         1 LEU         0.0232
     90 H20        51.5662   -8.1384   30.5081 H         1 ALA         0.1883
     91 H21        50.7729   -7.2040   33.1296 H         1 ALA         0.0797
     92 H22        51.9590   -5.1525   32.5247 H         1 ALA         0.0277
     93 H23        52.0065   -5.6773   30.8075 H         1 ALA         0.0277
     94 H24        52.9069   -6.6042   32.0552 H         1 ALA         0.0277
     95 H25        49.2075   -5.8065   33.7023 H         1 ALA         0.1883
     96 H26        47.5361   -4.6476   31.5014 H         1 ALA         0.0797
     97 H27        45.5813   -4.7510   33.0678 H         1 ALA         0.0277
     98 H28        46.6175   -5.5343   34.3086 H         1 ALA         0.0277
     99 H29        46.2631   -6.3854   32.7670 H         1 ALA         0.0277
    100 H30        49.8747   -3.8573   33.4985 H         1 ILE         0.1883
    101 H31        48.9518   -1.0724   33.6125 H         1 ILE         0.0803
    102 H32        49.8129   -0.7459   35.8463 H         1 ILE         0.0345
    103 H33        51.4904   -2.5815   35.8546 H         1 ILE         0.0267
    104 H34        50.1626   -3.7873   35.9517 H         1 ILE         0.0267
    105 H35        47.3510   -1.2363   35.5095 H         1 ILE         0.0235
    106 H36        47.9299   -1.8297   37.1030 H         1 ILE         0.0235
    107 H37        47.6719   -2.9867   35.7534 H         1 ILE         0.0235
    108 H38        51.1852   -3.3916   38.2337 H         1 ILE         0.0230
    109 H39        49.4737   -2.8470   38.2073 H         1 ILE         0.0230
    110 H40        50.8015   -1.6412   38.1102 H         1 ILE         0.0230
    111 H41        50.9086    0.3449   34.0420 H         1 GLY         0.1881
    112 H42        53.5424   -0.7243   33.8361 H         1 GLY         0.0763
    113 H43        53.0566    0.9978   33.6772 H         1 GLY         0.0763
    114 H44        51.2286   -0.0408   31.3771 H         1 ILE         0.1883
    115 H45        53.4139   -0.2221   29.3551 H         1 ILE         0.0803
    116 H46        50.5388   -1.2148   29.1812 H         1 ILE         0.0345
    117 H47        51.5720   -3.4502   29.1146 H         1 ILE         0.0267
    118 H48        51.8977   -2.5904   30.6578 H         1 ILE         0.0267
    119 H49        51.4259   -0.3905   27.0178 H         1 ILE         0.0235
    120 H50        51.2262   -2.1757   27.0197 H         1 ILE         0.0235
    121 H51        52.8609   -1.4546   27.2055 H         1 ILE         0.0235
    122 H52        53.8993   -3.8183   29.8740 H         1 ILE         0.0230
    123 H53        54.1912   -2.0459   29.8704 H         1 ILE         0.0230
    124 H54        53.8655   -2.9057   28.3272 H         1 ILE         0.0230
    125 H55        53.6926    1.9054   28.9004 H         1 LEU         0.1883
    126 H56        51.3102    3.3873   27.9243 H         1 LEU         0.0800
    127 H57        52.8684    5.4305   28.4439 H         1 LEU         0.0315
    128 H58        53.7492    4.2684   29.4930 H         1 LEU         0.0315
    129 H59        50.8351    5.0607   29.7339 H         1 LEU         0.0298
    130 H60        50.8986    3.8074   31.8789 H         1 LEU         0.0232
    131 H61        52.5684    3.2609   31.5053 H         1 LEU         0.0232
    132 H62        51.1987    2.7373   30.4678 H         1 LEU         0.0232
    133 H63        52.4338    6.8706   30.3111 H         1 LEU         0.0232
    134 H64        53.2599    5.7656   31.4613 H         1 LEU         0.0232
    135 H65        51.5584    6.2601   31.7559 H         1 LEU         0.0232
    136 H66        51.8094    5.1276   26.4175 H         1 THR         0.1884
    137 H67        53.4038    4.0556   24.2628 H         1 THR         0.0826
    138 H68        52.6899    6.0402   22.9901 H         1 THR         0.0639
    139 H69        51.3862    7.6348   24.0907 H         1 THR         0.2101
    140 H70        50.2847    5.7953   23.1545 H         1 THR         0.0257
    141 H71        50.4778    4.9712   24.7389 H         1 THR         0.0257
    142 H72        51.1259    4.2108   23.2461 H         1 THR         0.0257
    143 H73        55.1710    5.2417   23.3190 H         1 VAL         0.1875
    144 H74        57.0595    6.0746   25.3693 H         1 VAL         0.0729
    145 H75        58.6838    6.2096   23.5359 H         1 VAL         0.0336
    146 H76        58.5128    3.8513   22.6920 H         1 VAL         0.0234
    147 H77        56.8060    3.7799   23.2471 H         1 VAL         0.0234
    148 H78        58.1338    3.9488   24.4451 H         1 VAL         0.0234
    149 H79        57.2199    7.2601   21.9081 H         1 VAL         0.0234
    150 H80        56.3056    5.7227   21.7437 H         1 VAL         0.0234
    151 H81        58.0304    5.7994   21.2479 H         1 VAL         0.0234
@<TRIPOS>BOND
     1    1    2 1  
     2    2    3 1  
     3    2    5 1  
     4    3    4 2  
     5    3   10 am 
     6    5    6 1  
     7    6    7 1  
     8    7    8 ar 
     9    7    9 ar 
    10   10   11 1  
    11   11   12 1  
    12   11   14 1  
    13   12   13 2  
    14   12   18 am 
    15   14   15 1  
    16   15   16 1  
    17   15   17 1  
    18   18   19 1  
    19   19   20 1  
    20   19   22 1  
    21   20   21 2  
    22   20   23 am 
    23   23   24 1  
    24   24   25 1  
    25   24   27 1  
    26   25   26 2  
    27   25   28 am 
    28   28   29 1  
    29   29   30 1  
    30   29   32 1  
    31   30   31 2  
    32   30   36 am 
    33   32   33 1  
    34   32   34 1  
    35   33   35 1  
    36   36   37 1  
    37   37   38 1  
    38   38   39 2  
    39   38   40 am 
    40   40   41 1  
    41   41   42 1  
    42   41   44 1  
    43   42   43 2  
    44   42   48 am 
    45   44   45 1  
    46   44   46 1  
    47   45   47 1  
    48   48   49 1  
    49   49   50 1  
    50   49   52 1  
    51   50   51 2  
    52   50   56 am 
    53   52   53 1  
    54   53   54 1  
    55   53   55 1  
    56   56   57 1  
    57   57   58 1  
    58   57   60 1  
    59   58   59 2  
    60   58   63 am 
    61   60   61 1  
    62   60   62 1  
    63   63   64 1  
    64   64   65 1  
    65   64   67 1  
    66   65   66 ar 
    67   65   70 ar 
    68   67   68 1  
    69   67   69 1  
    70    1   71 1  
    71    1   72 1  
    72    1   73 1  
    73    2   74 1  
    74    5   75 1  
    75    5   76 1  
    76    6   77 1  
    77    6   78 1  
    78   10   79 1  
    79   11   80 1  
    80   14   81 1  
    81   14   82 1  
    82   15   83 1  
    83   16   84 1  
    84   16   85 1  
    85   16   86 1  
    86   17   87 1  
    87   17   88 1  
    88   17   89 1  
    89   18   90 1  
    90   19   91 1  
    91   22   92 1  
    92   22   93 1  
    93   22   94 1  
    94   23   95 1  
    95   24   96 1  
    96   27   97 1  
    97   27   98 1  
    98   27   99 1  
    99   28  100 1  
   100   29  101 1  
   101   32  102 1  
   102   33  103 1  
   103   33  104 1  
   104   34  105 1  
   105   34  106 1  
   106   34  107 1  
   107   35  108 1  
   108   35  109 1  
   109   35  110 1  
   110   36  111 1  
   111   37  112 1  
   112   37  113 1  
   113   40  114 1  
   114   41  115 1  
   115   44  116 1  
   116   45  117 1  
   117   45  118 1  
   118   46  119 1  
   119   46  120 1  
   120   46  121 1  
   121   47  122 1  
   122   47  123 1  
   123   47  124 1  
   124   48  125 1  
   125   49  126 1  
   126   52  127 1  
   127   52  128 1  
   128   53  129 1  
   129   54  130 1  
   130   54  131 1  
   131   54  132 1  
   132   55  133 1  
   133   55  134 1  
   134   55  135 1  
   135   56  136 1  
   136   57  137 1  
   137   60  138 1  
   138   61  139 1  
   139   62  140 1  
   140   62  141 1  
   141   62  142 1  
   142   63  143 1  
   143   64  144 1  
   144   67  145 1  
   145   68  146 1  
   146   68  147 1  
   147   68  148 1  
   148   69  149 1  
   149   69  150 1  
   150   69  151 1  
@<TRIPOS>SUBSTRUCTURE
     1 GLU         1

