4jfd_ligand
  -I-interpret- 

153152  0  0  0  0  0  0  0  0999 V2000
   50.0500  -14.5100   31.7160 N   0  3  0  0  0
   49.2960  -13.3220   32.1500 C   0  0  0  0  0
   49.9840  -12.0170   31.6930 C   0  0  0  0  0
   50.9850  -11.5830   32.2870 O   0  0  0  0  0
   49.1850  -13.3330   33.6750 C   0  0  0  0  0
   48.4700  -12.1070   34.2790 C   0  0  0  0  0
   46.9870  -12.0770   34.0120 C   0  0  0  0  0
   46.4060  -13.1380   33.6580 O   0  0  0  0  0
   46.3720  -11.0310   34.2970 O   0  0  0  0  0
   49.4200  -11.3660   30.6870 N   0  0  0  0  0
   49.9890  -10.0950   30.1970 C   0  0  0  0  0
   49.8980   -9.0170   31.2480 C   0  0  0  0  0
   48.9630   -9.0170   32.0940 O   0  0  0  0  0
   49.2400   -9.6040   28.9370 C   0  0  0  0  0
   49.3630  -10.3790   27.6310 C   0  0  0  0  0
   48.3190   -9.8950   26.6070 C   0  0  0  0  0
   50.7390  -10.2790   27.0780 C   0  0  0  0  0
   50.8310   -8.0570   31.1810 N   0  0  0  0  0
   50.8010   -6.8760   32.0800 C   0  0  0  0  0
   49.5860   -6.0890   31.7540 C   0  0  0  0  0
   49.2520   -5.9360   30.5890 O   0  0  0  0  0
   51.9960   -6.0220   31.8520 C   0  0  0  0  0
   48.9050   -5.5990   32.7720 N   0  0  0  0  0
   47.7160   -4.7580   32.5810 C   0  0  0  0  0
   47.9600   -3.3860   33.1780 C   0  0  0  0  0
   47.0560   -2.6810   33.4290 O   0  0  0  0  0
   46.4510   -5.4050   33.2290 C   0  0  0  0  0
   49.1930   -3.1280   33.5570 N   0  0  0  0  0
   49.6000   -1.8460   34.0500 C   0  0  0  0  0
   51.0540   -1.6100   33.6000 C   0  0  0  0  0
   51.7120   -2.5230   33.1370 O   0  0  0  0  0
   49.5050   -1.7580   35.5450 C   0  0  0  0  0
   50.4720   -2.7680   36.2260 C   0  0  0  0  0
   47.9980   -1.9690   36.0140 C   0  0  0  0  0
   50.4840   -2.6530   37.8180 C   0  0  0  0  0
   51.5150   -0.3720   33.6980 N   0  0  0  0  0
   52.8640   -0.0260   33.3240 C   0  0  0  0  0
   53.1870   -0.0710   31.8490 C   0  0  0  0  0
   54.3530   -0.0260   31.4780 O   0  0  0  0  0
   52.1570   -0.0740   31.0070 N   0  0  0  0  0
   52.3390   -0.1240   29.5670 C   0  0  0  0  0
   51.8220    1.1610   28.9190 C   0  0  0  0  0
   50.6250    1.2910   28.6300 O   0  0  0  0  0
   51.6120   -1.3130   28.9610 C   0  0  0  0  0
   52.1160   -2.6150   29.5800 C   0  0  0  0  0
   51.7940   -1.3350   27.4450 C   0  0  0  0  0
   53.6260   -2.8640   29.4000 C   0  0  0  0  0
   52.7370    2.0940   28.6740 N   0  0  0  0  0
   52.3970    3.3680   28.0930 C   0  0  0  0  0
   53.0760    3.6000   26.8060 C   0  0  0  0  0
   54.0670    2.9510   26.4930 O   0  0  0  0  0
   52.7750    4.5140   29.0450 C   0  0  0  0  0
   51.8090    4.8020   30.1750 C   0  0  0  0  0
   51.6040    3.5630   31.0710 C   0  0  0  0  0
   52.3000    6.0100   30.9830 C   0  0  0  0  0
   52.5950    4.6110   26.0770 N   0  0  0  0  0
   53.1730    4.9700   24.8290 C   0  0  0  0  0
   54.4540    5.7030   25.1390 C   0  0  0  0  0
   54.6180    6.2170   26.2320 O   0  0  0  0  0
   52.2190    5.8510   23.9660 C   0  0  0  0  0
   51.9680    7.1080   24.6260 O   0  0  0  0  0
   50.9490    5.1650   23.7640 C   0  0  0  0  0
   55.3780    5.6930   24.1870 N   0  0  0  0  0
   56.6920    6.3200   24.3620 C   0  0  0  0  0
   56.6030    7.8310   24.2370 C   0  0  0  0  0
   57.6100    8.5680   24.4680 O   0  0  0  0  0
   57.6940    5.7770   23.3280 C   0  0  0  0  0
   57.7940    4.2250   23.4360 C   0  0  0  0  0
   57.2870    6.1640   21.9720 C   0  0  0  0  0
   55.5050    8.3720   23.9120 O   0  0  0  0  0
   50.1279  -14.5090   30.6990 H   0  0  0  0  0
   50.9822  -14.4894   32.1296 H   0  0  0  0  0
   49.5604  -15.3517   32.0199 H   0  0  0  0  0
   48.3061  -13.3567   31.6951 H   0  0  0  0  0
   50.2021  -13.3316   34.0668 H   0  0  0  0  0
   48.5940  -14.2086   33.9434 H   0  0  0  0  0
   48.9018  -11.2185   33.8183 H   0  0  0  0  0
   48.6054  -12.1508   35.3597 H   0  0  0  0  0
   47.0612  -13.8183   33.4864 H   0  0  0  0  0
   48.5830  -11.7471   30.2458 H   0  0  0  0  0
   51.0346  -10.2876   29.9569 H   0  0  0  0  0
   49.6791   -8.6303   28.7197 H   0  0  0  0  0
   48.1848   -9.6770   29.2001 H   0  0  0  0  0
   49.1655  -11.4298   27.8431 H   0  0  0  0  0
   47.3182  -10.0446   27.0120 H   0  0  0  0  0
   48.4754   -8.8356   26.4036 H   0  0  0  0  0
   48.4273  -10.4635   25.6833 H   0  0  0  0  0
   50.9774   -9.2326   26.8873 H   0  0  0  0  0
   51.4486  -10.6896   27.7963 H   0  0  0  0  0
   50.7965  -10.8417   26.1462 H   0  0  0  0  0
   51.5809   -8.1400   30.4946 H   0  0  0  0  0
   50.7953   -7.2046   33.1193 H   0  0  0  0  0
   52.8979   -6.6000   32.0536 H   0  0  0  0  0
   52.0052   -5.6811   30.8167 H   0  0  0  0  0
   51.9582   -5.1608   32.5191 H   0  0  0  0  0
   49.2136   -5.8106   33.7209 H   0  0  0  0  0
   47.5331   -4.6646   31.5105 H   0  0  0  0  0
   46.2659   -6.3763   32.7704 H   0  0  0  0  0
   46.6172   -5.5326   34.2987 H   0  0  0  0  0
   45.5900   -4.7561   33.0687 H   0  0  0  0  0
   49.8883   -3.8719   33.4974 H   0  0  0  0  0
   48.9335   -1.0830   33.6479 H   0  0  0  0  0
   49.8150   -0.7610   35.8580 H   0  0  0  0  0
   51.4796   -2.5502   35.8719 H   0  0  0  0  0
   50.1339   -3.7722   35.9703 H   0  0  0  0  0
   47.3692   -1.1972   35.5700 H   0  0  0  0  0
   47.6525   -2.9511   35.6913 H   0  0  0  0  0
   47.9443   -1.9026   37.1006 H   0  0  0  0  0
   50.7987   -1.6500   38.1062 H   0  0  0  0  0
   49.4824   -2.8454   38.2025 H   0  0  0  0  0
   51.1791   -3.3853   38.2287 H   0  0  0  0  0
   50.8965    0.3593   34.0489 H   0  0  0  0  0
   53.5079   -0.7676   33.7968 H   0  0  0  0  0
   53.0067    1.0096   33.6328 H   0  0  0  0  0
   51.2100   -0.0401   31.3845 H   0  0  0  0  0
   53.4069   -0.2287   29.3754 H   0  0  0  0  0
   50.5481   -1.2160   29.1774 H   0  0  0  0  0
   51.5956   -3.4302   29.0773 H   0  0  0  0  0
   51.9280   -2.5529   30.6519 H   0  0  0  0  0
   51.3897   -0.4170   27.0185 H   0  0  0  0  0
   52.8554   -1.4102   27.2088 H   0  0  0  0  0
   51.2663   -2.1934   27.0294 H   0  0  0  0  0
   53.8620   -2.9050   28.3366 H   0  0  0  0  0
   54.1849   -2.0527   29.8665 H   0  0  0  0  0
   53.8955   -3.8098   29.8700 H   0  0  0  0  0
   53.7117    1.9016   28.9049 H   0  0  0  0  0
   51.3206    3.3464   27.9227 H   0  0  0  0  0
   52.8021    5.4165   28.4344 H   0  0  0  0  0
   53.7113    4.2169   29.5174 H   0  0  0  0  0
   50.8356    5.0448   29.7488 H   0  0  0  0  0
   51.2024    2.7456   30.4721 H   0  0  0  0  0
   52.5603    3.2647   31.5006 H   0  0  0  0  0
   50.9049    3.8064   31.8711 H   0  0  0  0  0
   53.2849    5.7929   31.3964 H   0  0  0  0  0
   52.3623    6.8809   30.3305 H   0  0  0  0  0
   51.6004    6.2115   31.7942 H   0  0  0  0  0
   51.7937    5.1379   26.4243 H   0  0  0  0  0
   53.3624    4.0757   24.2354 H   0  0  0  0  0
   52.6973    6.0317   23.0034 H   0  0  0  0  0
   51.3801    7.6404   24.0851 H   0  0  0  0  0
   51.1257    4.2197   23.2508 H   0  0  0  0  0
   50.4832    4.9736   24.7307 H   0  0  0  0  0
   50.2917    5.7905   23.1600 H   0  0  0  0  0
   55.1668    5.2327   23.3016 H   0  0  0  0  0
   57.0405    6.0738   25.3650 H   0  0  0  0  0
   58.3615    8.0176   24.7002 H   0  0  0  0  0
   58.6741    6.2067   23.5351 H   0  0  0  0  0
   58.1307    3.9526   24.4363 H   0  0  0  0  0
   56.8144    3.7852   23.2487 H   0  0  0  0  0
   58.5065    3.8559   22.6983 H   0  0  0  0  0
   56.2992    5.7550   21.7599 H   0  0  0  0  0
   57.2546    7.2511   21.9001 H   0  0  0  0  0
   58.0060    5.7723   21.2525 H   0  0  0  0  0
  1  2  1  0  0  0
  2  3  1  0  0  0
  2  5  1  0  0  0
  3  4  2  0  0  0
  3 10  1  0  0  0
  5  6  1  0  0  0
  6  7  1  0  0  0
  7  8  1  0  0  0
  7  9  2  0  0  0
 10 11  1  0  0  0
 11 12  1  0  0  0
 11 14  1  0  0  0
 12 13  2  0  0  0
 12 18  1  0  0  0
 14 15  1  0  0  0
 15 16  1  0  0  0
 15 17  1  0  0  0
 18 19  1  0  0  0
 19 20  1  0  0  0
 19 22  1  0  0  0
 20 21  2  0  0  0
 20 23  1  0  0  0
 23 24  1  0  0  0
 24 25  1  0  0  0
 24 27  1  0  0  0
 25 26  2  0  0  0
 25 28  1  0  0  0
 28 29  1  0  0  0
 29 30  1  0  0  0
 29 32  1  0  0  0
 30 31  2  0  0  0
 30 36  1  0  0  0
 32 33  1  0  0  0
 32 34  1  0  0  0
 33 35  1  0  0  0
 36 37  1  0  0  0
 37 38  1  0  0  0
 38 39  2  0  0  0
 38 40  1  0  0  0
 40 41  1  0  0  0
 41 42  1  0  0  0
 41 44  1  0  0  0
 42 43  2  0  0  0
 42 48  1  0  0  0
 44 45  1  0  0  0
 44 46  1  0  0  0
 45 47  1  0  0  0
 48 49  1  0  0  0
 49 50  1  0  0  0
 49 52  1  0  0  0
 50 51  2  0  0  0
 50 56  1  0  0  0
 52 53  1  0  0  0
 53 54  1  0  0  0
 53 55  1  0  0  0
 56 57  1  0  0  0
 57 58  1  0  0  0
 57 60  1  0  0  0
 58 59  2  0  0  0
 58 63  1  0  0  0
 60 61  1  0  0  0
 60 62  1  0  0  0
 63 64  1  0  0  0
 64 65  1  0  0  0
 64 67  1  0  0  0
 65 66  1  0  0  0
 65 70  2  0  0  0
 67 68  1  0  0  0
 67 69  1  0  0  0
  1 71  1  0  0  0
  1 72  1  0  0  0
  1 73  1  0  0  0
  2 74  1  0  0  0
  5 75  1  0  0  0
  5 76  1  0  0  0
  6 77  1  0  0  0
  6 78  1  0  0  0
  8 79  1  0  0  0
 10 80  1  0  0  0
 11 81  1  0  0  0
 14 82  1  0  0  0
 14 83  1  0  0  0
 15 84  1  0  0  0
 16 85  1  0  0  0
 16 86  1  0  0  0
 16 87  1  0  0  0
 17 88  1  0  0  0
 17 89  1  0  0  0
 17 90  1  0  0  0
 18 91  1  0  0  0
 19 92  1  0  0  0
 22 93  1  0  0  0
 22 94  1  0  0  0
 22 95  1  0  0  0
 23 96  1  0  0  0
 24 97  1  0  0  0
 27 98  1  0  0  0
 27 99  1  0  0  0
 27100  1  0  0  0
 28101  1  0  0  0
 29102  1  0  0  0
 32103  1  0  0  0
 33104  1  0  0  0
 33105  1  0  0  0
 34106  1  0  0  0
 34107  1  0  0  0
 34108  1  0  0  0
 35109  1  0  0  0
 35110  1  0  0  0
 35111  1  0  0  0
 36112  1  0  0  0
 37113  1  0  0  0
 37114  1  0  0  0
 40115  1  0  0  0
 41116  1  0  0  0
 44117  1  0  0  0
 45118  1  0  0  0
 45119  1  0  0  0
 46120  1  0  0  0
 46121  1  0  0  0
 46122  1  0  0  0
 47123  1  0  0  0
 47124  1  0  0  0
 47125  1  0  0  0
 48126  1  0  0  0
 49127  1  0  0  0
 52128  1  0  0  0
 52129  1  0  0  0
 53130  1  0  0  0
 54131  1  0  0  0
 54132  1  0  0  0
 54133  1  0  0  0
 55134  1  0  0  0
 55135  1  0  0  0
 55136  1  0  0  0
 56137  1  0  0  0
 57138  1  0  0  0
 60139  1  0  0  0
 61140  1  0  0  0
 62141  1  0  0  0
 62142  1  0  0  0
 62143  1  0  0  0
 63144  1  0  0  0
 64145  1  0  0  0
 66146  1  0  0  0
 67147  1  0  0  0
 68148  1  0  0  0
 68149  1  0  0  0
 68150  1  0  0  0
 69151  1  0  0  0
 69152  1  0  0  0
 69153  1  0  0  0
M  END
$$$$
