5vh0_ligand
  -I-interpret- 

 26 29  0  0  0  0  0  0  0  0999 V2000
   35.2200   46.3830   -3.4770 C   0  0  0  0  0
   36.3780   46.3830   -2.7300 C   0  0  0  0  0
   36.3240   46.3830   -1.3570 C   0  0  0  0  0
   37.5000   46.3840   -0.5290 C   0  0  0  0  0
   37.4180   46.3860    0.8160 C   0  0  0  0  0
   36.1530   46.3830    1.4980 C   0  0  0  0  0
   36.0490   46.3820    2.8700 C   0  0  0  0  0
   34.8080   46.3830    3.4770 C   0  0  0  0  0
   33.6630   46.3790    2.7230 C   0  0  0  0  0
   33.7360   46.3780    1.3510 C   0  0  0  0  0
   34.9870   46.3800    0.7130 C   0  0  0  0  0
   35.0740   46.3790   -0.7120 C   0  0  0  0  0
   33.9030   46.3780   -1.4870 C   0  0  0  0  0
   33.9910   46.3770   -2.8590 C   0  0  0  0  0
   32.6380   46.3770   -0.8090 C   0  0  0  0  0
   32.5580   46.3750    0.5350 C   0  0  0  0  0
   35.2783   46.3878   -4.5654 H   0  0  0  0  0
   37.3452   46.3830   -3.2327 H   0  0  0  0  0
   38.4823   46.3831   -1.0014 H   0  0  0  0  0
   38.3365   46.3900    1.4029 H   0  0  0  0  0
   36.9512   46.3804    3.4817 H   0  0  0  0  0
   34.7386   46.3870    4.5648 H   0  0  0  0  0
   32.6900   46.3766    3.2144 H   0  0  0  0  0
   33.0819   46.3714   -3.4604 H   0  0  0  0  0
   31.7198   46.3779   -1.3964 H   0  0  0  0  0
   31.5778   46.3710    1.0118 H   0  0  0  0  0
  1  2  4  0  0  0
  1 14  4  0  0  0
  2  3  4  0  0  0
  3  4  4  0  0  0
  3 12  4  0  0  0
  4  5  4  0  0  0
  5  6  4  0  0  0
  6  7  4  0  0  0
  6 11  4  0  0  0
  7  8  4  0  0  0
  8  9  4  0  0  0
  9 10  4  0  0  0
 10 11  4  0  0  0
 10 16  4  0  0  0
 11 12  4  0  0  0
 12 13  4  0  0  0
 13 14  4  0  0  0
 13 15  4  0  0  0
 15 16  4  0  0  0
  1 17  1  0  0  0
  2 18  1  0  0  0
  4 19  1  0  0  0
  5 20  1  0  0  0
  7 21  1  0  0  0
  8 22  1  0  0  0
  9 23  1  0  0  0
 14 24  1  0  0  0
 15 25  1  0  0  0
 16 26  1  0  0  0
M  END
$$$$
