1ecv_ligand
  -I-interpret- 

 22 22  0  0  0  0  0  0  0  0999 V2000
   12.5800   45.0950   19.1910 C   0  0  0  0  0
   11.6470   45.7120   20.0210 C   0  0  0  0  0
   10.3050   45.6960   19.6290 C   0  0  0  0  0
    9.9240   45.1170   18.4090 C   0  0  0  0  0
   10.8440   44.4610   17.6030 C   0  0  0  0  0
   12.1690   44.4310   18.0190 C   0  0  0  0  0
    8.4990   45.1420   17.9810 C   0  0  0  0  0
    7.5840   45.2690   18.7380 O   0  0  0  0  0
    8.2750   44.9050   16.6860 O   0  0  0  0  0
    9.3060   46.1420   20.4340 N   0  0  0  0  0
    9.3470   46.8630   21.5730 C   0  0  0  0  0
   10.3890   47.1340   22.1730 O   0  0  0  0  0
    7.9330   47.2600   22.1520 C   0  0  0  0  0
    6.9810   46.5360   22.1490 O   0  0  0  0  0
    7.8610   48.4170   22.7810 O   0  0  0  0  0
   13.5490   43.3360   16.8780 I   0  0  0  0  0
   13.6381   45.1264   19.4510 H   0  0  0  0  0
   11.9542   46.1935   20.9494 H   0  0  0  0  0
   10.5363   43.9841   16.6724 H   0  0  0  0  0
    9.1141   44.8309   16.2256 H   0  0  0  0  0
    8.3673   45.8892   20.1253 H   0  0  0  0  0
    8.6974   48.8800   22.6937 H   0  0  0  0  0
  6 16  1  0  0  0
  6  1  4  0  0  0
  1  2  4  0  0  0
  2  3  4  0  0  0
  3 10  1  0  0  0
  3  4  4  0  0  0
  4  7  1  0  0  0
  4  5  4  0  0  0
  5  6  4  0  0  0
  7  9  1  0  0  0
  7  8  2  0  0  0
 10 11  1  0  0  0
 11 13  1  0  0  0
 11 12  2  0  0  0
 13 15  1  0  0  0
 13 14  2  0  0  0
  1 17  1  0  0  0
  2 18  1  0  0  0
  5 19  1  0  0  0
  9 20  1  0  0  0
 10 21  1  0  0  0
 15 22  1  0  0  0
M  END
$$$$
