6fi1_ligand
  -I-interpret- 

 24 24  0  0  0  0  0  0  0  0999 V2000
   18.7480    4.1070    5.4100 C   0  0  0  0  0
   19.2620    5.3730    5.7760 C   0  0  0  0  0
   19.0580    6.4950    4.9760 C   0  0  0  0  0
   19.3410    2.8490    7.3780 C   0  0  0  0  0
   19.3280    1.3980    7.9230 C   0  0  0  0  0
   18.8660    2.9460    6.1020 N   0  0  0  0  0
   19.1900    1.3700    9.3940 N   0  3  0  0  0
   18.0310    4.0200    4.2110 C   0  0  0  0  0
   18.1370    7.4240    2.9940 N   0  0  0  0  0
   17.8360    5.1390    3.4030 C   0  0  0  0  0
   18.3400    6.3750    3.7830 C   0  0  0  0  0
   19.7430    3.7700    8.1000 O   0  0  0  0  0
   19.8286    5.4725    6.7018 H   0  0  0  0  0
   19.4569    7.4630    5.2794 H   0  0  0  0  0
   20.2717    0.9219    7.6567 H   0  0  0  0  0
   18.4770    0.8744    7.4875 H   0  0  0  0  0
   18.5796    2.0851    5.6360 H   0  0  0  0  0
   19.1853    0.4020    9.7155 H   0  0  0  0  0
   19.9741    1.8663    9.8174 H   0  0  0  0  0
   18.3157    1.8224    9.6609 H   0  0  0  0  0
   17.6175    3.0595    3.9035 H   0  0  0  0  0
   18.5078    8.3377    3.2549 H   0  0  0  0  0
   17.6103    7.3159    2.1272 H   0  0  0  0  0
   17.2847    5.0427    2.4676 H   0  0  0  0  0
  1  2  4  0  0  0
  6  1  1  0  0  0
  1  8  4  0  0  0
  2  3  4  0  0  0
  3 11  4  0  0  0
  4  5  1  0  0  0
  4  6  1  0  0  0
  4 12  2  0  0  0
  5  7  1  0  0  0
  8 10  4  0  0  0
 11  9  1  0  0  0
 10 11  4  0  0  0
  2 13  1  0  0  0
  3 14  1  0  0  0
  5 15  1  0  0  0
  5 16  1  0  0  0
  6 17  1  0  0  0
  7 18  1  0  0  0
  7 19  1  0  0  0
  7 20  1  0  0  0
  8 21  1  0  0  0
  9 22  1  0  0  0
  9 23  1  0  0  0
 10 24  1  0  0  0
M  END
$$$$
