5aoi_ligand
  -I-interpret- 

 33 34  0  0  0  0  0  0  0  0999 V2000
  122.2150  103.4990  -46.6050 N   0  0  0  0  0
  123.5600  103.4620  -44.7920 C   0  0  0  0  0
  123.0980  102.6770  -45.8760 C   0  0  0  0  0
  122.9500  104.7840  -44.8850 C   0  0  0  0  0
  122.1150  104.7670  -46.0210 C   0  0  0  0  0
  123.4910  101.3380  -46.0930 C   0  0  0  0  0
  124.4540  102.8920  -43.8870 C   0  0  0  0  0
  124.3940  100.8080  -45.1610 C   0  0  0  0  0
  124.8640  101.5730  -44.0780 C   0  0  0  0  0
  126.1170  100.8050  -42.8000 Br  0  0  0  0  0
  123.1590  105.9500  -43.9160 C   0  0  0  0  0
  121.2670  105.9140  -46.5270 C   0  0  0  0  0
  124.5580  107.8050  -43.2790 N   0  3  0  0  0
  122.9810  100.5110  -47.2640 C   0  0  0  0  0
  124.3040  106.8460  -44.3500 C   0  0  0  0  0
  124.0780   99.5790  -47.7380 C   0  0  0  0  0
  124.8275  103.4696  -43.0414 H   0  0  0  0  0
  124.7395   99.7808  -45.2780 H   0  0  0  0  0
  123.3977  105.5407  -42.9343 H   0  0  0  0  0
  122.2466  106.5460  -43.8957 H   0  0  0  0  0
  121.5816  106.1790  -47.5364 H   0  0  0  0  0
  120.2197  105.6122  -46.5389 H   0  0  0  0  0
  121.3912  106.7739  -45.8688 H   0  0  0  0  0
  125.3260  108.4194  -43.5495 H   0  0  0  0  0
  123.7182  108.3603  -43.1153 H   0  0  0  0  0
  124.8066  107.3030  -42.4266 H   0  0  0  0  0
  122.6899  101.1743  -48.0785 H   0  0  0  0  0
  122.1177   99.9256  -46.9474 H   0  0  0  0  0
  124.0444  107.3694  -45.2702 H   0  0  0  0  0
  125.1965  106.2502  -44.5412 H   0  0  0  0  0
  124.9402  100.1660  -48.0544 H   0  0  0  0  0
  124.3676   98.9163  -46.9225 H   0  0  0  0  0
  123.7125   98.9867  -48.5768 H   0  0  0  0  0
  1  3  4  0  0  0
  1  5  4  0  0  0
  3  2  4  0  0  0
  2  4  4  0  0  0
  2  7  4  0  0  0
  3  6  4  0  0  0
  4  5  4  0  0  0
  4 11  1  0  0  0
  5 12  1  0  0  0
  6  8  4  0  0  0
  6 14  1  0  0  0
  7  9  4  0  0  0
  8  9  4  0  0  0
  9 10  1  0  0  0
 11 15  1  0  0  0
 15 13  1  0  0  0
 14 16  1  0  0  0
  7 17  1  0  0  0
  8 18  1  0  0  0
 11 19  1  0  0  0
 11 20  1  0  0  0
 12 21  1  0  0  0
 12 22  1  0  0  0
 12 23  1  0  0  0
 13 24  1  0  0  0
 13 25  1  0  0  0
 13 26  1  0  0  0
 14 27  1  0  0  0
 14 28  1  0  0  0
 15 29  1  0  0  0
 15 30  1  0  0  0
 16 31  1  0  0  0
 16 32  1  0  0  0
 16 33  1  0  0  0
M  END
$$$$
