3r00_ligand
  -I-interpret- 

 18 19  0  0  0  0  0  0  0  0999 V2000
  -17.5840  -36.0970   -2.0010 C   0  0  0  0  0
  -18.0610  -37.0230   -2.8850 O   0  0  0  0  0
  -18.1790  -36.2230   -0.7680 C   0  0  0  0  0
  -19.0600  -37.2370   -0.9150 C   0  0  0  0  0
  -16.4610  -35.2650   -2.5470 C   0  0  0  0  0
  -18.9970  -37.6990   -2.2290 C   0  0  0  0  0
  -20.0010  -37.8490   -0.0470 C   0  0  0  0  0
  -16.0130  -34.3270   -1.8490 O   0  0  0  0  0
  -19.7900  -38.6930   -2.7730 C   0  0  0  0  0
  -20.7560  -38.8660   -0.6170 C   0  0  0  0  0
  -15.9800  -35.6460   -3.6970 O   0  0  0  0  0
  -20.6520  -39.3020   -1.9080 C   0  0  0  0  0
  -22.0690  -39.8880    0.3510 Br  0  0  0  0  0
  -17.9835  -35.6354    0.1290 H   0  0  0  0  0
  -20.1226  -37.5431    0.9921 H   0  0  0  0  0
  -19.7303  -38.9720   -3.8250 H   0  0  0  0  0
  -16.4968  -36.3832   -4.0303 H   0  0  0  0  0
  -21.2603  -40.1400   -2.2483 H   0  0  0  0  0
  1  2  4  0  0  0
  1  3  4  0  0  0
  1  5  1  0  0  0
  2  6  4  0  0  0
  3  4  4  0  0  0
  4  6  4  0  0  0
  4  7  4  0  0  0
  5  8  2  0  0  0
  5 11  1  0  0  0
  6  9  4  0  0  0
  7 10  4  0  0  0
  9 12  4  0  0  0
 10 12  4  0  0  0
 10 13  1  0  0  0
  3 14  1  0  0  0
  7 15  1  0  0  0
  9 16  1  0  0  0
 11 17  1  0  0  0
 12 18  1  0  0  0
M  END
$$$$
