3o8p_ligand
  -I-interpret- 

 40 41  0  0  0  0  0  0  0  0999 V2000
   -0.8030   -2.9520  -14.5390 C   0  0  0  0  0
    0.0310   -2.3730  -15.2310 O   0  0  0  0  0
   -2.1040   -3.0490  -14.8690 N   0  0  0  0  0
   -2.7360   -2.3890  -15.8820 C   0  0  0  0  0
   -4.0960   -2.0840  -15.7160 C   0  0  0  0  0
   -4.8160   -1.4230  -16.7190 C   0  0  0  0  0
   -4.1630   -1.0680  -17.9120 C   0  0  0  0  0
   -5.0820   -0.2270  -19.2070 Cl  0  0  0  0  0
   -2.8090   -1.3880  -18.0990 C   0  0  0  0  0
   -2.0950   -2.0430  -17.0800 C   0  0  0  0  0
   -0.4560   -3.5630  -13.3910 N   0  0  0  0  0
    0.7040   -3.3750  -12.7410 C   0  0  0  0  0
    1.4390   -2.2490  -12.3970 C   0  0  0  0  0
    2.5270   -2.7860  -11.7150 C   0  0  0  0  0
    2.4910   -4.1290  -11.5890 N   0  0  0  0  0
    1.3080   -4.4800  -12.2600 N   0  0  0  0  0
    1.0360   -5.9370  -12.2970 C   0  0  0  0  0
    3.0350   -1.0780  -10.0050 C   0  0  0  0  0
    4.2430   -1.0760  -12.2520 C   0  0  0  0  0
    4.7300   -2.7900  -10.5330 C   0  0  0  0  0
    3.6270   -1.9280  -11.1360 C   0  0  0  0  0
   -2.6747   -3.6790  -14.3053 H   0  0  0  0  0
   -4.5999   -2.3662  -14.7915 H   0  0  0  0  0
   -5.8704   -1.1866  -16.5762 H   0  0  0  0  0
   -2.3114   -1.1289  -19.0336 H   0  0  0  0  0
   -1.0411   -2.2822  -17.2217 H   0  0  0  0  0
   -1.1240   -4.2178  -12.9843 H   0  0  0  0  0
    1.2186   -1.2027  -12.6086 H   0  0  0  0  0
    0.0719   -6.1373  -11.8296 H   0  0  0  0  0
    1.0163   -6.2754  -13.3329 H   0  0  0  0  0
    1.8205   -6.4656  -11.7555 H   0  0  0  0  0
    2.2406   -0.4472  -10.4039 H   0  0  0  0  0
    2.6282   -1.7331   -9.2346 H   0  0  0  0  0
    3.8169   -0.4517   -9.5754 H   0  0  0  0  0
    4.6547   -1.7295  -13.0211 H   0  0  0  0  0
    3.4733   -0.4394  -12.6883 H   0  0  0  0  0
    5.0374   -0.4555  -11.8372 H   0  0  0  0  0
    4.3126   -3.4085   -9.7384 H   0  0  0  0  0
    5.1544   -3.4289  -11.3075 H   0  0  0  0  0
    5.5090   -2.1469  -10.1234 H   0  0  0  0  0
  1  2  2  0  0  0
  1  3  1  0  0  0
  1 11  1  0  0  0
  3  4  1  0  0  0
  4  5  4  0  0  0
  4 10  4  0  0  0
  5  6  4  0  0  0
  6  7  4  0  0  0
  7  8  1  0  0  0
  7  9  4  0  0  0
  9 10  4  0  0  0
 11 12  1  0  0  0
 12 13  4  0  0  0
 12 16  4  0  0  0
 13 14  4  0  0  0
 14 15  4  0  0  0
 14 21  1  0  0  0
 15 16  4  0  0  0
 16 17  1  0  0  0
 21 18  1  0  0  0
 21 19  1  0  0  0
 21 20  1  0  0  0
  3 22  1  0  0  0
  5 23  1  0  0  0
  6 24  1  0  0  0
  9 25  1  0  0  0
 10 26  1  0  0  0
 11 27  1  0  0  0
 13 28  1  0  0  0
 17 29  1  0  0  0
 17 30  1  0  0  0
 17 31  1  0  0  0
 18 32  1  0  0  0
 18 33  1  0  0  0
 18 34  1  0  0  0
 19 35  1  0  0  0
 19 36  1  0  0  0
 19 37  1  0  0  0
 20 38  1  0  0  0
 20 39  1  0  0  0
 20 40  1  0  0  0
M  END
$$$$
