1xff_ligand
  -I-interpret- 

 20 19  0  0  0  0  0  0  0  0999 V2000
    6.4050   30.7060   29.8130 N   0  3  0  0  0
    5.5520   30.4970   28.5940 C   0  0  0  0  0
    4.9540   29.1030   28.5460 C   0  0  0  0  0
    4.0110   28.8530   27.7710 O   0  0  0  0  0
    6.3450   30.7490   27.3220 C   0  0  0  0  0
    7.5250   29.8070   27.0560 C   0  0  0  0  0
    8.1800   30.1280   25.7280 C   0  0  0  0  0
    8.8920   31.1610   25.6620 O   0  0  0  0  0
    8.0170   29.3580   24.7530 O   0  0  0  0  0
    5.4220   28.2370   29.3110 O   0  0  0  0  0
    5.8488   30.5306   30.6498 H   0  0  0  0  0
    7.1957   30.0621   29.7877 H   0  0  0  0  0
    6.7476   31.6667   29.8262 H   0  0  0  0  0
    4.7362   31.2168   28.6610 H   0  0  0  0  0
    6.7715   31.7469   27.4241 H   0  0  0  0  0
    5.6482   30.6016   26.4969 H   0  0  0  0  0
    7.1569   28.7814   27.0278 H   0  0  0  0  0
    8.2608   29.9319   27.8504 H   0  0  0  0  0
    8.8848   31.6080   26.5115 H   0  0  0  0  0
    6.1373   28.6186   29.8251 H   0  0  0  0  0
  1  2  1  0  0  0
  2  3  1  0  0  0
  2  5  1  0  0  0
  3  4  2  0  0  0
  3 10  1  0  0  0
  5  6  1  0  0  0
  6  7  1  0  0  0
  7  8  1  0  0  0
  7  9  2  0  0  0
  1 11  1  0  0  0
  1 12  1  0  0  0
  1 13  1  0  0  0
  2 14  1  0  0  0
  5 15  1  0  0  0
  5 16  1  0  0  0
  6 17  1  0  0  0
  6 18  1  0  0  0
  8 19  1  0  0  0
 10 20  1  0  0  0
M  END
$$$$
