3wcb_ligand
  -I-interpret- 

 57 57  0  0  0  0  0  0  0  0999 V2000
   10.3940  -16.2320  -13.0450 O   0  0  0  0  0
   11.7970  -16.5050  -13.7860 P   0  0  0  0  0
   12.4190  -15.0550  -14.1050 O   0  0  0  0  0
   11.6390  -17.3350  -15.0020 O   0  0  0  0  0
   12.9050  -17.2790  -12.5010 C   0  0  0  0  0
   13.0240  -16.1260  -11.0380 P   0  0  0  0  0
   14.4550  -16.4090  -10.3570 O   0  0  0  0  0
   13.1040  -14.6410  -11.6540 O   0  0  0  0  0
   11.8970  -16.2880  -10.0910 O   0  0  0  0  0
   12.5190  -18.6070  -12.1440 O   0  0  0  0  0
   14.3070  -17.3710  -13.1090 C   0  0  0  0  0
   14.3470  -18.4450  -14.1290 N   0  3  0  0  0
   14.1840  -18.2770  -15.4370 C   0  0  0  0  0
   14.4640  -19.7470  -13.8870 C   0  0  0  0  0
   14.3460  -20.3910  -15.0450 C   0  0  0  0  0
   14.1590  -19.4870  -16.0020 N   0  0  0  0  0
   13.7790  -19.7650  -17.4020 C   0  0  0  0  0
   14.2700  -21.1450  -17.8520 C   0  0  0  0  0
   15.0570  -21.0050  -19.1560 C   0  0  0  0  0
   14.1030  -21.1200  -20.3470 C   0  0  0  0  0
   14.5440  -20.1550  -21.4500 C   0  0  0  0  0
   15.2670  -20.9330  -22.5520 C   0  0  0  0  0
   14.8180  -20.4170  -23.9210 C   0  0  0  0  0
   15.9270  -20.6570  -24.9480 C   0  0  0  0  0
   15.8650  -19.5760  -26.0280 C   0  0  0  0  0
   16.2470  -20.1790  -27.3810 C   0  0  0  0  0
   10.5448  -15.6923  -12.2655 H   0  0  0  0  0
   12.5016  -14.5568  -13.2886 H   0  0  0  0  0
   15.1481  -16.2909  -11.0106 H   0  0  0  0  0
   13.8473  -14.5864  -12.2591 H   0  0  0  0  0
   11.6405  -18.5906  -11.7572 H   0  0  0  0  0
   15.0255  -17.5974  -12.3213 H   0  0  0  0  0
   14.5572  -16.4200  -13.5793 H   0  0  0  0  0
   14.0880  -17.3231  -15.9557 H   0  0  0  0  0
   14.6277  -20.2058  -12.9119 H   0  0  0  0  0
   14.3942  -21.4709  -15.1849 H   0  0  0  0  0
   14.2366  -19.0098  -18.0410 H   0  0  0  0  0
   12.6917  -19.7437  -17.4760 H   0  0  0  0  0
   13.4143  -21.8009  -18.0123 H   0  0  0  0  0
   14.9141  -21.5705  -17.0825 H   0  0  0  0  0
   15.8052  -21.7956  -19.2139 H   0  0  0  0  0
   15.5492  -20.0327  -19.1791 H   0  0  0  0  0
   13.0916  -20.8685  -20.0276 H   0  0  0  0  0
   14.1208  -22.1407  -20.7291 H   0  0  0  0  0
   15.2187  -19.4087  -21.0306 H   0  0  0  0  0
   13.6685  -19.6600  -21.8702 H   0  0  0  0  0
   15.0255  -21.9925  -22.4665 H   0  0  0  0  0
   16.3432  -20.7951  -22.4473 H   0  0  0  0  0
   14.6096  -19.3491  -23.8554 H   0  0  0  0  0
   13.9168  -20.9464  -24.2302 H   0  0  0  0  0
   15.7916  -21.6366  -25.4065 H   0  0  0  0  0
   16.8965  -20.6188  -24.4512 H   0  0  0  0  0
   16.5613  -18.7752  -25.7790 H   0  0  0  0  0
   14.8523  -19.1766  -26.0827 H   0  0  0  0  0
   17.2594  -20.5791  -27.3262 H   0  0  0  0  0
   15.5512  -20.9803  -27.6297 H   0  0  0  0  0
   16.2016  -19.4057  -28.1478 H   0  0  0  0  0
  1  2  1  0  0  0
  2  3  1  0  0  0
  2  4  2  0  0  0
  2  5  1  0  0  0
  5  6  1  0  0  0
  5 10  1  0  0  0
  5 11  1  0  0  0
  6  7  1  0  0  0
  6  8  1  0  0  0
  6  9  2  0  0  0
 11 12  1  0  0  0
 12 13  4  0  0  0
 12 14  4  0  0  0
 13 16  4  0  0  0
 14 15  4  0  0  0
 15 16  4  0  0  0
 16 17  1  0  0  0
 17 18  1  0  0  0
 18 19  1  0  0  0
 19 20  1  0  0  0
 20 21  1  0  0  0
 21 22  1  0  0  0
 22 23  1  0  0  0
 23 24  1  0  0  0
 24 25  1  0  0  0
 25 26  1  0  0  0
  1 27  1  0  0  0
  3 28  1  0  0  0
  7 29  1  0  0  0
  8 30  1  0  0  0
 10 31  1  0  0  0
 11 32  1  0  0  0
 11 33  1  0  0  0
 13 34  1  0  0  0
 14 35  1  0  0  0
 15 36  1  0  0  0
 17 37  1  0  0  0
 17 38  1  0  0  0
 18 39  1  0  0  0
 18 40  1  0  0  0
 19 41  1  0  0  0
 19 42  1  0  0  0
 20 43  1  0  0  0
 20 44  1  0  0  0
 21 45  1  0  0  0
 21 46  1  0  0  0
 22 47  1  0  0  0
 22 48  1  0  0  0
 23 49  1  0  0  0
 23 50  1  0  0  0
 24 51  1  0  0  0
 24 52  1  0  0  0
 25 53  1  0  0  0
 25 54  1  0  0  0
 26 55  1  0  0  0
 26 56  1  0  0  0
 26 57  1  0  0  0
M  END
$$$$
