### 
### Created by X-TOOL on Mon Sep 10 21:13:18 2018
### 

@<TRIPOS>MOLECULE
3wcb_ligand
   53    53     1     0     0
SMALL
GAST_HUCK


@<TRIPOS>ATOM
      1 OAE        10.3940  -16.2320  -13.0450 O.co2     1 8PH        -0.5594
      2 PAY        11.7970  -16.5050  -13.7860 P.3       1 8PH         0.1110
      3 OAF        12.4190  -15.0550  -14.1050 O.co2     1 8PH        -0.5594
      4 OAB        11.6390  -17.3350  -15.0020 O.co2     1 8PH        -0.5594
      5 CAX        12.9050  -17.2790  -12.5010 C.3       1 8PH         0.2171
      6 PAZ        13.0240  -16.1260  -11.0380 P.3       1 8PH         0.1110
      7 OAG        14.4550  -16.4090  -10.3570 O.co2     1 8PH        -0.5594
      8 OAH        13.1040  -14.6410  -11.6540 O.co2     1 8PH        -0.5594
      9 OAC        11.8970  -16.2880  -10.0910 O.co2     1 8PH        -0.5594
     10 OAD        12.5190  -18.6070  -12.1440 O.3       1 8PH        -0.3586
     11 CAU        14.3070  -17.3710  -13.1090 C.3       1 8PH         0.0809
     12 NAW        14.3470  -18.4450  -14.1290 N.2       1 8PH        -0.2649
     13 CAK        14.1840  -18.2770  -15.4370 C.2       1 8PH         0.1886
     14 CAJ        14.4640  -19.7470  -13.8870 C.2       1 8PH         0.1186
     15 CAI        14.3460  -20.3910  -15.0450 C.2       1 8PH         0.1816
     16 NAV        14.1590  -19.4870  -16.0020 N.pl3     1 8PH        -0.1380
     17 CAT        13.7790  -19.7650  -17.4020 C.3       1 8PH         0.0877
     18 CAS        14.2700  -21.1450  -17.8520 C.3       1 8PH        -0.0215
     19 CAR        15.0570  -21.0050  -19.1560 C.3       1 8PH        -0.0503
     20 CAQ        14.1030  -21.1200  -20.3470 C.3       1 8PH        -0.0530
     21 CAP        14.5440  -20.1550  -21.4500 C.3       1 8PH        -0.0531
     22 CAO        15.2670  -20.9330  -22.5520 C.3       1 8PH        -0.0531
     23 CAN        14.8180  -20.4170  -23.9210 C.3       1 8PH        -0.0531
     24 CAM        15.9270  -20.6570  -24.9480 C.3       1 8PH        -0.0533
     25 CAL        15.8650  -19.5760  -26.0280 C.3       1 8PH        -0.0559
     26 CAA        16.2470  -20.1790  -27.3810 C.3       1 8PH        -0.0653
     27 H          12.5452  -19.1613  -12.9151 H         1 8PH         0.2133
     28 H          15.0345  -17.5953  -12.3150 H         1 8PH         0.0476
     29 H          14.5634  -16.4109  -13.5807 H         1 8PH         0.0476
     30 H          14.0880  -17.3240  -15.9552 H         1 8PH         0.1987
     31 H          14.6276  -20.2054  -12.9128 H         1 8PH         0.1406
     32 H          14.3941  -21.4699  -15.1848 H         1 8PH         0.2017
     33 H          14.2237  -18.9975  -18.0525 H         1 8PH         0.0657
     34 H          12.6830  -19.7294  -17.4890 H         1 8PH         0.0657
     35 H          13.4064  -21.8067  -18.0141 H         1 8PH         0.0294
     36 H          14.9202  -21.5742  -17.0755 H         1 8PH         0.0294
     37 H          15.8131  -21.8018  -19.2145 H         1 8PH         0.0266
     38 H          15.5550  -20.0245  -19.1794 H         1 8PH         0.0266
     39 H          13.0823  -20.8665  -20.0248 H         1 8PH         0.0265
     40 H          14.1206  -22.1500  -20.7326 H         1 8PH         0.0265
     41 H          15.2244  -19.4014  -21.0269 H         1 8PH         0.0265
     42 H          13.6608  -19.6548  -21.8739 H         1 8PH         0.0265
     43 H          15.0238  -22.0023  -22.4657 H         1 8PH         0.0265
     44 H          16.3531  -20.7943  -22.4463 H         1 8PH         0.0265
     45 H          14.6069  -19.3395  -23.8551 H         1 8PH         0.0265
     46 H          13.9081  -20.9505  -24.2331 H         1 8PH         0.0265
     47 H          15.7905  -21.6456  -25.4107 H         1 8PH         0.0265
     48 H          16.9054  -20.6186  -24.4468 H         1 8PH         0.0265
     49 H          16.5666  -18.7670  -25.7767 H         1 8PH         0.0263
     50 H          14.8435  -19.1716  -26.0829 H         1 8PH         0.0263
     51 H          16.2016  -19.3995  -28.1558 H         1 8PH         0.0230
     52 H          15.5455  -20.9879  -27.6332 H         1 8PH         0.0230
     53 H          17.2686  -20.5832  -27.3270 H         1 8PH         0.0230
@<TRIPOS>BOND
     1    1    2 ar 
     2    2    3 ar 
     3    2    4 ar 
     4    2    5 1  
     5    5    6 1  
     6    5   10 1  
     7    5   11 1  
     8    6    7 ar 
     9    6    8 ar 
    10    6    9 ar 
    11   11   12 1  
    12   12   13 2  
    13   12   14 1  
    14   13   16 1  
    15   14   15 2  
    16   15   16 1  
    17   16   17 1  
    18   17   18 1  
    19   18   19 1  
    20   19   20 1  
    21   20   21 1  
    22   21   22 1  
    23   22   23 1  
    24   23   24 1  
    25   24   25 1  
    26   25   26 1  
    27   10   27 1  
    28   11   28 1  
    29   11   29 1  
    30   13   30 1  
    31   14   31 1  
    32   15   32 1  
    33   17   33 1  
    34   17   34 1  
    35   18   35 1  
    36   18   36 1  
    37   19   37 1  
    38   19   38 1  
    39   20   39 1  
    40   20   40 1  
    41   21   41 1  
    42   21   42 1  
    43   22   43 1  
    44   22   44 1  
    45   23   45 1  
    46   23   46 1  
    47   24   47 1  
    48   24   48 1  
    49   25   49 1  
    50   25   50 1  
    51   26   51 1  
    52   26   52 1  
    53   26   53 1  
@<TRIPOS>SUBSTRUCTURE
     1 8PH         1

