### 
### Created by X-TOOL on Mon Sep 10 21:12:47 2018
### 

@<TRIPOS>MOLECULE
1qf5_ligand
   50    51     1     0     0
SMALL
GAST_HUCK


@<TRIPOS>ATOM
      1 O1P        25.2110   11.8440   23.9120 O.co2     1 RPL        -0.5537
      2 O2P        27.2260   12.7610   23.0160 O.co2     1 RPL        -0.5537
      3 O3P        25.0750   13.5570   22.2830 O.co2     1 RPL        -0.5537
      4 P          25.8210   13.0640   23.4200 P.3       1 RPL         0.2008
      5 O5         25.8650   14.1420   24.6270 O.3       1 RPL        -0.2734
      6 C5         26.3270   13.8490   25.9290 C.3       1 RPL         0.1069
      7 C4         27.1680   14.9930   26.4930 C.3       1 RPL         0.1158
      8 O4         28.4210   15.0700   25.8250 O.3       1 RPL        -0.3387
      9 C3         26.5510   16.3600   26.2920 C.3       1 RPL         0.1134
     10 O3         27.1360   17.3120   27.1880 O.3       1 RPL        -0.3866
     11 C2         27.0050   16.6590   24.8400 C.3       1 RPL         0.1421
     12 O2         27.0320   18.0710   24.6620 O.3       1 RPL        -0.3851
     13 C1         28.4450   16.0750   24.7460 C.3       1 RPL         0.2716
     14 N1         28.5530   15.4530   23.5410 N.am      1 RPL        -0.2326
     15 C2         29.6160   15.9590   22.8240 C.2       1 RPL         0.2917
     16 O2         29.9260   15.5830   21.7460 O.2       1 RPL        -0.3910
     17 N3         30.2370   16.9470   23.5760 N.am      1 RPL        -0.1665
     18 C4         29.5210   17.0280   24.7520 C.2       1 RPL         0.2857
     19 O4         29.8460   17.8340   25.6210 O.2       1 RPL        -0.3282
     20 C5A        31.4080   17.7670   23.2140 C.3       1 RPL         0.0596
     21 C6A        31.1690   18.4570   21.8620 C.3       1 RPL        -0.0214
     22 C7A        30.0270   19.5020   21.9470 C.3       1 RPL         0.0059
     23 C8A        29.5780   19.9160   20.5100 C.3       1 RPL         0.0657
     24 C9A        28.2700   20.7080   20.5480 C.2       1 RPL         0.0858
     25 O91A       27.9690   21.5230   19.5170 O.co2     1 RPL        -0.5642
     26 O92A       27.4300   20.6180   21.5970 O.co2     1 RPL        -0.5642
     27 N10A       30.5980   20.7990   19.8170 N.4       1 RPL         0.4221
     28 O10A       31.1570   21.7600   20.7650 O.3       1 RPL        -0.3371
     29 C11A       31.6790   19.9990   19.2370 C.3       1 RPL         0.1046
     30 O11A       32.3850   20.7200   18.2300 O.3       1 RPL        -0.3545
     31 H1         26.9410   12.9370   25.8940 H         1 RPL         0.0639
     32 H2         25.4613   13.6832   26.5870 H         1 RPL         0.0639
     33 H3         27.3209   14.8128   27.5673 H         1 RPL         0.0648
     34 H4         25.4564   16.3479   26.3999 H         1 RPL         0.0646
     35 H5         26.9870   17.0347   28.0843 H         1 RPL         0.2100
     36 H6         26.3371   16.1906   24.1022 H         1 RPL         0.0658
     37 H7         27.6422   18.4554   25.2804 H         1 RPL         0.2099
     38 H8         27.9443   14.7277   23.2193 H         1 RPL         0.1863
     39 H9         32.2961   17.1220   23.1417 H         1 RPL         0.0576
     40 H10        31.5715   18.5306   23.9887 H         1 RPL         0.0576
     41 H11        30.9006   17.6952   21.1152 H         1 RPL         0.0291
     42 H12        32.0944   18.9644   21.5519 H         1 RPL         0.0291
     43 H13        30.3851   20.3906   22.4874 H         1 RPL         0.0339
     44 H14        29.1723   19.0655   22.4846 H         1 RPL         0.0339
     45 H15        29.4331   19.0004   19.9179 H         1 RPL         0.1037
     46 H16        30.1359   21.3027   19.0762 H         1 RPL         0.2428
     47 H17        31.5801   21.2926   21.4756 H         1 RPL         0.2697
     48 H18        31.2499   19.0900   18.7903 H         1 RPL         0.1158
     49 H19        32.3827   19.7186   20.0346 H         1 RPL         0.1158
     50 H20        33.0767   20.1730   17.8766 H         1 RPL         0.2151
@<TRIPOS>BOND
     1    1    4 ar 
     2    4    2 ar 
     3    4    3 ar 
     4    4    5 1  
     5    5    6 1  
     6    6    7 1  
     7    7    8 1  
     8    7    9 1  
     9    8   13 1  
    10    9   10 1  
    11    9   11 1  
    12   11   12 1  
    13   11   13 1  
    14   13   14 1  
    15   13   18 1  
    16   14   15 am 
    17   15   16 2  
    18   15   17 am 
    19   17   18 am 
    20   17   20 1  
    21   18   19 2  
    22   20   21 1  
    23   21   22 1  
    24   22   23 1  
    25   23   24 1  
    26   23   27 1  
    27   24   25 ar 
    28   24   26 ar 
    29   27   28 1  
    30   27   29 1  
    31   29   30 1  
    32    6   31 1  
    33    6   32 1  
    34    7   33 1  
    35    9   34 1  
    36   10   35 1  
    37   11   36 1  
    38   12   37 1  
    39   14   38 1  
    40   20   39 1  
    41   20   40 1  
    42   21   41 1  
    43   21   42 1  
    44   22   43 1  
    45   22   44 1  
    46   23   45 1  
    47   27   46 1  
    48   28   47 1  
    49   29   48 1  
    50   29   49 1  
    51   30   50 1  
@<TRIPOS>SUBSTRUCTURE
     1 RPL         1

