1qf5_ligand
  -I-interpret- 

 53 54  0  0  0  0  0  0  0  0999 V2000
   25.2110   11.8440   23.9120 O   0  0  0  0  0
   27.2260   12.7610   23.0160 O   0  0  0  0  0
   25.0750   13.5570   22.2830 O   0  0  0  0  0
   25.8210   13.0640   23.4200 P   0  0  0  0  0
   25.8650   14.1420   24.6270 O   0  0  0  0  0
   26.3270   13.8490   25.9290 C   0  0  0  0  0
   27.1680   14.9930   26.4930 C   0  0  0  0  0
   28.4210   15.0700   25.8250 O   0  0  0  0  0
   26.5510   16.3600   26.2920 C   0  0  0  0  0
   27.1360   17.3120   27.1880 O   0  0  0  0  0
   27.0050   16.6590   24.8400 C   0  0  0  0  0
   27.0320   18.0710   24.6620 O   0  0  0  0  0
   28.4450   16.0750   24.7460 C   0  0  0  0  0
   28.5530   15.4530   23.5410 N   0  0  0  0  0
   29.6160   15.9590   22.8240 C   0  0  0  0  0
   29.9260   15.5830   21.7460 O   0  0  0  0  0
   30.2370   16.9470   23.5760 N   0  0  0  0  0
   29.5210   17.0280   24.7520 C   0  0  0  0  0
   29.8460   17.8340   25.6210 O   0  0  0  0  0
   31.4080   17.7670   23.2140 C   0  0  0  0  0
   31.1690   18.4570   21.8620 C   0  0  0  0  0
   30.0270   19.5020   21.9470 C   0  0  0  0  0
   29.5780   19.9160   20.5100 C   0  0  0  0  0
   28.2700   20.7080   20.5480 C   0  0  0  0  0
   27.9690   21.5230   19.5170 O   0  0  0  0  0
   27.4300   20.6180   21.5970 O   0  0  0  0  0
   30.5980   20.7990   19.8170 N   0  3  0  0  0
   31.1570   21.7600   20.7650 O   0  0  0  0  0
   31.6790   19.9990   19.2370 C   0  0  0  0  0
   32.3850   20.7200   18.2300 O   0  0  0  0  0
   25.7089   11.5202   24.6662 H   0  0  0  0  0
   27.7131   12.4347   23.7762 H   0  0  0  0  0
   26.9471   12.9538   25.8828 H   0  0  0  0  0
   25.4635   13.7019   26.5777 H   0  0  0  0  0
   27.2523   14.7648   27.5555 H   0  0  0  0  0
   25.4757   16.4045   26.4647 H   0  0  0  0  0
   26.7334   18.1720   27.0468 H   0  0  0  0  0
   26.3482   16.2314   24.0824 H   0  0  0  0  0
   27.3116   18.2742   23.7664 H   0  0  0  0  0
   27.9322   14.7132   23.2129 H   0  0  0  0  0
   32.2857   17.1251   23.1387 H   0  0  0  0  0
   31.5654   18.5255   23.9808 H   0  0  0  0  0
   30.8863   17.6972   21.1334 H   0  0  0  0  0
   32.0851   18.9715   21.5718 H   0  0  0  0  0
   30.3846   20.3830   22.4799 H   0  0  0  0  0
   29.1799   19.0667   22.4771 H   0  0  0  0  0
   29.4604   18.9806   19.9629 H   0  0  0  0  0
   28.6642   21.4722   18.8569 H   0  0  0  0  0
   30.1230   21.2979   19.0648 H   0  0  0  0  0
   31.8007   22.3131   20.3162 H   0  0  0  0  0
   31.2426   19.1101   18.7815 H   0  0  0  0  0
   32.3801   19.7413   20.0308 H   0  0  0  0  0
   33.0840   20.1673   17.8729 H   0  0  0  0  0
  1  4  1  0  0  0
  4  2  1  0  0  0
  4  3  2  0  0  0
  4  5  1  0  0  0
  5  6  1  0  0  0
  6  7  1  0  0  0
  7  8  1  0  0  0
  7  9  1  0  0  0
  8 13  1  0  0  0
  9 10  1  0  0  0
  9 11  1  0  0  0
 11 12  1  0  0  0
 11 13  1  0  0  0
 13 14  1  0  0  0
 13 18  1  0  0  0
 14 15  1  0  0  0
 15 16  2  0  0  0
 15 17  1  0  0  0
 17 18  1  0  0  0
 17 20  1  0  0  0
 18 19  2  0  0  0
 20 21  1  0  0  0
 21 22  1  0  0  0
 22 23  1  0  0  0
 23 24  1  0  0  0
 23 27  1  0  0  0
 24 25  1  0  0  0
 24 26  2  0  0  0
 27 28  1  0  0  0
 27 29  1  0  0  0
 29 30  1  0  0  0
  1 31  1  0  0  0
  2 32  1  0  0  0
  6 33  1  0  0  0
  6 34  1  0  0  0
  7 35  1  0  0  0
  9 36  1  0  0  0
 10 37  1  0  0  0
 11 38  1  0  0  0
 12 39  1  0  0  0
 14 40  1  0  0  0
 20 41  1  0  0  0
 20 42  1  0  0  0
 21 43  1  0  0  0
 21 44  1  0  0  0
 22 45  1  0  0  0
 22 46  1  0  0  0
 23 47  1  0  0  0
 25 48  1  0  0  0
 27 49  1  0  0  0
 28 50  1  0  0  0
 29 51  1  0  0  0
 29 52  1  0  0  0
 30 53  1  0  0  0
M  END
$$$$
