2rib_ligand
  -I-interpret- 

 28 28  0  0  0  0  0  0  0  0999 V2000
   27.7570  -17.1490   10.5150 C   0  0  0  0  0
   26.3760  -17.3870    9.8010 C   0  0  0  0  0
   26.0510  -16.1850    8.8380 C   0  0  0  0  0
   25.9990  -14.8700    9.6640 C   0  0  0  0  0
   27.4110  -14.6680   10.3120 C   0  0  0  0  0
   27.4180  -13.4150   11.1650 C   0  0  0  0  0
   28.7930  -13.1780   11.7970 C   0  0  0  0  0
   28.7320  -17.2780    9.7900 O   0  0  0  0  0
   25.3620  -17.5050   10.8080 O   0  0  0  0  0
   24.7530  -16.3970    8.1900 O   0  0  0  0  0
   25.7110  -13.7600    8.8250 O   0  0  0  0  0
   27.7210  -15.8300   11.1710 O   0  0  0  0  0
   26.4480  -13.6160   12.1780 O   0  0  0  0  0
   28.7550  -12.0020   12.5980 O   0  0  0  0  0
   27.8859  -17.9362   11.2578 H   0  0  0  0  0
   26.4149  -18.2987    9.2048 H   0  0  0  0  0
   26.8262  -16.1177    8.0747 H   0  0  0  0  0
   25.2173  -14.9381   10.4205 H   0  0  0  0  0
   28.1549  -14.5721    9.5211 H   0  0  0  0  0
   27.1936  -12.5388   10.5568 H   0  0  0  0  0
   29.5369  -13.0557   11.0097 H   0  0  0  0  0
   29.0567  -14.0322   12.4206 H   0  0  0  0  0
   28.7152  -18.1481    9.3848 H   0  0  0  0  0
   25.5723  -18.2408   11.3876 H   0  0  0  0  0
   24.7808  -17.2088    7.6784 H   0  0  0  0  0
   24.8464  -13.8785    8.4250 H   0  0  0  0  0
   25.5901  -13.7636   11.7732 H   0  0  0  0  0
   29.6181  -11.8567   12.9923 H   0  0  0  0  0
  1  2  1  0  0  0
  1  8  1  0  0  0
  1 12  1  0  0  0
  2  3  1  0  0  0
  2  9  1  0  0  0
  3  4  1  0  0  0
  3 10  1  0  0  0
  4  5  1  0  0  0
  4 11  1  0  0  0
  5  6  1  0  0  0
  5 12  1  0  0  0
  6  7  1  0  0  0
  6 13  1  0  0  0
  7 14  1  0  0  0
  1 15  1  0  0  0
  2 16  1  0  0  0
  3 17  1  0  0  0
  4 18  1  0  0  0
  5 19  1  0  0  0
  6 20  1  0  0  0
  7 21  1  0  0  0
  7 22  1  0  0  0
  8 23  1  0  0  0
  9 24  1  0  0  0
 10 25  1  0  0  0
 11 26  1  0  0  0
 13 27  1  0  0  0
 14 28  1  0  0  0
M  END
$$$$
