### 
### Created by X-TOOL on Mon Sep 10 21:13:33 2018
### 

@<TRIPOS>MOLECULE
5vsj_ligand
   55    56     1     0     0
SMALL
GAST_HUCK


@<TRIPOS>ATOM
      1 C10        24.3850  -29.8870  283.1240 C.3       1 9HV         0.0324
      2 C11        23.2170  -29.9050  284.1330 C.3       1 9HV         0.0894
      3 C14        25.2450  -31.3740  284.6990 C.3       1 9HV        -0.0157
      4 C15        25.9210  -32.7620  284.6180 C.3       1 9HV         0.0596
      5 O18        25.2400  -35.1770  285.8070 O.co2     1 9HV        -0.5621
      6 C20        26.3030  -31.1930  282.5740 C.3       1 9HV         0.0327
      7 C21        27.7560  -30.7070  282.3520 C.3       1 9HV         0.0894
      8 O24        23.8320  -34.1610  279.7580 O.3       1 9HV        -0.3841
      9 C02        28.2260  -31.4930  277.4410 C.3       1 9HV         0.0730
     10 C03        27.2050  -32.2980  278.2630 C.3       1 9HV         0.1130
     11 C05        25.0200  -32.1290  279.3050 C.3       1 9HV         0.1886
     12 C07        25.4760  -31.0180  281.2940 C.3       1 9HV         0.1373
     13 C08        24.0780  -30.6400  281.8130 C.3       1 9HV         0.1312
     14 C23        24.6190  -33.5200  278.7710 C.3       1 9HV         0.1341
     15 C25        25.8550  -34.3900  278.4470 C.3       1 9HV         0.1141
     16 C27        26.8220  -33.6080  277.5400 C.3       1 9HV         0.1119
     17 N13        25.6390  -30.4320  283.6410 N.4       1 9HV         0.2476
     18 O01        29.5290  -32.0070  277.7280 O.3       1 9HV        -0.3924
     19 O04        26.0410  -31.4990  278.5160 O.3       1 9HV        -0.3405
     20 O06        25.4560  -32.2800  280.6320 O.3       1 9HV        -0.3370
     21 O09        23.3220  -29.8170  280.8980 O.3       1 9HV        -0.3833
     22 O12        22.2440  -28.9490  283.7080 O.3       1 9HV        -0.3894
     23 O17        23.4370  -33.4700  285.4550 O.co2     1 9HV        -0.5621
     24 O19        24.2880  -34.7090  283.4370 O.co2     1 9HV        -0.5621
     25 O22        27.7870  -29.3630  281.9000 O.3       1 9HV        -0.3894
     26 O26        25.4690  -35.5860  277.7890 O.3       1 9HV        -0.3864
     27 O28        27.9680  -34.4050  277.2540 O.3       1 9HV        -0.3865
     28 P16        24.6550  -34.0650  284.8420 P.3       1 9HV         0.0628
     29 H1         24.5598  -28.8306  282.8721 H         1 9HV         0.0901
     30 H2         23.5863  -29.6400  285.1347 H         1 9HV         0.0614
     31 H3         22.7656  -30.9077  284.1620 H         1 9HV         0.0614
     32 H4         25.5017  -30.9248  285.6697 H         1 9HV         0.0828
     33 H5         24.1564  -31.5198  284.6389 H         1 9HV         0.0828
     34 H6         26.6805  -32.8477  285.4091 H         1 9HV         0.0504
     35 H7         26.4004  -32.8805  283.6351 H         1 9HV         0.0504
     36 H8         26.3270  -32.2574  282.8504 H         1 9HV         0.0901
     37 H9         28.2375  -31.3491  281.5998 H         1 9HV         0.0614
     38 H10        28.3066  -30.7783  283.3016 H         1 9HV         0.0614
     39 H11        24.3387  -34.2504  280.5566 H         1 9HV         0.2101
     40 H12        28.1745  -30.4301  277.7196 H         1 9HV         0.0584
     41 H13        28.0100  -31.6017  276.3679 H         1 9HV         0.0584
     42 H14        27.6645  -32.5588  279.2278 H         1 9HV         0.0647
     43 H15        24.1310  -31.4814  279.2916 H         1 9HV         0.0938
     44 H16        25.8854  -30.2380  280.6353 H         1 9HV         0.0683
     45 H17        23.4963  -31.5503  282.0205 H         1 9HV         0.0679
     46 H18        24.0254  -33.3943  277.8535 H         1 9HV         0.0671
     47 H19        26.3665  -34.6460  279.3866 H         1 9HV         0.0648
     48 H20        26.3180  -33.3620  276.5937 H         1 9HV         0.0647
     49 H21        26.2413  -29.7050  283.9942 H         1 9HV         0.2043
     50 H22        29.5657  -32.9256  277.4885 H         1 9HV         0.2095
     51 H23        22.4735  -29.6209  281.2774 H         1 9HV         0.2102
     52 H24        21.9309  -29.1812  282.8416 H         1 9HV         0.2097
     53 H25        27.3762  -28.8027  282.5478 H         1 9HV         0.2097
     54 H26        25.0376  -35.3707  276.9705 H         1 9HV         0.2100
     55 H27        28.5603  -33.9167  276.6942 H         1 9HV         0.2100
@<TRIPOS>BOND
     1    1    2 1  
     2   13    1 1  
     3    1   17 1  
     4    2   22 1  
     5    3    4 1  
     6   17    3 1  
     7    4   28 1  
     8   28    5 ar 
     9    6    7 1  
    10   12    6 1  
    11    6   17 1  
    12    7   25 1  
    13   14    8 1  
    14   10    9 1  
    15    9   18 1  
    16   10   16 1  
    17   19   10 1  
    18   11   14 1  
    19   11   19 1  
    20   20   11 1  
    21   12   13 1  
    22   12   20 1  
    23   13   21 1  
    24   14   15 1  
    25   15   16 1  
    26   15   26 1  
    27   16   27 1  
    28   28   23 ar 
    29   28   24 ar 
    30    1   29 1  
    31    2   30 1  
    32    2   31 1  
    33    3   32 1  
    34    3   33 1  
    35    4   34 1  
    36    4   35 1  
    37    6   36 1  
    38    7   37 1  
    39    7   38 1  
    40    8   39 1  
    41    9   40 1  
    42    9   41 1  
    43   10   42 1  
    44   11   43 1  
    45   12   44 1  
    46   13   45 1  
    47   14   46 1  
    48   15   47 1  
    49   16   48 1  
    50   17   49 1  
    51   18   50 1  
    52   21   51 1  
    53   22   52 1  
    54   25   53 1  
    55   26   54 1  
    56   27   55 1  
@<TRIPOS>SUBSTRUCTURE
     1 9HV         1

