5vsj_ligand
  -I-interpret- 

 57 58  0  0  0  0  0  0  0  0999 V2000
   24.3850  -29.8870  283.1240 C   0  0  0  0  0
   23.2170  -29.9050  284.1330 C   0  0  0  0  0
   25.2450  -31.3740  284.6990 C   0  0  0  0  0
   25.9210  -32.7620  284.6180 C   0  0  0  0  0
   25.2400  -35.1770  285.8070 O   0  0  0  0  0
   26.3030  -31.1930  282.5740 C   0  0  0  0  0
   27.7560  -30.7070  282.3520 C   0  0  0  0  0
   23.8320  -34.1610  279.7580 O   0  0  0  0  0
   28.2260  -31.4930  277.4410 C   0  0  0  0  0
   27.2050  -32.2980  278.2630 C   0  0  0  0  0
   25.0200  -32.1290  279.3050 C   0  0  0  0  0
   25.4760  -31.0180  281.2940 C   0  0  0  0  0
   24.0780  -30.6400  281.8130 C   0  0  0  0  0
   24.6190  -33.5200  278.7710 C   0  0  0  0  0
   25.8550  -34.3900  278.4470 C   0  0  0  0  0
   26.8220  -33.6080  277.5400 C   0  0  0  0  0
   25.6390  -30.4320  283.6410 N   0  3  0  0  0
   29.5290  -32.0070  277.7280 O   0  0  0  0  0
   26.0410  -31.4990  278.5160 O   0  0  0  0  0
   25.4560  -32.2800  280.6320 O   0  0  0  0  0
   23.3220  -29.8170  280.8980 O   0  0  0  0  0
   22.2440  -28.9490  283.7080 O   0  0  0  0  0
   23.4370  -33.4700  285.4550 O   0  0  0  0  0
   24.2880  -34.7090  283.4370 O   0  0  0  0  0
   27.7870  -29.3630  281.9000 O   0  0  0  0  0
   25.4690  -35.5860  277.7890 O   0  0  0  0  0
   27.9680  -34.4050  277.2540 O   0  0  0  0  0
   24.6550  -34.0650  284.8420 P   0  0  0  0  0
   24.5045  -28.8208  282.9315 H   0  0  0  0  0
   23.5793  -29.6527  285.1296 H   0  0  0  0  0
   22.7722  -30.8993  284.1731 H   0  0  0  0  0
   25.5486  -30.9296  285.6468 H   0  0  0  0  0
   24.1727  -31.5381  284.5926 H   0  0  0  0  0
   26.6748  -32.8471  285.4007 H   0  0  0  0  0
   26.3976  -32.8796  283.6448 H   0  0  0  0  0
   26.0260  -35.5610  285.4115 H   0  0  0  0  0
   26.3614  -32.2449  282.8538 H   0  0  0  0  0
   28.2210  -31.3383  281.5948 H   0  0  0  0  0
   28.2902  -30.7664  283.3002 H   0  0  0  0  0
   23.5720  -35.0300  279.4437 H   0  0  0  0  0
   28.1718  -30.4366  277.7040 H   0  0  0  0  0
   28.0103  -31.5871  276.3767 H   0  0  0  0  0
   27.6615  -32.5659  279.2159 H   0  0  0  0  0
   24.1487  -31.4765  279.2490 H   0  0  0  0  0
   25.8552  -30.2728  280.5948 H   0  0  0  0  0
   23.4461  -31.5184  281.9439 H   0  0  0  0  0
   24.0592  -33.3932  277.8444 H   0  0  0  0  0
   26.3483  -34.6434  279.3854 H   0  0  0  0  0
   26.3507  -33.3643  276.5878 H   0  0  0  0  0
   26.2661  -29.7008  283.9764 H   0  0  0  0  0
   30.1831  -31.5174  277.2240 H   0  0  0  0  0
   22.4645  -29.6188  281.2814 H   0  0  0  0  0
   21.5087  -28.9465  284.3252 H   0  0  0  0  0
   25.0768  -35.0914  283.0457 H   0  0  0  0  0
   28.6986  -29.0907  281.7717 H   0  0  0  0  0
   26.2497  -36.1107  277.5972 H   0  0  0  0  0
   27.6938  -35.2086  276.8061 H   0  0  0  0  0
  1  2  1  0  0  0
 13  1  1  0  0  0
  1 17  1  0  0  0
  2 22  1  0  0  0
  3  4  1  0  0  0
 17  3  1  0  0  0
  4 28  1  0  0  0
 28  5  1  0  0  0
  6  7  1  0  0  0
 12  6  1  0  0  0
  6 17  1  0  0  0
  7 25  1  0  0  0
 14  8  1  0  0  0
 10  9  1  0  0  0
  9 18  1  0  0  0
 10 16  1  0  0  0
 19 10  1  0  0  0
 11 14  1  0  0  0
 11 19  1  0  0  0
 20 11  1  0  0  0
 12 13  1  0  0  0
 12 20  1  0  0  0
 13 21  1  0  0  0
 14 15  1  0  0  0
 15 16  1  0  0  0
 15 26  1  0  0  0
 16 27  1  0  0  0
 28 23  2  0  0  0
 28 24  1  0  0  0
  1 29  1  0  0  0
  2 30  1  0  0  0
  2 31  1  0  0  0
  3 32  1  0  0  0
  3 33  1  0  0  0
  4 34  1  0  0  0
  4 35  1  0  0  0
  5 36  1  0  0  0
  6 37  1  0  0  0
  7 38  1  0  0  0
  7 39  1  0  0  0
  8 40  1  0  0  0
  9 41  1  0  0  0
  9 42  1  0  0  0
 10 43  1  0  0  0
 11 44  1  0  0  0
 12 45  1  0  0  0
 13 46  1  0  0  0
 14 47  1  0  0  0
 15 48  1  0  0  0
 16 49  1  0  0  0
 17 50  1  0  0  0
 18 51  1  0  0  0
 21 52  1  0  0  0
 22 53  1  0  0  0
 24 54  1  0  0  0
 25 55  1  0  0  0
 26 56  1  0  0  0
 27 57  1  0  0  0
M  END
$$$$
