### 
### Created by X-TOOL on Mon Sep 10 21:13:33 2018
### 

@<TRIPOS>MOLECULE
5w94_ligand
   66    66     1     0     0
SMALL
GAST_HUCK


@<TRIPOS>ATOM
      1 N         -12.4380  -79.5400  -34.3380 N.4       1 PHE         0.2394
      2 CA        -11.8550  -80.0460  -33.0980 C.3       1 PHE         0.0744
      3 C         -10.4060  -80.5060  -33.3230 C.2       1 PHE         0.2289
      4 O          -9.8930  -80.4270  -34.4430 O.2       1 PHE        -0.3905
      5 CB        -12.7000  -81.2010  -32.5390 C.3       1 PHE         0.0416
      6 CG        -12.9310  -81.1240  -31.0510 C.ar      1 PHE        -0.0353
      7 CD1       -11.8610  -81.0090  -30.1650 C.ar      1 PHE        -0.0600
      8 CD2       -14.2230  -81.1610  -30.5410 C.ar      1 PHE        -0.0600
      9 CE1       -12.0690  -80.9290  -28.8080 C.ar      1 PHE        -0.0686
     10 CE2       -14.4430  -81.0830  -29.1810 C.ar      1 PHE        -0.0686
     11 CZ        -13.3610  -80.9650  -28.3130 C.ar      1 PHE        -0.0687
     12 N          -9.7770  -81.0060  -32.2520 N.am      1 TPO        -0.2582
     13 CA         -8.4060  -81.5590  -32.2400 C.3       1 TPO         0.1613
     14 CB         -8.3830  -83.0820  -32.7340 C.3       1 TPO         0.1262
     15 CG2        -9.7410  -83.6040  -33.2580 C.3       1 TPO        -0.0298
     16 OG1        -7.3240  -83.3710  -33.6720 O.3       1 TPO        -0.2685
     17 P          -6.8250  -84.8850  -33.3890 P.3       1 TPO         0.2014
     18 O1P        -7.3060  -85.8560  -34.5950 O.co2     1 TPO        -0.5537
     19 O2P        -7.4980  -85.3270  -32.1380 O.co2     1 TPO        -0.5537
     20 O3P        -5.2120  -84.9240  -33.2480 O.co2     1 TPO        -0.5537
     21 C          -7.2720  -80.7080  -32.8790 C.2       1 TPO         0.2069
     22 O          -6.9760  -80.8250  -34.0720 O.2       1 TPO        -0.3943
     23 N          -6.6350  -79.8560  -32.0770 N.am      1 SEP        -0.2612
     24 CA         -5.6140  -78.9470  -32.6080 C.3       1 SEP         0.1586
     25 CB         -5.6230  -77.5950  -31.8590 C.3       1 SEP         0.1184
     26 OG         -4.3940  -76.8800  -32.0090 O.3       1 SEP        -0.2714
     27 C          -4.2150  -79.5810  -32.6380 C.2       1 SEP         0.2061
     28 O          -4.0820  -80.8090  -32.5730 O.2       1 SEP        -0.3943
     29 P          -4.5060  -75.4950  -32.8570 P.3       1 SEP         0.2010
     30 O1P        -5.5640  -75.7050  -34.0650 O.co2     1 SEP        -0.5537
     31 O2P        -3.0410  -75.1320  -33.4490 O.co2     1 SEP        -0.5537
     32 O3P        -4.9850  -74.2560  -31.9280 O.co2     1 SEP        -0.5537
     33 N          -3.1900  -78.7320  -32.7550 N.am      1 ASP        -0.2679
     34 CA         -1.7890  -79.1590  -32.8200 C.3       1 ASP         0.1057
     35 C          -0.8370  -77.9550  -32.7960 C.2       1 ASP         0.0618
     36 O          -0.6540  -77.3030  -31.7630 O.co2     1 ASP        -0.5665
     37 CB         -1.5440  -79.9970  -34.0780 C.3       1 ASP         0.0351
     38 CG         -0.4510  -81.0150  -33.8900 C.2       1 ASP         0.0387
     39 OD1         0.5840  -80.6660  -33.2780 O.co2     1 ASP        -0.5688
     40 OD2        -0.6400  -82.1660  -34.3410 O.co2     1 ASP        -0.5688
     41 OXT        -0.2250  -77.6010  -33.8090 O.co2     1 ASP        -0.5665
     42 H1        -13.3865  -79.2446  -34.1673 H         1 PHE         0.2017
     43 H2        -12.4334  -80.2695  -35.0336 H         1 PHE         0.2017
     44 H3        -11.8965  -78.7568  -34.6688 H         1 PHE         0.2017
     45 H4        -11.8492  -79.2302  -32.3601 H         1 PHE         0.1122
     46 H5        -12.1840  -82.1468  -32.7609 H         1 PHE         0.0507
     47 H6        -13.6780  -81.1900  -33.0424 H         1 PHE         0.0507
     48 H7        -10.8487  -80.9822  -30.5519 H         1 PHE         0.0557
     49 H8        -15.0653  -81.2519  -31.2173 H         1 PHE         0.0557
     50 H9        -11.2273  -80.8384  -28.1310 H         1 PHE         0.0599
     51 H10       -15.4537  -81.1135  -28.7903 H         1 PHE         0.0599
     52 H11       -13.5312  -80.9010  -27.2444 H         1 PHE         0.0559
     53 H12       -10.2774  -81.0053  -31.3862 H         1 TPO         0.1886
     54 H13        -8.1404  -81.5972  -31.1732 H         1 TPO         0.0830
     55 H14        -8.1606  -83.6751  -31.8347 H         1 TPO         0.0695
     56 H15        -9.6336  -84.6521  -33.5742 H         1 TPO         0.0260
     57 H16       -10.0625  -82.9937  -34.1148 H         1 TPO         0.0260
     58 H17       -10.4928  -83.5377  -32.4578 H         1 TPO         0.0260
     59 H18        -6.8556  -79.8361  -31.1018 H         1 SEP         0.1884
     60 H19        -5.8873  -78.7365  -33.6525 H         1 SEP         0.0827
     61 H20        -5.7925  -77.7852  -30.7889 H         1 SEP         0.0662
     62 H21        -6.4418  -76.9769  -32.2558 H         1 SEP         0.0662
     63 H22        -3.3891  -77.7531  -32.8007 H         1 ASP         0.1876
     64 H23        -1.5785  -79.7832  -31.9391 H         1 ASP         0.0745
     65 H24        -1.2610  -79.3237  -34.9005 H         1 ASP         0.0471
     66 H25        -2.4745  -80.5228  -34.3381 H         1 ASP         0.0471
@<TRIPOS>BOND
     1    1    2 1  
     2    2    3 1  
     3    2    5 1  
     4    3    4 2  
     5    3   12 am 
     6    5    6 1  
     7    6    7 ar 
     8    6    8 ar 
     9    7    9 ar 
    10    8   10 ar 
    11    9   11 ar 
    12   10   11 ar 
    13   12   13 1  
    14   13   14 1  
    15   13   21 1  
    16   14   15 1  
    17   14   16 1  
    18   16   17 1  
    19   17   18 ar 
    20   17   19 ar 
    21   17   20 ar 
    22   21   22 2  
    23   21   23 am 
    24   23   24 1  
    25   24   25 1  
    26   24   27 1  
    27   25   26 1  
    28   26   29 1  
    29   27   28 2  
    30   27   33 am 
    31   29   30 ar 
    32   29   31 ar 
    33   29   32 ar 
    34   33   34 1  
    35   34   35 1  
    36   34   37 1  
    37   35   36 ar 
    38   35   41 ar 
    39   37   38 1  
    40   38   39 ar 
    41   38   40 ar 
    42    1   42 1  
    43    1   43 1  
    44    1   44 1  
    45    2   45 1  
    46    5   46 1  
    47    5   47 1  
    48    7   48 1  
    49    8   49 1  
    50    9   50 1  
    51   10   51 1  
    52   11   52 1  
    53   12   53 1  
    54   13   54 1  
    55   14   55 1  
    56   15   56 1  
    57   15   57 1  
    58   15   58 1  
    59   23   59 1  
    60   24   60 1  
    61   25   61 1  
    62   25   62 1  
    63   33   63 1  
    64   34   64 1  
    65   37   65 1  
    66   37   66 1  
@<TRIPOS>SUBSTRUCTURE
     1 PHE         1

