5w94_ligand
  -I-interpret- 

 72 72  0  0  0  0  0  0  0  0999 V2000
  -12.4380  -79.5400  -34.3380 N   0  3  0  0  0
  -11.8550  -80.0460  -33.0980 C   0  0  0  0  0
  -10.4060  -80.5060  -33.3230 C   0  0  0  0  0
   -9.8930  -80.4270  -34.4430 O   0  0  0  0  0
  -12.7000  -81.2010  -32.5390 C   0  0  0  0  0
  -12.9310  -81.1240  -31.0510 C   0  0  0  0  0
  -11.8610  -81.0090  -30.1650 C   0  0  0  0  0
  -14.2230  -81.1610  -30.5410 C   0  0  0  0  0
  -12.0690  -80.9290  -28.8080 C   0  0  0  0  0
  -14.4430  -81.0830  -29.1810 C   0  0  0  0  0
  -13.3610  -80.9650  -28.3130 C   0  0  0  0  0
   -9.7770  -81.0060  -32.2520 N   0  0  0  0  0
   -8.4060  -81.5590  -32.2400 C   0  0  0  0  0
   -8.3830  -83.0820  -32.7340 C   0  0  0  0  0
   -9.7410  -83.6040  -33.2580 C   0  0  0  0  0
   -7.3240  -83.3710  -33.6720 O   0  0  0  0  0
   -6.8250  -84.8850  -33.3890 P   0  0  0  0  0
   -7.3060  -85.8560  -34.5950 O   0  0  0  0  0
   -7.4980  -85.3270  -32.1380 O   0  0  0  0  0
   -5.2120  -84.9240  -33.2480 O   0  0  0  0  0
   -7.2720  -80.7080  -32.8790 C   0  0  0  0  0
   -6.9760  -80.8250  -34.0720 O   0  0  0  0  0
   -6.6350  -79.8560  -32.0770 N   0  0  0  0  0
   -5.6140  -78.9470  -32.6080 C   0  0  0  0  0
   -5.6230  -77.5950  -31.8590 C   0  0  0  0  0
   -4.3940  -76.8800  -32.0090 O   0  0  0  0  0
   -4.2150  -79.5810  -32.6380 C   0  0  0  0  0
   -4.0820  -80.8090  -32.5730 O   0  0  0  0  0
   -4.5060  -75.4950  -32.8570 P   0  0  0  0  0
   -5.5640  -75.7050  -34.0650 O   0  0  0  0  0
   -3.0410  -75.1320  -33.4490 O   0  0  0  0  0
   -4.9850  -74.2560  -31.9280 O   0  0  0  0  0
   -3.1900  -78.7320  -32.7550 N   0  0  0  0  0
   -1.7890  -79.1590  -32.8200 C   0  0  0  0  0
   -0.8370  -77.9550  -32.7960 C   0  0  0  0  0
   -0.6540  -77.3030  -31.7630 O   0  0  0  0  0
   -1.5440  -79.9970  -34.0780 C   0  0  0  0  0
   -0.4510  -81.0150  -33.8900 C   0  0  0  0  0
    0.5840  -80.6660  -33.2780 O   0  0  0  0  0
   -0.6400  -82.1660  -34.3410 O   0  0  0  0  0
   -0.2250  -77.6010  -33.8090 O   0  0  0  0  0
  -11.8650  -78.7750  -34.6943 H   0  0  0  0  0
  -12.4718  -80.2908  -35.0276 H   0  0  0  0  0
  -13.3828  -79.2020  -34.1550 H   0  0  0  0  0
  -11.8478  -79.2343  -32.3706 H   0  0  0  0  0
  -12.1564  -82.1251  -32.7354 H   0  0  0  0  0
  -13.6761  -81.1519  -33.0217 H   0  0  0  0  0
  -10.8431  -80.9821  -30.5540 H   0  0  0  0  0
  -15.0699  -81.2524  -31.2210 H   0  0  0  0  0
  -11.2226  -80.8379  -28.1273 H   0  0  0  0  0
  -15.4593  -81.1136  -28.7881 H   0  0  0  0  0
  -13.5322  -80.9007  -27.2384 H   0  0  0  0  0
  -10.2874  -81.0053  -31.3689 H   0  0  0  0  0
   -8.1392  -81.5157  -31.1840 H   0  0  0  0  0
   -8.1693  -83.6372  -31.8207 H   0  0  0  0  0
  -10.4851  -83.5377  -32.4642 H   0  0  0  0  0
  -10.0585  -82.9984  -34.1069 H   0  0  0  0  0
   -9.6333  -84.6425  -33.5710 H   0  0  0  0  0
   -6.8806  -85.5847  -35.4117 H   0  0  0  0  0
   -4.8128  -84.6334  -34.0713 H   0  0  0  0  0
   -6.8600  -79.8357  -31.0823 H   0  0  0  0  0
   -5.8761  -78.7487  -33.6473 H   0  0  0  0  0
   -5.7672  -77.7985  -30.7979 H   0  0  0  0  0
   -6.4221  -76.9832  -32.2775 H   0  0  0  0  0
   -2.4248  -75.0104  -32.7229 H   0  0  0  0  0
   -4.3571  -74.1326  -31.2124 H   0  0  0  0  0
   -3.3931  -77.7335  -32.8016 H   0  0  0  0  0
   -1.5863  -79.7695  -31.9400 H   0  0  0  0  0
   -1.2400  -79.3215  -34.8776 H   0  0  0  0  0
   -2.4650  -80.5319  -34.3099 H   0  0  0  0  0
    0.5095  -79.7426  -33.0261 H   0  0  0  0  0
   -0.4513  -78.1831  -34.5380 H   0  0  0  0  0
  1  2  1  0  0  0
  2  3  1  0  0  0
  2  5  1  0  0  0
  3  4  2  0  0  0
  3 12  1  0  0  0
  5  6  1  0  0  0
  6  7  4  0  0  0
  6  8  4  0  0  0
  7  9  4  0  0  0
  8 10  4  0  0  0
  9 11  4  0  0  0
 10 11  4  0  0  0
 12 13  1  0  0  0
 13 14  1  0  0  0
 13 21  1  0  0  0
 14 15  1  0  0  0
 14 16  1  0  0  0
 16 17  1  0  0  0
 17 18  1  0  0  0
 17 19  2  0  0  0
 17 20  1  0  0  0
 21 22  2  0  0  0
 21 23  1  0  0  0
 23 24  1  0  0  0
 24 25  1  0  0  0
 24 27  1  0  0  0
 25 26  1  0  0  0
 26 29  1  0  0  0
 27 28  2  0  0  0
 27 33  1  0  0  0
 29 30  2  0  0  0
 29 31  1  0  0  0
 29 32  1  0  0  0
 33 34  1  0  0  0
 34 35  1  0  0  0
 34 37  1  0  0  0
 35 36  2  0  0  0
 35 41  1  0  0  0
 37 38  1  0  0  0
 38 39  1  0  0  0
 38 40  2  0  0  0
  1 42  1  0  0  0
  1 43  1  0  0  0
  1 44  1  0  0  0
  2 45  1  0  0  0
  5 46  1  0  0  0
  5 47  1  0  0  0
  7 48  1  0  0  0
  8 49  1  0  0  0
  9 50  1  0  0  0
 10 51  1  0  0  0
 11 52  1  0  0  0
 12 53  1  0  0  0
 13 54  1  0  0  0
 14 55  1  0  0  0
 15 56  1  0  0  0
 15 57  1  0  0  0
 15 58  1  0  0  0
 18 59  1  0  0  0
 20 60  1  0  0  0
 23 61  1  0  0  0
 24 62  1  0  0  0
 25 63  1  0  0  0
 25 64  1  0  0  0
 31 65  1  0  0  0
 32 66  1  0  0  0
 33 67  1  0  0  0
 34 68  1  0  0  0
 37 69  1  0  0  0
 37 70  1  0  0  0
 39 71  1  0  0  0
 41 72  1  0  0  0
M  END
$$$$
