3dri_ligand
  -I-interpret- 

 66 65  0  0  0  0  0  0  0  0999 V2000
   -3.6910   21.7610   -1.4650 N   0  3  0  0  0
   -3.8750   20.5110   -2.2770 C   0  0  0  0  0
   -2.6900   19.5610   -2.1860 C   0  0  0  0  0
   -2.7690   18.4180   -2.6540 O   0  0  0  0  0
   -4.1530   20.8610   -3.7160 C   0  0  0  0  0
   -1.5920   20.0460   -1.6110 N   0  0  0  0  0
   -0.4270   19.2250   -1.3090 C   0  0  0  0  0
   -0.4580   18.8200    0.1610 C   0  0  0  0  0
   -0.2540   17.6610    0.5050 O   0  0  0  0  0
    0.8390   20.0180   -1.5960 C   0  0  0  0  0
   -0.7070   19.7970    1.0250 N   0  0  0  0  0
   -0.5960   19.6010    2.4550 C   0  0  0  0  0
   -1.9790   19.3680    3.0590 C   0  0  0  0  0
   -2.9850   19.8330    2.5180 O   0  0  0  0  0
    0.0980   20.8110    3.0860 C   0  0  0  0  0
    1.3620   21.0450    2.4550 O   0  0  0  0  0
   -2.0080   18.6420    4.1750 N   0  0  0  0  0
   -3.2520   18.2770    4.8540 C   0  0  0  0  0
   -3.2120   18.7060    6.3060 C   0  0  0  0  0
   -2.1570   18.6860    6.9390 O   0  0  0  0  0
   -3.4660   16.7620    4.7870 C   0  0  0  0  0
   -4.3800   19.0650    6.8310 N   0  0  0  0  0
   -4.5800   19.1550    8.2730 C   0  0  0  0  0
   -4.1130   17.8430    8.9170 C   0  0  0  0  0
   -4.5140   16.7560    8.4950 O   0  0  0  0  0
   -6.0640   19.4040    8.5970 C   0  0  0  0  0
   -6.5120   20.6850    8.1420 O   0  0  0  0  0
   -3.2410   17.9380    9.9110 N   0  0  0  0  0
   -2.7820   16.7600   10.6310 C   0  0  0  0  0
   -1.5020   17.0280   11.3810 C   0  0  0  0  0
   -0.9947   16.1115   12.0812 O   0  0  0  0  0
   -2.5940   15.5570    9.6820 C   0  0  0  0  0
   -0.9456   18.1561   11.3085 O   0  0  0  0  0
   -3.5037   21.5099   -0.4943 H   0  0  0  0  0
   -2.9051   22.2942   -1.8372 H   0  0  0  0  0
   -4.5396   22.3248   -1.5140 H   0  0  0  0  0
   -4.7309   19.9854   -1.8537 H   0  0  0  0  0
   -3.2754   21.3424   -4.1476 H   0  0  0  0  0
   -4.3807   19.9517   -4.2723 H   0  0  0  0  0
   -5.0033   21.5412   -3.7654 H   0  0  0  0  0
   -1.5650   21.0370   -1.3710 H   0  0  0  0  0
   -0.4404   18.3292   -1.9299 H   0  0  0  0  0
    0.8546   20.9128   -0.9737 H   0  0  0  0  0
    1.7103   19.4027   -1.3717 H   0  0  0  0  0
    0.8560   20.3048   -2.6475 H   0  0  0  0  0
   -0.9846   20.7124    0.6708 H   0  0  0  0  0
    0.0085   18.7176    2.6608 H   0  0  0  0  0
    0.2606   20.6149    4.1458 H   0  0  0  0  0
   -0.5326   21.6905    2.9557 H   0  0  0  0  0
    1.7849   21.8055    2.8605 H   0  0  0  0  0
   -1.1241   18.3263    4.5742 H   0  0  0  0  0
   -4.0739   18.7864    4.3509 H   0  0  0  0  0
   -3.5232   16.4502    3.7441 H   0  0  0  0  0
   -2.6317   16.2566    5.2734 H   0  0  0  0  0
   -4.3949   16.5047    5.2959 H   0  0  0  0  0
   -5.1575   19.2835    6.2080 H   0  0  0  0  0
   -4.0021   19.9899    8.6693 H   0  0  0  0  0
   -6.1842   19.3688    9.6798 H   0  0  0  0  0
   -6.6535   18.6400    8.0902 H   0  0  0  0  0
   -7.4392   20.7962    8.3648 H   0  0  0  0  0
   -2.8845   18.8560   10.1765 H   0  0  0  0  0
   -3.5579   16.5135   11.3558 H   0  0  0  0  0
   -1.5433   15.3258   12.0240 H   0  0  0  0  0
   -3.5444   15.3217    9.2030 H   0  0  0  0  0
   -1.8547   15.8079    8.9214 H   0  0  0  0  0
   -2.2506   14.6949   10.2539 H   0  0  0  0  0
  1  2  1  0  0  0
  2  3  1  0  0  0
  2  5  1  0  0  0
  3  4  2  0  0  0
  3  6  1  0  0  0
  6  7  1  0  0  0
  7  8  1  0  0  0
  7 10  1  0  0  0
  8  9  2  0  0  0
  8 11  1  0  0  0
 11 12  1  0  0  0
 12 13  1  0  0  0
 12 15  1  0  0  0
 13 14  2  0  0  0
 13 17  1  0  0  0
 15 16  1  0  0  0
 17 18  1  0  0  0
 18 19  1  0  0  0
 18 21  1  0  0  0
 19 20  2  0  0  0
 19 22  1  0  0  0
 22 23  1  0  0  0
 23 24  1  0  0  0
 23 26  1  0  0  0
 24 25  2  0  0  0
 24 28  1  0  0  0
 26 27  1  0  0  0
 28 29  1  0  0  0
 29 30  1  0  0  0
 29 32  1  0  0  0
 30 31  1  0  0  0
 30 33  2  0  0  0
  1 34  1  0  0  0
  1 35  1  0  0  0
  1 36  1  0  0  0
  2 37  1  0  0  0
  5 38  1  0  0  0
  5 39  1  0  0  0
  5 40  1  0  0  0
  6 41  1  0  0  0
  7 42  1  0  0  0
 10 43  1  0  0  0
 10 44  1  0  0  0
 10 45  1  0  0  0
 11 46  1  0  0  0
 12 47  1  0  0  0
 15 48  1  0  0  0
 15 49  1  0  0  0
 16 50  1  0  0  0
 17 51  1  0  0  0
 18 52  1  0  0  0
 21 53  1  0  0  0
 21 54  1  0  0  0
 21 55  1  0  0  0
 22 56  1  0  0  0
 23 57  1  0  0  0
 26 58  1  0  0  0
 26 59  1  0  0  0
 27 60  1  0  0  0
 28 61  1  0  0  0
 29 62  1  0  0  0
 31 63  1  0  0  0
 32 64  1  0  0  0
 32 65  1  0  0  0
 32 66  1  0  0  0
M  END
$$$$
