6an1_ligand
  -I-interpret- 

 45 48  0  0  0  0  0  0  0  0999 V2000
    9.7840   18.6340    9.9000 C   0  0  0  0  0
   11.0490   18.1310    9.6130 C   0  0  0  0  0
   12.1260   18.9870    9.4880 C   0  0  0  0  0
   11.9830   20.3600    9.6390 C   0  0  0  0  0
   10.7130   20.8520    9.9130 C   0  0  0  0  0
    9.6260   20.0080   10.0420 C   0  0  0  0  0
   13.1640   21.2690    9.5140 C   0  0  0  0  0
   15.5450   21.0540    9.2670 C   0  0  0  0  0
   15.6560   22.1760    8.4600 C   0  0  0  0  0
   16.9100   22.6810    8.1620 C   0  0  0  0  0
   18.0430   22.0740    8.6600 C   0  0  0  0  0
   17.9380   20.9570    9.4690 C   0  0  0  0  0
   16.6830   20.4320    9.7970 C   0  0  0  0  0
    8.6270   17.7120   10.0810 C   0  0  0  0  0
    8.9100   16.4460    9.9440 O   0  0  0  0  0
   16.5010   19.3130   10.7240 C   0  0  0  0  0
   17.3160   18.5450   11.4740 C   0  0  0  0  0
   18.7500   18.4160   11.8090 C   0  0  0  0  0
   18.8500   17.3720   12.8570 C   0  0  0  0  0
   17.5880   16.8760   13.1390 C   0  0  0  0  0
   16.5840   17.5570   12.2920 C   0  0  0  0  0
   17.4130   15.9130   14.1290 C   0  0  0  0  0
   18.5200   15.4620   14.8300 C   0  0  0  0  0
   19.7850   15.9550   14.5450 C   0  0  0  0  0
   19.9610   16.9100   13.5550 C   0  0  0  0  0
    7.5070   18.1270   10.3490 O   0  0  0  0  0
   14.3490   20.4640    9.5770 O   0  0  0  0  0
   19.6960   19.0310   11.3200 O   0  0  0  0  0
   15.3800   17.3170   12.2810 O   0  0  0  0  0
   11.1908   17.0577    9.4863 H   0  0  0  0  0
   13.1105   18.5753    9.2658 H   0  0  0  0  0
   10.5707   21.9265   10.0287 H   0  0  0  0  0
    8.6405   20.4215   10.2560 H   0  0  0  0  0
   13.1627   22.0023   10.3204 H   0  0  0  0  0
   13.1253   21.8101    8.5686 H   0  0  0  0  0
   14.7621   22.6571    8.0630 H   0  0  0  0  0
   17.0020   23.5641    7.5297 H   0  0  0  0  0
   19.0261   22.4761    8.4152 H   0  0  0  0  0
   18.8402   20.4818    9.8542 H   0  0  0  0  0
    9.8420   16.3483    9.7358 H   0  0  0  0  0
   15.4531   19.0337   10.8340 H   0  0  0  0  0
   16.4205   15.5198   14.3493 H   0  0  0  0  0
   18.3957   14.7132   15.6123 H   0  0  0  0  0
   20.6468   15.5891   15.1032 H   0  0  0  0  0
   20.9557   17.2931   13.3271 H   0  0  0  0  0
  2  1  4  0  0  0
  6  1  4  0  0  0
  1 14  1  0  0  0
  3  2  4  0  0  0
  4  3  4  0  0  0
  4  5  4  0  0  0
  7  4  1  0  0  0
  5  6  4  0  0  0
 27  7  1  0  0  0
  8  9  4  0  0  0
  8 13  4  0  0  0
  8 27  1  0  0  0
  9 10  4  0  0  0
 10 11  4  0  0  0
 11 12  4  0  0  0
 12 13  4  0  0  0
 13 16  1  0  0  0
 14 15  1  0  0  0
 14 26  2  0  0  0
 16 17  2  0  0  0
 17 18  1  0  0  0
 17 21  1  0  0  0
 18 19  1  0  0  0
 18 28  2  0  0  0
 19 20  4  0  0  0
 19 25  4  0  0  0
 20 21  1  0  0  0
 20 22  4  0  0  0
 21 29  2  0  0  0
 22 23  4  0  0  0
 23 24  4  0  0  0
 24 25  4  0  0  0
  2 30  1  0  0  0
  3 31  1  0  0  0
  5 32  1  0  0  0
  6 33  1  0  0  0
  7 34  1  0  0  0
  7 35  1  0  0  0
  9 36  1  0  0  0
 10 37  1  0  0  0
 11 38  1  0  0  0
 12 39  1  0  0  0
 15 40  1  0  0  0
 16 41  1  0  0  0
 22 42  1  0  0  0
 23 43  1  0  0  0
 24 44  1  0  0  0
 25 45  1  0  0  0
M  END
$$$$
