3kpu_ligand
  -I-interpret- 

 18 19  0  0  0  0  0  0  0  0999 V2000
   26.9670   45.3550   14.0670 O   0  0  0  0  0
   28.1580   46.2410   15.9680 C   0  0  0  0  0
   28.8340   46.0330   17.1960 C   0  0  0  0  0
   27.6540   45.1590   15.2670 C   0  0  0  0  0
   27.4470   41.4590   15.5190 C   0  0  0  0  0
   28.9900   44.7450   17.6850 N   0  0  0  0  0
   27.2890   42.7680   15.0160 C   0  0  0  0  0
   28.6440   42.3440   17.4790 C   0  0  0  0  0
   28.1230   41.2470   16.7480 C   0  0  0  0  0
   27.8100   43.8660   15.7570 C   0  0  0  0  0
   28.4810   43.6560   16.9800 C   0  0  0  0  0
   26.6886   44.5057   13.7166 H   0  0  0  0  0
   28.0352   47.2508   15.5763 H   0  0  0  0  0
   29.2296   46.8819   17.7537 H   0  0  0  0  0
   27.0493   40.6102   14.9627 H   0  0  0  0  0
   26.7736   42.9364   14.0704 H   0  0  0  0  0
   29.1673   42.1766   18.4204 H   0  0  0  0  0
   28.2425   40.2341   17.1326 H   0  0  0  0  0
  4  1  1  0  0  0
  2  3  4  0  0  0
  4  2  4  0  0  0
  3  6  4  0  0  0
 10  4  4  0  0  0
  7  5  4  0  0  0
  5  9  4  0  0  0
  6 11  4  0  0  0
  7 10  4  0  0  0
  9  8  4  0  0  0
  8 11  4  0  0  0
 10 11  4  0  0  0
  1 12  1  0  0  0
  2 13  1  0  0  0
  3 14  1  0  0  0
  5 15  1  0  0  0
  7 16  1  0  0  0
  8 17  1  0  0  0
  9 18  1  0  0  0
M  END
$$$$
