4g0k_ligand
  -I-interpret- 

 60 61  0  0  0  0  0  0  0  0999 V2000
  -63.2290   32.3510   30.3630 C   0  0  0  0  0
  -64.4530   32.5430   32.6820 C   0  0  0  0  0
  -58.4430   31.8920   28.6370 C   0  0  0  0  0
  -57.7580   33.5630   26.9010 C   0  0  0  0  0
  -59.1150   36.8250   31.2860 C   0  0  0  0  0
  -58.8470   39.1630   30.1710 O   0  0  0  0  0
  -57.8870   38.4140   29.9430 C   0  0  0  0  0
  -56.7550   38.8820   29.0720 C   0  0  0  0  0
  -55.6710   37.9880   28.8400 C   0  0  0  0  0
  -55.6230   36.5960   29.4390 C   0  0  0  0  0
  -56.7590   36.1070   30.3160 C   0  0  0  0  0
  -56.5820   34.4770   31.1840 S   0  0  0  0  0
  -57.0400   32.8710   30.3850 C   0  0  0  0  0
  -58.5140   32.8380   29.8340 C   0  0  0  0  0
  -59.5100   32.5590   30.8840 N   0  0  0  0  0
  -60.7730   33.2350   30.8940 C   0  0  0  0  0
  -62.0280   32.4840   31.3630 C   0  0  0  0  0
  -64.5440   32.7360   31.0880 C   0  0  0  0  0
  -65.2800   33.1010   33.4680 O   0  0  0  0  0
  -63.9460   31.4310   32.9360 O   0  0  0  0  0
  -64.8670   34.1290   30.7490 N   0  3  0  0  0
  -60.8590   34.4100   30.5170 O   0  0  0  0  0
  -57.7380   32.2480   27.5470 N   0  3  0  0  0
  -57.5120   33.3310   25.3440 C   0  0  0  0  0
  -58.0740   34.1330   24.5600 O   0  0  0  0  0
  -56.7460   32.3570   25.0390 O   0  0  0  0  0
  -58.2280   30.7010   28.9570 O   0  0  0  0  0
  -57.8240   37.0310   30.5270 C   0  0  0  0  0
  -54.6350   35.8870   29.1850 O   0  0  0  0  0
  -54.6150   38.4360   28.0250 C   0  0  0  0  0
  -54.6490   39.7310   27.4530 C   0  0  0  0  0
  -55.7130   40.6220   27.6790 C   0  0  0  0  0
  -56.7700   40.1870   28.4920 C   0  0  0  0  0
  -63.2958   31.3228   30.0075 H   0  0  0  0  0
  -63.0722   33.0161   29.5138 H   0  0  0  0  0
  -59.4657   31.9984   28.2753 H   0  0  0  0  0
  -56.9837   34.2064   27.3189 H   0  0  0  0  0
  -58.7154   34.0566   27.0677 H   0  0  0  0  0
  -59.6771   36.0101   30.8299 H   0  0  0  0  0
  -58.8896   36.5767   32.3231 H   0  0  0  0  0
  -59.7059   37.7402   31.2503 H   0  0  0  0  0
  -56.9578   32.0934   31.1444 H   0  0  0  0  0
  -56.3710   32.7259   29.5367 H   0  0  0  0  0
  -58.8901   33.8024   29.4927 H   0  0  0  0  0
  -59.2976   31.8768   31.6119 H   0  0  0  0  0
  -61.6977   31.4628   31.5531 H   0  0  0  0  0
  -62.4143   33.0647   32.2007 H   0  0  0  0  0
  -65.3351   32.0668   30.7499 H   0  0  0  0  0
  -65.5529   33.9437   33.0979 H   0  0  0  0  0
  -64.9194   34.2275   29.7351 H   0  0  0  0  0
  -65.7651   34.3789   31.1630 H   0  0  0  0  0
  -64.1399   34.7440   31.1144 H   0  0  0  0  0
  -58.1489   31.6535   26.8271 H   0  0  0  0  0
  -56.7790   32.1968   27.8906 H   0  0  0  0  0
  -56.4596   31.9134   25.8407 H   0  0  0  0  0
  -58.1946   30.1591   28.1653 H   0  0  0  0  0
  -53.7648   37.7816   27.8326 H   0  0  0  0  0
  -53.8229   40.0476   26.8163 H   0  0  0  0  0
  -55.7163   41.6183   27.2368 H   0  0  0  0  0
  -57.6120   40.8522   28.6832 H   0  0  0  0  0
 17  1  1  0  0  0
  1 18  1  0  0  0
 18  2  1  0  0  0
  2 19  1  0  0  0
  2 20  2  0  0  0
 14  3  1  0  0  0
  3 23  1  0  0  0
  3 27  1  0  0  0
 23  4  1  0  0  0
  4 24  1  0  0  0
 28  5  1  0  0  0
  7  6  2  0  0  0
  7  8  1  0  0  0
 28  7  1  0  0  0
  9  8  4  0  0  0
  8 33  4  0  0  0
 10  9  1  0  0  0
  9 30  4  0  0  0
 11 10  1  0  0  0
 10 29  2  0  0  0
 12 11  1  0  0  0
 11 28  2  0  0  0
 13 12  1  0  0  0
 14 13  1  0  0  0
 15 14  1  0  0  0
 16 15  1  0  0  0
 16 17  1  0  0  0
 16 22  2  0  0  0
 18 21  1  0  0  0
 24 25  2  0  0  0
 24 26  1  0  0  0
 30 31  4  0  0  0
 31 32  4  0  0  0
 32 33  4  0  0  0
  1 34  1  0  0  0
  1 35  1  0  0  0
  3 36  1  0  0  0
  4 37  1  0  0  0
  4 38  1  0  0  0
  5 39  1  0  0  0
  5 40  1  0  0  0
  5 41  1  0  0  0
 13 42  1  0  0  0
 13 43  1  0  0  0
 14 44  1  0  0  0
 15 45  1  0  0  0
 17 46  1  0  0  0
 17 47  1  0  0  0
 18 48  1  0  0  0
 19 49  1  0  0  0
 21 50  1  0  0  0
 21 51  1  0  0  0
 21 52  1  0  0  0
 23 53  1  0  0  0
 23 54  1  0  0  0
 26 55  1  0  0  0
 27 56  1  0  0  0
 30 57  1  0  0  0
 31 58  1  0  0  0
 32 59  1  0  0  0
 33 60  1  0  0  0
M  END
$$$$
