1h36_ligand
  -I-interpret- 

 48 50  0  0  0  0  0  0  0  0999 V2000
   67.2630   70.5720   71.4220 C   0  0  0  0  0
   66.1310   69.8080   70.7610 C   0  0  0  0  0
   65.4110   69.1320   71.4890 O   0  0  0  0  0
   65.8410   69.8230   69.2550 C   0  0  0  0  0
   64.6280   69.2380   68.7750 C   0  0  0  0  0
   64.3280   69.2280   67.3910 C   0  0  0  0  0
   65.2400   69.8080   66.4560 C   0  0  0  0  0
   63.7110   70.3820   64.6920 C   0  0  0  0  0
   63.7110   70.4470   63.1970 C   0  0  0  0  0
   63.9390   71.5740   62.5280 C   0  0  0  0  0
   63.9510   71.6640   61.0140 C   0  0  0  0  0
   62.6080   71.9170   60.3700 N   0  3  0  0  0
   61.8180   72.9720   61.0740 C   0  0  0  0  0
   61.8950   70.6160   60.1200 C   0  0  0  0  0
   62.5720   69.3970   59.4290 C   0  0  0  0  0
   66.4490   70.3940   66.9220 C   0  0  0  0  0
   66.7490   70.4020   68.3110 C   0  0  0  0  0
   67.3440   71.9970   71.3580 C   0  0  0  0  0
   68.4120   72.6780   71.9980 C   0  0  0  0  0
   69.4010   71.9400   72.7060 C   0  0  0  0  0
   64.9670   69.8030   65.0830 O   0  0  0  0  0
   61.5770   70.2770   58.6450 C   0  0  0  0  0
   70.7830   72.8210   73.5480 Br  0  0  0  0  0
   69.3250   70.5240   72.7720 C   0  0  0  0  0
   68.2590   69.8430   72.1320 C   0  0  0  0  0
   63.9265   68.7949   69.4819 H   0  0  0  0  0
   63.4003   68.7773   67.0384 H   0  0  0  0  0
   62.8776   69.7797   65.0535 H   0  0  0  0  0
   63.5919   71.3761   65.1229 H   0  0  0  0  0
   63.5164   69.5344   62.6336 H   0  0  0  0  0
   64.1276   72.4829   63.0994 H   0  0  0  0  0
   64.2952   70.6970   60.6472 H   0  0  0  0  0
   64.5844   72.5131   60.7574 H   0  0  0  0  0
   62.7514   72.3284   59.4477 H   0  0  0  0  0
   61.6412   72.6646   62.1047 H   0  0  0  0  0
   62.3749   73.9089   61.0634 H   0  0  0  0  0
   60.8636   73.1094   60.5657 H   0  0  0  0  0
   61.3570   70.7214   61.0621 H   0  0  0  0  0
   62.7509   68.3399   59.6257 H   0  0  0  0  0
   63.5704   68.9784   59.3023 H   0  0  0  0  0
   67.1471   70.8380   66.2123 H   0  0  0  0  0
   67.6779   70.8525   68.6608 H   0  0  0  0  0
   66.5847   72.5617   70.8170 H   0  0  0  0  0
   68.4745   73.7650   71.9472 H   0  0  0  0  0
   61.5270   70.7907   57.6849 H   0  0  0  0  0
   60.6998   70.1462   58.0114 H   0  0  0  0  0
   70.0851   69.9612   73.3139 H   0  0  0  0  0
   68.2015   68.7557   72.1837 H   0  0  0  0  0
  2  1  1  0  0  0
  1 18  4  0  0  0
  1 25  4  0  0  0
  2  3  2  0  0  0
  4  2  1  0  0  0
  5  4  4  0  0  0
  4 17  4  0  0  0
  6  5  4  0  0  0
  7  6  4  0  0  0
  7 16  4  0  0  0
 21  7  1  0  0  0
  8  9  1  0  0  0
  8 21  1  0  0  0
  9 10  2  0  0  0
 10 11  1  0  0  0
 11 12  1  0  0  0
 12 13  1  0  0  0
 12 14  1  0  0  0
 14 15  1  0  0  0
 14 22  1  0  0  0
 15 22  1  0  0  0
 16 17  4  0  0  0
 18 19  4  0  0  0
 19 20  4  0  0  0
 20 23  1  0  0  0
 20 24  4  0  0  0
 24 25  4  0  0  0
  5 26  1  0  0  0
  6 27  1  0  0  0
  8 28  1  0  0  0
  8 29  1  0  0  0
  9 30  1  0  0  0
 10 31  1  0  0  0
 11 32  1  0  0  0
 11 33  1  0  0  0
 12 34  1  0  0  0
 13 35  1  0  0  0
 13 36  1  0  0  0
 13 37  1  0  0  0
 14 38  1  0  0  0
 15 39  1  0  0  0
 15 40  1  0  0  0
 16 41  1  0  0  0
 17 42  1  0  0  0
 18 43  1  0  0  0
 19 44  1  0  0  0
 22 45  1  0  0  0
 22 46  1  0  0  0
 24 47  1  0  0  0
 25 48  1  0  0  0
M  END
$$$$
