5qcm_ligand
  -I-interpret- 

 64 68  0  0  0  0  0  0  0  0999 V2000
   38.4170  -17.1640   28.2360 C   0  0  0  0  0
   38.9180  -20.9600   27.3200 C   0  0  0  0  0
   39.3420  -19.2300   29.1570 C   0  0  0  0  0
   40.3750  -21.4340   29.3410 C   0  0  0  0  0
   40.2140  -22.9130   29.0360 C   0  0  0  0  0
   39.9000  -23.2320   27.7120 C   0  0  0  0  0
   39.6780  -22.1250   26.7090 C   0  0  0  0  0
   40.4080  -23.9350   29.9640 C   0  0  0  0  0
   44.9490  -20.8800   29.6190 C   0  0  0  0  0
   39.8100  -24.5730   27.3460 C   0  0  0  0  0
   46.2980  -20.9390   29.9340 C   0  0  0  0  0
   34.0340  -14.5850   29.6310 Cl  0  0  0  0  0
   37.0440  -13.8030   27.1080 C   0  0  0  0  0
   35.8630  -13.7070   27.8260 C   0  0  0  0  0
   35.4870  -14.7350   28.6710 C   0  0  0  0  0
   36.3010  -15.8500   28.8030 C   0  0  0  0  0
   37.5100  -15.9870   28.1110 C   0  0  0  0  0
   37.8320  -14.9510   27.2200 C   0  0  0  0  0
   38.8830  -15.1630   26.2750 N   0  0  0  0  0
   38.8680  -15.2980   24.9450 C   0  0  0  0  0
   40.0560  -15.6390   24.5260 N   0  0  0  0  0
   40.8310  -15.7060   25.6380 N   0  0  0  0  0
   40.1460  -15.4110   26.6960 N   0  0  0  0  0
   38.2130  -18.3990   28.6660 C   0  0  0  0  0
   40.0290  -18.8960   30.1110 O   0  0  0  0  0
   35.9210  -16.8190   29.6480 F   0  0  0  0  0
   39.5860  -20.4730   28.5370 N   0  0  0  0  0
   40.3170  -25.2570   29.5830 C   0  0  0  0  0
   40.0190  -25.5790   28.2770 C   0  0  0  0  0
   41.8750  -21.1320   29.2000 C   0  0  0  0  0
   42.3390  -20.7000   28.1450 O   0  0  0  0  0
   44.4070  -21.7280   31.7990 C   0  0  0  0  0
   45.7510  -21.7820   32.1130 C   0  0  0  0  0
   46.7110  -21.4230   31.1730 C   0  0  0  0  0
   43.9940  -21.3040   30.5410 C   0  0  0  0  0
   42.6010  -21.4210   30.3060 N   0  0  0  0  0
   48.0360  -21.7390   31.5690 N   0  0  0  0  0
   49.1950  -21.5560   30.8890 C   0  0  0  0  0
   50.1620  -22.3000   31.4650 O   0  0  0  0  0
   49.3570  -20.8460   29.9180 O   0  0  0  0  0
   51.1910  -22.8290   30.5890 C   0  0  0  0  0
   39.4399  -16.9711   27.9126 H   0  0  0  0  0
   37.9153  -21.2968   27.5831 H   0  0  0  0  0
   38.8805  -20.1482   26.5936 H   0  0  0  0  0
   39.9710  -21.2803   30.3417 H   0  0  0  0  0
   40.6504  -21.7638   26.3742 H   0  0  0  0  0
   39.0906  -22.5230   25.8815 H   0  0  0  0  0
   40.6339  -23.6866   31.0010 H   0  0  0  0  0
   44.6344  -20.5006   28.6468 H   0  0  0  0  0
   39.5723  -24.8347   26.3149 H   0  0  0  0  0
   47.0393  -20.6048   29.2081 H   0  0  0  0  0
   37.3571  -12.9858   26.4582 H   0  0  0  0  0
   35.2322  -12.8238   27.7251 H   0  0  0  0  0
   37.9967  -15.1464   24.3079 H   0  0  0  0  0
   37.2040  -18.8114   28.6597 H   0  0  0  0  0
   40.4809  -26.0476   30.3153 H   0  0  0  0  0
   39.9476  -26.6241   27.9758 H   0  0  0  0  0
   43.6652  -22.0198   32.5425 H   0  0  0  0  0
   46.0617  -22.1086   33.1054 H   0  0  0  0  0
   42.0607  -21.7791   31.0936 H   0  0  0  0  0
   48.1300  -22.1621   32.4923 H   0  0  0  0  0
   50.7318  -23.4719   29.8380 H   0  0  0  0  0
   51.7067  -22.0043   30.0969 H   0  0  0  0  0
   51.9047  -23.4067   31.1764 H   0  0  0  0  0
  1 17  1  0  0  0
 24  1  2  0  0  0
  2  7  1  0  0  0
 27  2  1  0  0  0
  3 24  1  0  0  0
  3 25  2  0  0  0
 27  3  1  0  0  0
  4  5  1  0  0  0
  4 27  1  0  0  0
 30  4  1  0  0  0
  5  6  4  0  0  0
  5  8  4  0  0  0
  6  7  1  0  0  0
  6 10  4  0  0  0
  8 28  4  0  0  0
  9 11  4  0  0  0
 35  9  4  0  0  0
 10 29  4  0  0  0
 11 34  4  0  0  0
 15 12  1  0  0  0
 13 14  4  0  0  0
 18 13  4  0  0  0
 15 14  4  0  0  0
 16 15  4  0  0  0
 17 16  4  0  0  0
 16 26  1  0  0  0
 17 18  4  0  0  0
 18 19  1  0  0  0
 19 20  4  0  0  0
 19 23  4  0  0  0
 20 21  4  0  0  0
 22 21  4  0  0  0
 23 22  4  0  0  0
 28 29  4  0  0  0
 30 31  2  0  0  0
 36 30  1  0  0  0
 32 33  4  0  0  0
 35 32  4  0  0  0
 33 34  4  0  0  0
 34 37  1  0  0  0
 35 36  1  0  0  0
 37 38  1  0  0  0
 38 39  1  0  0  0
 38 40  2  0  0  0
 39 41  1  0  0  0
  1 42  1  0  0  0
  2 43  1  0  0  0
  2 44  1  0  0  0
  4 45  1  0  0  0
  7 46  1  0  0  0
  7 47  1  0  0  0
  8 48  1  0  0  0
  9 49  1  0  0  0
 10 50  1  0  0  0
 11 51  1  0  0  0
 13 52  1  0  0  0
 14 53  1  0  0  0
 20 54  1  0  0  0
 24 55  1  0  0  0
 28 56  1  0  0  0
 29 57  1  0  0  0
 32 58  1  0  0  0
 33 59  1  0  0  0
 36 60  1  0  0  0
 37 61  1  0  0  0
 41 62  1  0  0  0
 41 63  1  0  0  0
 41 64  1  0  0  0
M  END
$$$$
