6cvf_ligand
  -I-interpret- 

 45 46  0  0  0  0  0  0  0  0999 V2000
   -4.9570  -33.4450   22.5300 O   0  0  0  0  0
   -6.2590  -32.9090   21.9970 P   0  0  0  0  0
   -6.3940  -33.1080   20.5210 O   0  0  0  0  0
   -6.4070  -31.4380   22.3220 O   0  0  0  0  0
   -7.4500  -33.7190   22.7890 O   0  0  0  0  0
   -8.3470  -34.9440   22.1260 P   0  0  0  0  0
   -9.1920  -34.4070   20.9990 O   0  0  0  0  0
   -7.4560  -36.0660   21.6570 O   0  0  0  0  0
   -9.2930  -35.3750   23.3940 O   0  0  0  0  0
   -8.5890  -35.9300   24.4720 C   0  0  0  0  0
   -9.1620  -37.3420   24.8620 C   0  0  0  0  0
  -10.5670  -37.1540   25.4820 O   0  0  0  0  0
   -9.3240  -38.1170   23.8550 C   0  0  0  0  0
   -9.2730  -39.4930   24.2760 O   0  0  0  0  0
  -10.8920  -37.9550   23.3670 C   0  0  0  0  0
  -11.2240  -39.1970   22.6800 O   0  0  0  0  0
  -11.5320  -37.8440   24.4500 C   0  0  0  0  0
  -12.6680  -36.9090   24.3200 N   0  0  0  0  0
  -14.0800  -37.4300   24.2640 C   0  0  0  0  0
  -14.2840  -38.5770   24.2960 O   0  0  0  0  0
  -15.2040  -36.4680   24.1540 N   0  0  0  0  0
  -14.9530  -35.0340   24.1060 C   0  0  0  0  0
  -16.0610  -34.1140   23.9980 N   0  3  0  0  0
  -13.5380  -34.5110   24.1770 C   0  0  0  0  0
  -12.3960  -35.4690   24.2810 C   0  0  0  0  0
   -4.9147  -33.2958   23.4774 H   0  0  0  0  0
   -6.3203  -31.3105   23.2695 H   0  0  0  0  0
   -6.9317  -36.3864   22.3946 H   0  0  0  0  0
   -8.6886  -35.2658   25.3305 H   0  0  0  0  0
   -7.5450  -36.0472   24.1813 H   0  0  0  0  0
   -8.4393  -37.7886   25.5449 H   0  0  0  0  0
   -8.5698  -37.8755   23.1061 H   0  0  0  0  0
   -9.3954  -40.0643   23.5143 H   0  0  0  0  0
  -11.1018  -37.1161   22.7035 H   0  0  0  0  0
  -12.1325  -39.1581   22.3721 H   0  0  0  0  0
  -11.8853  -38.8333   24.7408 H   0  0  0  0  0
  -16.1625  -36.8143   24.1115 H   0  0  0  0  0
  -14.4767  -34.8206   23.1491 H   0  0  0  0  0
  -15.7066  -33.1578   23.9774 H   0  0  0  0  0
  -16.5775  -34.3050   23.1395 H   0  0  0  0  0
  -16.6786  -34.2317   24.8012 H   0  0  0  0  0
  -13.5029  -33.9410   25.1054 H   0  0  0  0  0
  -13.3849  -34.0047   23.2239 H   0  0  0  0  0
  -11.8230  -35.3189   23.3660 H   0  0  0  0  0
  -11.9337  -35.2472   25.2429 H   0  0  0  0  0
  1  2  1  0  0  0
  2  3  2  0  0  0
  2  4  1  0  0  0
  2  5  1  0  0  0
  5  6  1  0  0  0
  6  7  2  0  0  0
  6  8  1  0  0  0
  6  9  1  0  0  0
  9 10  1  0  0  0
 10 11  1  0  0  0
 11 12  1  0  0  0
 11 13  1  0  0  0
 12 17  1  0  0  0
 13 14  1  0  0  0
 13 15  1  0  0  0
 15 16  1  0  0  0
 15 17  1  0  0  0
 17 18  1  0  0  0
 18 19  1  0  0  0
 18 25  1  0  0  0
 19 20  2  0  0  0
 19 21  1  0  0  0
 21 22  1  0  0  0
 22 23  1  0  0  0
 22 24  1  0  0  0
 24 25  1  0  0  0
  1 26  1  0  0  0
  4 27  1  0  0  0
  8 28  1  0  0  0
 10 29  1  0  0  0
 10 30  1  0  0  0
 11 31  1  0  0  0
 13 32  1  0  0  0
 14 33  1  0  0  0
 15 34  1  0  0  0
 16 35  1  0  0  0
 17 36  1  0  0  0
 21 37  1  0  0  0
 22 38  1  0  0  0
 23 39  1  0  0  0
 23 40  1  0  0  0
 23 41  1  0  0  0
 24 42  1  0  0  0
 24 43  1  0  0  0
 25 44  1  0  0  0
 25 45  1  0  0  0
M  END
$$$$
