### 
### Created by X-TOOL on Wed Jan  1 15:39:36 2020
### 

@<TRIPOS>MOLECULE
6cvf_ligand
   42    43     1     0     0
SMALL
GAST_HUCK


@<TRIPOS>ATOM
      1 O3B        -4.9570  -33.4450   22.5300 O.co2     1 CDP        -0.5891
      2 PB         -6.2590  -32.9090   21.9970 P.3       1 CDP         0.2069
      3 O1B        -6.3940  -33.1080   20.5210 O.co2     1 CDP        -0.5891
      4 O2B        -6.4070  -31.4380   22.3220 O.co2     1 CDP        -0.5891
      5 O3A        -7.4500  -33.7190   22.7890 O.3       1 CDP        -0.1548
      6 PA         -8.3470  -34.9440   22.1260 P.3       1 CDP         0.3276
      7 O1A        -9.1920  -34.4070   20.9990 O.co2     1 CDP        -0.5556
      8 O2A        -7.4560  -36.0660   21.6570 O.co2     1 CDP        -0.5556
      9 O5'        -9.2930  -35.3750   23.3940 O.3       1 CDP        -0.2436
     10 C5'        -8.5890  -35.9300   24.4720 C.3       1 CDP         0.1131
     11 C4'        -9.1620  -37.3420   24.8620 C.3       1 CDP         0.1181
     12 O4'       -10.5670  -37.1540   25.4820 O.3       1 CDP        -0.3432
     13 C3'        -9.3240  -38.1170   23.8550 C.3       1 CDP         0.1141
     14 O3'        -9.2730  -39.4930   24.2760 O.3       1 CDP        -0.3864
     15 C2'       -10.8920  -37.9550   23.3670 C.3       1 CDP         0.1307
     16 O2'       -11.2240  -39.1970   22.6800 O.3       1 CDP        -0.3844
     17 C1'       -11.5320  -37.8440   24.4500 C.3       1 CDP         0.1745
     18 N1        -12.6680  -36.9090   24.3200 N.am      1 CDP        -0.2299
     19 C2        -14.0800  -37.4300   24.2640 C.2       1 CDP         0.2660
     20 O2        -14.2840  -38.5770   24.2960 O.2       1 CDP        -0.4004
     21 N3        -15.2040  -36.4680   24.1540 N.am      1 CDP        -0.2318
     22 C4        -14.9530  -35.0340   24.1060 C.3       1 CDP         0.0655
     23 N4        -16.0610  -34.1140   23.9980 N.4       1 CDP         0.2380
     24 C5        -13.5380  -34.5110   24.1770 C.3       1 CDP         0.0329
     25 C6        -12.3960  -35.4690   24.2810 C.3       1 CDP         0.0441
     26 H1         -8.6722  -35.2577   25.3386 H         1 CDP         0.0648
     27 H2         -7.5308  -36.0377   24.1917 H         1 CDP         0.0648
     28 H3         -8.4828  -37.8164   25.5856 H         1 CDP         0.0651
     29 H4         -8.6000  -37.8961   23.0569 H         1 CDP         0.0648
     30 H5         -9.3941  -40.0583   23.5222 H         1 CDP         0.2100
     31 H6        -11.0472  -37.0843   22.7130 H         1 CDP         0.0668
     32 H7        -11.1228  -39.9264   23.2802 H         1 CDP         0.2101
     33 H8        -11.8718  -38.8300   24.7999 H         1 CDP         0.0895
     34 H9        -16.1437  -36.8076   24.1124 H         1 CDP         0.1900
     35 H10       -14.8820  -35.0807   23.0093 H         1 CDP         0.1137
     36 H11       -15.7119  -33.1686   23.9775 H         1 CDP         0.2017
     37 H12       -16.6721  -34.2294   24.7913 H         1 CDP         0.2017
     38 H13       -16.5723  -34.3018   23.1498 H         1 CDP         0.2017
     39 H14       -13.4847  -33.8553   25.0586 H         1 CDP         0.0362
     40 H15       -13.3724  -33.9159   23.2668 H         1 CDP         0.0362
     41 H16       -11.7460  -35.2887   23.4121 H         1 CDP         0.0523
     42 H17       -11.8517  -35.2202   25.2040 H         1 CDP         0.0523
@<TRIPOS>BOND
     1    1    2 ar 
     2    2    3 ar 
     3    2    4 ar 
     4    2    5 1  
     5    5    6 1  
     6    6    7 ar 
     7    6    8 ar 
     8    6    9 1  
     9    9   10 1  
    10   10   11 1  
    11   11   12 1  
    12   11   13 1  
    13   12   17 1  
    14   13   14 1  
    15   13   15 1  
    16   15   16 1  
    17   15   17 1  
    18   17   18 1  
    19   18   19 am 
    20   18   25 1  
    21   19   20 2  
    22   19   21 am 
    23   21   22 1  
    24   22   23 1  
    25   22   24 1  
    26   24   25 1  
    27   10   26 1  
    28   10   27 1  
    29   11   28 1  
    30   13   29 1  
    31   14   30 1  
    32   15   31 1  
    33   16   32 1  
    34   17   33 1  
    35   21   34 1  
    36   22   35 1  
    37   23   36 1  
    38   23   37 1  
    39   23   38 1  
    40   24   39 1  
    41   24   40 1  
    42   25   41 1  
    43   25   42 1  
@<TRIPOS>SUBSTRUCTURE
     1 CDP         1

