3cr4_ligand
  -I-interpret- 

 49 50  0  0  0  0  0  0  0  0999 V2000
   -0.6780    2.6850   23.7370 C   0  0  0  0  0
   -1.6280    2.8480   22.7270 C   0  0  0  0  0
   -2.6650    1.9220   22.5850 C   0  0  0  0  0
   -2.7640    0.8270   23.4510 C   0  0  0  0  0
   -1.8120    0.6740   24.4580 C   0  0  0  0  0
   -0.7760    1.5950   24.6030 C   0  0  0  0  0
    1.6440    3.1500   24.2990 C   0  0  0  0  0
    2.7330    4.1850   24.0160 C   0  0  0  0  0
   -3.8870   -0.1740   23.3110 C   0  0  0  0  0
    4.0840    3.5120   23.7730 C   0  0  0  0  0
    3.6500   -0.4240   25.0580 C   0  0  0  0  0
    4.6000   -1.2790   25.6070 C   0  0  0  0  0
    4.2400   -2.5490   26.0450 C   0  0  0  0  0
    2.9190   -2.9780   25.9480 C   0  0  0  0  0
    1.9600   -2.1250   25.3960 C   0  0  0  0  0
    2.3250   -0.8530   24.9510 C   0  0  0  0  0
    5.0640    1.6080   25.1700 C   0  0  0  0  0
    4.7660    3.1060   25.0790 C   0  0  0  0  0
    2.5490   -4.3540   26.4330 C   0  0  0  0  0
    0.3480    3.5930   23.8780 O   0  0  0  0  0
    3.9990    0.8300   24.6110 O   0  0  0  0  0
   -3.8740   -1.2600   23.9530 N   0  0  0  0  0
   -4.9100    0.0700   22.4910 N   0  0  0  0  0
    3.4020   -5.2810   26.4160 N   0  0  0  0  0
    1.3230   -4.6090   26.8900 N   0  0  0  0  0
   -1.5608    3.6984   22.0485 H   0  0  0  0  0
   -3.4027    2.0536   21.7934 H   0  0  0  0  0
   -1.8786   -0.1746   25.1389 H   0  0  0  0  0
   -0.0396    1.4635   25.3958 H   0  0  0  0  0
    1.6100    2.9815   25.3754 H   0  0  0  0  0
    1.8875    2.2436   23.7447 H   0  0  0  0  0
    2.8219    4.8424   24.8809 H   0  0  0  0  0
    2.4573    4.7453   23.1226 H   0  0  0  0  0
    4.7305    4.2226   23.2580 H   0  0  0  0  0
    3.9143    2.6112   23.1833 H   0  0  0  0  0
    5.6357   -0.9508   25.6947 H   0  0  0  0  0
    4.9958   -3.2118   26.4663 H   0  0  0  0  0
    0.9240   -2.4535   25.3125 H   0  0  0  0  0
    1.5735   -0.1924   24.5186 H   0  0  0  0  0
    5.1750    1.3397   26.2206 H   0  0  0  0  0
    5.9757    1.4011   24.6096 H   0  0  0  0  0
    4.0878    3.3558   25.8949 H   0  0  0  0  0
    5.7184    3.6337   25.1298 H   0  0  0  0  0
   -4.6354   -1.9291   23.8388 H   0  0  0  0  0
   -5.6599   -0.6145   22.3934 H   0  0  0  0  0
   -4.9425    0.9411   21.9614 H   0  0  0  0  0
    4.3454   -5.0998   26.0731 H   0  0  0  0  0
    1.0860   -5.5447   27.2199 H   0  0  0  0  0
    0.6218   -3.8685   26.9098 H   0  0  0  0  0
  1  2  4  0  0  0
  1  6  4  0  0  0
 20  1  1  0  0  0
  2  3  4  0  0  0
  3  4  4  0  0  0
  5  4  4  0  0  0
  4  9  1  0  0  0
  6  5  4  0  0  0
  8  7  1  0  0  0
  7 20  1  0  0  0
 10  8  1  0  0  0
  9 22  2  0  0  0
  9 23  1  0  0  0
 18 10  1  0  0  0
 11 12  4  0  0  0
 11 16  4  0  0  0
 21 11  1  0  0  0
 12 13  4  0  0  0
 13 14  4  0  0  0
 15 14  4  0  0  0
 14 19  1  0  0  0
 16 15  4  0  0  0
 17 18  1  0  0  0
 17 21  1  0  0  0
 19 24  2  0  0  0
 19 25  1  0  0  0
  2 26  1  0  0  0
  3 27  1  0  0  0
  5 28  1  0  0  0
  6 29  1  0  0  0
  7 30  1  0  0  0
  7 31  1  0  0  0
  8 32  1  0  0  0
  8 33  1  0  0  0
 10 34  1  0  0  0
 10 35  1  0  0  0
 12 36  1  0  0  0
 13 37  1  0  0  0
 15 38  1  0  0  0
 16 39  1  0  0  0
 17 40  1  0  0  0
 17 41  1  0  0  0
 18 42  1  0  0  0
 18 43  1  0  0  0
 22 44  1  0  0  0
 23 45  1  0  0  0
 23 46  1  0  0  0
 24 47  1  0  0  0
 25 48  1  0  0  0
 25 49  1  0  0  0
M  END
$$$$
