1bn1_ligand
  -I-interpret- 

 35 36  0  0  0  0  0  0  0  0999 V2000
   -5.2620    1.9170   15.8680 C   0  0  0  0  0
   -2.5330    6.0160   13.9960 C   0  0  0  0  0
   -2.0730    7.4580   14.0060 C   0  0  0  0  0
   -2.0590    8.2370   12.8360 C   0  0  0  0  0
   -1.6300    9.5640   12.8920 C   0  0  0  0  0
   -1.2090   10.1180   14.1120 C   0  0  0  0  0
   -1.2240    9.3400   15.2660 C   0  0  0  0  0
   -1.6550    8.0180   15.2120 C   0  0  0  0  0
   -0.7060   11.5750   14.2040 C   0  0  0  0  0
   -7.3420    0.8980   16.8160 O   0  0  0  0  0
   -5.4520    0.8900   18.2090 O   0  0  0  0  0
   -5.4260   -0.6700   16.2410 N   0  0  0  0  0
   -5.9230    0.6800   16.8870 S   0  0  0  0  0
   -3.9450    1.9180   15.4540 C   0  0  0  0  0
   -3.6630    3.0440   14.7110 C   0  0  0  0  0
   -4.7720    3.8640   14.5850 C   0  0  0  0  0
   -6.1860    3.2900   15.3520 S   0  0  0  0  0
   -4.9240    5.4130   13.8250 S   0  0  0  0  0
   -6.0860    5.4170   12.9990 O   0  0  0  0  0
   -5.2530    6.3320   14.8660 O   0  0  0  0  0
   -3.6740    5.7880   13.1100 N   0  0  0  0  0
   -1.7051    5.4052   13.6361 H   0  0  0  0  0
   -2.8418    5.7583   15.0091 H   0  0  0  0  0
   -2.3821    7.8062   11.8883 H   0  0  0  0  0
   -1.6217   10.1716   11.9871 H   0  0  0  0  0
   -0.8974    9.7672   16.2141 H   0  0  0  0  0
   -1.6658    7.4155   16.1203 H   0  0  0  0  0
    0.1645   11.6988   13.5599 H   0  0  0  0  0
   -1.4971   12.2522   13.8820 H   0  0  0  0  0
   -0.4316   11.7989   15.2349 H   0  0  0  0  0
   -6.0974   -1.3096   15.8162 H   0  0  0  0  0
   -4.4331   -0.9036   16.2480 H   0  0  0  0  0
   -3.2245    1.1331   15.6840 H   0  0  0  0  0
   -2.6876    3.2622   14.2762 H   0  0  0  0  0
   -3.6181    5.8778   12.0955 H   0  0  0  0  0
  1 17  4  0  0  0
  1 14  4  0  0  0
  1 13  1  0  0  0
 13 10  2  0  0  0
 13 11  2  0  0  0
 13 12  1  0  0  0
 14 15  4  0  0  0
 15 16  4  0  0  0
 16 18  1  0  0  0
 16 17  4  0  0  0
 18 21  1  0  0  0
 18 20  2  0  0  0
 18 19  2  0  0  0
 21  2  1  0  0  0
  2  3  1  0  0  0
  3  8  4  0  0  0
  3  4  4  0  0  0
  4  5  4  0  0  0
  5  6  4  0  0  0
  6  9  1  0  0  0
  6  7  4  0  0  0
  7  8  4  0  0  0
  2 22  1  0  0  0
  2 23  1  0  0  0
  4 24  1  0  0  0
  5 25  1  0  0  0
  7 26  1  0  0  0
  8 27  1  0  0  0
  9 28  1  0  0  0
  9 29  1  0  0  0
  9 30  1  0  0  0
 12 31  1  0  0  0
 12 32  1  0  0  0
 14 33  1  0  0  0
 15 34  1  0  0  0
 21 35  1  0  0  0
M  END
$$$$
