6s90_ligand
  -I-interpret- 

 82 87  0  0  0  0  0  0  0  0999 V2000
   14.5140  -12.5740   -6.4840 C   0  0  0  0  0
   15.2760  -11.4070   -6.2640 C   0  0  0  0  0
   14.8080  -10.1440   -6.6400 C   0  0  0  0  0
   17.7480  -11.1160   -7.6050 O   0  0  0  0  0
   10.1290  -12.4260   -6.3100 C   0  0  0  0  0
   10.9650  -13.4410   -6.8640 C   0  0  0  0  0
    7.6200  -12.2710   -5.8080 C   0  0  0  0  0
    6.3850  -12.9100   -5.9160 C   0  0  0  0  0
    5.2320  -12.2990   -5.4510 C   0  0  0  0  0
    5.2810  -11.0250   -4.8780 C   0  0  0  0  0
    6.5140  -10.3760   -4.7930 C   0  0  0  0  0
    7.6660  -10.9880   -5.2560 C   0  0  0  0  0
    4.0540  -10.2960   -4.4260 C   0  0  0  0  0
    1.8880  -10.2490   -3.3130 C   0  0  0  0  0
    0.7330  -11.2340   -3.3580 C   0  0  0  0  0
   -0.1800  -13.2620   -2.4360 C   0  0  0  0  0
    2.1810  -13.0640   -2.8770 C   0  0  0  0  0
    3.3960  -12.1400   -2.8320 C   0  0  0  0  0
   17.7220  -11.3630   -6.4060 C   0  0  0  0  0
   18.9920  -11.4890   -5.6250 C   0  0  0  0  0
   20.2240  -11.4400   -6.2820 C   0  0  0  0  0
   21.4090  -11.5420   -5.5700 C   0  0  0  0  0
   21.4040  -11.6700   -4.1790 C   0  0  0  0  0
   20.1670  -11.7240   -3.5300 C   0  0  0  0  0
   18.9820  -11.6370   -4.2400 C   0  0  0  0  0
   22.7070  -11.7420   -3.3650 C   0  0  0  0  0
   22.7950  -13.0840   -2.6110 C   0  0  0  0  0
   22.7430  -10.6100   -2.3320 C   0  0  0  0  0
   23.9530  -11.6100   -4.2610 C   0  0  0  0  0
   16.5720  -11.5250   -5.7090 N   0  0  0  0  0
   13.5820  -10.0280   -7.2740 C   0  0  0  0  0
   12.8190  -11.1540   -7.5240 C   0  0  0  0  0
   13.2540  -12.4230   -7.1220 C   0  0  0  0  0
   15.0140  -13.9210   -6.0130 C   0  0  0  0  0
   12.3100  -13.5690   -7.2720 C   0  0  0  0  0
   10.1510  -14.5660   -7.1000 C   0  0  0  0  0
   10.5680  -15.7310   -7.6380 N   0  0  0  0  0
   11.8690  -15.7240   -7.9480 C   0  0  0  0  0
   12.7490  -14.7200   -7.8220 N   0  0  0  0  0
    8.8620  -12.9380   -6.2340 C   0  0  0  0  0
    8.8780  -14.2480   -6.6990 N   0  0  0  0  0
    3.8870   -9.1490   -4.7990 O   0  0  0  0  0
    3.1580  -10.9270   -3.6330 N   0  0  0  0  0
    0.9740  -12.3560   -2.4560 N   0  3  0  0  0
   15.4050   -9.2553   -6.4352 H   0  0  0  0  0
   10.4416  -11.4276   -6.0040 H   0  0  0  0  0
    6.3265  -13.8991   -6.3704 H   0  0  0  0  0
    4.2765  -12.8171   -5.5328 H   0  0  0  0  0
    6.5701   -9.3781   -4.3580 H   0  0  0  0  0
    8.6192  -10.4636   -5.1893 H   0  0  0  0  0
    1.9547   -9.8272   -2.3102 H   0  0  0  0  0
    1.7116   -9.4628   -4.0470 H   0  0  0  0  0
    0.6349  -11.6148   -4.3746 H   0  0  0  0  0
   -0.1779  -10.7223   -3.0473 H   0  0  0  0  0
   -1.0613  -12.7183   -2.0956 H   0  0  0  0  0
   -0.3549  -13.6477   -3.4404 H   0  0  0  0  0
    0.0220  -14.0906   -1.7573 H   0  0  0  0  0
    2.3512  -13.9013   -2.2001 H   0  0  0  0  0
    2.0439  -13.4144   -3.9000 H   0  0  0  0  0
    4.2564  -12.6693   -3.2415 H   0  0  0  0  0
    3.5790  -11.8488   -1.7977 H   0  0  0  0  0
   20.2537  -11.3204   -7.3650 H   0  0  0  0  0
   22.3592  -11.5220   -6.1037 H   0  0  0  0  0
   20.1351  -11.8365   -2.4463 H   0  0  0  0  0
   18.0309  -11.6848   -3.7097 H   0  0  0  0  0
   21.9463  -13.1747   -1.9331 H   0  0  0  0  0
   22.7778  -13.9043   -3.3286 H   0  0  0  0  0
   23.7229  -13.1184   -2.0401 H   0  0  0  0  0
   22.6927   -9.6497   -2.8453 H   0  0  0  0  0
   21.8923  -10.7080   -1.6577 H   0  0  0  0  0
   23.6696  -10.6701   -1.7611 H   0  0  0  0  0
   23.9612  -12.4192   -4.9913 H   0  0  0  0  0
   23.9264  -10.6514   -4.7792 H   0  0  0  0  0
   24.8500  -11.6663   -3.6443 H   0  0  0  0  0
   16.6453  -11.7472   -4.7162 H   0  0  0  0  0
   13.2175   -9.0464   -7.5768 H   0  0  0  0  0
   11.8651  -11.0523   -8.0415 H   0  0  0  0  0
   15.9674  -14.1414   -6.4931 H   0  0  0  0  0
   15.1467  -13.8999   -4.9313 H   0  0  0  0  0
   14.2870  -14.6893   -6.2762 H   0  0  0  0  0
   12.2650  -16.6542   -8.3555 H   0  0  0  0  0
    1.1073  -12.0022   -1.5087 H   0  0  0  0  0
  1  2  4  0  0  0
 33  1  4  0  0  0
  1 34  1  0  0  0
  2  3  4  0  0  0
  2 30  1  0  0  0
 31  3  4  0  0  0
 19  4  2  0  0  0
  6  5  4  0  0  0
  5 40  4  0  0  0
 35  6  4  0  0  0
  6 36  4  0  0  0
  7  8  4  0  0  0
  7 12  4  0  0  0
 40  7  1  0  0  0
  8  9  4  0  0  0
  9 10  4  0  0  0
 11 10  4  0  0  0
 10 13  1  0  0  0
 12 11  4  0  0  0
 13 42  2  0  0  0
 13 43  1  0  0  0
 14 15  1  0  0  0
 43 14  1  0  0  0
 15 44  1  0  0  0
 44 16  1  0  0  0
 18 17  1  0  0  0
 17 44  1  0  0  0
 43 18  1  0  0  0
 19 20  1  0  0  0
 30 19  1  0  0  0
 20 21  4  0  0  0
 20 25  4  0  0  0
 21 22  4  0  0  0
 22 23  4  0  0  0
 24 23  4  0  0  0
 23 26  1  0  0  0
 25 24  4  0  0  0
 26 27  1  0  0  0
 26 28  1  0  0  0
 26 29  1  0  0  0
 32 31  4  0  0  0
 33 32  4  0  0  0
 33 35  1  0  0  0
 35 39  4  0  0  0
 36 37  4  0  0  0
 36 41  4  0  0  0
 37 38  4  0  0  0
 38 39  4  0  0  0
 40 41  4  0  0  0
  3 45  1  0  0  0
  5 46  1  0  0  0
  8 47  1  0  0  0
  9 48  1  0  0  0
 11 49  1  0  0  0
 12 50  1  0  0  0
 14 51  1  0  0  0
 14 52  1  0  0  0
 15 53  1  0  0  0
 15 54  1  0  0  0
 16 55  1  0  0  0
 16 56  1  0  0  0
 16 57  1  0  0  0
 17 58  1  0  0  0
 17 59  1  0  0  0
 18 60  1  0  0  0
 18 61  1  0  0  0
 21 62  1  0  0  0
 22 63  1  0  0  0
 24 64  1  0  0  0
 25 65  1  0  0  0
 27 66  1  0  0  0
 27 67  1  0  0  0
 27 68  1  0  0  0
 28 69  1  0  0  0
 28 70  1  0  0  0
 28 71  1  0  0  0
 29 72  1  0  0  0
 29 73  1  0  0  0
 29 74  1  0  0  0
 30 75  1  0  0  0
 31 76  1  0  0  0
 32 77  1  0  0  0
 34 78  1  0  0  0
 34 79  1  0  0  0
 34 80  1  0  0  0
 38 81  1  0  0  0
 44 82  1  0  0  0
M  END
$$$$
