3cyw_ligand
  -I-interpret- 

 75 78  0  0  0  0  0  0  0  0999 V2000
   -8.2350   14.0110  -13.7680 N   0  0  0  0  0
   -8.8780   15.1720  -14.1570 C   0  0  0  0  0
  -10.2020   15.3840  -13.7750 C   0  0  0  0  0
  -10.8580   16.5540  -14.1130 C   0  0  0  0  0
  -10.1630   17.5140  -14.8190 C   0  0  0  0  0
   -8.8550   17.3280  -15.2550 C   0  0  0  0  0
   -8.2140   16.1520  -14.9180 C   0  0  0  0  0
  -11.1180   18.9150  -15.3270 S   0  0  0  0  0
  -12.2910   19.0350  -14.4680 O   0  0  0  0  0
  -10.1960   20.0460  -15.4810 O   0  0  0  0  0
  -11.6850   18.6660  -16.9020 N   0  0  0  0  0
  -10.7030   18.4250  -17.9650 C   0  0  0  0  0
  -11.0630   19.0160  -19.3430 C   0  0  0  0  0
  -11.1660   20.5370  -19.2910 C   0  0  0  0  0
   -9.9560   18.5960  -20.3270 C   0  0  0  0  0
  -12.9830   17.9880  -17.0280 C   0  0  0  0  0
  -14.0730   18.8800  -17.6690 C   0  0  0  0  0
  -15.1670   18.0290  -18.0410 O   0  0  0  0  0
  -14.5780   19.9600  -16.6990 C   0  0  0  0  0
  -15.4260   20.9000  -17.4050 N   0  0  0  0  0
  -15.0890   22.1880  -17.6540 C   0  0  0  0  0
  -14.1060   22.7850  -17.2710 O   0  0  0  0  0
  -16.0690   22.7100  -18.4370 O   0  0  0  0  0
  -15.9930   24.1280  -18.7240 C   0  0  0  0  0
  -16.5600   24.3260  -20.1280 C   0  0  0  0  0
  -17.9690   24.2400  -19.9500 O   0  0  0  0  0
  -18.3400   24.7790  -18.6730 C   0  0  0  0  0
  -19.2150   23.9090  -18.0260 O   0  0  0  0  0
  -18.5150   23.2650  -16.9650 C   0  0  0  0  0
  -17.4020   24.2250  -16.5040 C   0  0  0  0  0
  -17.0370   24.8750  -17.8430 C   0  0  0  0  0
  -15.2400   19.4670  -15.3920 C   0  0  0  0  0
  -16.9260   21.0770  -14.3930 C   0  0  0  0  0
  -17.2700   22.1470  -13.5750 C   0  0  0  0  0
  -16.2730   22.8350  -12.8840 C   0  0  0  0  0
  -14.9430   22.4060  -12.9540 C   0  0  0  0  0
  -14.6490   21.2560  -13.6660 C   0  0  0  0  0
  -15.6090   20.6310  -14.4770 C   0  0  0  0  0
   -8.7293   13.3180  -13.2061 H   0  0  0  0  0
   -7.2664   13.8478  -14.0430 H   0  0  0  0  0
  -10.7265   14.6186  -13.2031 H   0  0  0  0  0
  -11.8981   16.7134  -13.8286 H   0  0  0  0  0
   -8.3492   18.0906  -15.8472 H   0  0  0  0  0
   -7.1877   15.9819  -15.2434 H   0  0  0  0  0
  -10.6437   17.3444  -18.0953 H   0  0  0  0  0
   -9.7783   18.9087  -17.6504 H   0  0  0  0  0
  -12.0360   18.6410  -19.6603 H   0  0  0  0  0
  -11.9407   20.8233  -18.5797 H   0  0  0  0  0
  -10.2095   20.9541  -18.9759 H   0  0  0  0  0
  -11.4211   20.9166  -20.2804 H   0  0  0  0  0
   -8.9982   18.9856  -19.9822 H   0  0  0  0  0
   -9.9102   17.5081  -20.3776 H   0  0  0  0  0
  -10.1786   18.9979  -21.3154 H   0  0  0  0  0
  -13.3181   17.7243  -16.0249 H   0  0  0  0  0
  -12.8428   17.1206  -17.6731 H   0  0  0  0  0
  -13.6485   19.3926  -18.5323 H   0  0  0  0  0
  -15.8602   18.5579  -18.4427 H   0  0  0  0  0
  -13.6745   20.4523  -16.3392 H   0  0  0  0  0
  -16.3333   20.5709  -17.7349 H   0  0  0  0  0
  -14.9695   24.4734  -18.5786 H   0  0  0  0  0
  -16.1877   23.5809  -20.8311 H   0  0  0  0  0
  -16.2575   25.2784  -20.5635 H   0  0  0  0  0
  -18.8275   25.7472  -18.7872 H   0  0  0  0  0
  -18.0905   22.3199  -17.3035 H   0  0  0  0  0
  -19.1916   23.0382  -16.1411 H   0  0  0  0  0
  -16.5683   23.7373  -15.9988 H   0  0  0  0  0
  -17.7078   24.9296  -15.7306 H   0  0  0  0  0
  -16.6214   25.8556  -17.6112 H   0  0  0  0  0
  -14.5313   18.8267  -14.8667 H   0  0  0  0  0
  -16.1519   18.9281  -15.6493 H   0  0  0  0  0
  -17.6992   20.5790  -14.9781 H   0  0  0  0  0
  -18.3132   22.4466  -13.4742 H   0  0  0  0  0
  -16.5307   23.7100  -12.2873 H   0  0  0  0  0
  -14.1523   22.9676  -12.4565 H   0  0  0  0  0
  -13.6498   20.8262  -13.5953 H   0  0  0  0  0
  2  1  1  0  0  0
  3  2  4  0  0  0
  7  2  4  0  0  0
  4  3  4  0  0  0
  5  4  4  0  0  0
  5  6  4  0  0  0
  8  5  1  0  0  0
  6  7  4  0  0  0
  8  9  2  0  0  0
  8 10  2  0  0  0
 11  8  1  0  0  0
 11 12  1  0  0  0
 16 11  1  0  0  0
 12 13  1  0  0  0
 13 14  1  0  0  0
 13 15  1  0  0  0
 17 16  1  0  0  0
 17 18  1  0  0  0
 19 17  1  0  0  0
 19 20  1  0  0  0
 32 19  1  0  0  0
 20 21  1  0  0  0
 21 22  2  0  0  0
 21 23  1  0  0  0
 23 24  1  0  0  0
 24 25  1  0  0  0
 24 31  1  0  0  0
 25 26  1  0  0  0
 27 26  1  0  0  0
 27 28  1  0  0  0
 31 27  1  0  0  0
 29 28  1  0  0  0
 30 29  1  0  0  0
 31 30  1  0  0  0
 38 32  1  0  0  0
 33 34  4  0  0  0
 33 38  4  0  0  0
 34 35  4  0  0  0
 35 36  4  0  0  0
 36 37  4  0  0  0
 37 38  4  0  0  0
  1 39  1  0  0  0
  1 40  1  0  0  0
  3 41  1  0  0  0
  4 42  1  0  0  0
  6 43  1  0  0  0
  7 44  1  0  0  0
 12 45  1  0  0  0
 12 46  1  0  0  0
 13 47  1  0  0  0
 14 48  1  0  0  0
 14 49  1  0  0  0
 14 50  1  0  0  0
 15 51  1  0  0  0
 15 52  1  0  0  0
 15 53  1  0  0  0
 16 54  1  0  0  0
 16 55  1  0  0  0
 17 56  1  0  0  0
 18 57  1  0  0  0
 19 58  1  0  0  0
 20 59  1  0  0  0
 24 60  1  0  0  0
 25 61  1  0  0  0
 25 62  1  0  0  0
 27 63  1  0  0  0
 29 64  1  0  0  0
 29 65  1  0  0  0
 30 66  1  0  0  0
 30 67  1  0  0  0
 31 68  1  0  0  0
 32 69  1  0  0  0
 32 70  1  0  0  0
 33 71  1  0  0  0
 34 72  1  0  0  0
 35 73  1  0  0  0
 36 74  1  0  0  0
 37 75  1  0  0  0
M  END
$$$$
