4eox_ligand
  -I-interpret- 

 59 61  0  0  0  0  0  0  0  0999 V2000
   17.9040   -6.3800    1.1690 C   0  0  0  0  0
   17.7870   -5.6250    2.3220 C   0  0  0  0  0
   18.9200   -7.3050    1.0050 C   0  0  0  0  0
   18.7010   -5.8120    3.3380 C   0  0  0  0  0
   19.8590   -7.4880    1.9960 C   0  0  0  0  0
   19.7160   -6.7230    3.1470 C   0  0  0  0  0
   28.5820   -2.1970    4.8430 C   0  0  0  0  0
   20.6740   -6.8490    4.2430 C   0  0  0  0  0
   23.0050   -7.3090    4.6130 C   0  0  0  0  0
   25.1900   -5.3040    4.7570 C   0  0  0  0  0
   25.0370   -5.5640    9.4810 C   0  0  0  0  0
   24.6460   -4.1520    9.8900 C   0  0  0  0  0
   26.1920   -8.7700    4.4050 C   0  0  0  0  0
   24.8190   -8.7940    3.7780 C   0  0  0  0  0
   25.9850   -5.4320    8.2780 C   0  0  0  0  0
   25.1940   -3.2320    8.8180 C   0  0  0  0  0
   26.4900   -7.3930    4.9550 C   0  0  0  0  0
   24.3100   -7.3660    3.8590 C   0  0  0  0  0
   25.5030   -4.1860    7.6470 C   0  0  0  0  0
   26.1280   -3.5580    6.4330 C   0  0  0  0  0
   27.0660   -4.0400    4.1940 C   0  0  0  0  0
   26.3870   -4.6780    5.3840 C   0  0  0  0  0
   25.2780   -6.6790    4.6630 N   0  0  0  0  0
   21.9500   -7.0260    3.7860 N   0  0  0  0  0
   28.3220   -3.4770    4.5200 N   0  0  0  0  0
   29.7210   -1.8610    5.1220 O   0  0  0  0  0
   20.3540   -6.6780    5.4070 O   0  0  0  0  0
   22.9240   -7.4640    5.8250 O   0  0  0  0  0
   24.2330   -4.7090    4.2950 O   0  0  0  0  0
   29.4400   -4.3170    4.6690 O   0  0  0  0  0
   17.1769   -6.2428    0.3686 H   0  0  0  0  0
   16.9853   -4.8939    2.4261 H   0  0  0  0  0
   18.9775   -7.8912    0.0879 H   0  0  0  0  0
   18.6218   -5.2521    4.2698 H   0  0  0  0  0
   20.6764   -8.2000    1.8825 H   0  0  0  0  0
   27.7770   -1.4622    4.8553 H   0  0  0  0  0
   24.1558   -6.1490    9.2175 H   0  0  0  0  0
   25.5262   -6.0844   10.3044 H   0  0  0  0  0
   25.0538   -3.9001   10.8689 H   0  0  0  0  0
   23.5638   -4.0539    9.9753 H   0  0  0  0  0
   26.9349   -9.0205    3.6477 H   0  0  0  0  0
   26.2258   -9.4945    5.2186 H   0  0  0  0  0
   24.1549   -9.4844    4.2980 H   0  0  0  0  0
   24.8572   -9.1462    2.7472 H   0  0  0  0  0
   25.9600   -6.2933    7.6104 H   0  0  0  0  0
   27.0378   -5.3964    8.5582 H   0  0  0  0  0
   26.0736   -2.6809    9.1507 H   0  0  0  0  0
   24.4901   -2.4468    8.5421 H   0  0  0  0  0
   27.3748   -6.9360    4.5119 H   0  0  0  0  0
   26.7395   -7.3993    6.0160 H   0  0  0  0  0
   24.1664   -6.9471    2.8630 H   0  0  0  0  0
   24.6457   -4.4920    7.0474 H   0  0  0  0  0
   27.0664   -3.0737    6.7031 H   0  0  0  0  0
   25.4615   -2.8024    6.0172 H   0  0  0  0  0
   26.4231   -3.2376    3.8320 H   0  0  0  0  0
   27.2307   -4.8161    3.4465 H   0  0  0  0  0
   26.9340   -5.4356    5.9451 H   0  0  0  0  0
   22.1246   -6.9437    2.7844 H   0  0  0  0  0
   29.1994   -5.2141    4.4263 H   0  0  0  0  0
  2  1  4  0  0  0
  3  1  4  0  0  0
  4  2  4  0  0  0
  5  3  4  0  0  0
  6  4  4  0  0  0
  6  5  4  0  0  0
  8  6  1  0  0  0
 25  7  1  0  0  0
  7 26  2  0  0  0
 24  8  1  0  0  0
  8 27  2  0  0  0
 18  9  1  0  0  0
  9 24  1  0  0  0
  9 28  2  0  0  0
 22 10  1  0  0  0
 10 23  1  0  0  0
 10 29  2  0  0  0
 12 11  1  0  0  0
 15 11  1  0  0  0
 16 12  1  0  0  0
 14 13  1  0  0  0
 17 13  1  0  0  0
 18 14  1  0  0  0
 19 15  1  0  0  0
 19 16  1  0  0  0
 23 17  1  0  0  0
 23 18  1  0  0  0
 20 19  1  0  0  0
 22 20  1  0  0  0
 21 22  1  0  0  0
 21 25  1  0  0  0
 25 30  1  0  0  0
  1 31  1  0  0  0
  2 32  1  0  0  0
  3 33  1  0  0  0
  4 34  1  0  0  0
  5 35  1  0  0  0
  7 36  1  0  0  0
 11 37  1  0  0  0
 11 38  1  0  0  0
 12 39  1  0  0  0
 12 40  1  0  0  0
 13 41  1  0  0  0
 13 42  1  0  0  0
 14 43  1  0  0  0
 14 44  1  0  0  0
 15 45  1  0  0  0
 15 46  1  0  0  0
 16 47  1  0  0  0
 16 48  1  0  0  0
 17 49  1  0  0  0
 17 50  1  0  0  0
 18 51  1  0  0  0
 19 52  1  0  0  0
 20 53  1  0  0  0
 20 54  1  0  0  0
 21 55  1  0  0  0
 21 56  1  0  0  0
 22 57  1  0  0  0
 24 58  1  0  0  0
 30 59  1  0  0  0
M  END
$$$$
