2haw_ligand
  -I-interpret- 

 14 13  0  0  0  0  0  0  0  0999 V2000
  -10.8010   -7.7140  125.3170 P   0  0  0  0  0
  -10.3070   -8.3430  124.0260 O   0  0  0  0  0
  -10.0050   -8.6030  126.4190 O   0  0  0  0  0
  -10.4990   -6.1790  125.4690 O   0  0  0  0  0
  -12.6090   -7.9040  125.5370 N   0  0  0  0  0
  -13.8650   -7.1380  125.6220 P   0  0  0  0  0
  -14.7670   -7.8830  124.5540 O   0  0  0  0  0
  -14.4230   -7.0990  126.9460 O   0  0  0  0  0
  -13.4520   -5.6580  125.2260 O   0  0  0  0  0
  -10.2350   -8.2992  127.3002 H   0  0  0  0  0
  -10.8445   -5.8677  126.3088 H   0  0  0  0  0
  -12.8238   -8.8962  125.6364 H   0  0  0  0  0
  -14.3290   -7.8670  123.6999 H   0  0  0  0  0
  -13.0755   -5.6575  124.3429 H   0  0  0  0  0
  1  2  2  0  0  0
  1  3  1  0  0  0
  1  4  1  0  0  0
  1  5  1  0  0  0
  5  6  1  0  0  0
  6  7  1  0  0  0
  6  8  2  0  0  0
  6  9  1  0  0  0
  3 10  1  0  0  0
  4 11  1  0  0  0
  5 12  1  0  0  0
  7 13  1  0  0  0
  9 14  1  0  0  0
M  END
$$$$
