4j82_ligand
  -I-interpret- 

 86 86  0  0  0  0  0  0  0  0999 V2000
  -25.0470  104.6090 -133.1060 N   0  3  0  0  0
  -24.2120  105.4600 -132.2630 C   0  0  0  0  0
  -24.9000  106.7830 -131.9630 C   0  0  0  0  0
  -25.0070  107.6500 -132.8370 O   0  0  0  0  0
  -22.8660  105.7340 -132.9390 C   0  0  0  0  0
  -21.6630  105.0880 -132.2560 C   0  0  0  0  0
  -21.2820  105.7980 -130.9630 C   0  0  0  0  0
  -19.9180  105.3150 -130.4680 C   0  0  0  0  0
  -19.9160  104.9490 -129.0190 N   0  3  0  0  0
  -25.3640  106.9400 -130.7270 N   0  0  0  0  0
  -25.9620  108.1970 -130.3020 C   0  0  0  0  0
  -24.8930  109.2700 -130.1970 C   0  0  0  0  0
  -23.7770  109.0030 -129.7490 O   0  0  0  0  0
  -26.6720  108.0350 -128.9570 C   0  0  0  0  0
  -27.1880  109.2790 -128.5100 O   0  0  0  0  0
  -25.2460  110.4790 -130.6230 N   0  0  0  0  0
  -24.3620  111.6340 -130.5170 C   0  0  0  0  0
  -23.0640  111.4360 -131.2710 C   0  0  0  0  0
  -21.9950  111.7600 -130.7620 O   0  0  0  0  0
  -24.0770  111.9570 -129.0460 C   0  0  0  0  0
  -25.2740  112.4660 -128.3080 C   0  0  0  0  0
  -26.4110  111.7100 -128.1210 N   0  0  0  0  0
  -25.5150  113.6610 -127.7190 C   0  0  0  0  0
  -27.3000  112.4150 -127.4470 C   0  0  0  0  0
  -26.7830  113.6040 -127.1920 N   0  0  0  0  0
  -23.1630  110.9170 -132.4920 N   0  0  0  0  0
  -21.9950  110.7690 -133.3490 C   0  0  0  0  0
  -21.4360  112.1380 -133.7350 C   0  0  0  0  0
  -20.2200  112.3390 -133.7690 O   0  0  0  0  0
  -22.3630  109.9850 -134.6110 C   0  0  0  0  0
  -21.2330  109.8750 -135.6260 C   0  0  0  0  0
  -19.9590  109.3090 -135.0210 C   0  0  0  0  0
  -19.9930  108.3520 -134.2430 O   0  0  0  0  0
  -18.8240  109.9050 -135.3730 N   0  0  0  0  0
  -22.3290  113.0820 -134.0080 N   0  0  0  0  0
  -21.9190  114.4050 -134.4740 C   0  0  0  0  0
  -21.2280  115.2610 -133.4160 C   0  0  0  0  0
  -21.3110  115.0290 -132.2030 O   0  0  0  0  0
  -23.1100  115.1610 -135.0620 C   0  0  0  0  0
  -23.6750  114.5110 -136.3130 C   0  0  0  0  0
  -24.7950  115.3180 -136.9270 C   0  0  0  0  0
  -25.9060  115.3210 -136.3540 O   0  0  0  0  0
  -24.5610  115.9520 -137.9800 O   0  0  0  0  0
  -20.5540  116.2270 -133.7850 O   0  0  0  0  0
  -25.9375  104.4385 -132.6387 H   0  0  0  0  0
  -25.2134  105.0747 -133.9981 H   0  0  0  0  0
  -24.5713  103.7214 -133.2680 H   0  0  0  0  0
  -24.0467  104.9285 -131.3258 H   0  0  0  0  0
  -22.7083  106.8120 -132.9045 H   0  0  0  0  0
  -22.9243  105.3123 -133.9424 H   0  0  0  0  0
  -20.8145  105.1483 -132.9376 H   0  0  0  0  0
  -21.9252  104.0586 -132.0119 H   0  0  0  0  0
  -22.0324  105.5776 -130.2038 H   0  0  0  0  0
  -21.2312  106.8706 -131.1499 H   0  0  0  0  0
  -19.2083  106.1309 -130.6045 H   0  0  0  0  0
  -19.6570  104.4218 -131.0355 H   0  0  0  0  0
  -18.9832  104.6362 -128.7499 H   0  0  0  0  0
  -20.1761  105.7639 -128.4634 H   0  0  0  0  0
  -20.5873  104.1980 -128.8583 H   0  0  0  0  0
  -25.2998  106.1664 -130.0654 H   0  0  0  0  0
  -26.7001  108.4951 -131.0466 H   0  0  0  0  0
  -25.9562  107.6658 -128.2226 H   0  0  0  0  0
  -27.4975  107.3332 -129.0763 H   0  0  0  0  0
  -27.6290  109.1566 -127.6661 H   0  0  0  0  0
  -26.1689  110.6032 -131.0392 H   0  0  0  0  0
  -24.8789  112.4762 -130.9771 H   0  0  0  0  0
  -23.3186  112.7395 -129.0220 H   0  0  0  0  0
  -23.7603  111.0332 -128.5618 H   0  0  0  0  0
  -24.8317  114.5090 -127.6717 H   0  0  0  0  0
  -28.2922  112.0744 -127.1510 H   0  0  0  0  0
  -24.0755  110.6167 -132.8348 H   0  0  0  0  0
  -21.2310  110.2212 -132.7974 H   0  0  0  0  0
  -23.1808  110.5187 -135.0953 H   0  0  0  0  0
  -22.6161  108.9717 -134.2990 H   0  0  0  0  0
  -21.0136  110.8771 -135.9944 H   0  0  0  0  0
  -21.5574  109.2001 -136.4181 H   0  0  0  0  0
  -17.9358  109.5736 -134.9965 H   0  0  0  0  0
  -18.8413  110.6937 -136.0196 H   0  0  0  0  0
  -23.3217  112.8795 -133.8900 H   0  0  0  0  0
  -21.1719  114.2202 -135.2459 H   0  0  0  0  0
  -21.8618  114.2552 -132.0633 H   0  0  0  0  0
  -22.7650  116.1581 -135.3356 H   0  0  0  0  0
  -23.8989  115.1696 -134.3099 H   0  0  0  0  0
  -24.0756  113.5363 -136.0346 H   0  0  0  0  0
  -22.8719  114.4370 -137.0463 H   0  0  0  0  0
  -23.6489  115.8082 -138.2428 H   0  0  0  0  0
  1  2  1  0  0  0
  2  3  1  0  0  0
  2  5  1  0  0  0
  3  4  2  0  0  0
  3 10  1  0  0  0
  5  6  1  0  0  0
  6  7  1  0  0  0
  7  8  1  0  0  0
  8  9  1  0  0  0
 10 11  1  0  0  0
 11 12  1  0  0  0
 11 14  1  0  0  0
 12 13  2  0  0  0
 12 16  1  0  0  0
 14 15  1  0  0  0
 16 17  1  0  0  0
 17 18  1  0  0  0
 17 20  1  0  0  0
 18 19  2  0  0  0
 18 26  1  0  0  0
 20 21  1  0  0  0
 21 22  4  0  0  0
 21 23  4  0  0  0
 22 24  4  0  0  0
 23 25  4  0  0  0
 24 25  4  0  0  0
 26 27  1  0  0  0
 27 28  1  0  0  0
 27 30  1  0  0  0
 28 29  2  0  0  0
 28 35  1  0  0  0
 30 31  1  0  0  0
 31 32  1  0  0  0
 32 33  2  0  0  0
 32 34  1  0  0  0
 35 36  1  0  0  0
 36 37  1  0  0  0
 36 39  1  0  0  0
 37 38  1  0  0  0
 37 44  2  0  0  0
 39 40  1  0  0  0
 40 41  1  0  0  0
 41 42  2  0  0  0
 41 43  1  0  0  0
  1 45  1  0  0  0
  1 46  1  0  0  0
  1 47  1  0  0  0
  2 48  1  0  0  0
  5 49  1  0  0  0
  5 50  1  0  0  0
  6 51  1  0  0  0
  6 52  1  0  0  0
  7 53  1  0  0  0
  7 54  1  0  0  0
  8 55  1  0  0  0
  8 56  1  0  0  0
  9 57  1  0  0  0
  9 58  1  0  0  0
  9 59  1  0  0  0
 10 60  1  0  0  0
 11 61  1  0  0  0
 14 62  1  0  0  0
 14 63  1  0  0  0
 15 64  1  0  0  0
 16 65  1  0  0  0
 17 66  1  0  0  0
 20 67  1  0  0  0
 20 68  1  0  0  0
 23 69  1  0  0  0
 24 70  1  0  0  0
 26 71  1  0  0  0
 27 72  1  0  0  0
 30 73  1  0  0  0
 30 74  1  0  0  0
 31 75  1  0  0  0
 31 76  1  0  0  0
 34 77  1  0  0  0
 34 78  1  0  0  0
 35 79  1  0  0  0
 36 80  1  0  0  0
 38 81  1  0  0  0
 39 82  1  0  0  0
 39 83  1  0  0  0
 40 84  1  0  0  0
 40 85  1  0  0  0
 43 86  1  0  0  0
M  END
$$$$
