### 
### Created by X-TOOL on Mon Sep 10 21:13:13 2018
### 

@<TRIPOS>MOLECULE
4j82_ligand
   85    85     1     0     0
SMALL
GAST_HUCK


@<TRIPOS>ATOM
      1 N         -25.0470  104.6090 -133.1060 N.4       1 LYS         0.2379
      2 CA        -24.2120  105.4600 -132.2630 C.3       1 LYS         0.0650
      3 C         -24.9000  106.7830 -131.9630 C.2       1 LYS         0.2268
      4 O         -25.0070  107.6500 -132.8370 O.2       1 LYS        -0.3907
      5 CB        -22.8660  105.7340 -132.9390 C.3       1 LYS         0.0080
      6 CG        -21.6630  105.0880 -132.2560 C.3       1 LYS        -0.0410
      7 CD        -21.2820  105.7980 -130.9630 C.3       1 LYS        -0.0123
      8 CE        -19.9180  105.3150 -130.4680 C.3       1 LYS        -0.0354
      9 NZ        -19.9160  104.9490 -129.0190 N.4       1 LYS         0.2185
     10 N         -25.3640  106.9400 -130.7270 N.am      1 SER        -0.2589
     11 CA        -25.9620  108.1970 -130.3020 C.3       1 SER         0.1540
     12 C         -24.8930  109.2700 -130.1970 C.2       1 SER         0.2063
     13 O         -23.7770  109.0030 -129.7490 O.2       1 SER        -0.3943
     14 CB        -26.6720  108.0350 -128.9570 C.3       1 SER         0.0843
     15 OG        -27.1880  109.2790 -128.5100 O.3       1 SER        -0.3903
     16 N         -25.2460  110.4790 -130.6230 N.am      1 HIS        -0.2624
     17 CA        -24.3620  111.6340 -130.5170 C.3       1 HIS         0.1369
     18 C         -23.0640  111.4360 -131.2710 C.2       1 HIS         0.2054
     19 O         -21.9950  111.7600 -130.7620 O.2       1 HIS        -0.3942
     20 CB        -24.0770  111.9570 -129.0460 C.3       1 HIS         0.0145
     21 CG        -25.2740  112.4660 -128.3080 C.2       1 HIS        -0.0027
     22 ND1       -26.4110  111.7100 -128.1210 N.2       1 HIS        -0.3252
     23 CD2       -25.5150  113.6610 -127.7190 C.2       1 HIS         0.0291
     24 CE1       -27.3000  112.4150 -127.4470 C.2       1 HIS         0.0907
     25 NE2       -26.7830  113.6040 -127.1920 N.pl3     1 HIS        -0.2752
     26 N         -23.1630  110.9170 -132.4920 N.am      1 GLN        -0.2635
     27 CA        -21.9950  110.7690 -133.3490 C.3       1 GLN         0.1330
     28 C         -21.4360  112.1380 -133.7350 C.2       1 GLN         0.2035
     29 O         -20.2200  112.3390 -133.7690 O.2       1 GLN        -0.3944
     30 CB        -22.3630  109.9850 -134.6110 C.3       1 GLN         0.0045
     31 CG        -21.2330  109.8750 -135.6260 C.3       1 GLN         0.0412
     32 CD        -19.9590  109.3090 -135.0210 C.2       1 GLN         0.1737
     33 OE1       -19.9930  108.3520 -134.2430 O.2       1 GLN        -0.3973
     34 NE2       -18.8240  109.9050 -135.3730 N.am      1 GLN        -0.3009
     35 N         -22.3290  113.0820 -134.0080 N.am      1 GLU        -0.2694
     36 CA        -21.9190  114.4050 -134.4740 C.3       1 GLU         0.0959
     37 C         -21.2280  115.2610 -133.4160 C.2       1 GLU         0.0602
     38 O         -21.3110  115.0290 -132.2030 O.co2     1 GLU        -0.5666
     39 CB        -23.1100  115.1610 -135.0620 C.3       1 GLU        -0.0064
     40 CG        -23.6750  114.5110 -136.3130 C.3       1 GLU         0.0038
     41 CD        -24.7950  115.3180 -136.9270 C.2       1 GLU         0.0350
     42 OE1       -25.9060  115.3210 -136.3540 O.co2     1 GLU        -0.5690
     43 OE2       -24.5610  115.9520 -137.9800 O.co2     1 GLU        -0.5690
     44 OXT       -20.5540  116.2270 -133.7850 O.co2     1 GLU        -0.5666
     45 H1        -24.5668  103.7416 -133.2879 H         1 LYS         0.2015
     46 H2        -25.2334  105.0791 -133.9780 H         1 LYS         0.2015
     47 H3        -25.9172  104.4188 -132.6341 H         1 LYS         0.2015
     48 H4        -24.0303  104.9353 -131.3135 H         1 LYS         0.1098
     49 H5        -22.7065  106.8222 -132.9553 H         1 LYS         0.0346
     50 H6        -22.9178  105.3555 -133.9705 H         1 LYS         0.0346
     51 H7        -20.8054  105.1217 -132.9440 H         1 LYS         0.0270
     52 H8        -21.9073  104.0405 -132.0256 H         1 LYS         0.0270
     53 H9        -22.0413  105.5854 -130.1961 H         1 LYS         0.0317
     54 H10       -21.2379  106.8820 -131.1448 H         1 LYS         0.0317
     55 H11       -19.1834  106.1181 -130.6272 H         1 LYS         0.0813
     56 H12       -19.6265  104.4302 -131.0529 H         1 LYS         0.0813
     57 H13       -18.9946  104.6397 -128.7519 H         1 LYS         0.1994
     58 H14       -20.5791  104.2068 -128.8590 H         1 LYS         0.1994
     59 H15       -20.1729  105.7536 -128.4688 H         1 LYS         0.1994
     60 H16       -25.3011  106.1815 -130.0783 H         1 SER         0.1885
     61 H17       -26.7020  108.5062 -131.0548 H         1 SER         0.0823
     62 H18       -25.9561  107.6531 -128.2143 H         1 SER         0.0606
     63 H19       -27.5002  107.3199 -129.0695 H         1 SER         0.0606
     64 H20       -26.4749  109.8985 -128.4090 H         1 SER         0.2097
     65 H21       -26.1508  110.6008 -131.0310 H         1 HIS         0.1885
     66 H22       -24.8812  112.4954 -130.9625 H         1 HIS         0.0817
     67 H23       -23.2891  112.7234 -129.0034 H         1 HIS         0.0420
     68 H24       -23.7247  111.0408 -128.5495 H         1 HIS         0.0420
     69 H25       -24.8324  114.5082 -127.6717 H         1 HIS         0.0729
     70 H26       -28.2913  112.0747 -127.1512 H         1 HIS         0.1199
     71 H27       -27.2538  114.3645 -126.6813 H         1 HIS         0.2361
     72 H28       -24.0576  110.6226 -132.8281 H         1 GLN         0.1883
     73 H29       -21.2217  110.2134 -132.7984 H         1 GLN         0.0801
     74 H30       -23.2137  110.4877 -135.0943 H         1 GLN         0.0337
     75 H31       -22.6592  108.9686 -134.3123 H         1 GLN         0.0337
     76 H32       -21.0187  110.8774 -136.0250 H         1 GLN         0.0504
     77 H33       -21.5574  109.2160 -136.4448 H         1 GLN         0.0504
     78 H34       -17.9529  109.5773 -135.0073 H         1 GLN         0.1814
     79 H35       -18.8414  110.6810 -136.0034 H         1 GLN         0.1814
     80 H36       -23.3023  112.8835 -133.8923 H         1 GLU         0.1875
     81 H37       -21.1911  114.2461 -135.2833 H         1 GLU         0.0727
     82 H38       -22.7858  116.1813 -135.3146 H         1 GLU         0.0323
     83 H39       -23.9045  115.2061 -134.3026 H         1 GLU         0.0323
     84 H40       -24.0607  113.5150 -136.0500 H         1 GLU         0.0432
     85 H41       -22.8675  114.4079 -137.0528 H         1 GLU         0.0432
@<TRIPOS>BOND
     1    1    2 1  
     2    2    3 1  
     3    2    5 1  
     4    3    4 2  
     5    3   10 am 
     6    5    6 1  
     7    6    7 1  
     8    7    8 1  
     9    8    9 1  
    10   10   11 1  
    11   11   12 1  
    12   11   14 1  
    13   12   13 2  
    14   12   16 am 
    15   14   15 1  
    16   16   17 1  
    17   17   18 1  
    18   17   20 1  
    19   18   19 2  
    20   18   26 am 
    21   20   21 1  
    22   21   22 1  
    23   21   23 2  
    24   22   24 2  
    25   23   25 1  
    26   24   25 1  
    27   26   27 1  
    28   27   28 1  
    29   27   30 1  
    30   28   29 2  
    31   28   35 am 
    32   30   31 1  
    33   31   32 1  
    34   32   33 2  
    35   32   34 am 
    36   35   36 1  
    37   36   37 1  
    38   36   39 1  
    39   37   38 ar 
    40   37   44 ar 
    41   39   40 1  
    42   40   41 1  
    43   41   42 ar 
    44   41   43 ar 
    45    1   45 1  
    46    1   46 1  
    47    1   47 1  
    48    2   48 1  
    49    5   49 1  
    50    5   50 1  
    51    6   51 1  
    52    6   52 1  
    53    7   53 1  
    54    7   54 1  
    55    8   55 1  
    56    8   56 1  
    57    9   57 1  
    58    9   58 1  
    59    9   59 1  
    60   10   60 1  
    61   11   61 1  
    62   14   62 1  
    63   14   63 1  
    64   15   64 1  
    65   16   65 1  
    66   17   66 1  
    67   20   67 1  
    68   20   68 1  
    69   23   69 1  
    70   24   70 1  
    71   25   71 1  
    72   26   72 1  
    73   27   73 1  
    74   30   74 1  
    75   30   75 1  
    76   31   76 1  
    77   31   77 1  
    78   34   78 1  
    79   34   79 1  
    80   35   80 1  
    81   36   81 1  
    82   39   82 1  
    83   39   83 1  
    84   40   84 1  
    85   40   85 1  
@<TRIPOS>SUBSTRUCTURE
     1 LYS         1

