4qnu_ligand
  -I-interpret- 

 54 56  0  0  0  0  0  0  0  0999 V2000
   37.7910   72.6840    9.9840 C   0  0  0  0  0
   36.5350   70.7190    9.0190 N   0  3  0  0  0
   37.9800   73.5060   10.8850 O   0  0  0  0  0
   34.3350   61.3120   10.1680 N   0  0  0  0  0
   33.9370   62.6900    9.8340 C   0  0  0  0  0
   34.2920   63.6350   10.9030 N   0  0  0  0  0
   34.9110   63.2990   12.0260 C   0  0  0  0  0
   35.1520   62.0080   12.2740 C   0  0  0  0  0
   34.8430   61.0510   11.3710 C   0  0  0  0  0
   34.9860   59.7890   11.7190 N   0  0  0  0  0
   35.6010   61.9620   13.5190 N   0  0  0  0  0
   35.7430   63.2110   13.9820 C   0  0  0  0  0
   35.3340   64.0580   13.0380 N   0  0  0  0  0
   36.5790   71.7270   10.1150 C   0  0  0  0  0
   36.6170   71.0690   11.5130 C   0  0  0  0  0
   37.9580   69.6820   13.5510 S   0  0  0  0  0
   39.6980   69.5030   14.1440 C   0  0  0  0  0
   37.8710   70.1770   11.7750 C   0  0  0  0  0
   40.5460   70.7550   13.9700 C   0  0  0  0  0
   35.1460   65.5540   13.1370 C   0  0  0  0  0
   35.0430   66.1030   14.5460 C   0  0  0  0  0
   33.7340   65.8540   15.0940 O   0  0  0  0  0
   35.2000   67.5800   14.2910 C   0  0  0  0  0
   34.0390   68.2420   13.8530 O   0  0  0  0  0
   36.1280   67.6430   13.1770 C   0  0  0  0  0
   36.1960   66.3160   12.5710 O   0  0  0  0  0
   37.4430   67.9670   13.8590 C   0  0  0  0  0
   38.5710   72.5560    9.0230 O   0  0  0  0  0
   39.9350   71.8370   14.1740 O   0  0  0  0  0
   41.7790   70.5790   13.6870 O   0  0  0  0  0
   36.5110   71.1981    8.1188 H   0  0  0  0  0
   37.3647   70.1278    9.0689 H   0  0  0  0  0
   35.6992   70.1433    9.1215 H   0  0  0  0  0
   34.2225   60.5639    9.4838 H   0  0  0  0  0
   33.4396   62.9748    8.9068 H   0  0  0  0  0
   35.3233   59.5523   12.6521 H   0  0  0  0  0
   36.1276   63.4874   14.9637 H   0  0  0  0  0
   35.6582   72.3016   10.0151 H   0  0  0  0  0
   35.7438   70.4205   11.5841 H   0  0  0  0  0
   36.6414   71.8763   12.2449 H   0  0  0  0  0
   40.1613   68.7147   13.5507 H   0  0  0  0  0
   39.6543   69.2891   15.2119 H   0  0  0  0  0
   38.7667   70.7446   11.5226 H   0  0  0  0  0
   37.7995   69.2789   11.1615 H   0  0  0  0  0
   34.2081   65.6592   12.5916 H   0  0  0  0  0
   35.7591   65.6703   15.2446 H   0  0  0  0  0
   33.6886   66.2084   15.9850 H   0  0  0  0  0
   35.4977   68.0580   15.2243 H   0  0  0  0  0
   34.2341   69.1722   13.7177 H   0  0  0  0  0
   35.8621   68.3588   12.3992 H   0  0  0  0  0
   37.3133   67.8358   14.9333 H   0  0  0  0  0
   38.2090   67.3022   13.4597 H   0  0  0  0  0
   38.2459   71.8678    8.4379 H   0  0  0  0  0
   41.9527   69.6400   13.5885 H   0  0  0  0  0
  1  3  2  0  0  0
 14  1  1  0  0  0
  1 28  1  0  0  0
 14  2  1  0  0  0
  5  4  1  0  0  0
  9  4  1  0  0  0
  6  5  2  0  0  0
  7  6  1  0  0  0
  7  8  4  0  0  0
 13  7  4  0  0  0
  8  9  1  0  0  0
 11  8  4  0  0  0
  9 10  2  0  0  0
 12 11  4  0  0  0
 13 12  4  0  0  0
 20 13  1  0  0  0
 15 14  1  0  0  0
 18 15  1  0  0  0
 16 17  1  0  0  0
 16 18  1  0  0  0
 27 16  1  0  0  0
 17 19  1  0  0  0
 19 29  2  0  0  0
 19 30  1  0  0  0
 20 21  1  0  0  0
 26 20  1  0  0  0
 21 22  1  0  0  0
 23 21  1  0  0  0
 23 24  1  0  0  0
 25 23  1  0  0  0
 25 26  1  0  0  0
 25 27  1  0  0  0
  2 31  1  0  0  0
  2 32  1  0  0  0
  2 33  1  0  0  0
  4 34  1  0  0  0
  5 35  1  0  0  0
 10 36  1  0  0  0
 12 37  1  0  0  0
 14 38  1  0  0  0
 15 39  1  0  0  0
 15 40  1  0  0  0
 17 41  1  0  0  0
 17 42  1  0  0  0
 18 43  1  0  0  0
 18 44  1  0  0  0
 20 45  1  0  0  0
 21 46  1  0  0  0
 22 47  1  0  0  0
 23 48  1  0  0  0
 24 49  1  0  0  0
 25 50  1  0  0  0
 27 51  1  0  0  0
 27 52  1  0  0  0
 28 53  1  0  0  0
 30 54  1  0  0  0
M  END
$$$$
