5q12_ligand
  -I-interpret- 

 46 49  0  0  0  0  0  0  0  0999 V2000
  -13.8230   50.9420    6.2550 N   0  0  0  0  0
  -15.9230   52.4010   10.3630 C   0  0  0  0  0
  -15.8070   52.1670    8.9650 C   0  0  0  0  0
  -13.5420   51.2300    9.3710 C   0  0  0  0  0
  -13.7010   51.4720   10.7040 C   0  0  0  0  0
  -14.9290   48.8020    5.6890 C   0  0  0  0  0
  -15.0180   48.0900    3.3700 C   0  0  0  0  0
  -15.3100   47.8840    4.7100 C   0  0  0  0  0
  -16.6210   52.0620    5.4880 C   0  0  0  0  0
  -16.2070   52.9860    4.5370 C   0  0  0  0  0
  -17.6370   51.2000    5.0800 C   0  0  0  0  0
  -18.2140   51.2420    3.8330 C   0  0  0  0  0
  -13.1850   51.4200    3.4340 C   0  0  0  0  0
  -13.9260   50.1890    3.8990 C   0  0  0  0  0
  -14.3360   49.2290    2.9710 C   0  0  0  0  0
  -15.2670   48.5320    7.1440 C   0  0  0  0  0
  -14.2320   49.9620    5.2730 C   0  0  0  0  0
  -14.7610   51.4710    7.1090 C   0  0  0  0  0
  -16.0150   51.9820    6.8310 C   0  0  0  0  0
  -16.6560   52.4070    7.9680 N   0  0  0  0  0
  -14.8960   52.0620   11.2060 C   0  0  0  0  0
  -12.3060   50.6180    8.8130 C   0  0  0  0  0
  -14.6100   51.5830    8.5050 N   0  0  0  0  0
  -15.2210   53.8450    4.8780 F   0  0  0  0  0
  -16.7500   53.0730    3.2720 C   0  0  0  0  0
  -17.7640   52.1900    2.9260 C   0  0  0  0  0
  -18.0760   50.2770    5.9660 F   0  0  0  0  0
  -12.8485   51.2375    6.3131 H   0  0  0  0  0
  -16.8306   52.8510   10.7654 H   0  0  0  0  0
  -12.9007   51.2096   11.3959 H   0  0  0  0  0
  -15.3259   47.3535    2.6278 H   0  0  0  0  0
  -15.8496   46.9841    5.0051 H   0  0  0  0  0
  -19.0078   50.5455    3.5629 H   0  0  0  0  0
  -12.2618   51.1210    2.9376 H   0  0  0  0  0
  -13.8103   51.9770    2.7362 H   0  0  0  0  0
  -12.9500   52.0474    4.2937 H   0  0  0  0  0
  -14.1157   49.3781    1.9140 H   0  0  0  0  0
  -16.3485   48.4546    7.2561 H   0  0  0  0  0
  -14.8002   47.5980    7.4568 H   0  0  0  0  0
  -14.8942   49.3502    7.7602 H   0  0  0  0  0
  -14.9957   52.2467   12.2756 H   0  0  0  0  0
  -11.4510   51.2530    9.0450 H   0  0  0  0  0
  -12.1587   49.6325    9.2548 H   0  0  0  0  0
  -12.4059   50.5217    7.7319 H   0  0  0  0  0
  -16.3915   53.8173    2.5609 H   0  0  0  0  0
  -18.2103   52.2422    1.9329 H   0  0  0  0  0
  1 17  1  0  0  0
 18  1  1  0  0  0
  3  2  4  0  0  0
  2 21  4  0  0  0
  3 20  4  0  0  0
 23  3  4  0  0  0
  4  5  4  0  0  0
  4 22  1  0  0  0
 23  4  4  0  0  0
  5 21  4  0  0  0
  6  8  4  0  0  0
  6 16  1  0  0  0
 17  6  4  0  0  0
  8  7  4  0  0  0
 15  7  4  0  0  0
  9 10  4  0  0  0
  9 11  4  0  0  0
 19  9  1  0  0  0
 10 24  1  0  0  0
 10 25  4  0  0  0
 11 12  4  0  0  0
 11 27  1  0  0  0
 12 26  4  0  0  0
 14 13  1  0  0  0
 14 15  4  0  0  0
 17 14  4  0  0  0
 18 19  4  0  0  0
 18 23  4  0  0  0
 19 20  4  0  0  0
 25 26  4  0  0  0
  1 28  1  0  0  0
  2 29  1  0  0  0
  5 30  1  0  0  0
  7 31  1  0  0  0
  8 32  1  0  0  0
 12 33  1  0  0  0
 13 34  1  0  0  0
 13 35  1  0  0  0
 13 36  1  0  0  0
 15 37  1  0  0  0
 16 38  1  0  0  0
 16 39  1  0  0  0
 16 40  1  0  0  0
 21 41  1  0  0  0
 22 42  1  0  0  0
 22 43  1  0  0  0
 22 44  1  0  0  0
 25 45  1  0  0  0
 26 46  1  0  0  0
M  END
$$$$
