5o87_ligand
  -I-interpret- 

 27 28  0  0  0  0  0  0  0  0999 V2000
   11.6760   12.5070   10.0530 N   0  0  0  0  0
   10.8350   11.6180    9.4720 C   0  0  0  0  0
   10.8490   11.3290    8.0870 C   0  0  0  0  0
   11.7970   12.0010    7.3270 C   0  0  0  0  0
   12.6700   12.9200    7.9410 C   0  0  0  0  0
   12.5930   13.1650    9.3120 C   0  0  0  0  0
   10.2240    8.9400    7.4720 N   0  3  0  0  0
    9.8960   10.3890    7.4000 C   0  0  0  0  0
    8.4490   10.5340    7.8880 C   0  0  0  0  0
    7.8350    9.1490    7.8250 C   0  0  0  0  0
    8.9750    8.1740    7.6480 C   0  0  0  0  0
   10.9440    8.4660    6.2640 C   0  0  0  0  0
   10.1122   11.1000   10.1023 H   0  0  0  0  0
   11.8656   11.8172    6.2548 H   0  0  0  0  0
   13.4124   13.4444    7.3394 H   0  0  0  0  0
   13.2673   13.8815    9.7811 H   0  0  0  0  0
   10.8463    8.7948    8.2670 H   0  0  0  0  0
   10.0085   10.7097    6.3643 H   0  0  0  0  0
    7.8948   11.2362    7.2652 H   0  0  0  0  0
    8.4164   10.9305    8.9028 H   0  0  0  0  0
    7.1297    9.0750    6.9973 H   0  0  0  0  0
    7.2763    8.9310    8.7352 H   0  0  0  0  0
    9.0536    7.5308    8.5244 H   0  0  0  0  0
    8.7965    7.5479    6.7738 H   0  0  0  0  0
   10.3215    8.6290    5.3842 H   0  0  0  0  0
   11.8770    9.0195    6.1581 H   0  0  0  0  0
   11.1605    7.4026    6.3655 H   0  0  0  0  0
  1  2  4  0  0  0
  1  6  4  0  0  0
  2  3  4  0  0  0
  3  4  4  0  0  0
  3  8  1  0  0  0
  4  5  4  0  0  0
  5  6  4  0  0  0
  8  7  1  0  0  0
  7 11  1  0  0  0
  7 12  1  0  0  0
  8  9  1  0  0  0
  9 10  1  0  0  0
 10 11  1  0  0  0
  2 13  1  0  0  0
  4 14  1  0  0  0
  5 15  1  0  0  0
  6 16  1  0  0  0
  7 17  1  0  0  0
  8 18  1  0  0  0
  9 19  1  0  0  0
  9 20  1  0  0  0
 10 21  1  0  0  0
 10 22  1  0  0  0
 11 23  1  0  0  0
 11 24  1  0  0  0
 12 25  1  0  0  0
 12 26  1  0  0  0
 12 27  1  0  0  0
M  END
$$$$
