5exl_ligand
  -I-interpret- 

 66 70  0  0  0  0  0  0  0  0999 V2000
   44.3590  -21.1760   30.1780 C   0  0  0  0  0
   48.0070  -21.0460   31.2830 C   0  0  0  0  0
   41.2160  -20.5930   28.2780 C   0  0  0  0  0
   46.1790  -22.0420   32.0920 C   0  0  0  0  0
   39.8760  -23.2110   28.4400 C   0  0  0  0  0
   38.8540  -18.3630   28.7860 C   0  0  0  0  0
   36.9790  -16.8130   29.3060 C   0  0  0  0  0
   38.7060  -16.1340   27.5340 C   0  0  0  0  0
   36.0560  -15.6870   28.8370 C   0  0  0  0  0
   37.7440  -15.0240   27.0770 C   0  0  0  0  0
   37.9510  -17.2920   28.2170 C   0  0  0  0  0
   43.0110  -20.3320   26.8140 C   0  0  0  0  0
   46.6260  -21.2270   31.0380 C   0  0  0  0  0
   35.9540  -13.3570   27.8640 C   0  0  0  0  0
   41.3420  -25.2990   29.5890 C   0  0  0  0  0
   41.5360  -24.9550   28.2430 C   0  0  0  0  0
   40.4240  -24.5930   30.3660 C   0  0  0  0  0
   43.9390  -22.0280   31.2220 C   0  0  0  0  0
   40.8100  -23.9060   27.6650 C   0  0  0  0  0
   39.7050  -23.5430   29.7900 C   0  0  0  0  0
   44.8400  -22.4760   32.2040 C   0  0  0  0  0
   43.9280  -20.5830   27.8280 C   0  0  0  0  0
   45.7070  -20.7820   30.0640 C   0  0  0  0  0
   42.0550  -20.8950   29.3400 C   0  0  0  0  0
   43.4330  -20.8320   29.1170 C   0  0  0  0  0
   36.8700  -14.5220   28.2470 C   0  0  0  0  0
   39.1510  -22.0050   27.8640 C   0  0  0  0  0
   39.7100  -20.6920   28.4830 C   0  0  0  0  0
   41.6660  -20.3490   27.0160 N   0  0  0  0  0
   48.4130  -21.7110   32.3740 N   0  0  0  0  0
   47.2980  -22.3000   32.8490 N   0  0  0  0  0
   36.7300  -12.3020   27.2980 N   0  3  0  0  0
   38.9370  -19.5360   28.0480 N   0  0  0  0  0
   39.4180  -18.1760   29.8570 O   0  0  0  0  0
   48.8870  -20.2890   30.5930 O   0  0  0  0  0
   36.3518  -17.6598   29.5846 H   0  0  0  0  0
   37.5743  -16.4287   30.1343 H   0  0  0  0  0
   39.4072  -15.7086   28.2519 H   0  0  0  0  0
   39.2202  -16.5273   26.6571 H   0  0  0  0  0
   35.4870  -15.3205   29.6914 H   0  0  0  0  0
   35.3907  -16.0763   28.0663 H   0  0  0  0  0
   37.0902  -15.4280   26.3041 H   0  0  0  0  0
   38.3330  -14.1878   26.7003 H   0  0  0  0  0
   37.3772  -17.7399   27.4056 H   0  0  0  0  0
   43.3857  -20.1122   25.8143 H   0  0  0  0  0
   35.4421  -12.9918   28.7543 H   0  0  0  0  0
   35.2208  -13.6986   27.1334 H   0  0  0  0  0
   41.9096  -26.1193   30.0283 H   0  0  0  0  0
   42.2576  -25.5085   27.6421 H   0  0  0  0  0
   40.2691  -24.8578   31.4119 H   0  0  0  0  0
   42.8970  -22.3445   31.2678 H   0  0  0  0  0
   40.9713  -23.6341   26.6219 H   0  0  0  0  0
   39.0019  -22.9747   30.3989 H   0  0  0  0  0
   44.5192  -23.1292   33.0155 H   0  0  0  0  0
   44.9994  -20.5863   27.6278 H   0  0  0  0  0
   46.0332  -20.1467   29.2406 H   0  0  0  0  0
   41.6535  -21.1719   30.3148 H   0  0  0  0  0
   37.5507  -14.1327   29.0041 H   0  0  0  0  0
   38.0890  -22.0839   28.0966 H   0  0  0  0  0
   39.3015  -21.9816   26.7847 H   0  0  0  0  0
   39.5812  -20.7106   29.5652 H   0  0  0  0  0
   36.1158  -11.5281   27.0444 H   0  0  0  0  0
   37.4169  -11.9827   27.9810 H   0  0  0  0  0
   37.2101  -12.6436   26.4654 H   0  0  0  0  0
   38.4346  -19.5910   27.1620 H   0  0  0  0  0
   49.7555  -20.3633   30.9951 H   0  0  0  0  0
  1 18  4  0  0  0
  1 23  4  0  0  0
 25  1  1  0  0  0
 13  2  4  0  0  0
  2 30  4  0  0  0
  2 35  1  0  0  0
  3 24  4  0  0  0
 28  3  1  0  0  0
  3 29  4  0  0  0
 13  4  4  0  0  0
 21  4  4  0  0  0
  4 31  4  0  0  0
  5 19  4  0  0  0
  5 20  4  0  0  0
 27  5  1  0  0  0
  6 11  1  0  0  0
 33  6  1  0  0  0
  6 34  2  0  0  0
  7  9  1  0  0  0
 11  7  1  0  0  0
  8 10  1  0  0  0
 11  8  1  0  0  0
  9 26  1  0  0  0
 10 26  1  0  0  0
 12 22  4  0  0  0
 29 12  4  0  0  0
 23 13  4  0  0  0
 26 14  1  0  0  0
 14 32  1  0  0  0
 16 15  4  0  0  0
 17 15  4  0  0  0
 19 16  4  0  0  0
 20 17  4  0  0  0
 18 21  4  0  0  0
 25 22  4  0  0  0
 24 25  4  0  0  0
 28 27  1  0  0  0
 28 33  1  0  0  0
 30 31  4  0  0  0
  7 36  1  0  0  0
  7 37  1  0  0  0
  8 38  1  0  0  0
  8 39  1  0  0  0
  9 40  1  0  0  0
  9 41  1  0  0  0
 10 42  1  0  0  0
 10 43  1  0  0  0
 11 44  1  0  0  0
 12 45  1  0  0  0
 14 46  1  0  0  0
 14 47  1  0  0  0
 15 48  1  0  0  0
 16 49  1  0  0  0
 17 50  1  0  0  0
 18 51  1  0  0  0
 19 52  1  0  0  0
 20 53  1  0  0  0
 21 54  1  0  0  0
 22 55  1  0  0  0
 23 56  1  0  0  0
 24 57  1  0  0  0
 26 58  1  0  0  0
 27 59  1  0  0  0
 27 60  1  0  0  0
 28 61  1  0  0  0
 32 62  1  0  0  0
 32 63  1  0  0  0
 32 64  1  0  0  0
 33 65  1  0  0  0
 35 66  1  0  0  0
M  END
$$$$
