6ott_ligand
  -I-interpret- 

 52 54  0  0  0  0  0  0  0  0999 V2000
   57.8690   32.3300  -28.7600 O   0  0  0  0  0
   55.7970   25.6400  -31.4170 C   0  0  0  0  0
   57.1260   27.7880  -31.6340 C   0  0  0  0  0
   55.1970   31.6410  -28.8850 O   0  0  0  0  0
   56.4310   28.5340  -30.4850 C   0  0  0  0  0
   55.2630   25.3850  -35.7950 N   0  0  0  0  0
   57.6140   28.8340  -29.5670 C   0  0  0  0  0
   58.4840   27.5990  -29.7370 C   0  0  0  0  0
   56.4260   27.0790  -34.5400 N   0  0  0  0  0
   58.0430   26.3970  -28.9400 C   0  0  0  0  0
   55.9050   33.8540  -27.9060 O   0  0  0  0  0
   56.3170   31.7220  -26.6280 O   0  0  0  0  0
   55.1710   24.7460  -32.1440 N   0  0  0  0  0
   59.4450   30.7040  -27.6250 O   0  0  0  0  0
   58.4930   26.5290  -27.5740 O   0  0  0  0  0
   56.3640   26.6510  -32.1490 N   0  0  0  0  0
   54.1960   23.5850  -34.8340 N   0  0  0  0  0
   54.9180   24.6940  -34.6870 C   0  0  0  0  0
   55.8410   29.7410  -30.9570 O   0  0  0  0  0
   55.9760   26.5050  -35.6580 C   0  0  0  0  0
   56.0750   26.3740  -33.4590 C   0  0  0  0  0
   55.3390   25.1970  -33.4450 C   0  0  0  0  0
   58.3230   30.0410  -29.9210 O   0  0  0  0  0
   60.9620   26.9750  -25.3380 O   0  0  0  0  0
   59.9950   26.9820  -23.0100 O   0  0  0  0  0
   59.7420   29.0110  -24.4870 O   0  0  0  0  0
   57.0520   28.2510  -26.4610 O   0  0  0  0  0
   56.4080   25.7880  -26.3910 O   0  0  0  0  0
   58.3680   27.3080  -31.1450 O   0  0  0  0  0
   60.1120   31.8830  -29.7860 O   0  0  0  0  0
   58.4100   26.6310  -25.1180 O   0  0  0  0  0
   59.0630   31.2770  -28.9340 P   0  0  0  0  0
   56.1780   32.3670  -27.9890 P   0  0  0  0  0
   57.4610   26.8320  -26.3920 P   0  0  0  0  0
   59.8750   27.5050  -24.4270 P   0  0  0  0  0
   55.8607   25.5844  -30.3303 H   0  0  0  0  0
   57.2352   28.4909  -32.4599 H   0  0  0  0  0
   55.1468   32.0895  -29.7323 H   0  0  0  0  0
   55.6227   27.9786  -30.0093 H   0  0  0  0  0
   57.3041   29.0196  -28.5386 H   0  0  0  0  0
   59.4938   27.7981  -29.3782 H   0  0  0  0  0
   58.4724   25.4955  -29.3770 H   0  0  0  0  0
   56.9552   26.3301  -28.9579 H   0  0  0  0  0
   55.8256   34.2136  -28.7926 H   0  0  0  0  0
   53.9178   23.2773  -35.7659 H   0  0  0  0  0
   53.9211   23.0431  -34.0148 H   0  0  0  0  0
   55.1008   29.5309  -31.5311 H   0  0  0  0  0
   56.2247   27.0212  -36.5853 H   0  0  0  0  0
   61.0039   26.0189  -25.2618 H   0  0  0  0  0
   60.0764   26.0256  -23.0289 H   0  0  0  0  0
   56.8182   24.9214  -26.3430 H   0  0  0  0  0
   59.7151   32.2092  -30.5970 H   0  0  0  0  0
 32  1  1  0  0  0
  1 33  1  0  0  0
  2 13  4  0  0  0
 16  2  4  0  0  0
  3  5  1  0  0  0
  3 16  1  0  0  0
 29  3  1  0  0  0
 33  4  1  0  0  0
  7  5  1  0  0  0
  5 19  1  0  0  0
 18  6  4  0  0  0
 20  6  4  0  0  0
  8  7  1  0  0  0
  7 23  1  0  0  0
 10  8  1  0  0  0
  8 29  1  0  0  0
  9 20  4  0  0  0
 21  9  4  0  0  0
 15 10  1  0  0  0
 33 11  1  0  0  0
 33 12  2  0  0  0
 22 13  4  0  0  0
 32 14  2  0  0  0
 34 15  1  0  0  0
 16 21  4  0  0  0
 18 17  1  0  0  0
 22 18  4  0  0  0
 21 22  4  0  0  0
 23 32  1  0  0  0
 35 24  1  0  0  0
 35 25  1  0  0  0
 35 26  2  0  0  0
 34 27  2  0  0  0
 34 28  1  0  0  0
 32 30  1  0  0  0
 31 34  1  0  0  0
 31 35  1  0  0  0
  2 36  1  0  0  0
  3 37  1  0  0  0
  4 38  1  0  0  0
  5 39  1  0  0  0
  7 40  1  0  0  0
  8 41  1  0  0  0
 10 42  1  0  0  0
 10 43  1  0  0  0
 11 44  1  0  0  0
 17 45  1  0  0  0
 17 46  1  0  0  0
 19 47  1  0  0  0
 20 48  1  0  0  0
 24 49  1  0  0  0
 25 50  1  0  0  0
 28 51  1  0  0  0
 30 52  1  0  0  0
M  END
$$$$
