### 
### Created by X-TOOL on Mon Aug  2 16:15:49 2021
### 

@<TRIPOS>MOLECULE
6ott_ligand
   46    48     1     0     0
SMALL
GAST_HUCK


@<TRIPOS>ATOM
      1 O3         57.8690   32.3300  -28.7600 O.3       1 N7Y        -0.1548
      2 C4         55.7970   25.6400  -31.4170 C.2       1 N7Y         0.1123
      3 C5         57.1260   27.7880  -31.6340 C.3       1 N7Y         0.2014
      4 O4         55.1970   31.6410  -28.8850 O.co2     1 N7Y        -0.5891
      5 C6         56.4310   28.5340  -30.4850 C.3       1 N7Y         0.1439
      6 N1         55.2630   25.3850  -35.7950 N.ar      1 N7Y        -0.2698
      7 C7         57.6140   28.8340  -29.5670 C.3       1 N7Y         0.1547
      8 C8         58.4840   27.5990  -29.7370 C.3       1 N7Y         0.1243
      9 N2         56.4260   27.0790  -34.5400 N.ar      1 N7Y        -0.2714
     10 C9         58.0430   26.3970  -28.9400 C.3       1 N7Y         0.1135
     11 O5         55.9050   33.8540  -27.9060 O.co2     1 N7Y        -0.5891
     12 O6         56.3170   31.7220  -26.6280 O.co2     1 N7Y        -0.5891
     13 N3         55.1710   24.7460  -32.1440 N.2       1 N7Y        -0.2958
     14 O7         59.4450   30.7040  -27.6250 O.co2     1 N7Y        -0.5556
     15 O8         58.4930   26.5290  -27.5740 O.3       1 N7Y        -0.2436
     16 N4         56.3640   26.6510  -32.1490 N.pl3     1 N7Y        -0.1919
     17 N          54.1960   23.5850  -34.8340 N.pl3     1 N7Y        -0.3152
     18 C          54.9180   24.6940  -34.6870 C.ar      1 N7Y         0.1298
     19 O          55.8410   29.7410  -30.9570 O.3       1 N7Y        -0.3832
     20 C1         55.9760   26.5050  -35.6580 C.ar      1 N7Y         0.0533
     21 C2         56.0750   26.3740  -33.4590 C.ar      1 N7Y         0.1613
     22 C3         55.3390   25.1970  -33.4450 C.ar      1 N7Y         0.1045
     23 O1         58.3230   30.0410  -29.9210 O.3       1 N7Y        -0.2374
     24 O10        60.9620   26.9750  -25.3380 O.co2     1 N7Y        -0.5891
     25 O11        59.9950   26.9820  -23.0100 O.co2     1 N7Y        -0.5891
     26 O12        59.7420   29.0110  -24.4870 O.co2     1 N7Y        -0.5891
     27 O13        57.0520   28.2510  -26.4610 O.co2     1 N7Y        -0.5556
     28 O14        56.4080   25.7880  -26.3910 O.co2     1 N7Y        -0.5556
     29 O15        58.3680   27.3080  -31.1450 O.3       1 N7Y        -0.3360
     30 O2         60.1120   31.8830  -29.7860 O.co2     1 N7Y        -0.5556
     31 O9         58.4100   26.6310  -25.1180 O.3       1 N7Y        -0.1548
     32 P          59.0630   31.2770  -28.9340 P.3       1 N7Y         0.3279
     33 P1         56.1780   32.3670  -27.9890 P.3       1 N7Y         0.2069
     34 P2         57.4610   26.8320  -26.3920 P.3       1 N7Y         0.3276
     35 P3         59.8750   27.5050  -24.4270 P.3       1 N7Y         0.2069
     36 H1         55.8606   25.5844  -30.3313 H         1 N7Y         0.1349
     37 H2         57.2989   28.4950  -32.4588 H         1 N7Y         0.0996
     38 H3         55.6725   27.9111  -29.9885 H         1 N7Y         0.0680
     39 H4         57.2726   28.9250  -28.5253 H         1 N7Y         0.0712
     40 H5         59.5241   27.8359  -29.4685 H         1 N7Y         0.0655
     41 H6         58.4750   25.4867  -29.3812 H         1 N7Y         0.0648
     42 H7         56.9453   26.3282  -28.9586 H         1 N7Y         0.0648
     43 H8         53.9184   23.0378  -34.0067 H         1 N7Y         0.1820
     44 H9         53.9151   23.2743  -35.7750 H         1 N7Y         0.1820
     45 H10        55.5344   30.2525  -30.2176 H         1 N7Y         0.2101
     46 H11        56.2233   27.0184  -36.5802 H         1 N7Y         0.0996
@<TRIPOS>BOND
     1   32    1 1  
     2    1   33 1  
     3    2   13 2  
     4   16    2 1  
     5    3    5 1  
     6    3   16 1  
     7   29    3 1  
     8   33    4 ar 
     9    7    5 1  
    10    5   19 1  
    11   18    6 ar 
    12   20    6 ar 
    13    8    7 1  
    14    7   23 1  
    15   10    8 1  
    16    8   29 1  
    17    9   20 ar 
    18   21    9 ar 
    19   15   10 1  
    20   33   11 ar 
    21   33   12 ar 
    22   22   13 1  
    23   32   14 ar 
    24   34   15 1  
    25   16   21 1  
    26   18   17 1  
    27   22   18 ar 
    28   21   22 ar 
    29   23   32 1  
    30   35   24 ar 
    31   35   25 ar 
    32   35   26 ar 
    33   34   27 ar 
    34   34   28 ar 
    35   32   30 ar 
    36   31   34 1  
    37   31   35 1  
    38    2   36 1  
    39    3   37 1  
    40    5   38 1  
    41    7   39 1  
    42    8   40 1  
    43   10   41 1  
    44   10   42 1  
    45   17   43 1  
    46   17   44 1  
    47   19   45 1  
    48   20   46 1  
@<TRIPOS>SUBSTRUCTURE
     1 N7Y         1

