1uk0_ligand
  -I-interpret- 

 53 56  0  0  0  0  0  0  0  0999 V2000
    7.0370   -7.5740   32.4270 C   0  0  0  0  0
    7.6430   -6.3620   32.5520 C   0  0  0  0  0
    7.1280   -5.5140   33.4930 C   0  0  0  0  0
    6.0830   -5.8630   34.3050 C   0  0  0  0  0
    5.4480   -7.0710   34.2310 C   0  0  0  0  0
    5.9450   -7.9070   33.2540 C   0  0  0  0  0
    7.6270   -4.2770   33.5690 N   0  0  0  0  0
    7.0720   -3.3030   34.2440 C   0  0  0  0  0
    6.0080   -3.5860   34.9520 N   0  0  0  0  0
    5.6180   -4.8250   35.1480 C   0  0  0  0  0
    4.8250   -5.0650   36.0130 O   0  0  0  0  0
    7.8290   -2.0230   34.4140 C   0  0  0  0  0
    6.9420   -0.7860   34.5150 C   0  0  0  0  0
    7.0100    0.1110   33.3230 C   0  0  0  0  0
    8.3280    0.7270   33.3880 N   0  3  0  0  0
    9.1010    0.7190   32.1530 C   0  0  0  0  0
    8.4580    1.6530   31.1910 C   0  0  0  0  0
    7.7330    2.6910   31.5380 C   0  0  0  0  0
    7.4740    2.9150   33.0090 C   0  0  0  0  0
    8.3310    2.0400   33.9090 C   0  0  0  0  0
    7.3850    3.7690   30.6040 C   0  0  0  0  0
    8.0180    4.0080   29.3980 C   0  0  0  0  0
    7.7990    5.2390   28.8330 C   0  0  0  0  0
    7.0120    6.1780   29.4630 C   0  0  0  0  0
    6.3660    5.9710   30.6270 C   0  0  0  0  0
    6.5260    4.7310   31.1360 C   0  0  0  0  0
    8.8280   -6.0100   31.7050 C   0  0  0  0  0
    6.7170    7.3180   28.8710 F   0  0  0  0  0
    7.3965   -8.2884   31.6864 H   0  0  0  0  0
    4.6222   -7.3486   34.8861 H   0  0  0  0  0
    5.4683   -8.8771   33.1135 H   0  0  0  0  0
    5.4675   -2.8245   35.3623 H   0  0  0  0  0
    8.4570   -1.8993   33.5318 H   0  0  0  0  0
    8.3860   -2.0985   35.3479 H   0  0  0  0  0
    7.2884   -0.2096   35.3729 H   0  0  0  0  0
    5.9122   -1.1332   34.5993 H   0  0  0  0  0
    6.2151    0.8568   33.3334 H   0  0  0  0  0
    6.8680   -0.4411   32.3939 H   0  0  0  0  0
    8.7942    0.0997   34.0434 H   0  0  0  0  0
    9.1265   -0.2875   31.7354 H   0  0  0  0  0
   10.1251    1.0349   32.3518 H   0  0  0  0  0
    8.5980    1.4631   30.1268 H   0  0  0  0  0
    6.4308    2.6650   33.2021 H   0  0  0  0  0
    7.7157    3.9542   33.2320 H   0  0  0  0  0
    9.3500    2.4254   33.9433 H   0  0  0  0  0
    7.9289    2.0403   34.9221 H   0  0  0  0  0
    8.6545    3.2612   28.9234 H   0  0  0  0  0
    8.2543    5.4775   27.8718 H   0  0  0  0  0
    5.7659    6.7386   31.1156 H   0  0  0  0  0
    5.9466    4.4641   32.0198 H   0  0  0  0  0
    9.6322   -6.7211   31.8940 H   0  0  0  0  0
    8.5457   -6.0499   30.6529 H   0  0  0  0  0
    9.1650   -5.0038   31.9541 H   0  0  0  0  0
  1  2  4  0  0  0
  1  6  4  0  0  0
  2  3  4  0  0  0
  2 27  1  0  0  0
  3  4  4  0  0  0
  3  7  1  0  0  0
  4  5  4  0  0  0
  4 10  1  0  0  0
  5  6  4  0  0  0
  7  8  2  0  0  0
  8  9  1  0  0  0
  8 12  1  0  0  0
  9 10  1  0  0  0
 10 11  2  0  0  0
 12 13  1  0  0  0
 13 14  1  0  0  0
 14 15  1  0  0  0
 15 16  1  0  0  0
 15 20  1  0  0  0
 16 17  1  0  0  0
 17 18  2  0  0  0
 18 19  1  0  0  0
 18 21  1  0  0  0
 19 20  1  0  0  0
 21 22  4  0  0  0
 21 26  4  0  0  0
 22 23  4  0  0  0
 23 24  4  0  0  0
 24 25  4  0  0  0
 24 28  1  0  0  0
 25 26  4  0  0  0
  1 29  1  0  0  0
  5 30  1  0  0  0
  6 31  1  0  0  0
  9 32  1  0  0  0
 12 33  1  0  0  0
 12 34  1  0  0  0
 13 35  1  0  0  0
 13 36  1  0  0  0
 14 37  1  0  0  0
 14 38  1  0  0  0
 15 39  1  0  0  0
 16 40  1  0  0  0
 16 41  1  0  0  0
 17 42  1  0  0  0
 19 43  1  0  0  0
 19 44  1  0  0  0
 20 45  1  0  0  0
 20 46  1  0  0  0
 22 47  1  0  0  0
 23 48  1  0  0  0
 25 49  1  0  0  0
 26 50  1  0  0  0
 27 51  1  0  0  0
 27 52  1  0  0  0
 27 53  1  0  0  0
M  END
$$$$
