1o4h_ligand
  -I-interpret- 

 24 25  0  0  0  0  0  0  0  0999 V2000
   16.7110   31.9610   19.4770 C   0  0  0  0  0
   17.9790   31.8470   20.0810 C   0  0  0  0  0
   18.8930   30.8940   19.6100 C   0  0  0  0  0
   18.5020   30.0630   18.4520 C   0  0  0  0  0
   17.2020   30.1800   17.8840 C   0  0  0  0  0
   16.2980   31.1350   18.4000 C   0  0  0  0  0
   20.1730   30.7640   20.1870 C   0  0  0  0  0
   21.0670   29.8650   19.5740 C   0  0  0  0  0
   20.6870   29.1040   18.4300 C   0  0  0  0  0
   19.4150   29.1740   17.8860 N   0  0  0  0  0
   16.8330   29.2380   16.9450 O   0  0  0  0  0
   15.7830   28.1580   17.3590 P   0  0  0  0  0
   16.3150   26.9080   16.7210 O   0  0  0  0  0
   14.4610   28.6100   16.7980 O   0  0  0  0  0
   21.6790   28.2050   17.9090 C   0  0  0  0  0
   22.4300   27.5470   17.5450 N   0  0  0  0  0
   15.6590   27.9960   18.8410 O   0  0  0  0  0
   16.0190   32.7148   19.8527 H   0  0  0  0  0
   18.2486   32.4982   20.9125 H   0  0  0  0  0
   15.2984   31.2357   17.9772 H   0  0  0  0  0
   20.4585   31.3353   21.0703 H   0  0  0  0  0
   22.0707   29.7486   19.9829 H   0  0  0  0  0
   16.3845   27.0388   15.7725 H   0  0  0  0  0
   14.5374   28.7149   15.8468 H   0  0  0  0  0
  1  2  4  0  0  0
  1  6  4  0  0  0
  2  3  4  0  0  0
  3  4  4  0  0  0
  3  7  4  0  0  0
  4  5  4  0  0  0
  4 10  4  0  0  0
  5  6  4  0  0  0
  5 11  1  0  0  0
  7  8  4  0  0  0
  8  9  4  0  0  0
  9 10  4  0  0  0
  9 15  1  0  0  0
 11 12  1  0  0  0
 12 13  1  0  0  0
 12 14  1  0  0  0
 12 17  2  0  0  0
 15 16  3  0  0  0
  1 18  1  0  0  0
  2 19  1  0  0  0
  6 20  1  0  0  0
  7 21  1  0  0  0
  8 22  1  0  0  0
 13 23  1  0  0  0
 14 24  1  0  0  0
M  END
$$$$
