### 
### Created by X-TOOL on Mon Sep 10 21:12:51 2018
### 

@<TRIPOS>MOLECULE
1o4h_ligand
   22    23     1     0     0
SMALL
GAST_HUCK


@<TRIPOS>ATOM
      1 C1         16.7110   31.9610   19.4770 C.ar      1 772        -0.0258
      2 C2         17.9790   31.8470   20.0810 C.ar      1 772        -0.0187
      3 C3         18.8930   30.8940   19.6100 C.ar      1 772         0.0436
      4 C4         18.5020   30.0630   18.4520 C.ar      1 772         0.1396
      5 C5         17.2020   30.1800   17.8840 C.ar      1 772         0.1999
      6 C6         16.2980   31.1350   18.4000 C.ar      1 772         0.0210
      7 C7         20.1730   30.7640   20.1870 C.ar      1 772        -0.0093
      8 C8         21.0670   29.8650   19.5740 C.ar      1 772         0.0180
      9 C9         20.6870   29.1040   18.4300 C.ar      1 772         0.1886
     10 N10        19.4150   29.1740   17.8860 N.ar      1 772        -0.2273
     11 O11        16.8330   29.2380   16.9450 O.3       1 772        -0.2009
     12 P12        15.7830   28.1580   17.3590 P.3       1 772         0.1335
     13 O13        16.3150   26.9080   16.7210 O.co2     1 772        -0.6660
     14 O14        14.4610   28.6100   16.7980 O.co2     1 772        -0.6660
     15 C15        21.6790   28.2050   17.9090 C.1       1 772         0.1323
     16 N16        22.4300   27.5470   17.5450 N.1       1 772        -0.3148
     17 O17        15.6590   27.9960   18.8410 O.co2     1 772        -0.6660
     18 H1         16.0228   32.7106   19.8506 H         1 772         0.0776
     19 H2         18.2471   32.4947   20.9079 H         1 772         0.0856
     20 H3         15.3039   31.2352   17.9795 H         1 772         0.0776
     21 H4         20.4569   31.3321   21.0654 H         1 772         0.0907
     22 H5         22.0652   29.7492   19.9806 H         1 772         0.0867
@<TRIPOS>BOND
     1    1    2 ar 
     2    1    6 ar 
     3    2    3 ar 
     4    3    4 ar 
     5    3    7 ar 
     6    4    5 ar 
     7    4   10 ar 
     8    5    6 ar 
     9    5   11 1  
    10    7    8 ar 
    11    8    9 ar 
    12    9   10 ar 
    13    9   15 1  
    14   11   12 1  
    15   12   13 ar 
    16   12   14 ar 
    17   12   17 ar 
    18   15   16 3  
    19    1   18 1  
    20    2   19 1  
    21    6   20 1  
    22    7   21 1  
    23    8   22 1  
@<TRIPOS>SUBSTRUCTURE
     1 772         1

