4bny_ligand
  -I-interpret- 

 36 39  0  0  0  0  0  0  0  0999 V2000
    7.4100   -3.0500   33.8220 N   0  0  0  0  0
    8.4420   -2.1670   33.7060 C   0  0  0  0  0
    8.2670   -0.9460   34.1410 N   0  0  0  0  0
    7.0730   -0.6030   34.6550 C   0  0  0  0  0
    6.0570   -1.4100   34.7730 C   0  0  0  0  0
    6.1910   -2.6800   34.3650 C   0  0  0  0  0
    5.0370   -3.3870   34.5520 C   0  0  0  0  0
    9.7230   -2.4480   33.1940 C   0  0  0  0  0
   10.7690   -1.5210   33.2740 C   0  0  0  0  0
   12.0600   -1.8810   32.8250 C   0  0  0  0  0
    4.0020   -2.7060   35.0930 C   0  0  0  0  0
    4.5190   -1.0580   35.4200 S   0  0  0  0  0
    9.9610   -3.7000   32.7360 C   0  0  0  0  0
   11.1910   -4.0710   32.2850 C   0  0  0  0  0
   12.2250   -3.1590   32.2840 C   0  0  0  0  0
    5.4900    1.1120   35.1860 C   0  0  0  0  0
    6.8710    0.6150   35.0570 N   0  0  0  0  0
    8.0260    1.4680   35.1400 C   0  0  0  0  0
    5.4270    2.2300   36.0870 C   0  0  0  0  0
    6.4230    3.0850   35.6010 O   0  0  0  0  0
    7.5940    2.4630   36.0440 C   0  0  0  0  0
    4.9555   -4.4395   34.2806 H   0  0  0  0  0
   10.5886   -0.5260   33.6808 H   0  0  0  0  0
   12.8970   -1.1866   32.8981 H   0  0  0  0  0
    3.0104   -3.1119   35.2934 H   0  0  0  0  0
    9.1493   -4.4274   32.7282 H   0  0  0  0  0
   11.3578   -5.0865   31.9257 H   0  0  0  0  0
   13.1867   -3.4393   31.8543 H   0  0  0  0  0
    4.8651    0.3102   35.5794 H   0  0  0  0  0
    5.1410    1.4336   34.2047 H   0  0  0  0  0
    8.3366    1.8681   34.1748 H   0  0  0  0  0
    8.9243    0.9463   35.4703 H   0  0  0  0  0
    5.5875    1.9435   37.1264 H   0  0  0  0  0
    4.4431    2.6986   36.1094 H   0  0  0  0  0
    8.3760    3.2179   36.1257 H   0  0  0  0  0
    7.3916    1.9912   37.0055 H   0  0  0  0  0
  1  2  4  0  0  0
  1  6  4  0  0  0
  2  3  4  0  0  0
  2  8  1  0  0  0
  3  4  4  0  0  0
  4  5  4  0  0  0
  4 17  1  0  0  0
  5  6  4  0  0  0
  5 12  4  0  0  0
  6  7  4  0  0  0
  7 11  4  0  0  0
  8  9  4  0  0  0
  8 13  4  0  0  0
  9 10  4  0  0  0
 10 15  4  0  0  0
 11 12  4  0  0  0
 13 14  4  0  0  0
 14 15  4  0  0  0
 17 16  1  0  0  0
 16 19  1  0  0  0
 17 18  1  0  0  0
 18 21  1  0  0  0
 19 20  1  0  0  0
 20 21  1  0  0  0
  7 22  1  0  0  0
  9 23  1  0  0  0
 10 24  1  0  0  0
 11 25  1  0  0  0
 13 26  1  0  0  0
 14 27  1  0  0  0
 15 28  1  0  0  0
 16 29  1  0  0  0
 16 30  1  0  0  0
 18 31  1  0  0  0
 18 32  1  0  0  0
 19 33  1  0  0  0
 19 34  1  0  0  0
 21 35  1  0  0  0
 21 36  1  0  0  0
M  END
$$$$
