### 
### Created by X-TOOL on Mon Sep 10 21:13:29 2018
### 

@<TRIPOS>MOLECULE
5eta_ligand
  266   268     1     0     0
SMALL
GAST_HUCK


@<TRIPOS>ATOM
      1 N         -21.3710   24.5530  -36.1010 N.4       1 GLY         0.2357
      2 CA        -22.1930   23.3090  -36.0670 C.3       1 GLY         0.0545
      3 C         -21.8930   22.4080  -37.2470 C.2       1 GLY         0.2236
      4 O         -22.7310   22.2210  -38.1260 O.2       1 GLY        -0.3910
      5 N         -20.6880   21.8350  -37.2580 N.am      1 LEU        -0.2613
      6 CA        -20.2570   21.0510  -38.4100 C.3       1 LEU         0.1313
      7 C         -21.1320   19.8180  -38.6120 C.2       1 LEU         0.2039
      8 O         -21.4510   19.4590  -39.7510 O.2       1 LEU        -0.3944
      9 CB        -18.7870   20.6610  -38.2500 C.3       1 LEU        -0.0101
     10 CG        -18.1520   19.8770  -39.3990 C.3       1 LEU        -0.0425
     11 CD1       -18.2710   20.6330  -40.7070 C.3       1 LEU        -0.0625
     12 CD2       -16.6890   19.5930  -39.0960 C.3       1 LEU        -0.0625
     13 N         -21.5330   19.1510  -37.5250 N.am      1 LEU        -0.2637
     14 CA        -22.4810   18.0490  -37.6660 C.3       1 LEU         0.1312
     15 C         -23.8180   18.5510  -38.1930 C.2       1 LEU         0.2039
     16 O         -24.4260   17.9280  -39.0710 O.2       1 LEU        -0.3944
     17 CB        -22.6720   17.3300  -36.3280 C.3       1 LEU        -0.0101
     18 CG        -21.5210   16.4640  -35.8100 C.3       1 LEU        -0.0425
     19 CD1       -21.8480   15.9250  -34.4240 C.3       1 LEU        -0.0625
     20 CD2       -21.2270   15.3170  -36.7680 C.3       1 LEU        -0.0625
     21 N         -24.3010   19.6700  -37.6490 N.am      1 GLU        -0.2636
     22 CA        -25.5160   20.2980  -38.1580 C.3       1 GLU         0.1325
     23 C         -25.4190   20.5670  -39.6570 C.2       1 GLU         0.2040
     24 O         -26.3430   20.2500  -40.4150 O.2       1 GLU        -0.3944
     25 CB        -25.7990   21.5750  -37.3600 C.3       1 GLU        -0.0008
     26 CG        -26.9620   22.4240  -37.8670 C.3       1 GLU         0.0044
     27 CD        -26.5290   23.4840  -38.8660 C.2       1 GLU         0.0350
     28 OE1       -25.3530   23.9060  -38.8160 O.co2     1 GLU        -0.5690
     29 OE2       -27.3630   23.9020  -39.6950 O.co2     1 GLU        -0.5690
     30 N         -24.3050   21.1510  -40.1080 N.am      1 ARG        -0.2637
     31 CA        -24.1920   21.5070  -41.5190 C.3       1 ARG         0.1311
     32 C         -24.1220   20.2800  -42.4200 C.2       1 ARG         0.2039
     33 O         -24.4140   20.3910  -43.6160 O.2       1 ARG        -0.3944
     34 CB        -22.9610   22.3830  -41.7700 C.3       1 ARG        -0.0092
     35 CG        -22.9400   23.6890  -40.9920 C.3       1 ARG        -0.0156
     36 CD        -21.9960   24.7060  -41.6230 C.3       1 ARG         0.0627
     37 NE        -20.6040   24.2600  -41.6900 N.pl3     1 ARG        -0.2723
     38 CZ        -19.7260   24.3450  -40.6940 C.cat     1 ARG         0.2882
     39 NH1       -20.0790   24.8510  -39.5210 N.pl3     1 ARG        -0.2849
     40 NH2       -18.4850   23.9160  -40.8760 N.pl3     1 ARG        -0.2849
     41 N         -23.7440   19.1220  -41.8810 N.am      1 ARG        -0.2637
     42 CA        -23.6880   17.8830  -42.6450 C.3       1 ARG         0.1311
     43 C         -24.9560   17.0540  -42.5010 C.2       1 ARG         0.2037
     44 O         -25.0170   15.9400  -43.0300 O.2       1 ARG        -0.3944
     45 CB        -22.4890   17.0390  -42.2060 C.3       1 ARG        -0.0092
     46 CG        -21.1400   17.7240  -42.3210 C.3       1 ARG        -0.0156
     47 CD        -20.6640   17.8320  -43.7560 C.3       1 ARG         0.0627
     48 NE        -19.3070   18.3710  -43.8080 N.pl3     1 ARG        -0.2723
     49 CZ        -19.0080   19.6670  -43.8540 C.cat     1 ARG         0.2882
     50 NH1       -19.9720   20.5790  -43.8710 N.pl3     1 ARG        -0.2849
     51 NH2       -17.7370   20.0490  -43.8880 N.pl3     1 ARG        -0.2849
     52 N         -25.9680   17.5710  -41.8100 N.am      1 GLY        -0.2664
     53 CA        -27.1900   16.8250  -41.5850 C.3       1 GLY         0.1201
     54 C         -26.9410   15.4730  -40.9480 C.2       1 GLY         0.2008
     55 O         -27.3850   14.4460  -41.4680 O.2       1 GLY        -0.3947
     56 N         -26.2380   15.4600  -39.8160 N.am      1 VAL        -0.2637
     57 CA        -25.9250   14.2340  -39.0890 C.3       1 VAL         0.1332
     58 C         -26.4700   14.3580  -37.6740 C.2       1 VAL         0.2042
     59 O         -26.2520   15.3750  -37.0050 O.2       1 VAL        -0.3944
     60 CB        -24.4090   13.9630  -39.0650 C.3       1 VAL        -0.0063
     61 CG1       -24.0950   12.7030  -38.2640 C.3       1 VAL        -0.0584
     62 CG2       -23.8650   13.8440  -40.4800 C.3       1 VAL        -0.0584
     63 N         -27.1800   13.3250  -37.2250 N.am      1 SER        -0.2616
     64 CA        -27.6770   13.2970  -35.8570 C.3       1 SER         0.1539
     65 C         -26.5150   13.2540  -34.8670 C.2       1 SER         0.2062
     66 O         -25.4100   12.8110  -35.1870 O.2       1 SER        -0.3943
     67 CB        -28.6110   12.1020  -35.6590 C.3       1 SER         0.0843
     68 OG        -29.7520   12.2150  -36.4970 O.3       1 SER        -0.3903
     69 N         -26.7850   13.7130  -33.6480 N.am      1 GLU        -0.2636
     70 CA        -25.7320   13.9740  -32.6750 C.3       1 GLU         0.1325
     71 C         -25.2040   12.6790  -32.0560 C.2       1 GLU         0.2040
     72 O         -25.9690   11.7650  -31.7360 O.2       1 GLU        -0.3944
     73 CB        -26.2760   14.9290  -31.6070 C.3       1 GLU        -0.0008
     74 CG        -25.2880   15.4130  -30.5500 C.3       1 GLU         0.0044
     75 CD        -25.1680   14.4820  -29.3650 C.2       1 GLU         0.0350
     76 OE1       -26.0960   13.6780  -29.1350 O.co2     1 GLU        -0.5690
     77 OE2       -24.1510   14.5680  -28.6460 O.co2     1 GLU        -0.5690
     78 N         -23.8760   12.6060  -31.9050 N.am      1 LEU        -0.2637
     79 CA        -23.1910   11.4160  -31.4030 C.3       1 LEU         0.1314
     80 C         -23.3800   11.2630  -29.8960 C.2       1 LEU         0.2064
     81 O         -23.8690   12.1690  -29.2240 O.2       1 LEU        -0.3942
     82 CB        -21.6970   11.4950  -31.7150 C.3       1 LEU        -0.0101
     83 CG        -21.2360   11.5420  -33.1700 C.3       1 LEU        -0.0425
     84 CD1       -19.7340   11.7810  -33.2200 C.3       1 LEU        -0.0625
     85 CD2       -21.5900   10.2560  -33.8660 C.3       1 LEU        -0.0625
     86 N         -23.0070   10.1180  -29.3290 N.am      1 PRO        -0.2498
     87 CA        -23.0180    9.9860  -27.8650 C.3       1 PRO         0.1340
     88 C         -22.0880   11.0030  -27.2220 C.2       1 PRO         0.2066
     89 O         -20.9350   11.1510  -27.6530 O.2       1 PRO        -0.3942
     90 CB        -22.5260    8.5490  -27.6400 C.3       1 PRO        -0.0104
     91 CG        -22.8890    7.8310  -28.8970 C.3       1 PRO        -0.0281
     92 CD        -22.7020    8.8380  -29.9920 C.3       1 PRO         0.0369
     93 N         -22.5380   11.7220  -26.1870 N.am      1 PRO        -0.2498
     94 CA        -21.6930   12.7770  -25.5970 C.3       1 PRO         0.1338
     95 C         -20.4080   12.2430  -24.9680 C.2       1 PRO         0.2041
     96 O         -20.3800   11.1560  -24.3880 O.2       1 PRO        -0.3944
     97 CB        -22.6090   13.4100  -24.5440 C.3       1 PRO        -0.0104
     98 CG        -23.9870   13.1190  -25.0200 C.3       1 PRO        -0.0281
     99 CD        -23.9160   11.7750  -25.6650 C.3       1 PRO         0.0369
    100 N         -19.3360   13.0320  -25.0940 N.am      1 LEU        -0.2637
    101 CA        -18.0530   12.7640  -24.4460 C.3       1 LEU         0.1312
    102 C         -17.9040   13.5620  -23.1530 C.2       1 LEU         0.2040
    103 O         -17.9680   14.7940  -23.1780 O.2       1 LEU        -0.3944
    104 CB        -16.9030   13.1360  -25.3790 C.3       1 LEU        -0.0101
    105 CG        -16.6840   12.3800  -26.6840 C.3       1 LEU        -0.0425
    106 CD1       -15.6480   13.1400  -27.4860 C.3       1 LEU        -0.0625
    107 CD2       -16.2240   10.9610  -26.4200 C.3       1 LEU        -0.0625
    108 N         -17.6600   12.8780  -22.0400 N.am      1 TYR        -0.2621
    109 CA        -17.2400   13.5680  -20.8190 C.3       1 TYR         0.1390
    110 C         -15.7090   13.6730  -20.8610 C.2       1 TYR         0.2052
    111 O         -15.0580   12.6920  -21.2110 O.2       1 TYR        -0.3943
    112 CB        -17.7210   12.8430  -19.5610 C.3       1 TYR         0.0163
    113 CG        -19.2280   12.8280  -19.4320 C.ar      1 TYR        -0.0493
    114 CD1       -19.9780   13.9720  -19.6790 C.ar      1 TYR        -0.0685
    115 CD2       -19.9010   11.6760  -19.0530 C.ar      1 TYR        -0.0685
    116 CE1       -21.3530   13.9650  -19.5650 C.ar      1 TYR        -0.0398
    117 CE2       -21.2780   11.6600  -18.9330 C.ar      1 TYR        -0.0398
    118 CZ        -21.9980   12.8070  -19.1890 C.ar      1 TYR         0.0805
    119 OH        -23.3680   12.7960  -19.0700 O.3       1 TYR        -0.3376
    120 N         -15.1000   14.8110  -20.5170 N.am      1 ILE        -0.2691
    121 CA        -15.7010   15.9030  -19.7560 C.3       1 ILE         0.0969
    122 C         -15.8530   17.1360  -20.6370 C.2       1 ILE         0.0604
    123 O         -14.9750   17.4480  -21.4400 O.co2     1 ILE        -0.5666
    124 CB        -14.8440   16.2120  -18.5050 C.3       1 ILE        -0.0092
    125 CG1       -15.5240   17.2630  -17.6230 C.3       1 ILE        -0.0497
    126 CG2       -13.4420   16.6750  -18.9050 C.3       1 ILE        -0.0588
    127 CD1       -14.9030   17.3860  -16.2390 C.3       1 ILE        -0.0649
    128 OXT       -16.8570   17.8430  -20.5620 O.co2     1 ILE        -0.5666
    129 H1        -21.5965   25.1266  -35.3034 H         1 GLY         0.2012
    130 H2        -21.5680   25.0629  -36.9479 H         1 GLY         0.2012
    131 H3        -20.3930   24.3104  -36.0746 H         1 GLY         0.2012
    132 H4        -23.2577   23.5843  -36.0902 H         1 GLY         0.1061
    133 H5        -21.9755   22.7631  -35.1371 H         1 GLY         0.1061
    134 H6        -20.0779   21.9435  -36.4732 H         1 LEU         0.1884
    135 H7        -20.3502   21.6813  -39.3067 H         1 LEU         0.0800
    136 H8        -18.7028   20.0465  -37.3416 H         1 LEU         0.0315
    137 H9        -18.2091   21.5879  -38.1205 H         1 LEU         0.0315
    138 H10       -18.6825   18.9188  -39.5008 H         1 LEU         0.0298
    139 H11       -17.8067   20.0461  -41.5132 H         1 LEU         0.0232
    140 H12       -17.7594   21.6027  -40.6179 H         1 LEU         0.0232
    141 H13       -19.3333   20.7989  -40.9393 H         1 LEU         0.0232
    142 H14       -16.6112   19.0444  -38.1457 H         1 LEU         0.0232
    143 H15       -16.1398   20.5428  -39.0171 H         1 LEU         0.0232
    144 H16       -16.2578   18.9863  -39.9059 H         1 LEU         0.0232
    145 H17       -21.1864   19.4048  -36.6220 H         1 LEU         0.1883
    146 H18       -22.0706   17.3305  -38.3908 H         1 LEU         0.0800
    147 H19       -23.5525   16.6784  -36.4289 H         1 LEU         0.0315
    148 H20       -22.8706   18.0998  -35.5678 H         1 LEU         0.0315
    149 H21       -20.6212   17.0923  -35.7362 H         1 LEU         0.0298
    150 H22       -21.0129   15.3054  -34.0652 H         1 LEU         0.0232
    151 H23       -22.7620   15.3151  -34.4740 H         1 LEU         0.0232
    152 H24       -22.0052   16.7651  -33.7315 H         1 LEU         0.0232
    153 H25       -20.9929   15.7218  -37.7637 H         1 LEU         0.0232
    154 H26       -22.1077   14.6615  -36.8365 H         1 LEU         0.0232
    155 H27       -20.3681   14.7394  -36.3958 H         1 LEU         0.0232
    156 H28       -23.8207   20.0865  -36.8771 H         1 GLU         0.1883
    157 H29       -26.3540   19.6037  -37.9979 H         1 GLU         0.0801
    158 H30       -24.8915   22.1962  -37.3819 H         1 GLU         0.0330
    159 H31       -26.0193   21.2841  -36.3223 H         1 GLU         0.0330
    160 H32       -27.4329   22.9234  -37.0074 H         1 GLU         0.0433
    161 H33       -27.6941   21.7622  -38.3528 H         1 GLU         0.0433
    162 H34       -23.5507   21.3437  -39.4804 H         1 ARG         0.1883
    163 H35       -25.0887   22.0824  -41.7926 H         1 ARG         0.0800
    164 H36       -22.9245   22.6230  -42.8429 H         1 ARG         0.0313
    165 H37       -22.0671   21.8050  -41.4929 H         1 ARG         0.0313
    166 H38       -22.6087   23.4857  -39.9630 H         1 ARG         0.0301
    167 H39       -23.9563   24.1095  -40.9737 H         1 ARG         0.0301
    168 H40       -22.0353   25.6307  -41.0285 H         1 ARG         0.0689
    169 H41       -22.3431   24.9128  -42.6461 H         1 ARG         0.0689
    170 H42       -20.2788   23.8486  -42.5765 H         1 ARG         0.2642
    171 H43       -19.3900   24.9114  -38.7578 H         1 ARG         0.2615
    172 H44       -21.0424   25.1839  -39.3726 H         1 ARG         0.2615
    173 H45       -18.2045   23.5217  -41.7853 H         1 ARG         0.2615
    174 H46       -17.8012   23.9769  -40.1081 H         1 ARG         0.2615
    175 H47       -23.4888   19.1025  -40.9143 H         1 ARG         0.1883
    176 H48       -23.5653   18.1438  -43.7066 H         1 ARG         0.0800
    177 H49       -22.4645   16.1326  -42.8288 H         1 ARG         0.0313
    178 H50       -22.6386   16.7567  -41.1534 H         1 ARG         0.0313
    179 H51       -20.4009   17.1461  -41.7468 H         1 ARG         0.0301
    180 H52       -21.2215   18.7367  -41.8993 H         1 ARG         0.0301
    181 H53       -21.3395   18.4989  -44.3118 H         1 ARG         0.0689
    182 H54       -20.6741   16.8331  -44.2165 H         1 ARG         0.0689
    183 H55       -18.5257   17.6998  -43.8091 H         1 ARG         0.2642
    184 H56       -19.7331   21.5803  -43.9066 H         1 ARG         0.2615
    185 H57       -20.9591   20.2855  -43.8486 H         1 ARG         0.2615
    186 H58       -16.9867   19.3435  -43.8749 H         1 ARG         0.2615
    187 H59       -17.5012   21.0509  -43.9275 H         1 ARG         0.2615
    188 H60       -25.8838   18.4952  -41.4374 H         1 GLY         0.1881
    189 H61       -27.6916   16.6714  -42.5518 H         1 GLY         0.0763
    190 H62       -27.8432   17.4113  -40.9221 H         1 GLY         0.0763
    191 H63       -25.9100   16.3300  -39.4479 H         1 VAL         0.1883
    192 H64       -26.4202   13.3891  -39.5899 H         1 VAL         0.0802
    193 H65       -23.9146   14.8148  -38.5752 H         1 VAL         0.0343
    194 H66       -23.0085   12.5313  -38.2617 H         1 VAL         0.0234
    195 H67       -24.6014   11.8411  -38.7229 H         1 VAL         0.0234
    196 H68       -24.4486   12.8282  -37.2299 H         1 VAL         0.0234
    197 H69       -24.1005   14.7601  -41.0416 H         1 VAL         0.0234
    198 H70       -24.3268   12.9792  -40.9789 H         1 VAL         0.0234
    199 H71       -22.7742   13.7067  -40.4432 H         1 VAL         0.0234
    200 H72       -27.3746   12.5577  -37.8360 H         1 SER         0.1884
    201 H73       -28.2505   14.2181  -35.6761 H         1 SER         0.0823
    202 H74       -28.9360   12.0673  -34.6087 H         1 SER         0.0606
    203 H75       -28.0710   11.1762  -35.9066 H         1 SER         0.0606
    204 H76       -30.3193   11.4654  -36.3604 H         1 SER         0.2097
    205 H77       -27.7366   13.8836  -33.3923 H         1 GLU         0.1883
    206 H78       -24.8954   14.4680  -33.1907 H         1 GLU         0.0801
    207 H79       -27.0953   14.4129  -31.0852 H         1 GLU         0.0330
    208 H80       -26.6715   15.8159  -32.1238 H         1 GLU         0.0330
    209 H81       -25.6203   16.3969  -30.1874 H         1 GLU         0.0433
    210 H82       -24.2973   15.5102  -31.0180 H         1 GLU         0.0433
    211 H83       -23.3253   13.4047  -32.1475 H         1 LEU         0.1883
    212 H84       -23.6138   10.5324  -31.9035 H         1 LEU         0.0800
    213 H85       -21.2273   10.6112  -31.2586 H         1 LEU         0.0315
    214 H86       -21.3159   12.4051  -31.2287 H         1 LEU         0.0315
    215 H87       -21.7458   12.3725  -33.6802 H         1 LEU         0.0298
    216 H88       -19.4028   11.8147  -34.2684 H         1 LEU         0.0232
    217 H89       -19.2151   10.9638  -32.6977 H         1 LEU         0.0232
    218 H90       -19.4983   12.7373  -32.7302 H         1 LEU         0.0232
    219 H91       -22.6781   10.1013  -33.8192 H         1 LEU         0.0232
    220 H92       -21.0788    9.4178  -33.3699 H         1 LEU         0.0232
    221 H93       -21.2721   10.3087  -34.9177 H         1 LEU         0.0232
    222 H94       -24.0342   10.1186  -27.4652 H         1 PRO         0.0802
    223 H95       -23.0303    8.0961  -26.7736 H         1 PRO         0.0313
    224 H96       -21.4376    8.5305  -27.4817 H         1 PRO         0.0313
    225 H97       -23.9347    7.4916  -28.8594 H         1 PRO         0.0287
    226 H98       -22.2279    6.9655  -29.0517 H         1 PRO         0.0287
    227 H99       -21.6681    8.8249  -30.3674 H         1 PRO         0.0524
    228 H100      -23.3966    8.6495  -30.8239 H         1 PRO         0.0524
    229 H101      -21.4228   13.5164  -26.3652 H         1 PRO         0.0802
    230 H102      -22.4401   14.4953  -24.4846 H         1 PRO         0.0313
    231 H103      -22.4359   12.9574  -23.5565 H         1 PRO         0.0313
    232 H104      -24.3093   13.8775  -25.7486 H         1 PRO         0.0287
    233 H105      -24.6895   13.1016  -24.1737 H         1 PRO         0.0287
    234 H106      -24.0900   10.9754  -24.9299 H         1 PRO         0.0524
    235 H107      -24.6498   11.6898  -26.4801 H         1 PRO         0.0524
    236 H108      -19.4161   13.8506  -25.6628 H         1 LEU         0.1883
    237 H109      -17.9957   11.6908  -24.2118 H         1 LEU         0.0800
    238 H110      -15.9772   13.0288  -24.7947 H         1 LEU         0.0315
    239 H111      -17.0463   14.1928  -25.6485 H         1 LEU         0.0315
    240 H112      -17.6282   12.3454  -27.2473 H         1 LEU         0.0298
    241 H113      -15.4662   12.6188  -28.4375 H         1 LEU         0.0232
    242 H114      -14.7102   13.1963  -26.9138 H         1 LEU         0.0232
    243 H115      -16.0151   14.1568  -27.6892 H         1 LEU         0.0232
    244 H116      -16.9908   10.4294  -25.8373 H         1 LEU         0.0232
    245 H117      -15.2812   10.9805  -25.8537 H         1 LEU         0.0232
    246 H118      -16.0661   10.4426  -27.3772 H         1 LEU         0.0232
    247 H119      -17.7642   11.8834  -22.0365 H         1 TYR         0.1885
    248 H120      -17.6690   14.5809  -20.8149 H         1 TYR         0.0821
    249 H121      -17.2982   13.3490  -18.6806 H         1 TYR         0.0453
    250 H122      -17.3610   11.8041  -19.5950 H         1 TYR         0.0453
    251 H123      -19.4730   14.8870  -19.9667 H         1 TYR         0.0530
    252 H124      -19.3377   10.7730  -18.8474 H         1 TYR         0.0530
    253 H125      -21.9220   14.8646  -19.7699 H         1 TYR         0.0525
    254 H126      -21.7888   10.7502  -18.6391 H         1 TYR         0.0525
    255 H127      -23.7098   13.6574  -19.2791 H         1 TYR         0.2458
    256 H128      -14.1494   14.9252  -20.8058 H         1 ILE         0.1876
    257 H129      -16.7013   15.5895  -19.4228 H         1 ILE         0.0729
    258 H130      -14.7457   15.2852  -17.9207 H         1 ILE         0.0338
    259 H131      -16.5827   16.9880  -17.5066 H         1 ILE         0.0267
    260 H132      -15.4517   18.2390  -18.1253 H         1 ILE         0.0267
    261 H133      -12.9694   15.9089  -19.5372 H         1 ILE         0.0234
    262 H134      -12.8350   16.8297  -18.0008 H         1 ILE         0.0234
    263 H135      -13.5134   17.6193  -19.4647 H         1 ILE         0.0234
    264 H136      -15.4390   18.1552  -15.6637 H         1 ILE         0.0230
    265 H137      -13.8451   17.6714  -16.3358 H         1 ILE         0.0230
    266 H138      -14.9761   16.4204  -15.7172 H         1 ILE         0.0230
@<TRIPOS>BOND
     1    1    2 1  
     2    2    3 1  
     3    3    4 2  
     4    3    5 am 
     5    5    6 1  
     6    6    7 1  
     7    6    9 1  
     8    7    8 2  
     9    7   13 am 
    10    9   10 1  
    11   10   11 1  
    12   10   12 1  
    13   13   14 1  
    14   14   15 1  
    15   14   17 1  
    16   15   16 2  
    17   15   21 am 
    18   17   18 1  
    19   18   19 1  
    20   18   20 1  
    21   21   22 1  
    22   22   23 1  
    23   22   25 1  
    24   23   24 2  
    25   23   30 am 
    26   25   26 1  
    27   26   27 1  
    28   27   28 ar 
    29   27   29 ar 
    30   30   31 1  
    31   31   32 1  
    32   31   34 1  
    33   32   33 2  
    34   32   41 am 
    35   34   35 1  
    36   35   36 1  
    37   36   37 1  
    38   37   38 ar 
    39   38   39 ar 
    40   38   40 ar 
    41   41   42 1  
    42   42   43 1  
    43   42   45 1  
    44   43   44 2  
    45   43   52 am 
    46   45   46 1  
    47   46   47 1  
    48   47   48 1  
    49   48   49 ar 
    50   49   50 ar 
    51   49   51 ar 
    52   52   53 1  
    53   53   54 1  
    54   54   55 2  
    55   54   56 am 
    56   56   57 1  
    57   57   58 1  
    58   57   60 1  
    59   58   59 2  
    60   58   63 am 
    61   60   61 1  
    62   60   62 1  
    63   63   64 1  
    64   64   65 1  
    65   64   67 1  
    66   65   66 2  
    67   65   69 am 
    68   67   68 1  
    69   69   70 1  
    70   70   71 1  
    71   70   73 1  
    72   71   72 2  
    73   71   78 am 
    74   73   74 1  
    75   74   75 1  
    76   75   76 ar 
    77   75   77 ar 
    78   78   79 1  
    79   79   80 1  
    80   79   82 1  
    81   80   81 2  
    82   80   86 am 
    83   82   83 1  
    84   83   84 1  
    85   83   85 1  
    86   86   87 1  
    87   86   92 1  
    88   87   88 1  
    89   87   90 1  
    90   88   89 2  
    91   88   93 am 
    92   90   91 1  
    93   91   92 1  
    94   93   94 1  
    95   93   99 1  
    96   94   95 1  
    97   94   97 1  
    98   95   96 2  
    99   95  100 am 
   100   97   98 1  
   101   98   99 1  
   102  100  101 1  
   103  101  102 1  
   104  101  104 1  
   105  102  103 2  
   106  102  108 am 
   107  104  105 1  
   108  105  106 1  
   109  105  107 1  
   110  108  109 1  
   111  109  110 1  
   112  109  112 1  
   113  110  111 2  
   114  110  120 am 
   115  112  113 1  
   116  113  114 ar 
   117  113  115 ar 
   118  114  116 ar 
   119  115  117 ar 
   120  116  118 ar 
   121  117  118 ar 
   122  118  119 1  
   123  120  121 1  
   124  121  122 1  
   125  121  124 1  
   126  122  123 ar 
   127  122  128 ar 
   128  124  125 1  
   129  124  126 1  
   130  125  127 1  
   131    1  129 1  
   132    1  130 1  
   133    1  131 1  
   134    2  132 1  
   135    2  133 1  
   136    5  134 1  
   137    6  135 1  
   138    9  136 1  
   139    9  137 1  
   140   10  138 1  
   141   11  139 1  
   142   11  140 1  
   143   11  141 1  
   144   12  142 1  
   145   12  143 1  
   146   12  144 1  
   147   13  145 1  
   148   14  146 1  
   149   17  147 1  
   150   17  148 1  
   151   18  149 1  
   152   19  150 1  
   153   19  151 1  
   154   19  152 1  
   155   20  153 1  
   156   20  154 1  
   157   20  155 1  
   158   21  156 1  
   159   22  157 1  
   160   25  158 1  
   161   25  159 1  
   162   26  160 1  
   163   26  161 1  
   164   30  162 1  
   165   31  163 1  
   166   34  164 1  
   167   34  165 1  
   168   35  166 1  
   169   35  167 1  
   170   36  168 1  
   171   36  169 1  
   172   37  170 1  
   173   39  171 1  
   174   39  172 1  
   175   40  173 1  
   176   40  174 1  
   177   41  175 1  
   178   42  176 1  
   179   45  177 1  
   180   45  178 1  
   181   46  179 1  
   182   46  180 1  
   183   47  181 1  
   184   47  182 1  
   185   48  183 1  
   186   50  184 1  
   187   50  185 1  
   188   51  186 1  
   189   51  187 1  
   190   52  188 1  
   191   53  189 1  
   192   53  190 1  
   193   56  191 1  
   194   57  192 1  
   195   60  193 1  
   196   61  194 1  
   197   61  195 1  
   198   61  196 1  
   199   62  197 1  
   200   62  198 1  
   201   62  199 1  
   202   63  200 1  
   203   64  201 1  
   204   67  202 1  
   205   67  203 1  
   206   68  204 1  
   207   69  205 1  
   208   70  206 1  
   209   73  207 1  
   210   73  208 1  
   211   74  209 1  
   212   74  210 1  
   213   78  211 1  
   214   79  212 1  
   215   82  213 1  
   216   82  214 1  
   217   83  215 1  
   218   84  216 1  
   219   84  217 1  
   220   84  218 1  
   221   85  219 1  
   222   85  220 1  
   223   85  221 1  
   224   87  222 1  
   225   90  223 1  
   226   90  224 1  
   227   91  225 1  
   228   91  226 1  
   229   92  227 1  
   230   92  228 1  
   231   94  229 1  
   232   97  230 1  
   233   97  231 1  
   234   98  232 1  
   235   98  233 1  
   236   99  234 1  
   237   99  235 1  
   238  100  236 1  
   239  101  237 1  
   240  104  238 1  
   241  104  239 1  
   242  105  240 1  
   243  106  241 1  
   244  106  242 1  
   245  106  243 1  
   246  107  244 1  
   247  107  245 1  
   248  107  246 1  
   249  108  247 1  
   250  109  248 1  
   251  112  249 1  
   252  112  250 1  
   253  114  251 1  
   254  115  252 1  
   255  116  253 1  
   256  117  254 1  
   257  119  255 1  
   258  120  256 1  
   259  121  257 1  
   260  124  258 1  
   261  125  259 1  
   262  125  260 1  
   263  126  261 1  
   264  126  262 1  
   265  126  263 1  
   266  127  264 1  
   267  127  265 1  
   268  127  266 1  
@<TRIPOS>SUBSTRUCTURE
     1 GLY         1

