5eta_ligand
  -I-interpret- 

267269  0  0  0  0  0  0  0  0999 V2000
  -21.3710   24.5530  -36.1010 N   0  3  0  0  0
  -22.1930   23.3090  -36.0670 C   0  0  0  0  0
  -21.8930   22.4080  -37.2470 C   0  0  0  0  0
  -22.7310   22.2210  -38.1260 O   0  0  0  0  0
  -20.6880   21.8350  -37.2580 N   0  0  0  0  0
  -20.2570   21.0510  -38.4100 C   0  0  0  0  0
  -21.1320   19.8180  -38.6120 C   0  0  0  0  0
  -21.4510   19.4590  -39.7510 O   0  0  0  0  0
  -18.7870   20.6610  -38.2500 C   0  0  0  0  0
  -18.1520   19.8770  -39.3990 C   0  0  0  0  0
  -18.2710   20.6330  -40.7070 C   0  0  0  0  0
  -16.6890   19.5930  -39.0960 C   0  0  0  0  0
  -21.5330   19.1510  -37.5250 N   0  0  0  0  0
  -22.4810   18.0490  -37.6660 C   0  0  0  0  0
  -23.8180   18.5510  -38.1930 C   0  0  0  0  0
  -24.4260   17.9280  -39.0710 O   0  0  0  0  0
  -22.6720   17.3300  -36.3280 C   0  0  0  0  0
  -21.5210   16.4640  -35.8100 C   0  0  0  0  0
  -21.8480   15.9250  -34.4240 C   0  0  0  0  0
  -21.2270   15.3170  -36.7680 C   0  0  0  0  0
  -24.3010   19.6700  -37.6490 N   0  0  0  0  0
  -25.5160   20.2980  -38.1580 C   0  0  0  0  0
  -25.4190   20.5670  -39.6570 C   0  0  0  0  0
  -26.3430   20.2500  -40.4150 O   0  0  0  0  0
  -25.7990   21.5750  -37.3600 C   0  0  0  0  0
  -26.9620   22.4240  -37.8670 C   0  0  0  0  0
  -26.5290   23.4840  -38.8660 C   0  0  0  0  0
  -25.3530   23.9060  -38.8160 O   0  0  0  0  0
  -27.3630   23.9020  -39.6950 O   0  0  0  0  0
  -24.3050   21.1510  -40.1080 N   0  0  0  0  0
  -24.1920   21.5070  -41.5190 C   0  0  0  0  0
  -24.1220   20.2800  -42.4200 C   0  0  0  0  0
  -24.4140   20.3910  -43.6160 O   0  0  0  0  0
  -22.9610   22.3830  -41.7700 C   0  0  0  0  0
  -22.9400   23.6890  -40.9920 C   0  0  0  0  0
  -21.9960   24.7060  -41.6230 C   0  0  0  0  0
  -20.6040   24.2600  -41.6900 N   0  0  0  0  0
  -19.7260   24.3450  -40.6940 C   0  0  0  0  0
  -20.0790   24.8510  -39.5210 N   0  0  0  0  0
  -18.4850   23.9160  -40.8760 N   0  0  0  0  0
  -23.7440   19.1220  -41.8810 N   0  0  0  0  0
  -23.6880   17.8830  -42.6450 C   0  0  0  0  0
  -24.9560   17.0540  -42.5010 C   0  0  0  0  0
  -25.0170   15.9400  -43.0300 O   0  0  0  0  0
  -22.4890   17.0390  -42.2060 C   0  0  0  0  0
  -21.1400   17.7240  -42.3210 C   0  0  0  0  0
  -20.6640   17.8320  -43.7560 C   0  0  0  0  0
  -19.3070   18.3710  -43.8080 N   0  0  0  0  0
  -19.0080   19.6670  -43.8540 C   0  0  0  0  0
  -19.9720   20.5790  -43.8710 N   0  0  0  0  0
  -17.7370   20.0490  -43.8880 N   0  0  0  0  0
  -25.9680   17.5710  -41.8100 N   0  0  0  0  0
  -27.1900   16.8250  -41.5850 C   0  0  0  0  0
  -26.9410   15.4730  -40.9480 C   0  0  0  0  0
  -27.3850   14.4460  -41.4680 O   0  0  0  0  0
  -26.2380   15.4600  -39.8160 N   0  0  0  0  0
  -25.9250   14.2340  -39.0890 C   0  0  0  0  0
  -26.4700   14.3580  -37.6740 C   0  0  0  0  0
  -26.2520   15.3750  -37.0050 O   0  0  0  0  0
  -24.4090   13.9630  -39.0650 C   0  0  0  0  0
  -24.0950   12.7030  -38.2640 C   0  0  0  0  0
  -23.8650   13.8440  -40.4800 C   0  0  0  0  0
  -27.1800   13.3250  -37.2250 N   0  0  0  0  0
  -27.6770   13.2970  -35.8570 C   0  0  0  0  0
  -26.5150   13.2540  -34.8670 C   0  0  0  0  0
  -25.4100   12.8110  -35.1870 O   0  0  0  0  0
  -28.6110   12.1020  -35.6590 C   0  0  0  0  0
  -29.7520   12.2150  -36.4970 O   0  0  0  0  0
  -26.7850   13.7130  -33.6480 N   0  0  0  0  0
  -25.7320   13.9740  -32.6750 C   0  0  0  0  0
  -25.2040   12.6790  -32.0560 C   0  0  0  0  0
  -25.9690   11.7650  -31.7360 O   0  0  0  0  0
  -26.2760   14.9290  -31.6070 C   0  0  0  0  0
  -25.2880   15.4130  -30.5500 C   0  0  0  0  0
  -25.1680   14.4820  -29.3650 C   0  0  0  0  0
  -26.0960   13.6780  -29.1350 O   0  0  0  0  0
  -24.1510   14.5680  -28.6460 O   0  0  0  0  0
  -23.8760   12.6060  -31.9050 N   0  0  0  0  0
  -23.1910   11.4160  -31.4030 C   0  0  0  0  0
  -23.3800   11.2630  -29.8960 C   0  0  0  0  0
  -23.8690   12.1690  -29.2240 O   0  0  0  0  0
  -21.6970   11.4950  -31.7150 C   0  0  0  0  0
  -21.2360   11.5420  -33.1700 C   0  0  0  0  0
  -19.7340   11.7810  -33.2200 C   0  0  0  0  0
  -21.5900   10.2560  -33.8660 C   0  0  0  0  0
  -23.0070   10.1180  -29.3290 N   0  0  0  0  0
  -23.0180    9.9860  -27.8650 C   0  0  0  0  0
  -22.0880   11.0030  -27.2220 C   0  0  0  0  0
  -20.9350   11.1510  -27.6530 O   0  0  0  0  0
  -22.5260    8.5490  -27.6400 C   0  0  0  0  0
  -22.8890    7.8310  -28.8970 C   0  0  0  0  0
  -22.7020    8.8380  -29.9920 C   0  0  0  0  0
  -22.5380   11.7220  -26.1870 N   0  0  0  0  0
  -21.6930   12.7770  -25.5970 C   0  0  0  0  0
  -20.4080   12.2430  -24.9680 C   0  0  0  0  0
  -20.3800   11.1560  -24.3880 O   0  0  0  0  0
  -22.6090   13.4100  -24.5440 C   0  0  0  0  0
  -23.9870   13.1190  -25.0200 C   0  0  0  0  0
  -23.9160   11.7750  -25.6650 C   0  0  0  0  0
  -19.3360   13.0320  -25.0940 N   0  0  0  0  0
  -18.0530   12.7640  -24.4460 C   0  0  0  0  0
  -17.9040   13.5620  -23.1530 C   0  0  0  0  0
  -17.9680   14.7940  -23.1780 O   0  0  0  0  0
  -16.9030   13.1360  -25.3790 C   0  0  0  0  0
  -16.6840   12.3800  -26.6840 C   0  0  0  0  0
  -15.6480   13.1400  -27.4860 C   0  0  0  0  0
  -16.2240   10.9610  -26.4200 C   0  0  0  0  0
  -17.6600   12.8780  -22.0400 N   0  0  0  0  0
  -17.2400   13.5680  -20.8190 C   0  0  0  0  0
  -15.7090   13.6730  -20.8610 C   0  0  0  0  0
  -15.0580   12.6920  -21.2110 O   0  0  0  0  0
  -17.7210   12.8430  -19.5610 C   0  0  0  0  0
  -19.2280   12.8280  -19.4320 C   0  0  0  0  0
  -19.9780   13.9720  -19.6790 C   0  0  0  0  0
  -19.9010   11.6760  -19.0530 C   0  0  0  0  0
  -21.3530   13.9650  -19.5650 C   0  0  0  0  0
  -21.2780   11.6600  -18.9330 C   0  0  0  0  0
  -21.9980   12.8070  -19.1890 C   0  0  0  0  0
  -23.3680   12.7960  -19.0700 O   0  0  0  0  0
  -15.1000   14.8110  -20.5170 N   0  0  0  0  0
  -15.7010   15.9030  -19.7560 C   0  0  0  0  0
  -15.8530   17.1360  -20.6370 C   0  0  0  0  0
  -14.9750   17.4480  -21.4400 O   0  0  0  0  0
  -14.8440   16.2120  -18.5050 C   0  0  0  0  0
  -15.5240   17.2630  -17.6230 C   0  0  0  0  0
  -13.4420   16.6750  -18.9050 C   0  0  0  0  0
  -14.9030   17.3860  -16.2390 C   0  0  0  0  0
  -16.8570   17.8430  -20.5620 O   0  0  0  0  0
  -21.6000   25.1326  -35.2935 H   0  0  0  0  0
  -20.3817   24.3062  -36.0743 H   0  0  0  0  0
  -21.5711   25.0680  -36.9584 H   0  0  0  0  0
  -23.2451   23.5909  -36.1085 H   0  0  0  0  0
  -21.9575   22.7663  -35.1515 H   0  0  0  0  0
  -20.0657   21.9457  -36.4575 H   0  0  0  0  0
  -20.3649   21.6671  -39.3027 H   0  0  0  0  0
  -18.7447   20.0046  -37.3808 H   0  0  0  0  0
  -18.2342   21.5983  -38.1861 H   0  0  0  0  0
  -18.6878   18.9331  -39.4992 H   0  0  0  0  0
  -19.3240   20.7967  -40.9360 H   0  0  0  0  0
  -17.7637   21.5936  -40.6174 H   0  0  0  0  0
  -17.8106   20.0505  -41.5050 H   0  0  0  0  0
  -16.1560   20.5353  -38.9689 H   0  0  0  0  0
  -16.6162   19.0065  -38.1801 H   0  0  0  0  0
  -16.2499   19.0343  -39.9226 H   0  0  0  0  0
  -21.1794   19.4098  -36.6039 H   0  0  0  0  0
  -22.0727   17.3400  -38.3862 H   0  0  0  0  0
  -23.5042   16.6435  -36.4837 H   0  0  0  0  0
  -22.7954   18.1212  -35.5885 H   0  0  0  0  0
  -20.6295   17.0877  -35.7442 H   0  0  0  0  0
  -22.0035   16.7584  -33.7389 H   0  0  0  0  0
  -22.7538   15.3209  -34.4749 H   0  0  0  0  0
  -21.0199   15.3113  -34.0695 H   0  0  0  0  0
  -22.1155   14.6939  -36.8703 H   0  0  0  0  0
  -20.9506   15.7206  -37.7421 H   0  0  0  0  0
  -20.4052   14.7185  -36.3748 H   0  0  0  0  0
  -23.8110   20.0948  -36.8617 H   0  0  0  0  0
  -26.3549   19.6148  -38.0251 H   0  0  0  0  0
  -24.9055   22.1943  -37.4391 H   0  0  0  0  0
  -26.0634   21.2579  -36.3512 H   0  0  0  0  0
  -27.4004   22.9342  -37.0093 H   0  0  0  0  0
  -27.6646   21.7597  -38.3701 H   0  0  0  0  0
  -24.8823   23.4556  -38.1109 H   0  0  0  0  0
  -23.5356   21.3475  -39.4679 H   0  0  0  0  0
  -25.0951   22.0650  -41.7664 H   0  0  0  0  0
  -22.9686   22.6446  -42.8281 H   0  0  0  0  0
  -22.0923   21.8085  -41.4483 H   0  0  0  0  0
  -22.5932   23.4803  -39.9799 H   0  0  0  0  0
  -23.9467   24.1068  -40.9951 H   0  0  0  0  0
  -22.0204   25.6008  -41.0010 H   0  0  0  0  0
  -22.3335   24.8707  -42.6463 H   0  0  0  0  0
  -20.2820   23.8526  -42.5679 H   0  0  0  0  0
  -21.0330   25.1806  -39.3741 H   0  0  0  0  0
  -17.8079   23.9763  -40.1156 H   0  0  0  0  0
  -18.2073   23.5256  -41.7765 H   0  0  0  0  0
  -23.4836   19.1021  -40.8950 H   0  0  0  0  0
  -23.5859   18.1670  -43.6924 H   0  0  0  0  0
  -22.4574   16.1727  -42.8667 H   0  0  0  0  0
  -22.6358   16.8122  -41.1500 H   0  0  0  0  0
  -20.4125   17.1286  -41.7694 H   0  0  0  0  0
  -21.2407   18.7338  -41.9233 H   0  0  0  0  0
  -21.3309   18.5008  -44.3001 H   0  0  0  0  0
  -20.6671   16.8388  -44.2050 H   0  0  0  0  0
  -18.5333   17.7063  -43.8091 H   0  0  0  0  0
  -20.9495   20.2884  -43.8488 H   0  0  0  0  0
  -17.5035   21.0412  -43.9271 H   0  0  0  0  0
  -16.9940   19.3503  -43.8750 H   0  0  0  0  0
  -25.8822   18.5136  -41.4299 H   0  0  0  0  0
  -27.6625   16.6570  -42.5528 H   0  0  0  0  0
  -27.8157   17.4046  -40.9062 H   0  0  0  0  0
  -25.9034   16.3474  -39.4406 H   0  0  0  0  0
  -26.3913   13.3892  -39.5960 H   0  0  0  0  0
  -23.9214   14.8069  -38.5769 H   0  0  0  0  0
  -24.4459   12.8283  -37.2397 H   0  0  0  0  0
  -24.5974   11.8497  -38.7197 H   0  0  0  0  0
  -23.0182   12.5339  -38.2624 H   0  0  0  0  0
  -24.3638   13.0208  -40.9916 H   0  0  0  0  0
  -24.0500   14.7735  -41.0184 H   0  0  0  0  0
  -22.7926   13.6526  -40.4407 H   0  0  0  0  0
  -27.3785   12.5423  -37.8483 H   0  0  0  0  0
  -28.2443   14.2088  -35.6701 H   0  0  0  0  0
  -28.9375   12.0774  -34.6193 H   0  0  0  0  0
  -28.0744   11.1883  -35.9144 H   0  0  0  0  0
  -30.3253   11.4575  -36.3590 H   0  0  0  0  0
  -27.7556   13.8870  -33.3872 H   0  0  0  0  0
  -24.8843   14.4401  -33.1773 H   0  0  0  0  0
  -27.0414   14.3707  -31.0680 H   0  0  0  0  0
  -26.6033   15.8208  -32.1415 H   0  0  0  0  0
  -25.6498   16.3716  -30.1780 H   0  0  0  0  0
  -24.3068   15.4715  -31.0212 H   0  0  0  0  0
  -26.7761   13.7758  -29.8054 H   0  0  0  0  0
  -23.3143   13.4207  -32.1523 H   0  0  0  0  0
  -23.6270   10.5497  -31.9006 H   0  0  0  0  0
  -21.2823   10.5665  -31.3226 H   0  0  0  0  0
  -21.3752   12.4463  -31.2913 H   0  0  0  0  0
  -21.7411   12.3600  -33.6836 H   0  0  0  0  0
  -19.5018   12.7288  -32.7343 H   0  0  0  0  0
  -19.2210   10.9706  -32.7021 H   0  0  0  0  0
  -19.4071   11.8142  -34.2593 H   0  0  0  0  0
  -21.0990    9.4240  -33.3611 H   0  0  0  0  0
  -22.6703   10.1139  -33.8367 H   0  0  0  0  0
  -21.2562   10.3016  -34.9026 H   0  0  0  0  0
  -23.9961   10.1706  -27.4209 H   0  0  0  0  0
  -22.9825    8.0928  -26.7616 H   0  0  0  0  0
  -21.4551    8.5095  -27.4406 H   0  0  0  0  0
  -23.9121    7.4563  -28.8653 H   0  0  0  0  0
  -22.2670    6.9492  -29.0507 H   0  0  0  0  0
  -21.6990    8.8140  -30.4181 H   0  0  0  0  0
  -23.3434    8.6471  -30.8524 H   0  0  0  0  0
  -21.3381   13.4800  -26.3506 H   0  0  0  0  0
  -22.4316   14.4805  -24.4408 H   0  0  0  0  0
  -22.4276   13.0031  -23.5492 H   0  0  0  0  0
  -24.3342   13.8784  -25.7206 H   0  0  0  0  0
  -24.7020   13.1279  -24.1973 H   0  0  0  0  0
  -24.1331   10.9639  -24.9700 H   0  0  0  0  0
  -24.6657   11.6437  -26.4452 H   0  0  0  0  0
  -19.4177   13.8669  -25.6742 H   0  0  0  0  0
  -18.0230   11.6995  -24.2136 H   0  0  0  0  0
  -16.0070   12.9253  -24.7951 H   0  0  0  0  0
  -17.1347   14.1530  -25.6956 H   0  0  0  0  0
  -17.6194   12.3122  -27.2394 H   0  0  0  0  0
  -16.0130   14.1473  -27.6867 H   0  0  0  0  0
  -14.7193   13.1951  -26.9180 H   0  0  0  0  0
  -15.4688   12.6226  -28.4285 H   0  0  0  0  0
  -15.2855   10.9818  -25.8661 H   0  0  0  0  0
  -16.9808   10.4379  -25.8355 H   0  0  0  0  0
  -16.0759   10.4459  -27.3691 H   0  0  0  0  0
  -17.7663   11.8636  -22.0364 H   0  0  0  0  0
  -17.6882   14.5606  -20.7750 H   0  0  0  0  0
  -17.3176   13.3711  -18.6970 H   0  0  0  0  0
  -17.3812   11.8091  -19.6215 H   0  0  0  0  0
  -19.4702   14.8921  -19.9682 H   0  0  0  0  0
  -19.3345   10.7680  -18.8463 H   0  0  0  0  0
  -21.9252   14.8696  -19.7710 H   0  0  0  0  0
  -21.7916   10.7452  -18.6375 H   0  0  0  0  0
  -23.6578   11.9207  -18.8025 H   0  0  0  0  0
  -14.1304   14.9275  -20.8116 H   0  0  0  0  0
  -16.6942   15.6029  -19.4219 H   0  0  0  0  0
  -14.7492   15.2915  -17.9290 H   0  0  0  0  0
  -16.5622   16.9584  -17.4908 H   0  0  0  0  0
  -15.4146   18.2276  -18.1186 H   0  0  0  0  0
  -12.9521   15.8900  -19.4811 H   0  0  0  0  0
  -13.5180   17.5782  -19.5104 H   0  0  0  0  0
  -12.8604   16.8855  -18.0075 H   0  0  0  0  0
  -14.9760   16.4286  -15.7230 H   0  0  0  0  0
  -13.8548   17.6687  -16.3363 H   0  0  0  0  0
  -15.4350   18.1484  -15.6699 H   0  0  0  0  0
  -17.4518   17.4829  -19.9001 H   0  0  0  0  0
  1  2  1  0  0  0
  2  3  1  0  0  0
  3  4  2  0  0  0
  3  5  1  0  0  0
  5  6  1  0  0  0
  6  7  1  0  0  0
  6  9  1  0  0  0
  7  8  2  0  0  0
  7 13  1  0  0  0
  9 10  1  0  0  0
 10 11  1  0  0  0
 10 12  1  0  0  0
 13 14  1  0  0  0
 14 15  1  0  0  0
 14 17  1  0  0  0
 15 16  2  0  0  0
 15 21  1  0  0  0
 17 18  1  0  0  0
 18 19  1  0  0  0
 18 20  1  0  0  0
 21 22  1  0  0  0
 22 23  1  0  0  0
 22 25  1  0  0  0
 23 24  2  0  0  0
 23 30  1  0  0  0
 25 26  1  0  0  0
 26 27  1  0  0  0
 27 28  1  0  0  0
 27 29  2  0  0  0
 30 31  1  0  0  0
 31 32  1  0  0  0
 31 34  1  0  0  0
 32 33  2  0  0  0
 32 41  1  0  0  0
 34 35  1  0  0  0
 35 36  1  0  0  0
 36 37  1  0  0  0
 37 38  1  0  0  0
 38 39  2  0  0  0
 38 40  1  0  0  0
 41 42  1  0  0  0
 42 43  1  0  0  0
 42 45  1  0  0  0
 43 44  2  0  0  0
 43 52  1  0  0  0
 45 46  1  0  0  0
 46 47  1  0  0  0
 47 48  1  0  0  0
 48 49  1  0  0  0
 49 50  2  0  0  0
 49 51  1  0  0  0
 52 53  1  0  0  0
 53 54  1  0  0  0
 54 55  2  0  0  0
 54 56  1  0  0  0
 56 57  1  0  0  0
 57 58  1  0  0  0
 57 60  1  0  0  0
 58 59  2  0  0  0
 58 63  1  0  0  0
 60 61  1  0  0  0
 60 62  1  0  0  0
 63 64  1  0  0  0
 64 65  1  0  0  0
 64 67  1  0  0  0
 65 66  2  0  0  0
 65 69  1  0  0  0
 67 68  1  0  0  0
 69 70  1  0  0  0
 70 71  1  0  0  0
 70 73  1  0  0  0
 71 72  2  0  0  0
 71 78  1  0  0  0
 73 74  1  0  0  0
 74 75  1  0  0  0
 75 76  1  0  0  0
 75 77  2  0  0  0
 78 79  1  0  0  0
 79 80  1  0  0  0
 79 82  1  0  0  0
 80 81  2  0  0  0
 80 86  1  0  0  0
 82 83  1  0  0  0
 83 84  1  0  0  0
 83 85  1  0  0  0
 86 87  1  0  0  0
 86 92  1  0  0  0
 87 88  1  0  0  0
 87 90  1  0  0  0
 88 89  2  0  0  0
 88 93  1  0  0  0
 90 91  1  0  0  0
 91 92  1  0  0  0
 93 94  1  0  0  0
 93 99  1  0  0  0
 94 95  1  0  0  0
 94 97  1  0  0  0
 95 96  2  0  0  0
 95100  1  0  0  0
 97 98  1  0  0  0
 98 99  1  0  0  0
100101  1  0  0  0
101102  1  0  0  0
101104  1  0  0  0
102103  2  0  0  0
102108  1  0  0  0
104105  1  0  0  0
105106  1  0  0  0
105107  1  0  0  0
108109  1  0  0  0
109110  1  0  0  0
109112  1  0  0  0
110111  2  0  0  0
110120  1  0  0  0
112113  1  0  0  0
113114  4  0  0  0
113115  4  0  0  0
114116  4  0  0  0
115117  4  0  0  0
116118  4  0  0  0
117118  4  0  0  0
118119  1  0  0  0
120121  1  0  0  0
121122  1  0  0  0
121124  1  0  0  0
122123  2  0  0  0
122128  1  0  0  0
124125  1  0  0  0
124126  1  0  0  0
125127  1  0  0  0
  1129  1  0  0  0
  1130  1  0  0  0
  1131  1  0  0  0
  2132  1  0  0  0
  2133  1  0  0  0
  5134  1  0  0  0
  6135  1  0  0  0
  9136  1  0  0  0
  9137  1  0  0  0
 10138  1  0  0  0
 11139  1  0  0  0
 11140  1  0  0  0
 11141  1  0  0  0
 12142  1  0  0  0
 12143  1  0  0  0
 12144  1  0  0  0
 13145  1  0  0  0
 14146  1  0  0  0
 17147  1  0  0  0
 17148  1  0  0  0
 18149  1  0  0  0
 19150  1  0  0  0
 19151  1  0  0  0
 19152  1  0  0  0
 20153  1  0  0  0
 20154  1  0  0  0
 20155  1  0  0  0
 21156  1  0  0  0
 22157  1  0  0  0
 25158  1  0  0  0
 25159  1  0  0  0
 26160  1  0  0  0
 26161  1  0  0  0
 28162  1  0  0  0
 30163  1  0  0  0
 31164  1  0  0  0
 34165  1  0  0  0
 34166  1  0  0  0
 35167  1  0  0  0
 35168  1  0  0  0
 36169  1  0  0  0
 36170  1  0  0  0
 37171  1  0  0  0
 39172  1  0  0  0
 40173  1  0  0  0
 40174  1  0  0  0
 41175  1  0  0  0
 42176  1  0  0  0
 45177  1  0  0  0
 45178  1  0  0  0
 46179  1  0  0  0
 46180  1  0  0  0
 47181  1  0  0  0
 47182  1  0  0  0
 48183  1  0  0  0
 50184  1  0  0  0
 51185  1  0  0  0
 51186  1  0  0  0
 52187  1  0  0  0
 53188  1  0  0  0
 53189  1  0  0  0
 56190  1  0  0  0
 57191  1  0  0  0
 60192  1  0  0  0
 61193  1  0  0  0
 61194  1  0  0  0
 61195  1  0  0  0
 62196  1  0  0  0
 62197  1  0  0  0
 62198  1  0  0  0
 63199  1  0  0  0
 64200  1  0  0  0
 67201  1  0  0  0
 67202  1  0  0  0
 68203  1  0  0  0
 69204  1  0  0  0
 70205  1  0  0  0
 73206  1  0  0  0
 73207  1  0  0  0
 74208  1  0  0  0
 74209  1  0  0  0
 76210  1  0  0  0
 78211  1  0  0  0
 79212  1  0  0  0
 82213  1  0  0  0
 82214  1  0  0  0
 83215  1  0  0  0
 84216  1  0  0  0
 84217  1  0  0  0
 84218  1  0  0  0
 85219  1  0  0  0
 85220  1  0  0  0
 85221  1  0  0  0
 87222  1  0  0  0
 90223  1  0  0  0
 90224  1  0  0  0
 91225  1  0  0  0
 91226  1  0  0  0
 92227  1  0  0  0
 92228  1  0  0  0
 94229  1  0  0  0
 97230  1  0  0  0
 97231  1  0  0  0
 98232  1  0  0  0
 98233  1  0  0  0
 99234  1  0  0  0
 99235  1  0  0  0
100236  1  0  0  0
101237  1  0  0  0
104238  1  0  0  0
104239  1  0  0  0
105240  1  0  0  0
106241  1  0  0  0
106242  1  0  0  0
106243  1  0  0  0
107244  1  0  0  0
107245  1  0  0  0
107246  1  0  0  0
108247  1  0  0  0
109248  1  0  0  0
112249  1  0  0  0
112250  1  0  0  0
114251  1  0  0  0
115252  1  0  0  0
116253  1  0  0  0
117254  1  0  0  0
119255  1  0  0  0
120256  1  0  0  0
121257  1  0  0  0
124258  1  0  0  0
125259  1  0  0  0
125260  1  0  0  0
126261  1  0  0  0
126262  1  0  0  0
126263  1  0  0  0
127264  1  0  0  0
127265  1  0  0  0
127266  1  0  0  0
128267  1  0  0  0
M  END
$$$$
