5dp6_ligand
  -I-interpret- 

 71 73  0  0  0  0  0  0  0  0999 V2000
  -26.0070   14.0120  -19.7160 C   0  0  0  0  0
  -27.5050   14.1520  -19.4970 C   0  0  0  0  0
  -28.1600   15.1140  -20.4450 C   0  0  0  0  0
  -27.5270   15.6300  -21.5310 C   0  0  0  0  0
  -28.2380   16.5190  -22.3190 C   0  0  0  0  0
  -29.5490   16.8980  -22.1390 C   0  0  0  0  0
  -21.8730    9.8760  -17.7400 N   0  0  0  0  0
  -25.7490   12.7450  -20.3750 N   0  0  0  0  0
  -30.2020   16.3700  -21.0590 C   0  0  0  0  0
  -27.2380   12.8110  -21.9620 O   0  0  0  0  0
  -26.3170   12.2540  -21.3910 C   0  0  0  0  0
  -25.7240   10.9260  -21.7440 C   0  0  0  0  0
  -26.7420   10.0750  -22.4190 C   0  0  0  0  0
  -26.4020    9.7590  -23.8580 C   0  0  0  0  0
  -24.9450    9.5870  -24.2600 C   0  0  0  0  0
  -25.7200   10.8570  -24.6480 C   0  0  0  0  0
  -29.4970   15.4880  -20.2270 C   0  0  0  0  0
  -25.2990   13.9200  -18.4290 C   0  0  0  0  0
  -25.8970   13.5240  -17.4470 O   0  0  0  0  0
  -24.0850   14.2420  -18.4390 N   0  0  0  0  0
  -23.2690   14.1410  -17.2430 C   0  0  0  0  0
  -22.7160   15.4900  -16.8900 C   0  0  0  0  0
  -23.7110   16.3520  -16.2290 C   0  0  0  0  0
  -24.4170   15.7290  -15.0950 C   0  0  0  0  0
  -25.6540   15.1210  -15.3950 O   0  0  0  0  0
  -26.8780   15.7410  -14.9030 C   0  0  0  0  0
  -26.7570   16.3440  -13.4950 C   0  0  0  0  0
  -24.0410   15.7620  -13.9510 O   0  0  0  0  0
  -22.1000   13.2560  -17.6460 C   0  0  0  0  0
  -22.5440   11.9940  -18.3520 C   0  0  0  0  0
  -23.7280   11.3440  -17.6450 C   0  0  0  0  0
  -23.2330    9.9610  -17.2100 C   0  0  0  0  0
  -21.4400   10.9730  -18.3220 C   0  0  0  0  0
  -20.3170   11.1770  -18.7570 O   0  0  0  0  0
  -25.6732   14.8744  -20.2931 H   0  0  0  0  0
  -27.6547   14.5335  -18.4870 H   0  0  0  0  0
  -27.9536   13.1723  -19.6616 H   0  0  0  0  0
  -26.5002   15.3549  -21.7722 H   0  0  0  0  0
  -27.7088   16.9613  -23.1630 H   0  0  0  0  0
  -30.0435   17.5862  -22.8245 H   0  0  0  0  0
  -21.3048    9.0323  -17.6643 H   0  0  0  0  0
  -25.0105   12.1748  -19.9628 H   0  0  0  0  0
  -31.2405   16.6274  -20.8510 H   0  0  0  0  0
  -25.3898   10.4297  -20.8329 H   0  0  0  0  0
  -24.8810   11.0782  -22.4179 H   0  0  0  0  0
  -27.6833   10.6247  -22.4169 H   0  0  0  0  0
  -26.7912    9.1300  -21.8779 H   0  0  0  0  0
  -27.2917    9.1418  -23.9828 H   0  0  0  0  0
  -24.3031    8.8400  -24.7270 H   0  0  0  0  0
  -23.9935    9.3104  -23.8059 H   0  0  0  0  0
  -25.5935   11.9388  -24.6063 H   0  0  0  0  0
  -25.9051   11.4655  -25.5332 H   0  0  0  0  0
  -30.0146   15.0696  -19.3638 H   0  0  0  0  0
  -23.6645   14.5810  -19.3043 H   0  0  0  0  0
  -23.8391   13.7576  -16.3968 H   0  0  0  0  0
  -22.4078   15.9794  -17.8139 H   0  0  0  0  0
  -21.8862   15.3430  -16.1987 H   0  0  0  0  0
  -24.4664   16.5925  -16.9770 H   0  0  0  0  0
  -23.1697   17.2101  -15.8305 H   0  0  0  0  0
  -27.6368   14.9600  -14.8541 H   0  0  0  0  0
  -27.1203   16.5578  -15.5828 H   0  0  0  0  0
  -26.4882   15.5599  -12.7872 H   0  0  0  0  0
  -25.9858   17.1143  -13.4961 H   0  0  0  0  0
  -27.7115   16.7841  -13.2064 H   0  0  0  0  0
  -21.5707   12.9649  -16.7387 H   0  0  0  0  0
  -21.4714   13.8221  -18.3334 H   0  0  0  0  0
  -22.8122   12.2836  -19.3680 H   0  0  0  0  0
  -24.5950   11.2705  -18.3015 H   0  0  0  0  0
  -24.0597   11.9367  -16.7925 H   0  0  0  0  0
  -23.2579    9.8400  -16.1270 H   0  0  0  0  0
  -23.8698    9.1614  -17.5884 H   0  0  0  0  0
  1  2  1  0  0  0
  1  8  1  0  0  0
 18  1  1  0  0  0
  2  3  1  0  0  0
  3  4  4  0  0  0
  3 17  4  0  0  0
  4  5  4  0  0  0
  5  6  4  0  0  0
  9  6  4  0  0  0
  7 32  1  0  0  0
 33  7  1  0  0  0
  8 11  1  0  0  0
 17  9  4  0  0  0
 11 10  2  0  0  0
 11 12  1  0  0  0
 12 13  1  0  0  0
 13 14  1  0  0  0
 14 15  1  0  0  0
 14 16  1  0  0  0
 16 15  1  0  0  0
 18 19  2  0  0  0
 20 18  1  0  0  0
 21 20  1  0  0  0
 21 22  1  0  0  0
 29 21  1  0  0  0
 22 23  1  0  0  0
 23 24  1  0  0  0
 24 25  1  0  0  0
 24 28  2  0  0  0
 25 26  1  0  0  0
 26 27  1  0  0  0
 30 29  1  0  0  0
 30 31  1  0  0  0
 30 33  1  0  0  0
 31 32  1  0  0  0
 33 34  2  0  0  0
  1 35  1  0  0  0
  2 36  1  0  0  0
  2 37  1  0  0  0
  4 38  1  0  0  0
  5 39  1  0  0  0
  6 40  1  0  0  0
  7 41  1  0  0  0
  8 42  1  0  0  0
  9 43  1  0  0  0
 12 44  1  0  0  0
 12 45  1  0  0  0
 13 46  1  0  0  0
 13 47  1  0  0  0
 14 48  1  0  0  0
 15 49  1  0  0  0
 15 50  1  0  0  0
 16 51  1  0  0  0
 16 52  1  0  0  0
 17 53  1  0  0  0
 20 54  1  0  0  0
 21 55  1  0  0  0
 22 56  1  0  0  0
 22 57  1  0  0  0
 23 58  1  0  0  0
 23 59  1  0  0  0
 26 60  1  0  0  0
 26 61  1  0  0  0
 27 62  1  0  0  0
 27 63  1  0  0  0
 27 64  1  0  0  0
 29 65  1  0  0  0
 29 66  1  0  0  0
 30 67  1  0  0  0
 31 68  1  0  0  0
 31 69  1  0  0  0
 32 70  1  0  0  0
 32 71  1  0  0  0
M  END
$$$$
