4ynk_ligand
  -I-interpret- 

 81 86  0  0  0  0  0  0  0  0999 V2000
   13.7930    3.9110   26.7430 C   0  0  0  0  0
   13.0370    2.7450   27.1870 C   0  0  0  0  0
   12.3880    1.7820   27.4410 C   0  0  0  0  0
   11.5020    0.5700   27.5790 C   0  0  0  0  0
    9.9190   -2.3110   28.4840 O   0  0  0  0  0
   10.7500   -0.3450   27.5440 C   0  0  0  0  0
    9.7700   -1.4190   27.3720 C   0  0  0  0  0
    6.5440    0.5770   25.9510 C   0  0  0  0  0
    6.1340    1.2830   27.3150 C   0  0  0  0  0
    5.6240   -0.6900   25.7320 C   0  0  0  0  0
    8.0430    0.1000   26.0330 C   0  0  0  0  0
    7.7890   -0.1910   28.6410 C   0  0  0  0  0
    6.2840    0.2780   28.5400 C   0  0  0  0  0
    5.3770   -1.0010   28.2910 C   0  0  0  0  0
    5.7890   -1.7180   26.9350 C   0  0  0  0  0
    7.2980   -2.1780   27.0310 C   0  0  0  0  0
    8.2760   -0.9200   27.2760 C   0  0  0  0  0
   12.9890    5.0230   25.9490 C   0  0  0  0  0
   14.2190    5.7060   25.2590 C   0  0  0  0  0
   14.9500    4.4850   24.6510 C   0  0  0  0  0
   14.9830    3.5080   25.8210 C   0  0  0  0  0
   12.2930    6.0830   26.8750 C   0  0  0  0  0
   11.9370    7.4300   26.1510 C   0  0  0  0  0
   13.0920    8.0090   25.2760 C   0  0  0  0  0
   13.7550    6.9210   24.3960 C   0  0  0  0  0
   11.9110    4.4270   24.9180 C   0  0  0  0  0
   13.9000    6.9590   23.0820 C   0  0  0  0  0
   13.6560    8.0220   22.1720 C   0  0  0  0  0
   13.5340    7.8800   20.8650 C   0  0  0  0  0
   13.3760    9.1390   19.9800 C   0  0  0  0  0
   14.1540    9.0090   18.6190 C   0  0  0  0  0
   13.7680    7.6950   17.9040 C   0  0  0  0  0
   14.1240    6.4550   18.7400 C   0  0  0  0  0
   13.4070    6.5130   20.0920 C   0  0  0  0  0
   13.1190    7.6780   16.7160 C   0  0  0  0  0
   13.7370    5.2120   18.1260 O   0  0  0  0  0
   15.5700    9.0090   18.9040 O   0  0  0  0  0
   14.1087    4.3409   27.6936 H   0  0  0  0  0
   10.8303   -2.6088   28.5340 H   0  0  0  0  0
    9.9686   -1.9086   26.4186 H   0  0  0  0  0
    6.4247    1.2813   25.1277 H   0  0  0  0  0
    5.0936    1.6009   27.2470 H   0  0  0  0  0
    6.7905    2.1374   27.4793 H   0  0  0  0  0
    5.9166   -1.1824   24.8046 H   0  0  0  0  0
    4.5841   -0.3668   25.6842 H   0  0  0  0  0
    8.6762    0.9748   26.1809 H   0  0  0  0  0
    8.2908   -0.4206   25.1080 H   0  0  0  0  0
    7.8751   -0.9022   29.4625 H   0  0  0  0  0
    8.4142    0.6864   28.8064 H   0  0  0  0  0
    5.9783    0.7795   29.4582 H   0  0  0  0  0
    4.3347   -0.6891   28.2247 H   0  0  0  0  0
    5.5138   -1.6990   29.1170 H   0  0  0  0  0
    5.1522   -2.5861   26.7645 H   0  0  0  0  0
    7.5761   -2.6575   26.0925 H   0  0  0  0  0
    7.3994   -2.8663   27.8701 H   0  0  0  0  0
   14.9501    6.2412   25.8649 H   0  0  0  0  0
   15.9410    4.7268   24.2670 H   0  0  0  0  0
   14.4502    4.0816   23.7703 H   0  0  0  0  0
   14.8893    2.4770   25.4799 H   0  0  0  0  0
   15.9326    3.5586   26.3537 H   0  0  0  0  0
   12.9934    6.3220   27.6753 H   0  0  0  0  0
   11.3566    5.6448   27.2202 H   0  0  0  0  0
   11.7208    8.1650   26.9263 H   0  0  0  0  0
   11.0992    7.2256   25.4843 H   0  0  0  0  0
   13.8517    8.4181   25.9420 H   0  0  0  0  0
   12.6724    8.7702   24.6182 H   0  0  0  0  0
   11.5246    5.2318   24.2927 H   0  0  0  0  0
   12.3880    3.6744   24.2902 H   0  0  0  0  0
   11.0914    3.9718   25.4740 H   0  0  0  0  0
   14.2611    6.0356   22.6292 H   0  0  0  0  0
   13.5627    9.0275   22.5823 H   0  0  0  0  0
   13.7846    9.9902   20.5246 H   0  0  0  0  0
   12.3170    9.2650   19.7549 H   0  0  0  0  0
   13.8975    9.8439   17.9669 H   0  0  0  0  0
   15.2094    6.4764   18.8381 H   0  0  0  0  0
   12.3461    6.3675   19.8886 H   0  0  0  0  0
   13.8697    5.7541   20.7229 H   0  0  0  0  0
   12.8495    8.6150   16.2288 H   0  0  0  0  0
   12.8660    6.7273   16.2468 H   0  0  0  0  0
   13.9873    4.4825   18.6976 H   0  0  0  0  0
   16.0606    8.9302   18.0826 H   0  0  0  0  0
  2  1  1  0  0  0
  1 18  1  0  0  0
  1 21  1  0  0  0
  3  2  3  0  0  0
  4  3  1  0  0  0
  6  4  3  0  0  0
  7  5  1  0  0  0
  7  6  1  0  0  0
 17  7  1  0  0  0
  8  9  1  0  0  0
  8 10  1  0  0  0
 11  8  1  0  0  0
  9 13  1  0  0  0
 10 15  1  0  0  0
 11 17  1  0  0  0
 13 12  1  0  0  0
 12 17  1  0  0  0
 13 14  1  0  0  0
 14 15  1  0  0  0
 15 16  1  0  0  0
 16 17  1  0  0  0
 18 19  1  0  0  0
 18 22  1  0  0  0
 18 26  1  0  0  0
 19 20  1  0  0  0
 19 25  1  0  0  0
 20 21  1  0  0  0
 22 23  1  0  0  0
 23 24  1  0  0  0
 24 25  1  0  0  0
 25 27  2  0  0  0
 27 28  1  0  0  0
 28 29  2  0  0  0
 29 30  1  0  0  0
 29 34  1  0  0  0
 30 31  1  0  0  0
 31 32  1  0  0  0
 31 37  1  0  0  0
 32 33  1  0  0  0
 32 35  2  0  0  0
 33 34  1  0  0  0
 33 36  1  0  0  0
  1 38  1  0  0  0
  5 39  1  0  0  0
  7 40  1  0  0  0
  8 41  1  0  0  0
  9 42  1  0  0  0
  9 43  1  0  0  0
 10 44  1  0  0  0
 10 45  1  0  0  0
 11 46  1  0  0  0
 11 47  1  0  0  0
 12 48  1  0  0  0
 12 49  1  0  0  0
 13 50  1  0  0  0
 14 51  1  0  0  0
 14 52  1  0  0  0
 15 53  1  0  0  0
 16 54  1  0  0  0
 16 55  1  0  0  0
 19 56  1  0  0  0
 20 57  1  0  0  0
 20 58  1  0  0  0
 21 59  1  0  0  0
 21 60  1  0  0  0
 22 61  1  0  0  0
 22 62  1  0  0  0
 23 63  1  0  0  0
 23 64  1  0  0  0
 24 65  1  0  0  0
 24 66  1  0  0  0
 26 67  1  0  0  0
 26 68  1  0  0  0
 26 69  1  0  0  0
 27 70  1  0  0  0
 28 71  1  0  0  0
 30 72  1  0  0  0
 30 73  1  0  0  0
 31 74  1  0  0  0
 33 75  1  0  0  0
 34 76  1  0  0  0
 34 77  1  0  0  0
 35 78  1  0  0  0
 35 79  1  0  0  0
 36 80  1  0  0  0
 37 81  1  0  0  0
M  END
$$$$
