### 
### Created by X-TOOL on Mon Aug  2 16:16:19 2021
### 

@<TRIPOS>MOLECULE
6q8a_ligand
   55    56     1     0     0
SMALL
GAST_HUCK


@<TRIPOS>ATOM
      1 C2         -9.4340   -4.5840  -27.8390 C.2       1 HQ5         0.3488
      2 C4         -8.8530   -5.7480  -25.8910 C.2       1 HQ5         0.0853
      3 C5         -7.4630   -5.5540  -26.1430 C.2       1 HQ5         0.0019
      4 C6         -7.1230   -4.8710  -27.2480 C.2       1 HQ5         0.0739
      5 N          -0.1290   -1.2610  -28.5930 N.4       1 HQ5         0.2379
      6 CA         -1.1650   -0.2140  -28.6230 C.3       1 HQ5         0.0668
      7 C          -2.3490   -0.9490  -28.0240 C.2       1 HQ5         0.2460
      8 O          -3.4270   -0.4550  -27.7070 O.2       1 HQ5        -0.3891
      9 CB         -1.5010    0.3500  -30.0060 C.3       1 HQ5         0.0102
     10 CG         -0.5280    1.4150  -30.5080 C.3       1 HQ5        -0.0394
     11 CD1        -0.8770    1.7920  -31.9470 C.3       1 HQ5        -0.0623
     12 CD2        -0.5620    2.6530  -29.6200 C.3       1 HQ5        -0.0623
     13 C1'        -7.7000   -3.5700  -29.2730 C.3       1 HQ5         0.2109
     14 C2'        -7.2360   -2.1620  -28.9120 C.3       1 HQ5         0.1399
     15 C3'        -6.3150   -1.8510  -30.0930 C.3       1 HQ5         0.1148
     16 C4'        -5.6490   -3.2020  -30.3540 C.3       1 HQ5         0.1162
     17 C5'        -4.3040   -3.4330  -29.6870 C.3       1 HQ5         0.1073
     18 N1         -8.0760   -4.3750  -28.0990 N.am      1 HQ5        -0.1467
     19 N3         -9.7910   -5.2730  -26.7230 N.am      1 HQ5        -0.1924
     20 N3S        -2.1500   -2.3350  -27.8380 N.am      1 HQ5        -0.1294
     21 N4         -9.2570   -6.4240  -24.8160 N.2       1 HQ5        -0.4291
     22 O1S        -2.6680   -4.6550  -27.2400 O.2       1 HQ5        -0.1218
     23 O2        -10.2690   -4.1310  -28.6240 O.2       1 HQ5        -0.3777
     24 O2'        -8.3440   -1.2710  -28.8600 O.3       1 HQ5        -0.3835
     25 O2S        -3.7440   -2.7740  -26.0540 O.2       1 HQ5        -0.1218
     26 O3'        -7.0780   -1.4010  -31.2110 O.3       1 HQ5        -0.3864
     27 O4'        -6.6100   -4.1960  -29.9260 O.3       1 HQ5        -0.3356
     28 O5'        -4.4890   -3.3660  -28.2320 O.3       1 HQ5        -0.2161
     29 S          -3.2280   -3.3520  -27.2450 S.o2      1 HQ5         0.1859
     30 H1         -6.7058   -5.9450  -25.4650 H         1 HQ5         0.0330
     31 H2         -6.0699   -4.7081  -27.4723 H         1 HQ5         0.1288
     32 H3          0.7299   -0.8948  -28.9728 H         1 HQ5         0.2015
     33 H4         -0.4313   -2.0487  -29.1445 H         1 HQ5         0.2015
     34 H5          0.0233   -1.5558  -27.6412 H         1 HQ5         0.2015
     35 H6         -0.8634    0.6263  -27.9804 H         1 HQ5         0.1099
     36 H7         -2.5054    0.7961  -29.9606 H         1 HQ5         0.0348
     37 H8         -1.5014   -0.4819  -30.7257 H         1 HQ5         0.0348
     38 H9          0.4898    0.9982  -30.4873 H         1 HQ5         0.0299
     39 H10        -0.1748    2.5589  -32.3057 H         1 HQ5         0.0232
     40 H11        -1.9026    2.1880  -31.9839 H         1 HQ5         0.0232
     41 H12        -0.8048    0.9006  -32.5874 H         1 HQ5         0.0232
     42 H13        -0.3095    2.3705  -28.5873 H         1 HQ5         0.0232
     43 H14        -1.5696    3.0937  -29.6436 H         1 HQ5         0.0232
     44 H15         0.1686    3.3884  -29.9880 H         1 HQ5         0.0232
     45 H16        -8.5635   -3.5059  -29.9515 H         1 HQ5         0.1013
     46 H17        -6.6935   -2.1395  -27.9554 H         1 HQ5         0.0677
     47 H18        -5.5679   -1.0880  -29.8290 H         1 HQ5         0.0648
     48 H19        -5.4901   -3.2978  -31.4382 H         1 HQ5         0.0648
     49 H20        -3.5929   -2.6572  -30.0069 H         1 HQ5         0.0611
     50 H21        -3.9162   -4.4237  -29.9666 H         1 HQ5         0.0611
     51 H22       -10.7584   -5.4264  -26.5214 H         1 HQ5         0.2412
     52 H23        -1.2606   -2.7100  -28.0993 H         1 HQ5         0.2167
     53 H24        -8.5784   -6.7950  -24.1695 H         1 HQ5         0.0340
     54 H25        -8.0282   -0.3799  -28.7671 H         1 HQ5         0.2101
     55 H26        -7.7596   -2.0342  -31.4033 H         1 HQ5         0.2100
@<TRIPOS>BOND
     1   18    1 am 
     2    1   19 am 
     3    1   23 2  
     4    3    2 1  
     5   19    2 1  
     6    2   21 2  
     7    4    3 2  
     8   18    4 1  
     9    6    5 1  
    10    7    6 1  
    11    6    9 1  
    12    7    8 2  
    13   20    7 am 
    14    9   10 1  
    15   10   11 1  
    16   10   12 1  
    17   13   14 1  
    18   13   18 1  
    19   27   13 1  
    20   15   14 1  
    21   14   24 1  
    22   16   15 1  
    23   15   26 1  
    24   17   16 1  
    25   16   27 1  
    26   28   17 1  
    27   29   20 am 
    28   29   22 2  
    29   29   25 2  
    30   28   29 1  
    31    3   30 1  
    32    4   31 1  
    33    5   32 1  
    34    5   33 1  
    35    5   34 1  
    36    6   35 1  
    37    9   36 1  
    38    9   37 1  
    39   10   38 1  
    40   11   39 1  
    41   11   40 1  
    42   11   41 1  
    43   12   42 1  
    44   12   43 1  
    45   12   44 1  
    46   13   45 1  
    47   14   46 1  
    48   15   47 1  
    49   16   48 1  
    50   17   49 1  
    51   17   50 1  
    52   19   51 1  
    53   20   52 1  
    54   21   53 1  
    55   24   54 1  
    56   26   55 1  
@<TRIPOS>SUBSTRUCTURE
     1 HQ5         1

