6q8a_ligand
  -I-interpret- 

 55 56  0  0  0  0  0  0  0  0999 V2000
   -9.4340   -4.5840  -27.8390 C   0  0  0  0  0
   -8.8530   -5.7480  -25.8910 C   0  0  0  0  0
   -7.4630   -5.5540  -26.1430 C   0  0  0  0  0
   -7.1230   -4.8710  -27.2480 C   0  0  0  0  0
   -0.1290   -1.2610  -28.5930 N   0  3  0  0  0
   -1.1650   -0.2140  -28.6230 C   0  0  0  0  0
   -2.3490   -0.9490  -28.0240 C   0  0  0  0  0
   -3.4270   -0.4550  -27.7070 O   0  0  0  0  0
   -1.5010    0.3500  -30.0060 C   0  0  0  0  0
   -0.5280    1.4150  -30.5080 C   0  0  0  0  0
   -0.8770    1.7920  -31.9470 C   0  0  0  0  0
   -0.5620    2.6530  -29.6200 C   0  0  0  0  0
   -7.7000   -3.5700  -29.2730 C   0  0  0  0  0
   -7.2360   -2.1620  -28.9120 C   0  0  0  0  0
   -6.3150   -1.8510  -30.0930 C   0  0  0  0  0
   -5.6490   -3.2020  -30.3540 C   0  0  0  0  0
   -4.3040   -3.4330  -29.6870 C   0  0  0  0  0
   -8.0760   -4.3750  -28.0990 N   0  0  0  0  0
   -9.7910   -5.2730  -26.7230 N   0  0  0  0  0
   -2.1500   -2.3350  -27.8380 N   0  0  0  0  0
   -9.2570   -6.4240  -24.8160 N   0  0  0  0  0
   -2.6680   -4.6550  -27.2400 O   0  0  0  0  0
  -10.2690   -4.1310  -28.6240 O   0  0  0  0  0
   -8.3440   -1.2710  -28.8600 O   0  0  0  0  0
   -3.7440   -2.7740  -26.0540 O   0  0  0  0  0
   -7.0780   -1.4010  -31.2110 O   0  0  0  0  0
   -6.6100   -4.1960  -29.9260 O   0  0  0  0  0
   -4.4890   -3.3660  -28.2320 O   0  0  0  0  0
   -3.2280   -3.3520  -27.2450 S   0  0  0  0  0
   -6.7051   -5.9453  -25.4643 H   0  0  0  0  0
   -6.0689   -4.7079  -27.4725 H   0  0  0  0  0
    0.7396   -0.8893  -28.9775 H   0  0  0  0  0
    0.0242   -1.5585  -27.6295 H   0  0  0  0  0
   -0.4360   -2.0575  -29.1513 H   0  0  0  0  0
   -0.8431    0.6828  -28.0936 H   0  0  0  0  0
   -2.4801    0.8228  -29.9289 H   0  0  0  0  0
   -1.4555   -0.4813  -30.7096 H   0  0  0  0  0
    0.4809    1.0038  -30.4734 H   0  0  0  0  0
   -0.8052    0.9079  -32.5805 H   0  0  0  0  0
   -1.8934    2.1841  -31.9822 H   0  0  0  0  0
   -0.1805    2.5519  -32.3013 H   0  0  0  0  0
   -1.5684    3.0717  -29.6209 H   0  0  0  0  0
   -0.2829    2.3770  -28.6031 H   0  0  0  0  0
    0.1410    3.3927  -30.0030 H   0  0  0  0  0
   -8.5909   -3.4982  -29.8969 H   0  0  0  0  0
   -6.7546   -2.0686  -27.9385 H   0  0  0  0  0
   -5.5928   -1.0565  -29.9051 H   0  0  0  0  0
   -5.3984   -3.2545  -31.4135 H   0  0  0  0  0
   -3.5936   -2.6710  -30.0076 H   0  0  0  0  0
   -3.9119   -4.4105  -29.9680 H   0  0  0  0  0
  -10.7777   -5.4295  -26.5174 H   0  0  0  0  0
   -1.2428   -2.7175  -28.1046 H   0  0  0  0  0
  -10.2529   -6.5660  -24.6473 H   0  0  0  0  0
   -8.0352   -0.3911  -28.6320 H   0  0  0  0  0
   -6.4878   -1.2099  -31.9437 H   0  0  0  0  0
 18  1  1  0  0  0
  1 19  1  0  0  0
  1 23  2  0  0  0
  3  2  1  0  0  0
 19  2  1  0  0  0
  2 21  2  0  0  0
  4  3  2  0  0  0
 18  4  1  0  0  0
  6  5  1  0  0  0
  7  6  1  0  0  0
  6  9  1  0  0  0
  7  8  2  0  0  0
 20  7  1  0  0  0
  9 10  1  0  0  0
 10 11  1  0  0  0
 10 12  1  0  0  0
 13 14  1  0  0  0
 13 18  1  0  0  0
 27 13  1  0  0  0
 15 14  1  0  0  0
 14 24  1  0  0  0
 16 15  1  0  0  0
 15 26  1  0  0  0
 17 16  1  0  0  0
 16 27  1  0  0  0
 28 17  1  0  0  0
 29 20  1  0  0  0
 29 22  2  0  0  0
 29 25  2  0  0  0
 28 29  1  0  0  0
  3 30  1  0  0  0
  4 31  1  0  0  0
  5 32  1  0  0  0
  5 33  1  0  0  0
  5 34  1  0  0  0
  6 35  1  0  0  0
  9 36  1  0  0  0
  9 37  1  0  0  0
 10 38  1  0  0  0
 11 39  1  0  0  0
 11 40  1  0  0  0
 11 41  1  0  0  0
 12 42  1  0  0  0
 12 43  1  0  0  0
 12 44  1  0  0  0
 13 45  1  0  0  0
 14 46  1  0  0  0
 15 47  1  0  0  0
 16 48  1  0  0  0
 17 49  1  0  0  0
 17 50  1  0  0  0
 19 51  1  0  0  0
 20 52  1  0  0  0
 21 53  1  0  0  0
 24 54  1  0  0  0
 26 55  1  0  0  0
M  END
$$$$
