4oc3_ligand
  -I-interpret- 

 56 57  0  0  0  0  0  0  0  0999 V2000
   23.5420   48.4170   46.9890 C   0  0  0  0  0
   23.6350   48.6930   48.4010 C   0  0  0  0  0
   23.4960   49.9610   49.0240 C   0  0  0  0  0
   23.6330   50.3120   51.2530 I   0  0  0  0  0
   23.2600   50.9540   48.0470 C   0  0  0  0  0
   23.1480   50.7100   46.6430 C   0  0  0  0  0
   23.3180   49.4300   46.0500 C   0  0  0  0  0
   23.0690   49.3140   44.4840 C   0  0  0  0  0
   22.2040   50.0610   44.0340 O   0  0  0  0  0
   23.3180   48.3290   43.6230 N   0  0  0  0  0
   24.1610   47.1780   43.5600 C   0  0  0  0  0
   23.3880   46.1990   42.6170 C   0  0  0  0  0
   22.4410   45.3200   43.4960 C   0  0  0  0  0
   20.9780   45.8210   43.3730 C   0  0  0  0  0
   19.9930   45.0680   44.2890 C   0  0  0  0  0
   20.1320   45.6530   45.7000 C   0  0  0  0  0
   20.7440   44.9330   46.5430 O   0  0  0  0  0
   19.5890   46.7800   45.9150 O   0  0  0  0  0
   18.6620   45.4640   43.7910 N   0  0  0  0  0
   17.9510   44.7800   42.9120 C   0  0  0  0  0
   18.3610   43.7350   42.4370 O   0  0  0  0  0
   16.7260   45.1980   42.5800 N   0  0  0  0  0
   16.0350   44.5370   41.4640 C   0  0  0  0  0
   16.9810   44.6730   40.1930 C   0  0  0  0  0
   16.7710   43.8720   39.2410 O   0  0  0  0  0
   17.9360   45.5130   40.2140 O   0  0  0  0  0
   14.6310   45.0830   41.1990 C   0  0  0  0  0
   14.5230   46.5450   40.7410 C   0  0  0  0  0
   13.4670   47.3200   40.7650 C   0  0  0  0  0
   13.7530   48.5240   40.2640 C   0  0  0  0  0
   15.0000   48.5480   39.8370 C   0  0  0  0  0
   15.5370   47.2750   40.1480 O   0  0  0  0  0
   23.6493   47.3890   46.6427 H   0  0  0  0  0
   23.8316   47.8436   49.0552 H   0  0  0  0  0
   23.1555   51.9835   48.3896 H   0  0  0  0  0
   22.9194   51.5530   45.9909 H   0  0  0  0  0
   22.7529   48.4220   42.7790 H   0  0  0  0  0
   24.3470   46.7461   44.5433 H   0  0  0  0  0
   25.1573   47.4138   43.1859 H   0  0  0  0  0
   24.0915   45.5662   42.0760 H   0  0  0  0  0
   22.8062   46.7625   41.8876 H   0  0  0  0  0
   22.7553   45.3885   44.5375 H   0  0  0  0  0
   22.4942   44.2864   43.1541 H   0  0  0  0  0
   20.6601   45.6563   42.3435 H   0  0  0  0  0
   20.9644   46.8701   43.6684 H   0  0  0  0  0
   20.1564   43.9904   44.3002 H   0  0  0  0  0
   19.1958   47.1049   45.1017 H   0  0  0  0  0
   18.2610   46.3297   44.1518 H   0  0  0  0  0
   16.2798   45.9600   43.0905 H   0  0  0  0  0
   15.8624   43.4902   41.7141 H   0  0  0  0  0
   17.9013   46.0149   41.0316 H   0  0  0  0  0
   14.1080   45.0321   42.1540 H   0  0  0  0  0
   14.2302   44.4854   40.3802 H   0  0  0  0  0
   12.4887   47.0225   41.1424 H   0  0  0  0  0
   13.0585   49.3627   40.2153 H   0  0  0  0  0
   15.5117   49.3760   39.3463 H   0  0  0  0  0
  1  2  4  0  0  0
  1  7  4  0  0  0
  2  3  4  0  0  0
  3  4  1  0  0  0
  3  5  4  0  0  0
  5  6  4  0  0  0
  6  7  4  0  0  0
  7  8  1  0  0  0
  8  9  2  0  0  0
  8 10  1  0  0  0
 10 11  1  0  0  0
 11 12  1  0  0  0
 12 13  1  0  0  0
 13 14  1  0  0  0
 14 15  1  0  0  0
 15 16  1  0  0  0
 15 19  1  0  0  0
 16 17  2  0  0  0
 16 18  1  0  0  0
 19 20  1  0  0  0
 20 21  2  0  0  0
 20 22  1  0  0  0
 22 23  1  0  0  0
 23 24  1  0  0  0
 23 27  1  0  0  0
 24 25  2  0  0  0
 24 26  1  0  0  0
 27 28  1  0  0  0
 28 29  4  0  0  0
 28 32  4  0  0  0
 29 30  4  0  0  0
 30 31  4  0  0  0
 31 32  4  0  0  0
  1 33  1  0  0  0
  2 34  1  0  0  0
  5 35  1  0  0  0
  6 36  1  0  0  0
 10 37  1  0  0  0
 11 38  1  0  0  0
 11 39  1  0  0  0
 12 40  1  0  0  0
 12 41  1  0  0  0
 13 42  1  0  0  0
 13 43  1  0  0  0
 14 44  1  0  0  0
 14 45  1  0  0  0
 15 46  1  0  0  0
 18 47  1  0  0  0
 19 48  1  0  0  0
 22 49  1  0  0  0
 23 50  1  0  0  0
 26 51  1  0  0  0
 27 52  1  0  0  0
 27 53  1  0  0  0
 29 54  1  0  0  0
 30 55  1  0  0  0
 31 56  1  0  0  0
M  END
$$$$
