5u9d_ligand
  -I-interpret- 

 59 64  0  0  0  0  0  0  0  0999 V2000
   -8.8590   10.5050  -11.2980 C   0  0  0  0  0
   -9.3020    8.1270  -11.8620 C   0  0  0  0  0
   -9.8970    7.0580  -12.7870 C   0  0  0  0  0
  -10.4100    5.8570  -12.0200 C   0  0  0  0  0
  -11.7020    6.2270  -11.3810 C   0  0  0  0  0
  -12.8480    4.1240   -8.4990 C   0  0  0  0  0
  -13.9950    4.8570   -8.2190 C   0  0  0  0  0
  -12.4660    7.2880  -11.7270 C   0  0  0  0  0
  -12.1530    8.2420  -12.8610 C   0  0  0  0  0
  -10.9780    7.4410  -14.9530 C   0  0  0  0  0
  -10.0510    6.8330  -15.4690 O   0  0  0  0  0
  -11.9580    8.0740  -15.8310 C   0  0  0  0  0
  -13.2740    9.6790  -16.5060 C   0  0  0  0  0
  -13.2040    8.7810  -17.5080 C   0  0  0  0  0
  -16.2820    5.0500  -19.6110 C   0  0  0  0  0
  -16.8790    5.0120  -18.3370 C   0  0  0  0  0
  -18.6420    4.6400  -16.9520 C   0  0  0  0  0
  -17.8690    5.0040  -15.8240 C   0  0  0  0  0
  -16.0970    5.4020  -17.1910 C   0  0  0  0  0
  -14.7680    5.7940  -17.3720 C   0  0  0  0  0
   -9.4020    9.4540  -12.1600 N   0  0  0  0  0
   -8.7220    7.7820  -10.8480 O   0  0  0  0  0
  -12.3280    5.5840  -10.2750 C   0  0  0  0  0
  -11.9850    4.4590   -9.5100 C   0  0  0  0  0
  -14.3610    5.9650   -8.9740 C   0  0  0  0  0
  -13.4930    6.3350  -10.0010 C   0  0  0  0  0
  -13.5400    7.3450  -10.9130 N   0  0  0  0  0
  -11.0180    7.6190  -13.6140 N   0  0  0  0  0
  -12.4980    9.2900  -15.5140 O   0  0  0  0  0
  -12.3280    7.7680  -17.0940 C   0  0  0  0  0
  -11.9300    6.5250  -17.8550 C   0  0  0  0  0
  -12.8980    6.2220  -18.8960 N   0  0  0  0  0
  -14.2130    5.8220  -18.6510 C   0  0  0  0  0
  -14.9960    5.4420  -19.7660 C   0  0  0  0  0
  -18.1440    4.6260  -18.1730 N   0  0  0  0  0
  -16.6150    5.3910  -15.9550 N   0  0  0  0  0
   -9.3304   10.4481  -10.3169 H   0  0  0  0  0
   -7.7827   10.3678  -11.1939 H   0  0  0  0  0
   -9.0610   11.4790  -11.7436 H   0  0  0  0  0
   -9.0848    6.7346  -13.4380 H   0  0  0  0  0
   -9.6873    5.5632  -11.2588 H   0  0  0  0  0
  -10.5556    5.0154  -12.6973 H   0  0  0  0  0
  -12.6257    3.2476   -7.8903 H   0  0  0  0  0
  -14.6258    4.5542   -7.3832 H   0  0  0  0  0
  -11.8864    9.2303  -12.4866 H   0  0  0  0  0
  -13.0203    8.3936  -13.5035 H   0  0  0  0  0
  -13.8783   10.5861  -16.5144 H   0  0  0  0  0
  -13.7298    8.8325  -18.4614 H   0  0  0  0  0
  -16.8640    4.7594  -20.4856 H   0  0  0  0  0
  -19.6857    4.3614  -16.8065 H   0  0  0  0  0
  -18.3170    4.9639  -14.8311 H   0  0  0  0  0
  -14.1634    6.0787  -16.5109 H   0  0  0  0  0
   -9.8759    9.7260  -13.0213 H   0  0  0  0  0
  -11.0814    3.8827   -9.7088 H   0  0  0  0  0
  -15.2795    6.5166   -8.7737 H   0  0  0  0  0
  -11.8889    5.6865  -17.1598 H   0  0  0  0  0
  -10.9581    6.6940  -18.3186 H   0  0  0  0  0
  -12.5976    6.3070  -19.8670 H   0  0  0  0  0
  -14.5576    5.4652  -20.7637 H   0  0  0  0  0
 21  1  1  0  0  0
  3  2  1  0  0  0
  2 21  1  0  0  0
  2 22  2  0  0  0
  3  4  1  0  0  0
 28  3  1  0  0  0
  4  5  1  0  0  0
  8  5  4  0  0  0
  5 23  4  0  0  0
  7  6  4  0  0  0
 24  6  4  0  0  0
 25  7  4  0  0  0
  9  8  1  0  0  0
  8 27  4  0  0  0
 28  9  1  0  0  0
 10 11  2  0  0  0
 12 10  1  0  0  0
 10 28  1  0  0  0
 12 29  4  0  0  0
 30 12  4  0  0  0
 14 13  4  0  0  0
 13 29  4  0  0  0
 30 14  4  0  0  0
 16 15  4  0  0  0
 15 34  4  0  0  0
 19 16  4  0  0  0
 16 35  4  0  0  0
 18 17  4  0  0  0
 35 17  4  0  0  0
 36 18  4  0  0  0
 20 19  4  0  0  0
 19 36  4  0  0  0
 33 20  4  0  0  0
 23 24  4  0  0  0
 26 23  4  0  0  0
 26 25  4  0  0  0
 27 26  4  0  0  0
 31 30  1  0  0  0
 32 31  1  0  0  0
 32 33  1  0  0  0
 33 34  4  0  0  0
  1 37  1  0  0  0
  1 38  1  0  0  0
  1 39  1  0  0  0
  3 40  1  0  0  0
  4 41  1  0  0  0
  4 42  1  0  0  0
  6 43  1  0  0  0
  7 44  1  0  0  0
  9 45  1  0  0  0
  9 46  1  0  0  0
 13 47  1  0  0  0
 14 48  1  0  0  0
 15 49  1  0  0  0
 17 50  1  0  0  0
 18 51  1  0  0  0
 20 52  1  0  0  0
 21 53  1  0  0  0
 24 54  1  0  0  0
 25 55  1  0  0  0
 31 56  1  0  0  0
 31 57  1  0  0  0
 32 58  1  0  0  0
 34 59  1  0  0  0
M  END
$$$$
