6agg_ligand
  -I-interpret- 

 24 23  0  0  0  0  0  0  0  0999 V2000
   28.8420   11.4770   45.9900 N   0  3  0  0  0
   28.1720   12.4750   46.7860 C   0  0  0  0  0
   26.9810   13.1440   46.1860 C   0  0  0  0  0
   26.1170   13.9970   47.0540 C   0  0  0  0  0
   25.1270   14.8920   46.3820 C   0  0  0  0  0
   24.8870   16.1970   46.9170 N   0  0  0  0  0
   23.9210   17.0620   46.2990 C   0  0  0  0  0
   23.2540   16.6710   45.2420 N   0  0  0  0  0
   23.7140   18.2470   46.7980 N   0  0  0  0  0
   29.6329   11.1012   46.5132 H   0  0  0  0  0
   28.1894   10.7244   45.7707 H   0  0  0  0  0
   29.1761   11.9018   45.1249 H   0  0  0  0  0
   28.9051   13.2658   46.9453 H   0  0  0  0  0
   27.8025   11.9500   47.6669 H   0  0  0  0  0
   26.3348   12.3286   45.8610 H   0  0  0  0  0
   27.3881   13.8252   45.4388 H   0  0  0  0  0
   26.8001   14.6620   47.5824 H   0  0  0  0  0
   25.5251   13.3021   47.6497 H   0  0  0  0  0
   24.1733   14.3727   46.4765 H   0  0  0  0  0
   25.5414   15.0699   45.3897 H   0  0  0  0  0
   25.4025   16.5135   47.7383 H   0  0  0  0  0
   22.5724   17.2946   44.8096 H   0  0  0  0  0
   23.4161   15.7429   44.8512 H   0  0  0  0  0
   23.0324   18.8705   46.3656 H   0  0  0  0  0
  1  2  1  0  0  0
  2  3  1  0  0  0
  3  4  1  0  0  0
  4  5  1  0  0  0
  5  6  1  0  0  0
  6  7  1  0  0  0
  7  8  1  0  0  0
  7  9  2  0  0  0
  1 10  1  0  0  0
  1 11  1  0  0  0
  1 12  1  0  0  0
  2 13  1  0  0  0
  2 14  1  0  0  0
  3 15  1  0  0  0
  3 16  1  0  0  0
  4 17  1  0  0  0
  4 18  1  0  0  0
  5 19  1  0  0  0
  5 20  1  0  0  0
  6 21  1  0  0  0
  8 22  1  0  0  0
  8 23  1  0  0  0
  9 24  1  0  0  0
M  END
$$$$
