4u0f_ligand
  -I-interpret- 

 34 37  0  0  0  0  0  0  0  0999 V2000
  -13.2910   84.1700    4.9020 C   0  0  0  0  0
  -12.0820   84.5410    4.3090 C   0  0  0  0  0
  -11.2820   83.5780    3.6980 C   0  0  0  0  0
  -10.1020   83.9290    3.1220 O   0  0  0  0  0
  -11.6880   82.2480    3.6800 C   0  0  0  0  0
  -12.8960   81.8740    4.2700 C   0  0  0  0  0
  -13.7180   82.8340    4.8740 C   0  0  0  0  0
  -14.9260   82.4700    5.5070 C   0  0  0  0  0
  -15.8270   81.6870    4.7540 C   0  0  0  0  0
  -14.5550   81.5800    6.6310 N   0  0  0  0  0
  -15.2060   80.4440    6.4430 C   0  0  0  0  0
  -15.1170   79.4590    7.1770 O   0  0  0  0  0
  -15.9720   80.5000    5.3580 C   0  0  0  0  0
  -16.8420   79.7910    4.6460 N   0  0  0  0  0
  -17.2310   80.4260    3.6990 N   0  0  0  0  0
  -16.6520   81.6300    3.6980 C   0  0  0  0  0
  -16.8700   82.5730    2.7530 C   0  0  0  0  0
  -16.6450   83.9330    2.9940 C   0  0  0  0  0
  -16.8710   84.8740    1.9900 C   0  0  0  0  0
  -17.3250   84.4820    0.7320 C   0  0  0  0  0
  -17.5520   83.1370    0.4760 C   0  0  0  0  0
  -17.3230   82.1980    1.4810 C   0  0  0  0  0
  -13.9076   84.9246    5.3904 H   0  0  0  0  0
  -11.7646   85.5836    4.3243 H   0  0  0  0  0
   -9.6834   83.1485    2.7515 H   0  0  0  0  0
  -11.0604   81.4950    3.2033 H   0  0  0  0  0
  -13.2020   80.8279    4.2608 H   0  0  0  0  0
  -15.4179   83.4140    5.7414 H   0  0  0  0  0
  -13.9215   81.7999    7.3996 H   0  0  0  0  0
  -16.2910   84.2587    3.9721 H   0  0  0  0  0
  -16.6902   85.9298    2.1917 H   0  0  0  0  0
  -17.5005   85.2261   -0.0449 H   0  0  0  0  0
  -17.9068   82.8170   -0.5037 H   0  0  0  0  0
  -17.5012   81.1433    1.2715 H   0  0  0  0  0
  1  2  4  0  0  0
  1  7  4  0  0  0
  2  3  4  0  0  0
  3  4  1  0  0  0
  3  5  4  0  0  0
  5  6  4  0  0  0
  6  7  4  0  0  0
  7  8  1  0  0  0
  8  9  1  0  0  0
  8 10  1  0  0  0
  9 13  4  0  0  0
  9 16  4  0  0  0
 10 11  1  0  0  0
 11 12  2  0  0  0
 11 13  1  0  0  0
 13 14  4  0  0  0
 14 15  4  0  0  0
 15 16  4  0  0  0
 16 17  1  0  0  0
 17 18  4  0  0  0
 17 22  4  0  0  0
 18 19  4  0  0  0
 19 20  4  0  0  0
 20 21  4  0  0  0
 21 22  4  0  0  0
  1 23  1  0  0  0
  2 24  1  0  0  0
  4 25  1  0  0  0
  5 26  1  0  0  0
  6 27  1  0  0  0
  8 28  1  0  0  0
 10 29  1  0  0  0
 18 30  1  0  0  0
 19 31  1  0  0  0
 20 32  1  0  0  0
 21 33  1  0  0  0
 22 34  1  0  0  0
M  END
$$$$
