4z2l_ligand
  -I-interpret- 

 99 99  0  0  0  0  0  0  0  0999 V2000
  -20.1550    1.6920  -30.9400 N   0  0  0  0  0
  -23.6620    4.1430  -31.6140 C   0  0  0  0  0
  -23.3490    2.7670  -32.2130 C   0  0  0  0  0
  -20.9580    1.9120  -33.0160 O   0  0  0  0  0
  -24.3800    0.5970  -33.1540 C   0  0  0  0  0
  -24.6240    5.1800  -33.4780 O   0  0  0  0  0
  -24.7770    4.8190  -32.3310 C   0  0  0  0  0
  -22.4680    5.0710  -31.6260 C   0  0  0  0  0
  -22.4340    2.1870  -31.2900 O   0  0  0  0  0
  -21.0980    2.0220  -31.8030 C   0  0  0  0  0
  -18.8400    1.1320  -31.2380 C   0  0  0  0  0
  -19.0180   -0.3890  -31.1610 C   0  0  0  0  0
  -19.3310   -0.8670  -29.7310 C   0  0  0  0  0
  -19.7200   -2.2790  -29.7910 N   0  0  0  0  0
  -20.5740   -2.8860  -29.0600 C   0  0  0  0  0
  -21.1340   -2.3130  -28.0940 N   0  0  0  0  0
  -20.8540   -4.1770  -29.1810 N   0  0  0  0  0
  -20.3230   -4.9570  -30.1310 C   0  0  0  0  0
  -19.3780   -4.5760  -30.8010 O   0  0  0  0  0
  -20.7930   -6.1250  -30.2430 N   0  0  0  0  0
  -20.3870   -7.2060  -31.1250 C   0  0  0  0  0
  -26.0550    4.9280  -31.6460 O   0  0  0  0  0
  -27.1340    5.5540  -32.3330 C   0  0  0  0  0
  -27.6140    6.6950  -31.4360 C   0  0  0  0  0
  -26.4300    7.4190  -30.8080 C   0  0  0  0  0
  -28.2390    4.5280  -32.5740 C   0  0  0  0  0
  -29.4480    5.2280  -32.8520 O   0  0  0  0  0
  -28.4860    3.6820  -31.3300 C   0  0  0  0  0
  -27.9030    3.6650  -33.7850 C   0  0  0  0  0
  -27.8820    4.5270  -34.9120 O   0  0  0  0  0
  -27.4900    2.3910  -36.0410 O   0  0  0  0  0
  -28.4690    1.6910  -35.2860 C   0  0  0  0  0
  -28.8860    2.5230  -34.0790 C   0  0  0  0  0
  -30.2780    3.0630  -34.3520 C   0  0  0  0  0
  -27.9000    0.3370  -34.9060 C   0  0  0  0  0
  -29.0840   -0.5500  -34.5390 C   0  0  0  0  0
  -26.8560    0.4320  -33.7820 C   0  0  0  0  0
  -25.4030    0.4870  -34.2800 C   0  0  0  0  0
  -25.1530    1.6330  -35.0590 O   0  0  0  0  0
  -25.0970   -0.7200  -35.1340 C   0  0  0  0  0
  -24.5970    1.8810  -32.3520 C   0  0  0  0  0
  -25.1650    1.5240  -30.9880 C   0  0  0  0  0
  -24.4700   -0.5770  -32.3300 O   0  0  0  0  0
  -23.1720   -0.9990  -31.9280 C   0  0  0  0  0
  -23.1940   -2.4030  -31.5010 C   0  0  0  0  0
  -23.2170   -3.6360  -31.1590 C   0  0  0  0  0
  -20.3691    1.8455  -29.9546 H   0  0  0  0  0
  -23.9486    3.9432  -30.5815 H   0  0  0  0  0
  -22.9513    2.8591  -33.2237 H   0  0  0  0  0
  -23.3731    0.6539  -33.5676 H   0  0  0  0  0
  -22.1818    5.2795  -32.6569 H   0  0  0  0  0
  -22.7287    6.0029  -31.1244 H   0  0  0  0  0
  -21.6359    4.5971  -31.1053 H   0  0  0  0  0
  -18.0864    1.4830  -30.5330 H   0  0  0  0  0
  -18.4853    1.4442  -32.2202 H   0  0  0  0  0
  -18.0854   -0.8558  -31.4779 H   0  0  0  0  0
  -19.8556   -0.6651  -31.8016 H   0  0  0  0  0
  -20.1420   -0.2740  -29.3082 H   0  0  0  0  0
  -18.4523   -0.7484  -29.0970 H   0  0  0  0  0
  -19.2535   -2.8440  -30.5006 H   0  0  0  0  0
  -21.7497   -2.8408  -27.4753 H   0  0  0  0  0
  -21.5730   -6.3407  -29.6221 H   0  0  0  0  0
  -20.4909   -6.8858  -32.1617 H   0  0  0  0  0
  -19.3470   -7.4646  -30.9258 H   0  0  0  0  0
  -21.0196   -8.0756  -30.9468 H   0  0  0  0  0
  -26.8351    5.9438  -33.3060 H   0  0  0  0  0
  -28.2363    6.2819  -30.6422 H   0  0  0  0  0
  -28.1811    7.4036  -32.0396 H   0  0  0  0  0
  -25.8530    6.7160  -30.2072 H   0  0  0  0  0
  -25.7981    7.8302  -31.5952 H   0  0  0  0  0
  -26.7947    8.2270  -30.1738 H   0  0  0  0  0
  -30.1541    4.5961  -33.0062 H   0  0  0  0  0
  -27.5709    3.1527  -31.0645 H   0  0  0  0  0
  -28.7851    4.3292  -30.5055 H   0  0  0  0  0
  -29.2780    2.9613  -31.5337 H   0  0  0  0  0
  -26.9504    3.1811  -33.5695 H   0  0  0  0  0
  -27.6728    4.0182  -35.6987 H   0  0  0  0  0
  -27.2327    1.8609  -36.7989 H   0  0  0  0  0
  -29.3736    1.5239  -35.8707 H   0  0  0  0  0
  -28.8824    1.8922  -33.1901 H   0  0  0  0  0
  -30.6303    3.6134  -33.4797 H   0  0  0  0  0
  -30.2454    3.7287  -35.2145 H   0  0  0  0  0
  -30.9544    2.2333  -34.5572 H   0  0  0  0  0
  -27.3517   -0.0950  -35.7432 H   0  0  0  0  0
  -29.6226   -0.1067  -33.7014 H   0  0  0  0  0
  -29.7511   -0.6365  -35.3966 H   0  0  0  0  0
  -28.7220   -1.5388  -34.2574 H   0  0  0  0  0
  -26.9548   -0.4664  -33.1727 H   0  0  0  0  0
  -27.0473    1.3587  -33.2410 H   0  0  0  0  0
  -24.2378    1.6282  -35.3487 H   0  0  0  0  0
  -25.2382   -1.6259  -34.5444 H   0  0  0  0  0
  -25.7682   -0.7355  -35.9927 H   0  0  0  0  0
  -24.0645   -0.6669  -35.4792 H   0  0  0  0  0
  -25.3044    2.4880  -32.9169 H   0  0  0  0  0
  -26.1151    1.0053  -31.1159 H   0  0  0  0  0
  -24.4638    0.8760  -30.4621 H   0  0  0  0  0
  -25.3220    2.4355  -30.4113 H   0  0  0  0  0
  -22.8428   -0.3811  -31.0926 H   0  0  0  0  0
  -22.4905   -0.8975  -32.7726 H   0  0  0  0  0
 10  1  1  0  0  0
  1 11  1  0  0  0
  2  3  1  0  0  0
  7  2  1  0  0  0
  2  8  1  0  0  0
  3  9  1  0  0  0
  3 41  1  0  0  0
 10  4  2  0  0  0
  5 38  1  0  0  0
 41  5  1  0  0  0
  5 43  1  0  0  0
  7  6  2  0  0  0
 22  7  1  0  0  0
  9 10  1  0  0  0
 11 12  1  0  0  0
 12 13  1  0  0  0
 13 14  1  0  0  0
 14 15  1  0  0  0
 15 16  2  0  0  0
 15 17  4  0  0  0
 17 18  1  0  0  0
 18 19  2  0  0  0
 18 20  1  0  0  0
 20 21  1  0  0  0
 23 22  1  0  0  0
 23 24  1  0  0  0
 26 23  1  0  0  0
 24 25  1  0  0  0
 26 27  1  0  0  0
 26 28  1  0  0  0
 29 26  1  0  0  0
 29 30  1  0  0  0
 33 29  1  0  0  0
 32 31  1  0  0  0
 32 33  1  0  0  0
 32 35  1  0  0  0
 33 34  1  0  0  0
 35 36  1  0  0  0
 35 37  1  0  0  0
 37 38  1  0  0  0
 38 39  1  0  0  0
 38 40  1  0  0  0
 41 42  1  0  0  0
 43 44  1  0  0  0
 44 45  1  0  0  0
 45 46  3  0  0  0
  1 47  1  0  0  0
  2 48  1  0  0  0
  3 49  1  0  0  0
  5 50  1  0  0  0
  8 51  1  0  0  0
  8 52  1  0  0  0
  8 53  1  0  0  0
 11 54  1  0  0  0
 11 55  1  0  0  0
 12 56  1  0  0  0
 12 57  1  0  0  0
 13 58  1  0  0  0
 13 59  1  0  0  0
 14 60  1  0  0  0
 16 61  1  0  0  0
 20 62  1  0  0  0
 21 63  1  0  0  0
 21 64  1  0  0  0
 21 65  1  0  0  0
 23 66  1  0  0  0
 24 67  1  0  0  0
 24 68  1  0  0  0
 25 69  1  0  0  0
 25 70  1  0  0  0
 25 71  1  0  0  0
 27 72  1  0  0  0
 28 73  1  0  0  0
 28 74  1  0  0  0
 28 75  1  0  0  0
 29 76  1  0  0  0
 30 77  1  0  0  0
 31 78  1  0  0  0
 32 79  1  0  0  0
 33 80  1  0  0  0
 34 81  1  0  0  0
 34 82  1  0  0  0
 34 83  1  0  0  0
 35 84  1  0  0  0
 36 85  1  0  0  0
 36 86  1  0  0  0
 36 87  1  0  0  0
 37 88  1  0  0  0
 37 89  1  0  0  0
 39 90  1  0  0  0
 40 91  1  0  0  0
 40 92  1  0  0  0
 40 93  1  0  0  0
 41 94  1  0  0  0
 42 95  1  0  0  0
 42 96  1  0  0  0
 42 97  1  0  0  0
 44 98  1  0  0  0
 44 99  1  0  0  0
M  END
$$$$
