2wcg_ligand
  -I-interpret- 

 27 28  0  0  0  0  0  0  0  0999 V2000
  -24.5140  -17.0110  -38.3320 N   0  0  0  0  0
  -24.3030  -16.5890  -39.5890 C   0  0  0  0  0
  -23.4540  -15.6180  -39.9860 N   0  0  0  0  0
  -23.5070  -15.4480  -41.4370 C   0  0  0  0  0
  -24.5410  -16.5030  -41.8660 C   0  0  0  0  0
  -24.9760  -17.1480  -40.6480 N   0  0  0  0  0
  -25.9600  -18.1570  -40.6510 C   0  0  0  0  0
  -25.6760  -19.3890  -40.1450 O   0  0  0  0  0
  -26.8270  -18.2540  -41.9000 C   0  0  0  0  0
  -26.9570  -19.5750  -42.4770 O   0  0  0  0  0
  -26.4850  -17.2570  -43.0140 C   0  0  0  0  0
  -27.7150  -16.8290  -43.5320 O   0  0  0  0  0
  -25.7960  -16.0120  -42.4650 C   0  0  0  0  0
  -25.4830  -15.0600  -43.4370 O   0  0  0  0  0
  -25.1835  -17.7588  -38.1507 H   0  0  0  0  0
  -22.8575  -15.0772  -39.3599 H   0  0  0  0  0
  -22.5375  -15.5848  -41.9159 H   0  0  0  0  0
  -23.7834  -14.4369  -41.7359 H   0  0  0  0  0
  -24.0354  -17.1063  -42.6200 H   0  0  0  0  0
  -26.5596  -17.7087  -39.8588 H   0  0  0  0  0
  -25.1301  -19.2937  -39.3611 H   0  0  0  0  0
  -27.7945  -17.9799  -41.4795 H   0  0  0  0  0
  -27.5188  -19.5297  -43.2541 H   0  0  0  0  0
  -25.8275  -17.7348  -43.7403 H   0  0  0  0  0
  -27.5611  -16.1980  -44.2389 H   0  0  0  0  0
  -26.4657  -15.5100  -41.7667 H   0  0  0  0  0
  -25.0542  -14.3086  -43.0210 H   0  0  0  0  0
  1  2  2  0  0  0
  2  3  1  0  0  0
  2  6  1  0  0  0
  3  4  1  0  0  0
  4  5  1  0  0  0
  5  6  1  0  0  0
  5 13  1  0  0  0
  6  7  1  0  0  0
  7  8  1  0  0  0
  7  9  1  0  0  0
  9 10  1  0  0  0
  9 11  1  0  0  0
 11 12  1  0  0  0
 11 13  1  0  0  0
 13 14  1  0  0  0
  1 15  1  0  0  0
  3 16  1  0  0  0
  4 17  1  0  0  0
  4 18  1  0  0  0
  5 19  1  0  0  0
  7 20  1  0  0  0
  8 21  1  0  0  0
  9 22  1  0  0  0
 10 23  1  0  0  0
 11 24  1  0  0  0
 12 25  1  0  0  0
 13 26  1  0  0  0
 14 27  1  0  0  0
M  END
$$$$
