### 
### Created by X-TOOL on Mon Sep 10 21:13:04 2018
### 

@<TRIPOS>MOLECULE
3abt_ligand
  106   113     1     0     0
SMALL
GAST_HUCK


@<TRIPOS>ATOM
      1 C1'       -21.6820   38.2340   22.6930 C.3       1 2PF         0.2026
      2 C2'       -21.8400   39.7390   22.4860 C.3       1 2PF         0.1392
      3 O2'       -21.0300   40.4380   23.4350 O.3       1 2PF        -0.3835
      4 C3'       -23.3080   39.8260   22.8990 C.3       1 2PF         0.1150
      5 O3'       -23.4310   39.6510   24.3130 O.3       1 2PF        -0.3864
      6 C4'       -23.8890   38.6080   22.1750 C.3       1 2PF         0.1189
      7 O4'       -22.7860   37.7140   21.9350 O.3       1 2PF        -0.3358
      8 C5'       -24.4480   39.0710   20.8290 C.3       1 2PF         0.1128
      9 O5'       -25.5520   39.9540   21.0370 O.3       1 2PF        -0.2476
     10 CAA       -31.5560   49.9520   12.9970 C.ar      1 2PF         0.1588
     11 FAA       -30.5240   49.0890   13.0890 F         1 2PF        -0.1954
     12 PAA       -25.8090   41.1880   20.0360 P.3       1 2PF         0.2972
     13 CAB       -31.6020   51.0490   13.8530 C.ar      1 2PF         0.0220
     14 FAB       -32.7500   53.0530   14.5070 F         1 2PF        -0.1954
     15 OAB       -26.6860   42.1720   20.7080 O.co2     1 2PF        -0.6127
     16 CAC       -32.5440   49.7480   12.0400 C.ar      1 2PF         0.1858
     17 FAC       -32.4710   48.6930   11.2010 F         1 2PF        -0.1914
     18 OAC       -24.5110   41.6530   19.4990 O.co2     1 2PF        -0.6127
     19 CAD       -32.6610   51.9490   13.7370 C.ar      1 2PF         0.1588
     20 FAD       -34.6750   52.6230   12.6760 F         1 2PF        -0.1914
     21 CAE       -33.6000   50.6470   11.9320 C.ar      1 2PF         0.1874
     22 FAE       -34.5650   50.4530   11.0090 F         1 2PF        -0.1930
     23 CAF       -33.6540   51.7460   12.7820 C.ar      1 2PF         0.1858
     24 NAI       -20.3920   37.7230   22.1760 N.pl3     1 2PF        -0.1936
     25 CAJ       -19.7300   36.6760   22.6590 C.2       1 2PF         0.1586
     26 NAK       -19.9960   35.8130   23.7290 N.2       1 2PF        -0.2409
     27 CAL       -19.0980   34.6930   24.0910 C.2       1 2PF         0.1360
     28 NAM       -17.9340   34.5810   23.1830 N.pl3     1 2PF        -0.2168
     29 CAN       -17.7080   35.4750   22.1280 C.2       1 2PF         0.1169
     30 NAO       -16.6410   35.3170   21.3510 N.2       1 2PF        -0.4182
     31 CAP       -18.5910   36.5190   21.8800 C.2       1 2PF         0.1007
     32 NAQ       -18.6070   37.4830   20.9640 N.2       1 2PF        -0.3062
     33 CAR       -19.7050   38.2130   21.1460 C.2       1 2PF         0.1072
     34 OAW       -26.6230   40.5160   18.8200 O.3       1 2PF        -0.1319
     35 PAX       -28.2020   40.2270   18.9520 P.3       1 2PF         0.2972
     36 OAY       -28.6680   39.5290   17.7340 O.co2     1 2PF        -0.6127
     37 OAZ       -28.4720   39.6060   20.2690 O.co2     1 2PF        -0.6127
     38 OBA       -28.8440   41.7030   18.9720 O.3       1 2PF        -0.2477
     39 CBB       -28.8820   42.4820   17.7730 C.3       1 2PF         0.1124
     40 CBC       -29.3640   43.9060   18.0540 C.3       1 2PF         0.1118
     41 OBD       -28.5910   44.4710   19.1160 O.3       1 2PF        -0.3865
     42 CBE       -29.2380   44.7710   16.7990 C.3       1 2PF         0.1111
     43 OBF       -30.1370   44.2850   15.7990 O.3       1 2PF        -0.3865
     44 CBG       -29.5510   46.2410   17.0900 C.3       1 2PF         0.1024
     45 OBH       -28.6960   46.7190   18.1320 O.3       1 2PF        -0.3872
     46 CBI       -29.3440   47.0840   15.8310 C.3       1 2PF         0.0535
     47 NBJ       -29.4250   48.5320   16.1270 N.pl3     1 2PF        -0.2924
     48 CBK       -30.6570   49.1720   16.2780 C.3       1 2PF         0.1550
     49 NBL       -31.8510   48.4470   16.2020 N.am      1 2PF        -0.2442
     50 CBM       -33.0810   49.0780   16.4260 C.2       1 2PF         0.2897
     51 OBN       -34.1180   48.4200   16.3530 O.2       1 2PF        -0.3910
     52 NBO       -33.1380   50.4400   16.7460 N.am      1 2PF        -0.1824
     53 CBP       -31.9820   51.2300   16.8130 C.2       1 2PF         0.2581
     54 OBQ       -32.0770   52.4090   17.1480 O.2       1 2PF        -0.3310
     55 CBR       -30.6650   50.7020   16.2370 C.3       1 2PF         0.1867
     56 NBS       -29.4960   51.2580   16.9400 N.pl3     1 2PF        -0.2778
     57 CBT       -28.2680   49.2700   16.4000 C.ar      1 2PF         0.0481
     58 CBU       -28.3460   50.6270   16.6990 C.ar      1 2PF         0.0478
     59 CBV       -27.0320   48.6360   16.3390 C.ar      1 2PF        -0.0599
     60 CBW       -27.1670   51.3360   16.9080 C.ar      1 2PF        -0.0600
     61 CBX       -25.9290   50.7080   16.8450 C.ar      1 2PF        -0.0686
     62 CBY       -24.6510   51.5170   17.0740 C.3       1 2PF        -0.0426
     63 CBZ       -30.4220   51.2300   14.8200 C.3       1 2PF         0.0316
     64 CCA       -30.1460   52.7030   15.1200 C.3       1 2PF         0.0060
     65 CCB       -29.3150   52.6180   16.4020 C.3       1 2PF         0.1342
     66 OCC       -29.7860   53.5820   17.3470 O.3       1 2PF        -0.3711
     67 CCD       -24.6360   48.6930   16.5650 C.3       1 2PF        -0.0426
     68 CCE       -25.8620   49.3480   16.5670 C.ar      1 2PF        -0.0686
     69 H         -21.6812   37.9451   23.7440 H         1 2PF         0.1005
     70 H         -21.5738   40.1409   21.5084 H         1 2PF         0.0677
     71 H         -21.3080   40.2056   24.3240 H         1 2PF         0.2101
     72 H         -23.7901   40.7740   22.6601 H         1 2PF         0.0648
     73 H         -22.9348   40.3382   24.7637 H         1 2PF         0.2100
     74 H         -24.6764   38.1261   22.7546 H         1 2PF         0.0651
     75 H         -24.7846   38.2028   20.2623 H         1 2PF         0.0648
     76 H         -23.6677   39.5956   20.2776 H         1 2PF         0.0648
     77 H         -19.2745   34.0243   24.9335 H         1 2PF         0.1556
     78 H         -17.2692   33.8218   23.3315 H         1 2PF         0.2469
     79 H         -15.9930   34.5487   21.5246 H         1 2PF         0.0392
     80 H         -19.9958   39.0757   20.5466 H         1 2PF         0.1261
     81 H         -29.5740   42.0119   17.0743 H         1 2PF         0.0647
     82 H         -27.8754   42.5309   17.3577 H         1 2PF         0.0647
     83 H         -30.4135   43.8729   18.3466 H         1 2PF         0.0647
     84 H         -28.8948   45.3647   19.2910 H         1 2PF         0.2100
     85 H         -28.2077   44.7094   16.4487 H         1 2PF         0.0647
     86 H         -31.0367   44.3280   16.1310 H         1 2PF         0.2100
     87 H         -30.5909   46.3239   17.4058 H         1 2PF         0.0639
     88 H         -28.8399   46.1992   18.9262 H         1 2PF         0.2100
     89 H         -30.1276   46.8339   15.1158 H         1 2PF         0.0533
     90 H         -28.3532   46.8687   15.4309 H         1 2PF         0.0533
     91 H         -30.7902   49.0410   17.3519 H         1 2PF         0.0824
     92 H         -31.8255   47.4514   15.9818 H         1 2PF         0.1874
     93 H         -34.0441   50.8684   16.9352 H         1 2PF         0.2260
     94 H         -26.9812   47.5715   16.1103 H         1 2PF         0.0400
     95 H         -27.2154   52.4031   17.1250 H         1 2PF         0.0400
     96 H         -24.5850   52.3087   16.3277 H         1 2PF         0.0350
     97 H         -24.6747   51.9569   18.0710 H         1 2PF         0.0350
     98 H         -23.7858   50.8598   16.9859 H         1 2PF         0.0350
     99 H         -29.6283   50.6969   14.2966 H         1 2PF         0.0451
    100 H         -31.0528   53.2973   15.2326 H         1 2PF         0.0331
    101 H         -29.6343   53.2198   14.3081 H         1 2PF         0.0331
    102 H         -28.2629   52.8221   16.2031 H         1 2PF         0.0852
    103 H         -30.7182   53.4306   17.5193 H         1 2PF         0.2121
    104 H         -24.6334   47.9271   17.3405 H         1 2PF         0.0350
    105 H         -24.4757   48.2277   15.5924 H         1 2PF         0.0350
    106 H         -23.8408   49.4124   16.7605 H         1 2PF         0.0350
@<TRIPOS>BOND
     1    1    2 1  
     2    7    1 1  
     3    1   24 1  
     4    2    3 1  
     5    4    2 1  
     6    4    5 1  
     7    6    4 1  
     8    6    7 1  
     9    8    6 1  
    10    9    8 1  
    11   12    9 1  
    12   10   11 1  
    13   13   10 ar 
    14   10   16 ar 
    15   12   15 ar 
    16   12   18 ar 
    17   34   12 1  
    18   13   19 ar 
    19   63   13 1  
    20   19   14 1  
    21   16   17 1  
    22   16   21 ar 
    23   19   23 ar 
    24   23   20 1  
    25   21   22 1  
    26   23   21 ar 
    27   24   25 1  
    28   24   33 1  
    29   25   26 1  
    30   25   31 2  
    31   26   27 2  
    32   27   28 1  
    33   29   28 1  
    34   29   30 2  
    35   31   29 1  
    36   32   31 1  
    37   33   32 2  
    38   35   34 1  
    39   35   36 ar 
    40   35   37 ar 
    41   38   35 1  
    42   39   38 1  
    43   40   39 1  
    44   40   41 1  
    45   42   40 1  
    46   42   43 1  
    47   44   42 1  
    48   44   45 1  
    49   46   44 1  
    50   47   46 1  
    51   48   47 1  
    52   47   57 1  
    53   48   49 1  
    54   55   48 1  
    55   49   50 am 
    56   50   51 2  
    57   52   50 am 
    58   53   52 am 
    59   53   54 2  
    60   55   53 1  
    61   55   56 1  
    62   55   63 1  
    63   56   58 1  
    64   56   65 1  
    65   57   58 ar 
    66   57   59 ar 
    67   58   60 ar 
    68   59   68 ar 
    69   60   61 ar 
    70   61   62 1  
    71   61   68 ar 
    72   63   64 1  
    73   64   65 1  
    74   65   66 1  
    75   68   67 1  
    76    1   69 1  
    77    2   70 1  
    78    3   71 1  
    79    4   72 1  
    80    5   73 1  
    81    6   74 1  
    82    8   75 1  
    83    8   76 1  
    84   27   77 1  
    85   28   78 1  
    86   30   79 1  
    87   33   80 1  
    88   39   81 1  
    89   39   82 1  
    90   40   83 1  
    91   41   84 1  
    92   42   85 1  
    93   43   86 1  
    94   44   87 1  
    95   45   88 1  
    96   46   89 1  
    97   46   90 1  
    98   48   91 1  
    99   49   92 1  
   100   52   93 1  
   101   59   94 1  
   102   60   95 1  
   103   62   96 1  
   104   62   97 1  
   105   62   98 1  
   106   63   99 1  
   107   64  100 1  
   108   64  101 1  
   109   65  102 1  
   110   66  103 1  
   111   67  104 1  
   112   67  105 1  
   113   67  106 1  
@<TRIPOS>SUBSTRUCTURE
     1 2PF         1

