3abt_ligand
  -I-interpret- 

108115  0  0  0  0  0  0  0  0999 V2000
  -21.6820   38.2340   22.6930 C   0  0  0  0  0
  -21.8400   39.7390   22.4860 C   0  0  0  0  0
  -21.0300   40.4380   23.4350 O   0  0  0  0  0
  -23.3080   39.8260   22.8990 C   0  0  0  0  0
  -23.4310   39.6510   24.3130 O   0  0  0  0  0
  -23.8890   38.6080   22.1750 C   0  0  0  0  0
  -22.7860   37.7140   21.9350 O   0  0  0  0  0
  -24.4480   39.0710   20.8290 C   0  0  0  0  0
  -25.5520   39.9540   21.0370 O   0  0  0  0  0
  -31.5560   49.9520   12.9970 C   0  0  0  0  0
  -30.5240   49.0890   13.0890 F   0  0  0  0  0
  -25.8090   41.1880   20.0360 P   0  0  0  0  0
  -31.6020   51.0490   13.8530 C   0  0  0  0  0
  -32.7500   53.0530   14.5070 F   0  0  0  0  0
  -26.6860   42.1720   20.7080 O   0  0  0  0  0
  -32.5440   49.7480   12.0400 C   0  0  0  0  0
  -32.4710   48.6930   11.2010 F   0  0  0  0  0
  -24.5110   41.6530   19.4990 O   0  0  0  0  0
  -32.6610   51.9490   13.7370 C   0  0  0  0  0
  -34.6750   52.6230   12.6760 F   0  0  0  0  0
  -33.6000   50.6470   11.9320 C   0  0  0  0  0
  -34.5650   50.4530   11.0090 F   0  0  0  0  0
  -33.6540   51.7460   12.7820 C   0  0  0  0  0
  -20.3920   37.7230   22.1760 N   0  0  0  0  0
  -19.7300   36.6760   22.6590 C   0  0  0  0  0
  -19.9960   35.8130   23.7290 N   0  0  0  0  0
  -19.0980   34.6930   24.0910 C   0  0  0  0  0
  -17.9340   34.5810   23.1830 N   0  0  0  0  0
  -17.7080   35.4750   22.1280 C   0  0  0  0  0
  -16.6410   35.3170   21.3510 N   0  0  0  0  0
  -18.5910   36.5190   21.8800 C   0  0  0  0  0
  -18.6070   37.4830   20.9640 N   0  0  0  0  0
  -19.7050   38.2130   21.1460 C   0  0  0  0  0
  -26.6230   40.5160   18.8200 O   0  0  0  0  0
  -28.2020   40.2270   18.9520 P   0  0  0  0  0
  -28.6680   39.5290   17.7340 O   0  0  0  0  0
  -28.4720   39.6060   20.2690 O   0  0  0  0  0
  -28.8440   41.7030   18.9720 O   0  0  0  0  0
  -28.8820   42.4820   17.7730 C   0  0  0  0  0
  -29.3640   43.9060   18.0540 C   0  0  0  0  0
  -28.5910   44.4710   19.1160 O   0  0  0  0  0
  -29.2380   44.7710   16.7990 C   0  0  0  0  0
  -30.1370   44.2850   15.7990 O   0  0  0  0  0
  -29.5510   46.2410   17.0900 C   0  0  0  0  0
  -28.6960   46.7190   18.1320 O   0  0  0  0  0
  -29.3440   47.0840   15.8310 C   0  0  0  0  0
  -29.4250   48.5320   16.1270 N   0  0  0  0  0
  -30.6570   49.1720   16.2780 C   0  0  0  0  0
  -31.8510   48.4470   16.2020 N   0  0  0  0  0
  -33.0810   49.0780   16.4260 C   0  0  0  0  0
  -34.1180   48.4200   16.3530 O   0  0  0  0  0
  -33.1380   50.4400   16.7460 N   0  0  0  0  0
  -31.9820   51.2300   16.8130 C   0  0  0  0  0
  -32.0770   52.4090   17.1480 O   0  0  0  0  0
  -30.6650   50.7020   16.2370 C   0  0  0  0  0
  -29.4960   51.2580   16.9400 N   0  0  0  0  0
  -28.2680   49.2700   16.4000 C   0  0  0  0  0
  -28.3460   50.6270   16.6990 C   0  0  0  0  0
  -27.0320   48.6360   16.3390 C   0  0  0  0  0
  -27.1670   51.3360   16.9080 C   0  0  0  0  0
  -25.9290   50.7080   16.8450 C   0  0  0  0  0
  -24.6510   51.5170   17.0740 C   0  0  0  0  0
  -30.4220   51.2300   14.8200 C   0  0  0  0  0
  -30.1460   52.7030   15.1200 C   0  0  0  0  0
  -29.3150   52.6180   16.4020 C   0  0  0  0  0
  -29.7860   53.5820   17.3470 O   0  0  0  0  0
  -24.6360   48.6930   16.5650 C   0  0  0  0  0
  -25.8620   49.3480   16.5670 C   0  0  0  0  0
  -21.6812   37.9451   23.7440 H   0  0  0  0  0
  -21.5738   40.1409   21.5084 H   0  0  0  0  0
  -20.1087   40.3806   23.1714 H   0  0  0  0  0
  -23.7901   40.7740   22.6601 H   0  0  0  0  0
  -23.0656   40.4168   24.7621 H   0  0  0  0  0
  -24.6764   38.1261   22.7546 H   0  0  0  0  0
  -24.7846   38.2028   20.2623 H   0  0  0  0  0
  -23.6677   39.5956   20.2776 H   0  0  0  0  0
  -24.0507   40.9146   19.0934 H   0  0  0  0  0
  -19.2745   34.0243   24.9335 H   0  0  0  0  0
  -17.2692   33.8218   23.3315 H   0  0  0  0  0
  -15.9930   34.5487   21.5246 H   0  0  0  0  0
  -19.9958   39.0757   20.5466 H   0  0  0  0  0
  -28.1160   40.1645   20.9639 H   0  0  0  0  0
  -29.5740   42.0119   17.0743 H   0  0  0  0  0
  -27.8754   42.5309   17.3577 H   0  0  0  0  0
  -30.4135   43.8729   18.3466 H   0  0  0  0  0
  -28.8948   45.3647   19.2910 H   0  0  0  0  0
  -28.2077   44.7094   16.4487 H   0  0  0  0  0
  -30.0595   44.8266   15.0102 H   0  0  0  0  0
  -30.5909   46.3239   17.4058 H   0  0  0  0  0
  -28.8959   47.6408   18.3109 H   0  0  0  0  0
  -30.1276   46.8339   15.1158 H   0  0  0  0  0
  -28.3532   46.8687   15.4309 H   0  0  0  0  0
  -30.7902   49.0410   17.3519 H   0  0  0  0  0
  -31.8255   47.4514   15.9818 H   0  0  0  0  0
  -34.0441   50.8684   16.9352 H   0  0  0  0  0
  -26.9812   47.5715   16.1103 H   0  0  0  0  0
  -27.2154   52.4031   17.1250 H   0  0  0  0  0
  -24.5850   52.3087   16.3277 H   0  0  0  0  0
  -24.6747   51.9569   18.0710 H   0  0  0  0  0
  -23.7858   50.8598   16.9859 H   0  0  0  0  0
  -29.6283   50.6969   14.2966 H   0  0  0  0  0
  -31.0528   53.2973   15.2326 H   0  0  0  0  0
  -29.6343   53.2198   14.3081 H   0  0  0  0  0
  -28.2629   52.8221   16.2031 H   0  0  0  0  0
  -29.6648   54.4647   16.9895 H   0  0  0  0  0
  -24.6334   47.9271   17.3405 H   0  0  0  0  0
  -24.4757   48.2277   15.5924 H   0  0  0  0  0
  -23.8408   49.4124   16.7605 H   0  0  0  0  0
  1  2  1  0  0  0
  7  1  1  0  0  0
  1 24  1  0  0  0
  2  3  1  0  0  0
  4  2  1  0  0  0
  4  5  1  0  0  0
  6  4  1  0  0  0
  6  7  1  0  0  0
  8  6  1  0  0  0
  9  8  1  0  0  0
 12  9  1  0  0  0
 10 11  1  0  0  0
 13 10  4  0  0  0
 10 16  4  0  0  0
 12 15  2  0  0  0
 12 18  1  0  0  0
 34 12  1  0  0  0
 13 19  4  0  0  0
 63 13  1  0  0  0
 19 14  1  0  0  0
 16 17  1  0  0  0
 16 21  4  0  0  0
 19 23  4  0  0  0
 23 20  1  0  0  0
 21 22  1  0  0  0
 23 21  4  0  0  0
 24 25  4  0  0  0
 24 33  4  0  0  0
 25 26  1  0  0  0
 25 31  4  0  0  0
 26 27  2  0  0  0
 27 28  1  0  0  0
 29 28  1  0  0  0
 29 30  2  0  0  0
 31 29  1  0  0  0
 32 31  4  0  0  0
 33 32  4  0  0  0
 35 34  1  0  0  0
 35 36  2  0  0  0
 35 37  1  0  0  0
 38 35  1  0  0  0
 39 38  1  0  0  0
 40 39  1  0  0  0
 40 41  1  0  0  0
 42 40  1  0  0  0
 42 43  1  0  0  0
 44 42  1  0  0  0
 44 45  1  0  0  0
 46 44  1  0  0  0
 47 46  1  0  0  0
 48 47  1  0  0  0
 47 57  1  0  0  0
 48 49  1  0  0  0
 55 48  1  0  0  0
 49 50  1  0  0  0
 50 51  2  0  0  0
 52 50  1  0  0  0
 53 52  1  0  0  0
 53 54  2  0  0  0
 55 53  1  0  0  0
 55 56  1  0  0  0
 55 63  1  0  0  0
 56 58  1  0  0  0
 56 65  1  0  0  0
 57 58  4  0  0  0
 57 59  4  0  0  0
 58 60  4  0  0  0
 59 68  4  0  0  0
 60 61  4  0  0  0
 61 62  1  0  0  0
 61 68  4  0  0  0
 63 64  1  0  0  0
 64 65  1  0  0  0
 65 66  1  0  0  0
 68 67  1  0  0  0
  1 69  1  0  0  0
  2 70  1  0  0  0
  3 71  1  0  0  0
  4 72  1  0  0  0
  5 73  1  0  0  0
  6 74  1  0  0  0
  8 75  1  0  0  0
  8 76  1  0  0  0
 18 77  1  0  0  0
 27 78  1  0  0  0
 28 79  1  0  0  0
 30 80  1  0  0  0
 33 81  1  0  0  0
 37 82  1  0  0  0
 39 83  1  0  0  0
 39 84  1  0  0  0
 40 85  1  0  0  0
 41 86  1  0  0  0
 42 87  1  0  0  0
 43 88  1  0  0  0
 44 89  1  0  0  0
 45 90  1  0  0  0
 46 91  1  0  0  0
 46 92  1  0  0  0
 48 93  1  0  0  0
 49 94  1  0  0  0
 52 95  1  0  0  0
 59 96  1  0  0  0
 60 97  1  0  0  0
 62 98  1  0  0  0
 62 99  1  0  0  0
 62100  1  0  0  0
 63101  1  0  0  0
 64102  1  0  0  0
 64103  1  0  0  0
 65104  1  0  0  0
 66105  1  0  0  0
 67106  1  0  0  0
 67107  1  0  0  0
 67108  1  0  0  0
M  END
$$$$
