4bfd_ligand
  -I-interpret- 

 44 47  0  0  0  0  0  0  0  0999 V2000
  -20.2360   43.8350   85.5230 Cl  0  0  0  0  0
  -20.6130   43.1030   87.0980 C   0  0  0  0  0
  -19.7720   42.1000   87.5340 C   0  0  0  0  0
  -20.0320   41.5170   88.7030 N   0  0  0  0  0
  -21.7350   43.5090   87.8430 C   0  0  0  0  0
  -21.9570   42.8760   89.0560 C   0  0  0  0  0
  -21.1050   41.8480   89.4540 C   0  0  0  0  0
  -21.2610   41.1730   90.7760 C   0  0  0  0  0
  -22.3270   41.2030   91.3530 O   0  0  0  0  0
  -20.1530   40.5820   91.2430 N   0  0  0  0  0
  -19.9580   39.9740   92.4860 C   0  0  0  0  0
  -21.0030   39.7390   93.3960 C   0  0  0  0  0
  -20.7070   39.2020   94.6470 C   0  0  0  0  0
  -19.3710   38.9330   94.9690 C   0  0  0  0  0
  -19.0790   38.4290   96.1810 F   0  0  0  0  0
  -18.6340   39.7190   92.8390 C   0  0  0  0  0
  -18.3220   39.1930   94.0740 C   0  0  0  0  0
  -16.8840   38.8740   94.4600 C   0  0  0  0  0
  -16.8430   37.3910   94.8140 C   0  0  0  0  0
  -16.4530   39.7010   95.6720 C   0  0  0  0  0
  -15.7280   41.0300   95.4320 C   0  0  0  0  0
  -16.3540   41.9170   94.3490 C   0  0  0  0  0
  -15.0390   41.1870   94.0720 C   0  0  0  0  0
  -15.2570   40.0710   93.0820 C   0  0  0  0  0
  -15.9670   39.0470   93.3510 N   0  0  0  0  0
  -14.6610   40.1340   91.8830 N   0  0  0  0  0
  -18.9146   41.7918   86.9357 H   0  0  0  0  0
  -22.4032   44.2903   87.4808 H   0  0  0  0  0
  -22.7890   43.1792   89.6915 H   0  0  0  0  0
  -19.3514   40.5750   90.6123 H   0  0  0  0  0
  -22.0326   39.9740   93.1262 H   0  0  0  0  0
  -21.5021   38.9947   95.3632 H   0  0  0  0  0
  -17.8358   39.9382   92.1298 H   0  0  0  0  0
  -17.5200   37.1986   95.6463 H   0  0  0  0  0
  -17.1521   36.8037   93.9493 H   0  0  0  0  0
  -15.8277   37.1146   95.0984 H   0  0  0  0  0
  -15.7337   39.0762   96.2015 H   0  0  0  0  0
  -17.3806   39.9702   96.1771 H   0  0  0  0  0
  -15.4168   41.1642   96.4680 H   0  0  0  0  0
  -16.7669   42.9212   94.2532 H   0  0  0  0  0
  -17.3233   42.0636   93.8724 H   0  0  0  0  0
  -14.0196   41.4431   93.7833 H   0  0  0  0  0
  -15.8796   38.2574   92.7112 H   0  0  0  0  0
  -14.0681   40.9304   91.6494 H   0  0  0  0  0
  1  2  1  0  0  0
  2  3  4  0  0  0
  2  5  4  0  0  0
  3  4  4  0  0  0
  4  7  4  0  0  0
  5  6  4  0  0  0
  6  7  4  0  0  0
  7  8  1  0  0  0
  8  9  2  0  0  0
  8 10  1  0  0  0
 10 11  1  0  0  0
 11 12  4  0  0  0
 11 16  4  0  0  0
 12 13  4  0  0  0
 13 14  4  0  0  0
 14 15  1  0  0  0
 14 17  4  0  0  0
 16 17  4  0  0  0
 17 18  1  0  0  0
 18 19  1  0  0  0
 18 20  1  0  0  0
 18 25  1  0  0  0
 20 21  1  0  0  0
 21 22  1  0  0  0
 21 23  1  0  0  0
 22 23  1  0  0  0
 23 24  1  0  0  0
 24 25  1  0  0  0
 24 26  2  0  0  0
  3 27  1  0  0  0
  5 28  1  0  0  0
  6 29  1  0  0  0
 10 30  1  0  0  0
 12 31  1  0  0  0
 13 32  1  0  0  0
 16 33  1  0  0  0
 19 34  1  0  0  0
 19 35  1  0  0  0
 19 36  1  0  0  0
 20 37  1  0  0  0
 20 38  1  0  0  0
 21 39  1  0  0  0
 22 40  1  0  0  0
 22 41  1  0  0  0
 23 42  1  0  0  0
 25 43  1  0  0  0
 26 44  1  0  0  0
M  END
$$$$
