4ruz_ligand
  -I-interpret- 

 24 24  0  0  0  0  0  0  0  0999 V2000
   -2.1510    7.2420   12.9790 C   0  0  0  0  0
   -2.4600    5.8620   13.5080 C   0  0  0  0  0
   -3.8340    5.8460   13.8130 O   0  0  0  0  0
   -4.2930    4.7080   14.4950 C   0  0  0  0  0
   -5.7380    4.6560   14.8940 C   0  0  0  0  0
   -6.2320    3.5870   15.5530 C   0  0  0  0  0
   -5.3110    2.4440   15.8740 C   0  0  0  0  0
   -5.9470    1.0690   16.7570 S   0  0  0  0  0
   -5.4420    1.1680   18.1100 O   0  0  0  0  0
   -7.3800    1.1120   16.8140 O   0  0  0  0  0
   -5.4030   -0.2880   16.0380 N   0  0  0  0  0
   -4.0040    2.4840   15.5240 C   0  0  0  0  0
   -3.4670    3.6740   14.7830 C   0  0  0  0  0
   -2.7495    7.4305   12.0877 H   0  0  0  0  0
   -2.3889    7.9837   13.7415 H   0  0  0  0  0
   -1.0923    7.3046   12.7272 H   0  0  0  0  0
   -1.8625    5.6416   14.3926 H   0  0  0  0  0
   -2.2165    5.0985   12.7691 H   0  0  0  0  0
   -6.3957    5.4901   14.6492 H   0  0  0  0  0
   -7.2810    3.5533   15.8473 H   0  0  0  0  0
   -4.7921   -0.9258   16.5483 H   0  0  0  0  0
   -5.6733   -0.4998   15.0776 H   0  0  0  0  0
   -3.3438    1.6551   15.7793 H   0  0  0  0  0
   -2.4207    3.7056   14.4792 H   0  0  0  0  0
  1  2  1  0  0  0
  2  3  1  0  0  0
  3  4  1  0  0  0
  4  5  4  0  0  0
  4 13  4  0  0  0
  5  6  4  0  0  0
  6  7  4  0  0  0
  7  8  1  0  0  0
  7 12  4  0  0  0
  8  9  2  0  0  0
  8 10  2  0  0  0
  8 11  1  0  0  0
 12 13  4  0  0  0
  1 14  1  0  0  0
  1 15  1  0  0  0
  1 16  1  0  0  0
  2 17  1  0  0  0
  2 18  1  0  0  0
  5 19  1  0  0  0
  6 20  1  0  0  0
 11 21  1  0  0  0
 11 22  1  0  0  0
 12 23  1  0  0  0
 13 24  1  0  0  0
M  END
$$$$
