3cgf_ligand
  -I-interpret- 

 44 47  0  0  0  0  0  0  0  0999 V2000
   23.3980   14.4120   31.4350 C   0  0  0  0  0
   23.4600   12.9400   31.4580 N   0  0  0  0  0
   22.2030   12.3420   31.9200 C   0  0  0  0  0
   22.0200   10.9450   31.9390 N   0  0  0  0  0
   20.8100   10.4410   32.4230 C   0  0  0  0  0
   20.6370    8.9730   32.4020 C   0  0  0  0  0
   21.5540    8.0260   31.9580 N   0  0  0  0  0
   20.9470    6.7500   32.1400 C   0  0  0  0  0
   21.7120    5.5940   31.7420 C   0  0  0  0  0
   22.9680    5.7590   31.2180 C   0  0  0  0  0
   23.5680    7.0920   31.0400 C   0  0  0  0  0
   22.8540    8.1820   31.4130 C   0  0  0  0  0
   19.7500    6.8430   32.6510 N   0  0  0  0  0
   19.5460    8.1980   32.8210 C   0  0  0  0  0
   19.7790   11.2500   32.8930 C   0  0  0  0  0
   20.0370   12.6230   32.8490 C   0  0  0  0  0
   21.2060   13.1870   32.3760 N   0  0  0  0  0
   24.0810   12.3550   30.2260 C   0  0  0  0  0
   23.1530   12.1860   28.9940 C   0  0  0  0  0
   23.9100   11.5850   27.7900 C   0  0  0  0  0
   24.5210   10.2090   28.1200 C   0  0  0  0  0
   25.4190   10.2600   29.3640 C   0  0  0  0  0
   24.7430   10.9790   30.5650 C   0  0  0  0  0
   24.4070   14.8156   31.3512 H   0  0  0  0  0
   22.8036   14.7360   30.5807 H   0  0  0  0  0
   22.9377   14.7694   32.3561 H   0  0  0  0  0
   21.2936    4.5941   31.8573 H   0  0  0  0  0
   23.5390    4.8781   30.9247 H   0  0  0  0  0
   24.5666    7.1999   30.6166 H   0  0  0  0  0
   23.2790    9.1787   31.2941 H   0  0  0  0  0
   18.6320    8.6212   33.2376 H   0  0  0  0  0
   18.8399   10.8427   33.2676 H   0  0  0  0  0
   19.2611   13.2962   33.2136 H   0  0  0  0  0
   24.8153   13.1005   29.9209 H   0  0  0  0  0
   22.7772   13.1686   28.7087 H   0  0  0  0  0
   22.3425   11.5090   29.2638 H   0  0  0  0  0
   24.7211   12.2631   27.5246 H   0  0  0  0  0
   23.2012   11.4557   26.9720 H   0  0  0  0  0
   25.1309    9.8955   27.2727 H   0  0  0  0  0
   23.7056    9.5131   28.3173 H   0  0  0  0  0
   26.3186   10.8179   29.1040 H   0  0  0  0  0
   25.6311    9.2341   29.6652 H   0  0  0  0  0
   23.9449   10.3240   30.9146 H   0  0  0  0  0
   25.5284   11.1793   31.2938 H   0  0  0  0  0
  1  2  1  0  0  0
  2  3  1  0  0  0
  2 18  1  0  0  0
  3  4  4  0  0  0
  3 17  4  0  0  0
  4  5  4  0  0  0
  5  6  1  0  0  0
  5 15  4  0  0  0
  6  7  4  0  0  0
  6 14  4  0  0  0
  7  8  4  0  0  0
  7 12  4  0  0  0
  8  9  4  0  0  0
  8 13  4  0  0  0
  9 10  4  0  0  0
 10 11  4  0  0  0
 11 12  4  0  0  0
 13 14  4  0  0  0
 15 16  4  0  0  0
 16 17  4  0  0  0
 18 19  1  0  0  0
 18 23  1  0  0  0
 19 20  1  0  0  0
 20 21  1  0  0  0
 21 22  1  0  0  0
 22 23  1  0  0  0
  1 24  1  0  0  0
  1 25  1  0  0  0
  1 26  1  0  0  0
  9 27  1  0  0  0
 10 28  1  0  0  0
 11 29  1  0  0  0
 12 30  1  0  0  0
 14 31  1  0  0  0
 15 32  1  0  0  0
 16 33  1  0  0  0
 18 34  1  0  0  0
 19 35  1  0  0  0
 19 36  1  0  0  0
 20 37  1  0  0  0
 20 38  1  0  0  0
 21 39  1  0  0  0
 21 40  1  0  0  0
 22 41  1  0  0  0
 22 42  1  0  0  0
 23 43  1  0  0  0
 23 44  1  0  0  0
M  END
$$$$
