5qab_ligand
  -I-interpret- 

 29 30  0  0  0  0  0  0  0  0999 V2000
   96.3970  250.8260    6.2610 C   0  0  0  0  0
   97.3820  251.3440    6.8410 O   0  0  0  0  0
   95.8560  249.5310    6.8150 C   0  0  0  0  0
   93.3790  241.9220    4.0770 C   0  0  0  0  0
   95.5920  243.6000    4.1650 C   0  0  0  0  0
   96.6920  244.4340    4.2610 C   0  0  0  0  0
   96.6360  245.5830    5.0290 C   0  0  0  0  0
   95.9220  248.3660    6.0550 C   0  0  0  0  0
   95.4100  247.1610    6.5400 C   0  0  0  0  0
   94.8340  247.1480    7.8100 C   0  0  0  0  0
   94.7710  248.3020    8.5700 C   0  0  0  0  0
   95.2790  249.4890    8.0770 C   0  0  0  0  0
   95.4740  245.9270    5.7170 C   0  0  0  0  0
   94.3670  245.0840    5.6170 C   0  0  0  0  0
   94.4360  243.9310    4.8500 C   0  0  0  0  0
   95.8300  251.3100    5.2540 O   0  0  0  0  0
   93.3220  243.1330    4.8290 O   0  0  0  0  0
   97.6404  250.7935    7.5838 H   0  0  0  0  0
   93.5813  242.1543    3.0314 H   0  0  0  0  0
   94.1742  241.2887    4.4703 H   0  0  0  0  0
   92.4249  241.4010    4.1568 H   0  0  0  0  0
   95.6354  242.6953    3.5586 H   0  0  0  0  0
   97.6091  244.1837    3.7277 H   0  0  0  0  0
   97.5122  246.2278    5.0970 H   0  0  0  0  0
   96.3803  248.3953    5.0665 H   0  0  0  0  0
   94.4288  246.2178    8.2083 H   0  0  0  0  0
   94.3190  248.2751    9.5615 H   0  0  0  0  0
   95.2265  250.3949    8.6809 H   0  0  0  0  0
   93.4453  245.3324    6.1432 H   0  0  0  0  0
  1  2  1  0  0  0
  3  1  1  0  0  0
  1 16  2  0  0  0
  8  3  4  0  0  0
  3 12  4  0  0  0
 17  4  1  0  0  0
  5  6  4  0  0  0
 15  5  4  0  0  0
  6  7  4  0  0  0
 13  7  4  0  0  0
  9  8  4  0  0  0
  9 10  4  0  0  0
 13  9  1  0  0  0
 10 11  4  0  0  0
 11 12  4  0  0  0
 14 13  4  0  0  0
 15 14  4  0  0  0
 15 17  1  0  0  0
  2 18  1  0  0  0
  4 19  1  0  0  0
  4 20  1  0  0  0
  4 21  1  0  0  0
  5 22  1  0  0  0
  6 23  1  0  0  0
  7 24  1  0  0  0
  8 25  1  0  0  0
 10 26  1  0  0  0
 11 27  1  0  0  0
 12 28  1  0  0  0
 14 29  1  0  0  0
M  END
$$$$
