2fo4_ligand
  -I-interpret- 

128130  0  0  0  0  0  0  0  0999 V2000
   49.5070   56.6560    4.3310 N   0  3  0  0  0
   48.2820   57.3620    3.8510 C   0  0  0  0  0
   47.9800   56.9710    2.4100 C   0  0  0  0  0
   48.8150   57.1560    1.5290 O   0  0  0  0  0
   48.4800   58.8810    3.9460 C   0  0  0  0  0
   47.2940   59.5770    3.6080 O   0  0  0  0  0
   46.7890   56.4300    2.1760 N   0  0  0  0  0
   46.3860   56.0210    0.8370 C   0  0  0  0  0
   46.2380   57.2250   -0.0810 C   0  0  0  0  0
   46.0020   58.3390    0.3740 O   0  0  0  0  0
   45.0770   55.2550    0.8900 C   0  0  0  0  0
   46.3600   57.0070   -1.3980 N   0  0  0  0  0
   46.2390   58.0900   -2.3740 C   0  0  0  0  0
   44.8090   58.5770   -2.5380 C   0  0  0  0  0
   43.8560   57.9150   -2.1390 O   0  0  0  0  0
   46.7660   57.4540   -3.6480 C   0  0  0  0  0
   46.2480   56.0460   -3.5270 C   0  0  0  0  0
   46.5500   55.7090   -2.0770 C   0  0  0  0  0
   44.6750   59.7460   -3.1420 N   0  0  0  0  0
   43.3750   60.3370   -3.3870 C   0  0  0  0  0
   42.9620   59.9100   -4.7960 C   0  0  0  0  0
   43.5660   60.3450   -5.7710 O   0  0  0  0  0
   43.4980   61.8610   -3.2890 C   0  0  0  0  0
   42.1860   62.5690   -3.5120 C   0  0  0  0  0
   42.1750   63.8200   -3.4760 O   0  0  0  0  0
   41.1680   61.8750   -3.7260 O   0  0  0  0  0
   41.9510   59.0530   -4.9090 N   0  0  0  0  0
   41.5040   58.5810   -6.2240 C   0  0  0  0  0
   40.4920   59.4990   -6.8990 C   0  0  0  0  0
   39.5870   60.0230   -6.2570 O   0  0  0  0  0
   40.8810   57.1820   -6.1290 C   0  0  0  0  0
   41.8130   56.1260   -5.6090 C   0  0  0  0  0
   41.7780   55.7460   -4.2670 C   0  0  0  0  0
   42.7200   55.4970   -6.4630 C   0  0  0  0  0
   42.6310   54.7530   -3.7790 C   0  0  0  0  0
   43.5810   54.5010   -5.9910 C   0  0  0  0  0
   43.5340   54.1290   -4.6430 C   0  0  0  0  0
   40.6470   59.6840   -8.2060 N   0  0  0  0  0
   39.7290   60.5200   -8.9790 C   0  0  0  0  0
   39.2080   59.6940  -10.1580 C   0  0  0  0  0
   39.9400   58.8770  -10.7170 O   0  0  0  0  0
   40.4340   61.7950   -9.4590 C   0  0  0  0  0
   40.9670   62.6510   -8.3140 C   0  0  0  0  0
   41.4820   64.0000   -8.7860 C   0  0  0  0  0
   42.1520   64.7290   -7.7120 N   0  0  0  0  0
   42.5350   66.0010   -7.7940 C   0  0  0  0  0
   43.1410   66.5820   -6.7700 N   0  0  0  0  0
   42.3050   66.6980   -8.8970 N   0  0  0  0  0
   37.9330   59.8990  -10.5440 N   0  0  0  0  0
   37.2420   59.2070  -11.6360 C   0  0  0  0  0
   38.0530   58.9110  -12.8810 C   0  0  0  0  0
   38.9040   59.6900  -13.2910 O   0  0  0  0  0
   36.0660   60.1250  -11.9310 C   0  0  0  0  0
   35.7370   60.6390  -10.5950 C   0  0  0  0  0
   37.0980   61.0080  -10.0550 C   0  0  0  0  0
   37.7630   57.7620  -13.4750 N   0  0  0  0  0
   38.4200   57.3260  -14.6920 C   0  0  0  0  0
   37.4630   57.5710  -15.8620 C   0  0  0  0  0
   37.6540   56.9830  -16.9470 O   0  0  0  0  0
   38.7770   55.8410  -14.5670 C   0  0  0  0  0
   37.7190   54.8620  -14.0360 C   0  0  0  0  0
   36.6170   54.6610  -15.0600 C   0  0  0  0  0
   38.3810   53.5240  -13.7230 C   0  0  0  0  0
   36.5360   58.3830  -15.6750 O   0  0  0  0  0
   49.3654   55.6481    4.2639 H   0  0  0  0  0
   50.3028   56.9279    3.7538 H   0  0  0  0  0
   49.6867   56.9114    5.3020 H   0  0  0  0  0
   47.4413   57.0708    4.4806 H   0  0  0  0  0
   49.2644   59.1729    3.2477 H   0  0  0  0  0
   48.7491   59.1322    4.9720 H   0  0  0  0  0
   47.4484   60.5220    3.6764 H   0  0  0  0  0
   46.1412   56.2979    2.9527 H   0  0  0  0  0
   47.1660   55.3732    0.4368 H   0  0  0  0  0
   45.2016   54.3677    1.5107 H   0  0  0  0  0
   44.3018   55.8920    1.3159 H   0  0  0  0  0
   44.7907   54.9571   -0.1187 H   0  0  0  0  0
   46.7846   58.9851   -2.0753 H   0  0  0  0  0
   47.8503   57.5100   -3.7438 H   0  0  0  0  0
   46.4351   57.9610   -4.5544 H   0  0  0  0  0
   46.7138   55.3572   -4.2318 H   0  0  0  0  0
   45.1904   55.9569   -3.7751 H   0  0  0  0  0
   45.9083   54.9225   -1.6798 H   0  0  0  0  0
   47.5486   55.2959   -1.9347 H   0  0  0  0  0
   45.5111   60.2460   -3.4441 H   0  0  0  0  0
   42.6292   60.0127   -2.6613 H   0  0  0  0  0
   44.1907   62.1903   -4.0635 H   0  0  0  0  0
   43.8415   62.1040   -2.2835 H   0  0  0  0  0
   43.0618   64.1417   -3.2982 H   0  0  0  0  0
   41.4794   58.7190   -4.0685 H   0  0  0  0  0
   42.4080   58.5664   -6.8328 H   0  0  0  0  0
   40.5947   56.8886   -7.1390 H   0  0  0  0  0
   40.0481   57.2482   -5.4290 H   0  0  0  0  0
   41.0750   56.2308   -3.5896 H   0  0  0  0  0
   42.7579   55.7862   -7.5133 H   0  0  0  0  0
   42.5920   54.4663   -2.7281 H   0  0  0  0  0
   44.2843   54.0176   -6.6691 H   0  0  0  0  0
   44.2012   53.3532   -4.2675 H   0  0  0  0  0
   41.4268   59.2310   -8.6826 H   0  0  0  0  0
   38.8909   60.8341   -8.3568 H   0  0  0  0  0
   39.7040   62.3912  -10.0064 H   0  0  0  0  0
   41.2842   61.4932  -10.0707 H   0  0  0  0  0
   41.7979   62.1165   -7.8535 H   0  0  0  0  0
   40.1474   62.8291   -7.6179 H   0  0  0  0  0
   40.6321   64.5925   -9.1248 H   0  0  0  0  0
   42.2015   63.8315   -9.5873 H   0  0  0  0  0
   42.3386   64.2304   -6.8420 H   0  0  0  0  0
   43.3157   66.0545   -5.9146 H   0  0  0  0  0
   42.5942   67.6746   -8.9528 H   0  0  0  0  0
   41.8387   66.2581   -9.6904 H   0  0  0  0  0
   36.9743   58.1971  -11.3254 H   0  0  0  0  0
   35.2323   59.6165  -12.4152 H   0  0  0  0  0
   36.3010   60.9101  -12.6497 H   0  0  0  0  0
   35.2079   59.9167   -9.9734 H   0  0  0  0  0
   35.0395   61.4764  -10.6149 H   0  0  0  0  0
   37.4431   61.9870  -10.3875 H   0  0  0  0  0
   37.1169   61.1167   -8.9706 H   0  0  0  0  0
   37.0504   57.1615  -13.0602 H   0  0  0  0  0
   39.3424   57.8809  -14.8631 H   0  0  0  0  0
   38.4182   56.4075  -16.8676 H   0  0  0  0  0
   39.5834   55.8071  -13.8344 H   0  0  0  0  0
   38.9753   55.5133  -15.5875 H   0  0  0  0  0
   37.2778   55.2761  -13.1294 H   0  0  0  0  0
   36.1398   55.6180  -15.2709 H   0  0  0  0  0
   37.0447   54.2568  -15.9775 H   0  0  0  0  0
   35.8779   53.9643  -14.6645 H   0  0  0  0  0
   38.8289   53.1204  -14.6311 H   0  0  0  0  0
   39.1543   53.6703  -12.9689 H   0  0  0  0  0
   37.6312   52.8284  -13.3461 H   0  0  0  0  0
  1  2  1  0  0  0
  2  3  1  0  0  0
  2  5  1  0  0  0
  3  4  2  0  0  0
  3  7  1  0  0  0
  5  6  1  0  0  0
  7  8  1  0  0  0
  8  9  1  0  0  0
  8 11  1  0  0  0
  9 10  2  0  0  0
  9 12  1  0  0  0
 12 13  1  0  0  0
 12 18  1  0  0  0
 13 14  1  0  0  0
 13 16  1  0  0  0
 14 15  2  0  0  0
 14 19  1  0  0  0
 16 17  1  0  0  0
 17 18  1  0  0  0
 19 20  1  0  0  0
 20 21  1  0  0  0
 20 23  1  0  0  0
 21 22  2  0  0  0
 21 27  1  0  0  0
 23 24  1  0  0  0
 24 25  1  0  0  0
 24 26  2  0  0  0
 27 28  1  0  0  0
 28 29  1  0  0  0
 28 31  1  0  0  0
 29 30  2  0  0  0
 29 38  1  0  0  0
 31 32  1  0  0  0
 32 33  4  0  0  0
 32 34  4  0  0  0
 33 35  4  0  0  0
 34 36  4  0  0  0
 35 37  4  0  0  0
 36 37  4  0  0  0
 38 39  1  0  0  0
 39 40  1  0  0  0
 39 42  1  0  0  0
 40 41  2  0  0  0
 40 49  1  0  0  0
 42 43  1  0  0  0
 43 44  1  0  0  0
 44 45  1  0  0  0
 45 46  1  0  0  0
 46 47  2  0  0  0
 46 48  1  0  0  0
 49 50  1  0  0  0
 49 55  1  0  0  0
 50 51  1  0  0  0
 50 53  1  0  0  0
 51 52  2  0  0  0
 51 56  1  0  0  0
 53 54  1  0  0  0
 54 55  1  0  0  0
 56 57  1  0  0  0
 57 58  1  0  0  0
 57 60  1  0  0  0
 58 59  1  0  0  0
 58 64  2  0  0  0
 60 61  1  0  0  0
 61 62  1  0  0  0
 61 63  1  0  0  0
  1 65  1  0  0  0
  1 66  1  0  0  0
  1 67  1  0  0  0
  2 68  1  0  0  0
  5 69  1  0  0  0
  5 70  1  0  0  0
  6 71  1  0  0  0
  7 72  1  0  0  0
  8 73  1  0  0  0
 11 74  1  0  0  0
 11 75  1  0  0  0
 11 76  1  0  0  0
 13 77  1  0  0  0
 16 78  1  0  0  0
 16 79  1  0  0  0
 17 80  1  0  0  0
 17 81  1  0  0  0
 18 82  1  0  0  0
 18 83  1  0  0  0
 19 84  1  0  0  0
 20 85  1  0  0  0
 23 86  1  0  0  0
 23 87  1  0  0  0
 25 88  1  0  0  0
 27 89  1  0  0  0
 28 90  1  0  0  0
 31 91  1  0  0  0
 31 92  1  0  0  0
 33 93  1  0  0  0
 34 94  1  0  0  0
 35 95  1  0  0  0
 36 96  1  0  0  0
 37 97  1  0  0  0
 38 98  1  0  0  0
 39 99  1  0  0  0
 42100  1  0  0  0
 42101  1  0  0  0
 43102  1  0  0  0
 43103  1  0  0  0
 44104  1  0  0  0
 44105  1  0  0  0
 45106  1  0  0  0
 47107  1  0  0  0
 48108  1  0  0  0
 48109  1  0  0  0
 50110  1  0  0  0
 53111  1  0  0  0
 53112  1  0  0  0
 54113  1  0  0  0
 54114  1  0  0  0
 55115  1  0  0  0
 55116  1  0  0  0
 56117  1  0  0  0
 57118  1  0  0  0
 59119  1  0  0  0
 60120  1  0  0  0
 60121  1  0  0  0
 61122  1  0  0  0
 62123  1  0  0  0
 62124  1  0  0  0
 62125  1  0  0  0
 63126  1  0  0  0
 63127  1  0  0  0
 63128  1  0  0  0
M  END
$$$$
