### 
### Created by X-TOOL on Mon Sep 10 21:12:54 2018
### 

@<TRIPOS>MOLECULE
2fo4_ligand
  127   129     1     0     0
SMALL
GAST_HUCK


@<TRIPOS>ATOM
      1 N          49.5070   56.6560    4.3310 N.4       1 SER         0.2396
      2 CA         48.2820   57.3620    3.8510 C.3       1 SER         0.0885
      3 C          47.9800   56.9710    2.4100 C.2       1 SER         0.2290
      4 O          48.8150   57.1560    1.5290 O.2       1 SER        -0.3906
      5 CB         48.4800   58.8810    3.9460 C.3       1 SER         0.1041
      6 OG         47.2940   59.5770    3.6080 O.3       1 SER        -0.3870
      7 N          46.7890   56.4300    2.1760 N.am      1 ALA        -0.2612
      8 CA         46.3860   56.0210    0.8370 C.3       1 ALA         0.1285
      9 C          46.2380   57.2250   -0.0810 C.2       1 ALA         0.2061
     10 O          46.0020   58.3390    0.3740 O.2       1 ALA        -0.3942
     11 CB         45.0770   55.2550    0.8900 C.3       1 ALA        -0.0244
     12 N          46.3600   57.0070   -1.3980 N.am      1 PRO        -0.2498
     13 CA         46.2390   58.0900   -2.3740 C.3       1 PRO         0.1338
     14 C          44.8090   58.5770   -2.5380 C.2       1 PRO         0.2042
     15 O          43.8560   57.9150   -2.1390 O.2       1 PRO        -0.3944
     16 CB         46.7660   57.4540   -3.6480 C.3       1 PRO        -0.0104
     17 CG         46.2480   56.0460   -3.5270 C.3       1 PRO        -0.0281
     18 CD         46.5500   55.7090   -2.0770 C.3       1 PRO         0.0369
     19 N          44.6750   59.7460   -3.1420 N.am      1 ASP        -0.2622
     20 CA         43.3750   60.3370   -3.3870 C.3       1 ASP         0.1423
     21 C          42.9620   59.9100   -4.7960 C.2       1 ASP         0.2057
     22 O          43.5660   60.3450   -5.7710 O.2       1 ASP        -0.3943
     23 CB         43.4980   61.8610   -3.2890 C.3       1 ASP         0.0406
     24 CG         42.1860   62.5690   -3.5120 C.2       1 ASP         0.0393
     25 OD1        42.1750   63.8200   -3.4760 O.co2     1 ASP        -0.5688
     26 OD2        41.1680   61.8750   -3.7260 O.co2     1 ASP        -0.5688
     27 N          41.9510   59.0530   -4.9090 N.am      1 PHE        -0.2618
     28 CA         41.5040   58.5810   -6.2240 C.3       1 PHE         0.1404
     29 C          40.4920   59.4990   -6.8990 C.2       1 PHE         0.2060
     30 O          39.5870   60.0230   -6.2570 O.2       1 PHE        -0.3942
     31 CB         40.8810   57.1820   -6.1290 C.3       1 PHE         0.0214
     32 CG         41.8130   56.1260   -5.6090 C.ar      1 PHE        -0.0386
     33 CD1        41.7780   55.7460   -4.2670 C.ar      1 PHE        -0.0601
     34 CD2        42.7200   55.4970   -6.4630 C.ar      1 PHE        -0.0601
     35 CE1        42.6310   54.7530   -3.7790 C.ar      1 PHE        -0.0686
     36 CE2        43.5810   54.5010   -5.9910 C.ar      1 PHE        -0.0686
     37 CZ         43.5340   54.1290   -4.6430 C.ar      1 PHE        -0.0687
     38 N          40.6470   59.6840   -8.2060 N.am      1 ARG        -0.2636
     39 CA         39.7290   60.5200   -8.9790 C.3       1 ARG         0.1313
     40 C          39.2080   59.6940  -10.1580 C.2       1 ARG         0.2064
     41 O          39.9400   58.8770  -10.7170 O.2       1 ARG        -0.3942
     42 CB         40.4340   61.7950   -9.4590 C.3       1 ARG        -0.0092
     43 CG         40.9670   62.6510   -8.3140 C.3       1 ARG        -0.0156
     44 CD         41.4820   64.0000   -8.7860 C.3       1 ARG         0.0627
     45 NE         42.1520   64.7290   -7.7120 N.pl3     1 ARG        -0.2723
     46 CZ         42.5350   66.0010   -7.7940 C.cat     1 ARG         0.2882
     47 NH1        43.1410   66.5820   -6.7700 N.pl3     1 ARG        -0.2849
     48 NH2        42.3050   66.6980   -8.8970 N.pl3     1 ARG        -0.2849
     49 N          37.9330   59.8990  -10.5440 N.am      1 PRO        -0.2498
     50 CA         37.2420   59.2070  -11.6360 C.3       1 PRO         0.1337
     51 C          38.0530   58.9110  -12.8810 C.2       1 PRO         0.2035
     52 O          38.9040   59.6900  -13.2910 O.2       1 PRO        -0.3944
     53 CB         36.0660   60.1250  -11.9310 C.3       1 PRO        -0.0104
     54 CG         35.7370   60.6390  -10.5950 C.3       1 PRO        -0.0281
     55 CD         37.0980   61.0080  -10.0550 C.3       1 PRO         0.0369
     56 N          37.7630   57.7620  -13.4750 N.am      1 LEU        -0.2695
     57 CA         38.4200   57.3260  -14.6920 C.3       1 LEU         0.0946
     58 C          37.4630   57.5710  -15.8620 C.2       1 LEU         0.0601
     59 O          37.6540   56.9830  -16.9470 O.co2     1 LEU        -0.5666
     60 CB         38.7770   55.8410  -14.5670 C.3       1 LEU        -0.0156
     61 CG         37.7190   54.8620  -14.0360 C.3       1 LEU        -0.0431
     62 CD1        36.6170   54.6610  -15.0600 C.3       1 LEU        -0.0625
     63 CD2        38.3810   53.5240  -13.7230 C.3       1 LEU        -0.0625
     64 OXT        36.5360   58.3830  -15.6750 O.co2     1 LEU        -0.5666
     65 H1         49.6964   56.9224    5.2845 H         1 SER         0.2016
     66 H2         50.2904   56.9092    3.7494 H         1 SER         0.2016
     67 H3         49.3612   55.6598    4.2832 H         1 SER         0.2016
     68 H4         47.4317   57.0716    4.4856 H         1 SER         0.1122
     69 H5         49.2812   59.1818    3.2549 H         1 SER         0.0640
     70 H6         48.7670   59.1412    4.9755 H         1 SER         0.0640
     71 H7         46.5990   59.3245    4.2045 H         1 SER         0.2099
     72 H8         46.1539   56.3005    2.9375 H         1 ALA         0.1884
     73 H9         47.1642   55.3611    0.4262 H         1 ALA         0.0797
     74 H10        44.7870   54.9538   -0.1274 H         1 ALA         0.0277
     75 H11        44.2937   55.8968    1.3196 H         1 ALA         0.0277
     76 H12        45.2014   54.3592    1.5161 H         1 ALA         0.0277
     77 H13        46.8682   58.9427   -2.0791 H         1 PRO         0.0802
     78 H14        47.8653   57.4747   -3.6809 H         1 PRO         0.0313
     79 H15        46.3629   57.9535   -4.5413 H         1 PRO         0.0313
     80 H16        46.7776   55.3672   -4.2116 H         1 PRO         0.0287
     81 H17        45.1677   56.0010   -3.7290 H         1 PRO         0.0287
     82 H18        45.8504   54.9529   -1.6911 H         1 PRO         0.0524
     83 H19        47.5822   55.3471   -1.9602 H         1 PRO         0.0524
     84 H20        45.4947   60.2362   -3.4382 H         1 ASP         0.1884
     85 H21        42.6411   59.9763   -2.6513 H         1 ASP         0.0819
     86 H22        44.2163   62.2051   -4.0477 H         1 ASP         0.0478
     87 H23        43.8709   62.1197   -2.2870 H         1 ASP         0.0478
     88 H24        41.4886   58.7255   -4.0850 H         1 PHE         0.1885
     89 H25        42.3925   58.5237   -6.8699 H         1 PHE         0.0823
     90 H26        40.5485   56.8837   -7.1342 H         1 PHE         0.0474
     91 H27        40.0122   57.2364   -5.4565 H         1 PHE         0.0474
     92 H28        41.0789   56.2282   -3.5933 H         1 PHE         0.0557
     93 H29        42.7577   55.7846   -7.5075 H         1 PHE         0.0557
     94 H30        42.5923   54.4678   -2.7339 H         1 PHE         0.0599
     95 H31        44.2804   54.0202   -6.6654 H         1 PHE         0.0599
     96 H32        44.1976   53.3575   -4.2696 H         1 PHE         0.0559
     97 H33        41.4115   59.2399   -8.6732 H         1 ARG         0.1883
     98 H34        38.8805   60.8089   -8.3414 H         1 ARG         0.0800
     99 H35        39.7171   62.3941  -10.0397 H         1 ARG         0.0313
    100 H36        41.2779   61.5072  -10.1032 H         1 ARG         0.0313
    101 H37        41.7905   62.1111   -7.8238 H         1 ARG         0.0301
    102 H38        40.1553   62.8170   -7.5904 H         1 ARG         0.0301
    103 H39        40.6332   64.5989   -9.1476 H         1 ARG         0.0689
    104 H40        42.1955   63.8414   -9.6081 H         1 ARG         0.0689
    105 H41        42.3404   64.2255   -6.8334 H         1 ARG         0.2642
    106 H42        43.4359   67.5666   -6.8372 H         1 ARG         0.2615
    107 H43        43.3174   66.0494   -5.9062 H         1 ARG         0.2615
    108 H44        41.8342   66.2537   -9.6982 H         1 ARG         0.2615
    109 H45        42.5970   67.6841   -8.9533 H         1 ARG         0.2615
    110 H46        36.8714   58.2421  -11.2598 H         1 PRO         0.0802
    111 H47        35.2223   59.5673  -12.3635 H         1 PRO         0.0313
    112 H48        36.3553   60.9388  -12.6122 H         1 PRO         0.0313
    113 H49        35.2581   59.8658   -9.9763 H         1 PRO         0.0287
    114 H50        35.0797   61.5188  -10.6562 H         1 PRO         0.0287
    115 H51        37.4394   61.9730  -10.4578 H         1 PRO         0.0524
    116 H52        37.0936   61.0503   -8.9558 H         1 PRO         0.0524
    117 H53        37.0644   57.1733  -13.0683 H         1 LEU         0.1875
    118 H54        39.3413   57.9067  -14.8466 H         1 LEU         0.0726
    119 H55        39.6446   55.7737  -13.8942 H         1 LEU         0.0308
    120 H56        39.0632   55.4929  -15.5704 H         1 LEU         0.0308
    121 H57        37.2802   55.2728  -13.1148 H         1 LEU         0.0297
    122 H58        35.8704   53.9580  -14.6620 H         1 LEU         0.0232
    123 H59        37.0473   54.2531  -15.9865 H         1 LEU         0.0232
    124 H60        36.1345   55.6261  -15.2737 H         1 LEU         0.0232
    125 H61        39.1787   53.6744  -12.9807 H         1 LEU         0.0232
    126 H62        38.8115   53.1036  -14.6438 H         1 LEU         0.0232
    127 H63        37.6302   52.8291  -13.3187 H         1 LEU         0.0232
@<TRIPOS>BOND
     1    1    2 1  
     2    2    3 1  
     3    2    5 1  
     4    3    4 2  
     5    3    7 am 
     6    5    6 1  
     7    7    8 1  
     8    8    9 1  
     9    8   11 1  
    10    9   10 2  
    11    9   12 am 
    12   12   13 1  
    13   12   18 1  
    14   13   14 1  
    15   13   16 1  
    16   14   15 2  
    17   14   19 am 
    18   16   17 1  
    19   17   18 1  
    20   19   20 1  
    21   20   21 1  
    22   20   23 1  
    23   21   22 2  
    24   21   27 am 
    25   23   24 1  
    26   24   25 ar 
    27   24   26 ar 
    28   27   28 1  
    29   28   29 1  
    30   28   31 1  
    31   29   30 2  
    32   29   38 am 
    33   31   32 1  
    34   32   33 ar 
    35   32   34 ar 
    36   33   35 ar 
    37   34   36 ar 
    38   35   37 ar 
    39   36   37 ar 
    40   38   39 1  
    41   39   40 1  
    42   39   42 1  
    43   40   41 2  
    44   40   49 am 
    45   42   43 1  
    46   43   44 1  
    47   44   45 1  
    48   45   46 ar 
    49   46   47 ar 
    50   46   48 ar 
    51   49   50 1  
    52   49   55 1  
    53   50   51 1  
    54   50   53 1  
    55   51   52 2  
    56   51   56 am 
    57   53   54 1  
    58   54   55 1  
    59   56   57 1  
    60   57   58 1  
    61   57   60 1  
    62   58   59 ar 
    63   58   64 ar 
    64   60   61 1  
    65   61   62 1  
    66   61   63 1  
    67    1   65 1  
    68    1   66 1  
    69    1   67 1  
    70    2   68 1  
    71    5   69 1  
    72    5   70 1  
    73    6   71 1  
    74    7   72 1  
    75    8   73 1  
    76   11   74 1  
    77   11   75 1  
    78   11   76 1  
    79   13   77 1  
    80   16   78 1  
    81   16   79 1  
    82   17   80 1  
    83   17   81 1  
    84   18   82 1  
    85   18   83 1  
    86   19   84 1  
    87   20   85 1  
    88   23   86 1  
    89   23   87 1  
    90   27   88 1  
    91   28   89 1  
    92   31   90 1  
    93   31   91 1  
    94   33   92 1  
    95   34   93 1  
    96   35   94 1  
    97   36   95 1  
    98   37   96 1  
    99   38   97 1  
   100   39   98 1  
   101   42   99 1  
   102   42  100 1  
   103   43  101 1  
   104   43  102 1  
   105   44  103 1  
   106   44  104 1  
   107   45  105 1  
   108   47  106 1  
   109   47  107 1  
   110   48  108 1  
   111   48  109 1  
   112   50  110 1  
   113   53  111 1  
   114   53  112 1  
   115   54  113 1  
   116   54  114 1  
   117   55  115 1  
   118   55  116 1  
   119   56  117 1  
   120   57  118 1  
   121   60  119 1  
   122   60  120 1  
   123   61  121 1  
   124   62  122 1  
   125   62  123 1  
   126   62  124 1  
   127   63  125 1  
   128   63  126 1  
   129   63  127 1  
@<TRIPOS>SUBSTRUCTURE
     1 SER         1

