5j47_ligand
  -I-interpret- 

 31 34  0  0  0  0  0  0  0  0999 V2000
  -41.6950    6.7980   24.3090 C   0  0  0  0  0
  -42.1720    5.4950   24.3270 C   0  0  0  0  0
  -39.4790    9.0280   23.7010 C   0  0  0  0  0
  -40.2840   13.1460   25.8850 N   0  3  0  0  0
  -39.0190    8.2780   22.6200 C   0  0  0  0  0
  -38.5110    8.9260   21.5050 C   0  0  0  0  0
  -40.9600   14.2760   27.6230 N   0  0  0  0  0
  -38.4630   10.3010   21.4600 C   0  0  0  0  0
  -38.9200   11.0540   22.5310 C   0  0  0  0  0
  -39.4420   10.4380   23.6720 C   0  0  0  0  0
  -39.9010   11.2960   24.7760 C   0  0  0  0  0
  -41.2180   12.9290   27.8580 N   0  0  0  0  0
  -40.4110   14.3680   26.4460 C   0  0  0  0  0
  -40.8030   12.2840   26.7950 C   0  0  0  0  0
  -39.7750   12.5820   24.7420 N   0  0  0  0  0
  -40.6680   10.6470   26.2090 S   0  0  0  0  0
  -39.9340    8.3730   24.8480 O   0  0  0  0  0
  -40.4390    7.0690   24.8380 C   0  0  0  0  0
  -39.6680    6.0530   25.3850 C   0  0  0  0  0
  -40.1600    4.7550   25.3920 C   0  0  0  0  0
  -41.4060    4.4760   24.8640 C   0  0  0  0  0
  -42.2989    7.6000   23.8846 H   0  0  0  0  0
  -43.1566    5.2730   23.9154 H   0  0  0  0  0
  -39.0585    7.1892   22.6512 H   0  0  0  0  0
  -38.1473    8.3433   20.6587 H   0  0  0  0  0
  -38.0635   10.8007   20.5775 H   0  0  0  0  0
  -38.8715   12.1418   22.4824 H   0  0  0  0  0
  -40.0975   15.3014   25.9784 H   0  0  0  0  0
  -38.6862    6.2720   25.8048 H   0  0  0  0  0
  -39.5595    3.9506   25.8168 H   0  0  0  0  0
  -41.7850    3.4540   24.8706 H   0  0  0  0  0
  1  2  4  0  0  0
 18  1  4  0  0  0
  2 21  4  0  0  0
  3  5  4  0  0  0
  3 10  4  0  0  0
 17  3  1  0  0  0
  4 13  4  0  0  0
 14  4  4  0  0  0
 15  4  4  0  0  0
  5  6  4  0  0  0
  6  8  4  0  0  0
 12  7  4  0  0  0
 13  7  4  0  0  0
  9  8  4  0  0  0
 10  9  4  0  0  0
 10 11  1  0  0  0
 11 15  4  0  0  0
 11 16  4  0  0  0
 14 12  4  0  0  0
 16 14  4  0  0  0
 17 18  1  0  0  0
 18 19  4  0  0  0
 19 20  4  0  0  0
 20 21  4  0  0  0
  1 22  1  0  0  0
  2 23  1  0  0  0
  5 24  1  0  0  0
  6 25  1  0  0  0
  8 26  1  0  0  0
  9 27  1  0  0  0
 13 28  1  0  0  0
 19 29  1  0  0  0
 20 30  1  0  0  0
 21 31  1  0  0  0
M  END
$$$$
