4c52_ligand
  -I-interpret- 

 63 64  0  0  0  0  0  0  0  0999 V2000
  -19.0580  -30.2020  -15.6130 O   0  0  0  0  0
  -18.5790  -29.3120  -14.8790 C   0  0  0  0  0
  -18.8250  -29.2390  -13.6530 O   0  0  0  0  0
  -17.6840  -28.2760  -15.4960 C   0  0  0  0  0
  -16.4680  -28.9260  -16.1680 C   0  0  0  0  0
  -15.2290  -29.4160  -15.0110 S   0  0  0  0  0
  -15.5900  -31.1250  -14.7640 C   0  0  0  0  0
  -14.2940  -31.9400  -14.8610 C   0  0  0  0  0
  -13.1230  -31.1830  -15.4890 C   0  0  0  0  0
  -14.5070  -33.2460  -15.6090 C   0  0  0  0  0
  -17.2000  -27.3470  -14.4770 N   0  0  0  0  0
  -17.8110  -26.1880  -14.2300 C   0  0  0  0  0
  -18.7960  -25.9280  -14.8950 O   0  0  0  0  0
  -17.3780  -25.2830  -13.3260 N   0  0  0  0  0
  -18.1730  -24.0720  -13.1290 C   0  0  0  0  0
  -17.7870  -23.0370  -14.1780 C   0  0  0  0  0
  -18.6210  -21.7840  -13.9800 C   0  0  0  0  0
  -16.1640  -25.4350  -12.7600 C   0  0  0  0  0
  -15.4910  -26.4460  -12.8920 O   0  0  0  0  0
  -15.4910  -24.3570  -11.9430 C   0  0  0  0  0
  -14.5780  -23.4830  -12.5550 C   0  0  0  0  0
  -15.7150  -24.2510  -10.5800 C   0  0  0  0  0
  -15.0480  -23.2610   -9.8550 C   0  0  0  0  0
  -14.1520  -22.3820  -10.4670 C   0  0  0  0  0
  -13.8980  -22.4880  -11.8300 C   0  0  0  0  0
  -13.0740  -21.6800  -12.4440 C   0  0  0  0  0
  -12.3310  -20.9440  -13.0330 C   0  0  0  0  0
  -11.5270  -20.1460  -13.6870 C   0  0  0  0  0
  -11.5980  -18.7550  -13.6260 C   0  0  0  0  0
  -10.6970  -17.9890  -14.3780 C   0  0  0  0  0
   -9.7280  -18.5710  -15.1910 C   0  0  0  0  0
   -8.8620  -17.8280  -15.9290 F   0  0  0  0  0
   -9.6620  -19.9530  -15.2410 C   0  0  0  0  0
  -10.5590  -20.7190  -14.4950 C   0  0  0  0  0
  -10.4920  -22.0590  -14.5420 F   0  0  0  0  0
  -18.3601  -28.4871  -13.2787 H   0  0  0  0  0
  -18.2725  -27.7432  -16.2429 H   0  0  0  0  0
  -16.0253  -28.1911  -16.8403 H   0  0  0  0  0
  -16.8119  -29.8202  -16.6879 H   0  0  0  0  0
  -16.2900  -31.4629  -15.5282 H   0  0  0  0  0
  -16.0340  -31.2640  -13.7783 H   0  0  0  0  0
  -14.0236  -32.1461  -13.8254 H   0  0  0  0  0
  -13.3885  -30.8814  -16.5022 H   0  0  0  0  0
  -12.9015  -30.2986  -14.8916 H   0  0  0  0  0
  -12.2473  -31.8313  -15.5192 H   0  0  0  0  0
  -15.2521  -33.8455  -15.0859 H   0  0  0  0  0
  -14.8552  -33.0319  -16.6194 H   0  0  0  0  0
  -13.5659  -33.7939  -15.6561 H   0  0  0  0  0
  -16.3694  -27.5928  -13.9383 H   0  0  0  0  0
  -17.9831  -23.6699  -12.1338 H   0  0  0  0  0
  -19.2318  -24.3118  -13.2267 H   0  0  0  0  0
  -17.9689  -23.4420  -15.1735 H   0  0  0  0  0
  -16.7301  -22.7910  -14.0753 H   0  0  0  0  0
  -19.6773  -22.0321  -14.0836 H   0  0  0  0  0
  -18.4372  -21.3804  -12.9843 H   0  0  0  0  0
  -18.3451  -21.0431  -14.7304 H   0  0  0  0  0
  -14.3906  -23.5787  -13.6245 H   0  0  0  0  0
  -16.4034  -24.9319  -10.0795 H   0  0  0  0  0
  -15.2315  -23.1722   -8.7842 H   0  0  0  0  0
  -13.6523  -21.6137   -9.8770 H   0  0  0  0  0
  -12.3462  -18.2685  -13.0002 H   0  0  0  0  0
  -10.7568  -16.9019  -14.3247 H   0  0  0  0  0
   -8.9111  -20.4418  -15.8617 H   0  0  0  0  0
  1  2  2  0  0  0
  2  3  1  0  0  0
  2  4  1  0  0  0
  4  5  1  0  0  0
  4 11  1  0  0  0
  5  6  1  0  0  0
  6  7  1  0  0  0
  7  8  1  0  0  0
  8  9  1  0  0  0
  8 10  1  0  0  0
 11 12  1  0  0  0
 12 13  2  0  0  0
 12 14  1  0  0  0
 14 15  1  0  0  0
 14 18  1  0  0  0
 15 16  1  0  0  0
 16 17  1  0  0  0
 18 19  2  0  0  0
 18 20  1  0  0  0
 20 21  4  0  0  0
 20 22  4  0  0  0
 21 25  4  0  0  0
 22 23  4  0  0  0
 23 24  4  0  0  0
 24 25  4  0  0  0
 25 26  1  0  0  0
 26 27  3  0  0  0
 27 28  1  0  0  0
 28 29  4  0  0  0
 28 34  4  0  0  0
 29 30  4  0  0  0
 30 31  4  0  0  0
 31 32  1  0  0  0
 31 33  4  0  0  0
 33 34  4  0  0  0
 34 35  1  0  0  0
  3 36  1  0  0  0
  4 37  1  0  0  0
  5 38  1  0  0  0
  5 39  1  0  0  0
  7 40  1  0  0  0
  7 41  1  0  0  0
  8 42  1  0  0  0
  9 43  1  0  0  0
  9 44  1  0  0  0
  9 45  1  0  0  0
 10 46  1  0  0  0
 10 47  1  0  0  0
 10 48  1  0  0  0
 11 49  1  0  0  0
 15 50  1  0  0  0
 15 51  1  0  0  0
 16 52  1  0  0  0
 16 53  1  0  0  0
 17 54  1  0  0  0
 17 55  1  0  0  0
 17 56  1  0  0  0
 21 57  1  0  0  0
 22 58  1  0  0  0
 23 59  1  0  0  0
 24 60  1  0  0  0
 29 61  1  0  0  0
 30 62  1  0  0  0
 33 63  1  0  0  0
M  END
$$$$
