4yc8_ligand
  -I-interpret- 

 61 65  0  0  0  0  0  0  0  0999 V2000
   15.8720   46.7130    2.8050 O   0  0  0  0  0
   15.2110   46.1710    1.9200 C   0  0  0  0  0
   15.6070   45.0460    1.2510 N   0  0  0  0  0
   16.7060   44.2120    1.5480 C   0  0  0  0  0
   17.1300   43.3960    0.4910 C   0  0  0  0  0
   18.2540   42.6100    0.6050 C   0  0  0  0  0
   19.0100   42.6470    1.7820 C   0  0  0  0  0
   20.1590   41.8830    1.7620 O   0  0  0  0  0
   20.4310   41.1010    2.8790 C   0  0  0  0  0
   19.4700   40.1040    3.2530 C   0  0  0  0  0
   19.7310   39.3570    4.3970 C   0  0  0  0  0
   20.8820   39.5800    5.1470 C   0  0  0  0  0
   21.8100   40.5540    4.7670 C   0  0  0  0  0
   21.6000   41.3200    3.6250 C   0  0  0  0  0
   18.6160   43.4450    2.8490 C   0  0  0  0  0
   17.4700   44.2280    2.7330 C   0  0  0  0  0
   13.9950   46.8460    1.4370 C   0  0  0  0  0
   12.7810   46.3390    0.9970 C   0  0  0  0  0
   11.8280   47.3240    0.6900 N   0  0  0  0  0
   12.3950   48.5470    0.9100 C   0  0  0  0  0
   14.0090   48.4930    1.4730 S   0  0  0  0  0
   11.7140   49.7460    0.5860 N   0  0  0  0  0
   12.1980   51.0640    0.7470 C   0  0  0  0  0
   11.3880   52.1580    0.2760 C   0  0  0  0  0
   11.9680   53.4560    0.3210 C   0  0  0  0  0
   13.2460   53.6760    0.8220 N   0  0  0  0  0
   13.9440   52.5680    1.2730 C   0  0  0  0  0
   15.3650   52.8110    1.7470 C   0  0  0  0  0
   13.4730   51.2770    1.2690 N   0  0  0  0  0
   11.3280   54.6430   -0.1690 N   0  0  0  0  0
   11.8950   56.0140   -0.0530 C   0  0  0  0  0
   10.9700   56.8010    0.8680 C   0  0  0  0  0
    9.5990   56.8490    0.2690 N   0  3  0  0  0
    9.0780   55.4580    0.0900 C   0  0  0  0  0
   10.0100   54.6860   -0.8360 C   0  0  0  0  0
   15.0430   44.7788    0.4442 H   0  0  0  0  0
   16.5597   43.3834   -0.4378 H   0  0  0  0  0
   18.5541   41.9614   -0.2180 H   0  0  0  0  0
   18.5688   39.9379    2.6628 H   0  0  0  0  0
   19.0253   38.5875    4.7100 H   0  0  0  0  0
   21.0624   38.9868    6.0434 H   0  0  0  0  0
   22.7041   40.7143    5.3696 H   0  0  0  0  0
   22.3259   42.0724    3.3166 H   0  0  0  0  0
   19.1993   43.4581    3.7697 H   0  0  0  0  0
   17.1608   44.8591    3.5662 H   0  0  0  0  0
   12.5843   45.2715    0.8983 H   0  0  0  0  0
   10.7767   49.6480    0.1959 H   0  0  0  0  0
   10.3766   51.9985   -0.0979 H   0  0  0  0  0
   15.9545   53.2226    0.9278 H   0  0  0  0  0
   15.3538   53.5160    2.5783 H   0  0  0  0  0
   15.8037   51.8684    2.0742 H   0  0  0  0  0
   11.9605   56.4888   -1.0320 H   0  0  0  0  0
   12.9063   55.9806    0.3523 H   0  0  0  0  0
   11.3513   57.8150    0.9882 H   0  0  0  0  0
   10.9255   56.3148    1.8426 H   0  0  0  0  0
    9.6424   57.3132   -0.6382 H   0  0  0  0  0
    8.9765   57.3659    0.8901 H   0  0  0  0  0
    8.0797   55.4957   -0.3460 H   0  0  0  0  0
    9.0301   54.9591    1.0579 H   0  0  0  0  0
    9.6326   53.6796   -1.0173 H   0  0  0  0  0
   10.0819   55.1719   -1.8091 H   0  0  0  0  0
  1  2  2  0  0  0
  2  3  1  0  0  0
  2 17  1  0  0  0
  3  4  1  0  0  0
  4  5  4  0  0  0
  4 16  4  0  0  0
  5  6  4  0  0  0
  6  7  4  0  0  0
  7  8  1  0  0  0
  7 15  4  0  0  0
  8  9  1  0  0  0
  9 10  4  0  0  0
  9 14  4  0  0  0
 10 11  4  0  0  0
 11 12  4  0  0  0
 12 13  4  0  0  0
 13 14  4  0  0  0
 15 16  4  0  0  0
 17 18  4  0  0  0
 17 21  4  0  0  0
 18 19  4  0  0  0
 19 20  4  0  0  0
 20 21  4  0  0  0
 20 22  1  0  0  0
 22 23  1  0  0  0
 23 24  4  0  0  0
 23 29  4  0  0  0
 24 25  4  0  0  0
 25 26  4  0  0  0
 25 30  1  0  0  0
 26 27  4  0  0  0
 27 28  1  0  0  0
 27 29  4  0  0  0
 30 31  1  0  0  0
 30 35  1  0  0  0
 31 32  1  0  0  0
 32 33  1  0  0  0
 33 34  1  0  0  0
 34 35  1  0  0  0
  3 36  1  0  0  0
  5 37  1  0  0  0
  6 38  1  0  0  0
 10 39  1  0  0  0
 11 40  1  0  0  0
 12 41  1  0  0  0
 13 42  1  0  0  0
 14 43  1  0  0  0
 15 44  1  0  0  0
 16 45  1  0  0  0
 18 46  1  0  0  0
 22 47  1  0  0  0
 24 48  1  0  0  0
 28 49  1  0  0  0
 28 50  1  0  0  0
 28 51  1  0  0  0
 31 52  1  0  0  0
 31 53  1  0  0  0
 32 54  1  0  0  0
 32 55  1  0  0  0
 33 56  1  0  0  0
 33 57  1  0  0  0
 34 58  1  0  0  0
 34 59  1  0  0  0
 35 60  1  0  0  0
 35 61  1  0  0  0
M  END
$$$$
