1m5e_ligand
  -I-interpret- 

 26 26  0  0  0  0  0  0  0  0999 V2000
   61.8200   66.3810   47.8210 O   0  0  0  0  0
   62.4220   66.6670   48.8940 C   0  0  0  0  0
   62.0550   66.2640   50.0650 O   0  0  0  0  0
   63.6410   67.5560   48.8180 C   0  0  0  0  0
   64.1100   68.0520   47.6600 N   0  0  0  0  0
   65.2120   68.8120   47.9830 O   0  0  0  0  0
   65.4180   68.7830   49.3210 C   0  0  0  0  0
   64.4580   67.9980   49.9300 C   0  0  0  0  0
   64.3150   67.7010   51.4000 C   0  0  0  0  0
   63.2840   68.5750   52.1300 C   0  0  0  0  0
   63.6390   70.0330   51.9890 N   0  3  0  0  0
   63.1600   68.1700   53.6260 C   0  0  0  0  0
   63.3660   69.1300   54.4350 O   0  0  0  0  0
   62.8690   66.9800   53.8450 O   0  0  0  0  0
   66.5660   69.5620   49.8120 C   0  0  0  0  0
   62.6628   66.6058   50.7248 H   0  0  0  0  0
   65.2830   67.8981   51.8606 H   0  0  0  0  0
   63.9751   66.6689   51.4850 H   0  0  0  0  0
   62.3107   68.4127   51.6670 H   0  0  0  0  0
   62.9460   70.5993   52.4783 H   0  0  0  0  0
   64.5610   70.1978   52.3929 H   0  0  0  0  0
   63.6494   70.2851   51.0007 H   0  0  0  0  0
   63.5709   69.9262   53.9394 H   0  0  0  0  0
   67.4811   69.1853   49.3551 H   0  0  0  0  0
   66.4315   70.6109   49.5476 H   0  0  0  0  0
   66.6327   69.4648   50.8956 H   0  0  0  0  0
  2  1  2  0  0  0
  2  4  1  0  0  0
  2  3  1  0  0  0
  4  8  4  0  0  0
  4  5  4  0  0  0
  5  6  4  0  0  0
  6  7  4  0  0  0
  7 15  1  0  0  0
  8  7  4  0  0  0
  8  9  1  0  0  0
  9 10  1  0  0  0
 10 12  1  0  0  0
 10 11  1  0  0  0
 12 14  2  0  0  0
 12 13  1  0  0  0
  3 16  1  0  0  0
  9 17  1  0  0  0
  9 18  1  0  0  0
 10 19  1  0  0  0
 11 20  1  0  0  0
 11 21  1  0  0  0
 11 22  1  0  0  0
 13 23  1  0  0  0
 15 24  1  0  0  0
 15 25  1  0  0  0
 15 26  1  0  0  0
M  END
$$$$
