3tfu_ligand
  -I-interpret- 

 47 48  0  0  0  0  0  0  0  0999 V2000
   22.7480  -11.5740  -28.0810 C   0  0  0  0  0
   17.7390   -7.4540  -28.9020 O   0  0  0  0  0
   22.8250   -3.7010  -28.0440 O   0  0  0  0  0
   14.9470   -0.5170  -29.4340 O   0  0  0  0  0
   20.9320   -9.5620  -28.4480 O   0  0  0  0  0
   25.3190   -3.2460  -27.5440 O   0  0  0  0  0
   23.6740   -3.6210  -25.6370 O   0  0  0  0  0
   19.2750   -3.9740  -30.2740 C   0  0  0  0  0
   20.1060   -4.9400  -29.7190 C   0  0  0  0  0
   24.8980   -8.6110  -28.1210 C   0  0  0  0  0
   15.5180   -1.3430  -30.4600 C   0  0  0  0  0
   16.4620   -2.3660  -29.8150 C   0  0  0  0  0
   17.0600   -3.2540  -30.9020 C   0  0  0  0  0
   21.7920   -6.7870  -28.6130 C   0  0  0  0  0
   24.3650   -6.2530  -28.3950 C   0  0  0  0  0
   20.3580   -7.0720  -28.7200 N   0  0  0  0  0
   17.3690   -5.4180  -29.8720 N   0  0  0  0  0
   24.4670   -9.9450  -28.0490 N   0  0  0  0  0
   24.3970   -5.6120  -27.1140 O   0  0  0  0  0
   23.1660  -10.2450  -28.1560 C   0  0  0  0  0
   17.9050   -4.2080  -30.3440 C   0  0  0  0  0
   23.9750   -7.5890  -28.3000 C   0  0  0  0  0
   22.2440   -9.2230  -28.3430 C   0  0  0  0  0
   19.5750   -6.1440  -29.2670 C   0  0  0  0  0
   22.6310   -7.8860  -28.4210 C   0  0  0  0  0
   18.2090   -6.3950  -29.3190 C   0  0  0  0  0
   24.0180   -4.0330  -27.0270 P   0  0  0  0  0
   23.2178  -12.1470  -28.8804 H   0  0  0  0  0
   23.0366  -11.9904  -27.1159 H   0  0  0  0  0
   21.6642  -11.6193  -28.1883 H   0  0  0  0  0
   23.0745   -3.9767  -28.9291 H   0  0  0  0  0
   14.3554    0.1248  -29.8337 H   0  0  0  0  0
   20.4067   -8.7684  -28.5735 H   0  0  0  0  0
   25.5249   -3.5240  -28.4395 H   0  0  0  0  0
   19.6930   -3.0407  -30.6514 H   0  0  0  0  0
   21.1769   -4.7538  -29.6376 H   0  0  0  0  0
   25.9592   -8.3769  -28.0362 H   0  0  0  0  0
   16.0749   -0.7225  -31.1621 H   0  0  0  0  0
   14.7240   -1.8638  -30.9951 H   0  0  0  0  0
   15.9061   -2.9801  -29.1065 H   0  0  0  0  0
   17.2614   -1.8443  -29.2887 H   0  0  0  0  0
   17.6336   -2.6329  -31.5900 H   0  0  0  0  0
   16.2516   -3.7621  -31.4278 H   0  0  0  0  0
   21.9104   -6.1582  -27.7306 H   0  0  0  0  0
   22.0847   -6.3458  -29.5658 H   0  0  0  0  0
   25.3689   -6.2198  -28.8184 H   0  0  0  0  0
   23.6415   -5.7299  -29.0204 H   0  0  0  0  0
 20  1  1  0  0  0
 26  2  2  0  0  0
 27  3  1  0  0  0
 11  4  1  0  0  0
 23  5  1  0  0  0
 27  6  1  0  0  0
 27  7  2  0  0  0
  9  8  2  0  0  0
  8 21  1  0  0  0
 24  9  1  0  0  0
 10 18  4  0  0  0
 22 10  4  0  0  0
 12 11  1  0  0  0
 13 12  1  0  0  0
 21 13  1  0  0  0
 14 16  1  0  0  0
 25 14  1  0  0  0
 15 19  1  0  0  0
 22 15  1  0  0  0
 16 24  2  0  0  0
 21 17  2  0  0  0
 17 26  1  0  0  0
 18 20  4  0  0  0
 19 27  1  0  0  0
 20 23  4  0  0  0
 22 25  4  0  0  0
 23 25  4  0  0  0
 24 26  1  0  0  0
  1 28  1  0  0  0
  1 29  1  0  0  0
  1 30  1  0  0  0
  3 31  1  0  0  0
  4 32  1  0  0  0
  5 33  1  0  0  0
  6 34  1  0  0  0
  8 35  1  0  0  0
  9 36  1  0  0  0
 10 37  1  0  0  0
 11 38  1  0  0  0
 11 39  1  0  0  0
 12 40  1  0  0  0
 12 41  1  0  0  0
 13 42  1  0  0  0
 13 43  1  0  0  0
 14 44  1  0  0  0
 14 45  1  0  0  0
 15 46  1  0  0  0
 15 47  1  0  0  0
M  END
$$$$
