1tkx_ligand
  -I-interpret- 

 37 39  0  0  0  0  0  0  0  0999 V2000
    0.7730  -34.6330   26.1380 C   0  0  0  0  0
    1.2680  -33.7150   26.6210 C   0  0  0  0  0
    1.9960  -32.3710   27.3240 C   0  0  0  0  0
    2.0490  -31.3850   26.2340 C   0  0  0  0  0
    0.9700  -31.3220   27.2890 C   0  0  0  0  0
   -0.7720  -35.3280   21.4040 N   0  0  0  0  0
    0.3650  -36.0650   21.7680 C   0  0  0  0  0
    1.0670  -36.5610   20.8800 O   0  0  0  0  0
    0.6740  -36.2230   23.2290 C   0  0  0  0  0
   -0.1910  -35.6460   24.1620 C   0  0  0  0  0
    0.1220  -35.7660   25.5290 O   0  0  0  0  0
   -1.6080  -34.7560   22.3360 C   0  0  0  0  0
   -1.3290  -34.9200   23.7460 C   0  0  0  0  0
   -2.1850  -34.2800   24.6860 C   0  0  0  0  0
   -3.2750  -33.4880   24.2510 C   0  0  0  0  0
   -3.5390  -33.3250   22.8610 C   0  0  0  0  0
   -2.7080  -33.9620   21.9050 C   0  0  0  0  0
   -4.0710  -32.8640   25.1850 F   0  0  0  0  0
    1.9570  -36.9190   23.7480 C   0  0  0  0  0
    3.2490  -36.4900   23.0410 C   0  0  0  0  0
    1.8240  -38.4430   23.8350 C   0  0  0  0  0
    2.6921  -32.7435   28.0755 H   0  0  0  0  0
    2.1454  -31.3581   25.1486 H   0  0  0  0  0
    2.7705  -30.7266   25.7502 H   0  0  0  0  0
    0.5132  -30.5931   27.9584 H   0  0  0  0  0
   -0.1138  -31.2264   27.3550 H   0  0  0  0  0
   -0.9867  -35.2119   20.4136 H   0  0  0  0  0
   -1.9992  -34.4010   25.7532 H   0  0  0  0  0
   -4.3782  -32.7118   22.5328 H   0  0  0  0  0
   -2.9113  -33.8438   20.8407 H   0  0  0  0  0
    2.0575  -36.5519   24.7694 H   0  0  0  0  0
    3.1732  -36.7190   21.9780 H   0  0  0  0  0
    3.3954  -35.4180   23.1735 H   0  0  0  0  0
    4.0931  -37.0292   23.4709 H   0  0  0  0  0
    1.0122  -38.6973   24.5164 H   0  0  0  0  0
    1.6083  -38.8447   22.8449 H   0  0  0  0  0
    2.7572  -38.8673   24.2053 H   0  0  0  0  0
  1  2  3  0  0  0
 11  1  1  0  0  0
  2  3  1  0  0  0
  3  4  1  0  0  0
  3  5  1  0  0  0
  5  4  1  0  0  0
  7  6  1  0  0  0
  6 12  1  0  0  0
  7  8  2  0  0  0
  9  7  1  0  0  0
 10  9  2  0  0  0
  9 19  1  0  0  0
 10 11  1  0  0  0
 10 13  1  0  0  0
 12 13  4  0  0  0
 12 17  4  0  0  0
 13 14  4  0  0  0
 14 15  4  0  0  0
 15 16  4  0  0  0
 15 18  1  0  0  0
 16 17  4  0  0  0
 19 20  1  0  0  0
 19 21  1  0  0  0
  3 22  1  0  0  0
  4 23  1  0  0  0
  4 24  1  0  0  0
  5 25  1  0  0  0
  5 26  1  0  0  0
  6 27  1  0  0  0
 14 28  1  0  0  0
 16 29  1  0  0  0
 17 30  1  0  0  0
 19 31  1  0  0  0
 20 32  1  0  0  0
 20 33  1  0  0  0
 20 34  1  0  0  0
 21 35  1  0  0  0
 21 36  1  0  0  0
 21 37  1  0  0  0
M  END
$$$$
