3ked_ligand
  -I-interpret- 

 20 19  0  0  0  0  0  0  0  0999 V2000
  -49.0580   48.2760    6.2950 N   0  3  0  0  0
  -48.7580   47.4260    7.5100 C   0  0  0  0  0
  -47.9490   46.1570    7.0720 C   0  0  0  0  0
  -48.2970   45.6630    6.0220 O   0  0  0  0  0
  -50.0730   47.0430    8.2630 C   0  0  0  0  0
  -49.6910   46.3910    9.6420 C   0  0  0  0  0
  -49.2280   44.9620    9.6120 N   0  3  0  0  0
  -47.0020   45.7480    7.7210 O   0  0  0  0  0
  -48.1853   48.5117    5.8226 H   0  0  0  0  0
  -49.6611   47.7555    5.6579 H   0  0  0  0  0
  -49.5292   49.1318    6.5882 H   0  0  0  0  0
  -48.1490   47.9993    8.2089 H   0  0  0  0  0
  -50.6498   46.3366    7.6660 H   0  0  0  0  0
  -50.6781   47.9343    8.4292 H   0  0  0  0  0
  -50.6034   46.3970   10.2383 H   0  0  0  0  0
  -48.8497   46.9697   10.0233 H   0  0  0  0  0
  -49.0117   44.6559   10.5607 H   0  0  0  0  0
  -49.9662   44.3747    9.2240 H   0  0  0  0  0
  -48.3928   44.8886    9.0311 H   0  0  0  0  0
  -46.9041   46.2814    8.5131 H   0  0  0  0  0
  1  2  1  0  0  0
  2  3  1  0  0  0
  2  5  1  0  0  0
  3  4  2  0  0  0
  3  8  1  0  0  0
  5  6  1  0  0  0
  6  7  1  0  0  0
  1  9  1  0  0  0
  1 10  1  0  0  0
  1 11  1  0  0  0
  2 12  1  0  0  0
  5 13  1  0  0  0
  5 14  1  0  0  0
  6 15  1  0  0  0
  6 16  1  0  0  0
  7 17  1  0  0  0
  7 18  1  0  0  0
  7 19  1  0  0  0
  8 20  1  0  0  0
M  END
$$$$
