### 
### Created by X-TOOL on Mon Sep 10 21:12:55 2018
### 

@<TRIPOS>MOLECULE
2qcg_ligand
   32    33     1     0     0
SMALL
GAST_HUCK


@<TRIPOS>ATOM
      1 P           3.7020   13.3990   29.8730 P.3       1 5BU         0.2008
      2 OP1         4.5670   14.1280   30.8970 O.co2     1 5BU        -0.5537
      3 OP2         3.7400   14.1180   28.5130 O.co2     1 5BU        -0.5537
      4 OP3         2.3300   13.1380   30.3440 O.co2     1 5BU        -0.5537
      5 O5'         4.4390   11.9460   29.7280 O.3       1 5BU        -0.2734
      6 C5'         4.0100   10.9210   28.7840 C.3       1 5BU         0.1072
      7 C4'         4.9730    9.6690   28.8810 C.3       1 5BU         0.1182
      8 O4'         4.5350    8.7520   27.8940 O.3       1 5BU        -0.3359
      9 C3'         6.4700    9.9660   28.6340 C.3       1 5BU         0.1149
     10 O3'         7.3430    9.2230   29.5220 O.3       1 5BU        -0.3864
     11 C2'         6.6990    9.5020   27.2300 C.3       1 5BU         0.1392
     12 O2'         8.0300    9.0690   26.9530 O.3       1 5BU        -0.3836
     13 C1'         5.6830    8.4430   27.0230 C.3       1 5BU         0.2081
     14 N1          5.1920    8.3840   25.6570 N.am      1 5BU        -0.1534
     15 C2          4.4250    9.4100   25.0670 C.2       1 5BU         0.3361
     16 O2          4.1200   10.5070   25.7090 O.2       1 5BU        -0.3799
     17 N3          3.9620    9.2240   23.7700 N.am      1 5BU        -0.1863
     18 C4          4.2740    8.0900   23.0710 C.2       1 5BU         0.1888
     19 O4          3.7840    8.0350   21.8660 O.2       1 5BU        -0.4134
     20 C5          5.1010    7.0890   23.7020 C.2       1 5BU         0.0775
     21 C6          5.5280    7.2770   24.9800 C.2       1 5BU         0.0731
     22 BR          5.7240    5.4100   22.9170 Br        1 5BU        -0.0876
     23 H1          4.0418   11.3283   27.7627 H         1 5BU         0.0639
     24 H2          2.9821   10.6109   29.0233 H         1 5BU         0.0639
     25 H3          4.8706    9.2239   29.8817 H         1 5BU         0.0650
     26 H4          6.6713   11.0425   28.7370 H         1 5BU         0.0648
     27 H5          7.1455    9.4516   30.4228 H         1 5BU         0.2100
     28 H6          6.4868   10.3371   26.5462 H         1 5BU         0.0676
     29 H7          8.0896    8.7927   26.0460 H         1 5BU         0.2101
     30 H8          6.1162    7.4688   27.2937 H         1 5BU         0.1003
     31 H9          3.3940    9.9273   23.3425 H         1 5BU         0.2259
     32 H10         6.1489    6.5206   25.4577 H         1 5BU         0.1255
@<TRIPOS>BOND
     1    1    2 ar 
     2    1    3 ar 
     3    1    4 ar 
     4    1    5 1  
     5    5    6 1  
     6    6    7 1  
     7    7    8 1  
     8    7    9 1  
     9    8   13 1  
    10    9   10 1  
    11    9   11 1  
    12   11   12 1  
    13   11   13 1  
    14   13   14 1  
    15   14   15 am 
    16   14   21 1  
    17   15   16 2  
    18   15   17 am 
    19   17   18 am 
    20   18   19 2  
    21   18   20 1  
    22   20   21 2  
    23   20   22 1  
    24    6   23 1  
    25    6   24 1  
    26    7   25 1  
    27    9   26 1  
    28   10   27 1  
    29   11   28 1  
    30   12   29 1  
    31   13   30 1  
    32   17   31 1  
    33   21   32 1  
@<TRIPOS>SUBSTRUCTURE
     1 5BU         1

