2qcg_ligand
  -I-interpret- 

 34 35  0  0  0  0  0  0  0  0999 V2000
    3.7020   13.3990   29.8730 P   0  0  0  0  0
    4.5670   14.1280   30.8970 O   0  0  0  0  0
    3.7400   14.1180   28.5130 O   0  0  0  0  0
    2.3300   13.1380   30.3440 O   0  0  0  0  0
    4.4390   11.9460   29.7280 O   0  0  0  0  0
    4.0100   10.9210   28.7840 C   0  0  0  0  0
    4.9730    9.6690   28.8810 C   0  0  0  0  0
    4.5350    8.7520   27.8940 O   0  0  0  0  0
    6.4700    9.9660   28.6340 C   0  0  0  0  0
    7.3430    9.2230   29.5220 O   0  0  0  0  0
    6.6990    9.5020   27.2300 C   0  0  0  0  0
    8.0300    9.0690   26.9530 O   0  0  0  0  0
    5.6830    8.4430   27.0230 C   0  0  0  0  0
    5.1920    8.3840   25.6570 N   0  0  0  0  0
    4.4250    9.4100   25.0670 C   0  0  0  0  0
    4.1200   10.5070   25.7090 O   0  0  0  0  0
    3.9620    9.2240   23.7700 N   0  0  0  0  0
    4.2740    8.0900   23.0710 C   0  0  0  0  0
    3.7840    8.0350   21.8660 O   0  0  0  0  0
    5.1010    7.0890   23.7020 C   0  0  0  0  0
    5.5280    7.2770   24.9800 C   0  0  0  0  0
    5.7240    5.4100   22.9170 Br  0  0  0  0  0
    5.4439   14.2675   30.5321 H   0  0  0  0  0
    4.6531   14.2628   28.2543 H   0  0  0  0  0
    4.0438   11.3250   27.7722 H   0  0  0  0  0
    2.9921   10.6130   29.0232 H   0  0  0  0  0
    4.9167    9.2948   29.9032 H   0  0  0  0  0
    6.6913   11.0193   28.8065 H   0  0  0  0  0
    8.2571    9.4428   29.3279 H   0  0  0  0  0
    6.5892   10.3267   26.5258 H   0  0  0  0  0
    8.0903    8.7898   26.0365 H   0  0  0  0  0
    6.1507    7.4850   27.2503 H   0  0  0  0  0
    3.3827    9.9414   23.3340 H   0  0  0  0  0
    6.1495    6.5199   25.4581 H   0  0  0  0  0
  1  2  1  0  0  0
  1  3  1  0  0  0
  1  4  2  0  0  0
  1  5  1  0  0  0
  5  6  1  0  0  0
  6  7  1  0  0  0
  7  8  1  0  0  0
  7  9  1  0  0  0
  8 13  1  0  0  0
  9 10  1  0  0  0
  9 11  1  0  0  0
 11 12  1  0  0  0
 11 13  1  0  0  0
 13 14  1  0  0  0
 14 15  1  0  0  0
 14 21  1  0  0  0
 15 16  2  0  0  0
 15 17  1  0  0  0
 17 18  1  0  0  0
 18 19  2  0  0  0
 18 20  1  0  0  0
 20 21  2  0  0  0
 20 22  1  0  0  0
  2 23  1  0  0  0
  3 24  1  0  0  0
  6 25  1  0  0  0
  6 26  1  0  0  0
  7 27  1  0  0  0
  9 28  1  0  0  0
 10 29  1  0  0  0
 11 30  1  0  0  0
 12 31  1  0  0  0
 13 32  1  0  0  0
 17 33  1  0  0  0
 21 34  1  0  0  0
M  END
$$$$
