4cfw_ligand
  -I-interpret- 

 52 55  0  0  0  0  0  0  0  0999 V2000
  -33.9570   13.6480   29.9500 N   0  0  0  0  0
  -33.6890   14.1170   28.7200 C   0  0  0  0  0
  -33.6400   13.2870   27.7120 N   0  0  0  0  0
  -33.4540   15.4280   28.5110 N   0  0  0  0  0
  -33.5050   16.2830   29.5510 C   0  0  0  0  0
  -33.8050   15.8550   30.8080 C   0  0  0  0  0
  -34.0380   14.5290   30.9920 C   0  0  0  0  0
  -34.2990   14.1010   32.2880 O   0  0  0  0  0
  -33.8060   16.9240   31.6390 N   0  0  0  0  0
  -33.5240   17.9860   30.8560 C   0  0  0  0  0
  -33.3370   17.6010   29.5780 N   0  0  0  0  0
  -35.6320   13.5710   32.5040 C   0  0  0  0  0
  -35.7420   13.0430   33.9460 C   0  0  0  0  0
  -33.4030   19.2760   31.1890 C   0  0  0  0  0
  -32.0050   21.2800   31.0350 C   0  0  0  0  0
  -34.9380   13.9660   34.8980 C   0  0  0  0  0
  -35.4510   13.8850   36.3280 C   0  0  0  0  0
  -36.9190   14.5450   36.4130 C   0  0  0  0  0
  -37.7250   14.3770   35.1090 C   0  0  0  0  0
  -37.2760   13.0210   34.3830 C   0  0  0  0  0
  -32.2410   19.9310   30.7820 C   0  0  0  0  0
  -32.9750   21.9950   31.7100 C   0  0  0  0  0
  -34.1540   21.3780   32.1290 C   0  0  0  0  0
  -34.3960   20.0140   31.8640 C   0  0  0  0  0
  -35.5880   19.4140   32.2530 C   0  0  0  0  0
  -35.3190   22.4880   32.9300 S   0  0  0  0  0
  -34.6590   23.9120   32.9380 O   0  0  0  0  0
  -35.6300   22.1260   34.2980 N   0  0  0  0  0
  -36.6620   22.4720   32.1570 O   0  0  0  0  0
  -33.8046   12.2917   27.8625 H   0  0  0  0  0
  -33.4372   13.6344   26.7747 H   0  0  0  0  0
  -35.8196   12.7582   31.8024 H   0  0  0  0  0
  -36.3681   14.3594   32.3469 H   0  0  0  0  0
  -35.3358   12.0329   33.9993 H   0  0  0  0  0
  -31.0810   21.7580   30.7096 H   0  0  0  0  0
  -35.0469   14.9939   34.5522 H   0  0  0  0  0
  -33.8964   13.6449   34.8885 H   0  0  0  0  0
  -34.7720   14.4251   36.9878 H   0  0  0  0  0
  -35.5048   12.8406   36.6352 H   0  0  0  0  0
  -36.7954   15.6127   36.5943 H   0  0  0  0  0
  -37.4657   14.0424   37.2109 H   0  0  0  0  0
  -37.5358   15.2246   34.4503 H   0  0  0  0  0
  -38.7893   14.3331   35.3399 H   0  0  0  0  0
  -37.4140   12.2004   35.0870 H   0  0  0  0  0
  -37.8808   12.9042   33.4837 H   0  0  0  0  0
  -31.4841   19.3620   30.2421 H   0  0  0  0  0
  -32.8175   23.0534   31.9177 H   0  0  0  0  0
  -36.1059   19.0333   31.3727 H   0  0  0  0  0
  -35.3734   18.5906   32.9342 H   0  0  0  0  0
  -36.2161   20.1492   32.7561 H   0  0  0  0  0
  -35.4108   22.7696   35.0583 H   0  0  0  0  0
  -36.0682   21.2275   34.5008 H   0  0  0  0  0
  1  2  4  0  0  0
  1  7  4  0  0  0
  2  3  1  0  0  0
  2  4  4  0  0  0
  4  5  4  0  0  0
  5  6  4  0  0  0
  5 11  4  0  0  0
  6  7  4  0  0  0
  6  9  4  0  0  0
  7  8  1  0  0  0
  8 12  1  0  0  0
  9 10  4  0  0  0
 10 11  4  0  0  0
 10 14  1  0  0  0
 12 13  1  0  0  0
 13 16  1  0  0  0
 13 20  1  0  0  0
 14 21  4  0  0  0
 14 24  4  0  0  0
 21 15  4  0  0  0
 15 22  4  0  0  0
 16 17  1  0  0  0
 17 18  1  0  0  0
 18 19  1  0  0  0
 19 20  1  0  0  0
 22 23  4  0  0  0
 23 24  4  0  0  0
 23 26  1  0  0  0
 24 25  1  0  0  0
 26 27  2  0  0  0
 26 28  1  0  0  0
 26 29  2  0  0  0
  3 30  1  0  0  0
  3 31  1  0  0  0
 12 32  1  0  0  0
 12 33  1  0  0  0
 13 34  1  0  0  0
 15 35  1  0  0  0
 16 36  1  0  0  0
 16 37  1  0  0  0
 17 38  1  0  0  0
 17 39  1  0  0  0
 18 40  1  0  0  0
 18 41  1  0  0  0
 19 42  1  0  0  0
 19 43  1  0  0  0
 20 44  1  0  0  0
 20 45  1  0  0  0
 21 46  1  0  0  0
 22 47  1  0  0  0
 25 48  1  0  0  0
 25 49  1  0  0  0
 25 50  1  0  0  0
 28 51  1  0  0  0
 28 52  1  0  0  0
M  END
$$$$
