5tq1_ligand
  -I-interpret- 

127128  0  0  0  0  0  0  0  0999 V2000
    2.6210    6.0060   30.1050 N   0  3  0  0  0
    2.3880    7.2130   29.3240 C   0  0  0  0  0
    2.1060    6.8750   27.8600 C   0  0  0  0  0
    2.2500    7.7240   26.9780 O   0  0  0  0  0
    3.5920    8.1520   29.4230 C   0  0  0  0  0
    4.7480    7.5650   28.8500 O   0  0  0  0  0
    1.7170    5.6280   27.6030 N   0  0  0  0  0
    1.2730    5.2520   26.2680 C   0  0  0  0  0
   -0.0550    5.9320   25.9710 C   0  0  0  0  0
   -0.9800    5.9010   26.7920 O   0  0  0  0  0
    1.1170    3.7340   26.1660 C   0  0  0  0  0
    2.3800    3.1010   26.0890 O   0  0  0  0  0
   -0.1390    6.5620   24.8070 N   0  0  0  0  0
   -1.3530    7.2530   24.3950 C   0  0  0  0  0
   -2.1850    6.3380   23.5100 C   0  0  0  0  0
   -1.7060    5.8440   22.4860 O   0  0  0  0  0
   -1.0190    8.5800   23.6930 C   0  0  0  0  0
   -2.2630    9.2120   23.0810 C   0  0  0  0  0
   -0.3750    9.5390   24.6860 C   0  0  0  0  0
   -3.4310    6.1120   23.9120 N   0  0  0  0  0
   -4.3550    5.3280   23.1100 C   0  0  0  0  0
   -5.5540    6.1730   22.7010 C   0  0  0  0  0
   -5.8430    7.2100   23.3100 O   0  0  0  0  0
   -4.8440    4.1250   23.9120 C   0  0  0  0  0
   -3.7720    3.1170   24.2690 C   0  0  0  0  0
   -3.1310    3.1690   25.4970 C   0  0  0  0  0
   -3.4120    2.1030   23.3900 C   0  0  0  0  0
   -2.1540    2.2500   25.8360 C   0  0  0  0  0
   -2.4400    1.1730   23.7220 C   0  0  0  0  0
   -1.8020    1.2630   24.9450 C   0  0  0  0  0
   -0.8970    0.3870   25.2990 O   0  0  0  0  0
    0.5410    0.0960   24.6210 P   0  0  0  0  0
    0.6320    0.7930   23.2580 O   0  0  0  0  0
    1.5980    0.5800   25.6190 O   0  0  0  0  0
    0.6260   -1.3740   24.4840 O   0  0  0  0  0
   -6.2570    5.7310   21.6690 N   0  0  0  0  0
   -7.5080    6.3550   21.2700 C   0  0  0  0  0
   -8.4380    6.2830   22.4750 C   0  0  0  0  0
   -8.4960    5.2480   23.1390 O   0  0  0  0  0
   -8.1060    5.6580   20.0410 C   0  0  0  0  0
   -9.5190    6.1560   19.7660 C   0  0  0  0  0
   -7.2210    5.8940   18.8330 C   0  0  0  0  0
   -9.1480    7.3740   22.7750 N   0  0  0  0  0
   -9.9580    7.4030   24.0000 C   0  0  0  0  0
  -11.0100    6.3070   24.0200 C   0  0  0  0  0
  -11.5990    5.9630   22.9920 O   0  0  0  0  0
  -10.6040    8.7920   23.9680 C   0  0  0  0  0
   -9.6960    9.6100   23.1390 C   0  0  0  0  0
   -9.1490    8.6820   22.0950 C   0  0  0  0  0
  -11.2430    5.7640   25.2140 N   0  0  0  0  0
  -12.2930    4.7810   25.4180 C   0  0  0  0  0
  -13.6410    5.3450   24.9750 C   0  0  0  0  0
  -13.7950    6.5380   24.7030 O   0  0  0  0  0
  -12.3850    4.4080   26.8990 C   0  0  0  0  0
  -11.3040    3.4340   27.3290 C   0  0  0  0  0
  -10.9540    2.5480   26.5230 O   0  0  0  0  0
  -10.8090    3.5500   28.4740 O   0  0  0  0  0
  -14.6300    4.4580   24.9160 N   0  0  0  0  0
  -16.0210    4.8480   24.7000 C   0  0  0  0  0
  -16.2540    5.2480   23.2460 C   0  0  0  0  0
  -15.5240    4.8250   22.3490 O   0  0  0  0  0
  -16.4160    6.0070   25.6270 C   0  0  0  0  0
  -15.9200    5.8930   27.0750 C   0  0  0  0  0
  -16.6630    4.8440   27.8760 C   0  0  0  0  0
  -17.9090    4.8170   27.8110 O   0  0  0  0  0
  -15.9990    4.0450   28.5720 O   0  0  0  0  0
  -17.1770    6.0030   22.9380 O   0  0  0  0  0
    1.8105    5.3914   30.0288 H   0  0  0  0  0
    3.4477    5.5263   29.7488 H   0  0  0  0  0
    2.7674    6.2579   31.0825 H   0  0  0  0  0
    1.5114    7.7145   29.7341 H   0  0  0  0  0
    3.7898    8.3545   30.4756 H   0  0  0  0  0
    3.3630    9.0699   28.8815 H   0  0  0  0  0
    5.4860    8.1743   28.9258 H   0  0  0  0  0
    1.7301    4.9304   28.3471 H   0  0  0  0  0
    2.0183    5.5716   25.5397 H   0  0  0  0  0
    0.5517    3.4994   25.2641 H   0  0  0  0  0
    0.5981    3.3744   27.0546 H   0  0  0  0  0
    2.2572    2.1510   26.0258 H   0  0  0  0  0
    0.6683    6.5626   24.1836 H   0  0  0  0  0
   -1.9416    7.5023   25.2779 H   0  0  0  0  0
   -0.3193    8.3721   22.8835 H   0  0  0  0  0
   -2.6921    8.5297   22.3473 H   0  0  0  0  0
   -2.9928    9.4089   23.8663 H   0  0  0  0  0
   -1.9909   10.1480   22.5931 H   0  0  0  0  0
   -1.0664    9.7282   25.5071 H   0  0  0  0  0
    0.5412    9.0953   25.0757 H   0  0  0  0  0
   -0.1406   10.4773   24.1832 H   0  0  0  0  0
   -3.7457    6.4970   24.8026 H   0  0  0  0  0
   -3.8329    4.9892   22.2152 H   0  0  0  0  0
   -5.5707    3.6046   23.2881 H   0  0  0  0  0
   -5.2383    4.5119   24.8517 H   0  0  0  0  0
   -3.4018    3.9487   26.2090 H   0  0  0  0  0
   -3.9042    2.0378   22.4196 H   0  0  0  0  0
   -1.6639    2.3080   26.8078 H   0  0  0  0  0
   -2.1805    0.3767   23.0243 H   0  0  0  0  0
    0.5739    1.7433   23.3813 H   0  0  0  0  0
    1.5409    1.5343   25.7062 H   0  0  0  0  0
   -5.9111    4.9307   21.1396 H   0  0  0  0  0
   -7.3524    7.3928   20.9755 H   0  0  0  0  0
   -8.1584    4.5880   20.2424 H   0  0  0  0  0
  -10.1508    5.9474   20.6294 H   0  0  0  0  0
   -9.4950    7.2302   19.5827 H   0  0  0  0  0
   -9.9187    5.6455   18.8898 H   0  0  0  0  0
   -7.1489    6.9645   18.6406 H   0  0  0  0  0
   -6.2272    5.4908   19.0279 H   0  0  0  0  0
   -7.6528    5.3958   17.9650 H   0  0  0  0  0
   -9.3602    7.2272   24.8944 H   0  0  0  0  0
  -10.7249    9.2069   24.9687 H   0  0  0  0  0
  -11.6129    8.7614   23.5565 H   0  0  0  0  0
   -8.8976   10.0474   23.7385 H   0  0  0  0  0
  -10.2217   10.4507   22.6862 H   0  0  0  0  0
   -9.7427    8.6804   21.1809 H   0  0  0  0  0
   -8.1586    8.9764   21.7478 H   0  0  0  0  0
  -10.6678    6.0465   26.0075 H   0  0  0  0  0
  -12.0507    3.8981   24.8265 H   0  0  0  0  0
  -13.3502    3.9288   27.0629 H   0  0  0  0  0
  -12.2619    5.3212   27.4812 H   0  0  0  0  0
  -11.2187    4.2919   28.9248 H   0  0  0  0  0
  -14.4090    3.4683   25.0257 H   0  0  0  0  0
  -16.6452    3.9850   24.9318 H   0  0  0  0  0
  -17.5051    6.0118   25.6713 H   0  0  0  0  0
  -15.9595    6.9057   25.2123 H   0  0  0  0  0
  -16.0835    6.8563   27.5582 H   0  0  0  0  0
  -14.8696    5.6037   27.0437 H   0  0  0  0  0
  -15.0639    4.2410   28.4779 H   0  0  0  0  0
  -17.6611    6.2537   23.7282 H   0  0  0  0  0
  1  2  1  0  0  0
  2  3  1  0  0  0
  2  5  1  0  0  0
  3  4  2  0  0  0
  3  7  1  0  0  0
  5  6  1  0  0  0
  7  8  1  0  0  0
  8  9  1  0  0  0
  8 11  1  0  0  0
  9 10  2  0  0  0
  9 13  1  0  0  0
 11 12  1  0  0  0
 13 14  1  0  0  0
 14 15  1  0  0  0
 14 17  1  0  0  0
 15 16  2  0  0  0
 15 20  1  0  0  0
 17 18  1  0  0  0
 17 19  1  0  0  0
 20 21  1  0  0  0
 21 22  1  0  0  0
 21 24  1  0  0  0
 22 23  2  0  0  0
 22 36  1  0  0  0
 24 25  1  0  0  0
 25 26  4  0  0  0
 25 27  4  0  0  0
 26 28  4  0  0  0
 27 29  4  0  0  0
 28 30  4  0  0  0
 29 30  4  0  0  0
 30 31  1  0  0  0
 31 32  1  0  0  0
 32 33  1  0  0  0
 32 34  1  0  0  0
 32 35  2  0  0  0
 36 37  1  0  0  0
 37 38  1  0  0  0
 37 40  1  0  0  0
 38 39  2  0  0  0
 38 43  1  0  0  0
 40 41  1  0  0  0
 40 42  1  0  0  0
 43 44  1  0  0  0
 43 49  1  0  0  0
 44 45  1  0  0  0
 44 47  1  0  0  0
 45 46  2  0  0  0
 45 50  1  0  0  0
 47 48  1  0  0  0
 48 49  1  0  0  0
 50 51  1  0  0  0
 51 52  1  0  0  0
 51 54  1  0  0  0
 52 53  2  0  0  0
 52 58  1  0  0  0
 54 55  1  0  0  0
 55 56  2  0  0  0
 55 57  1  0  0  0
 58 59  1  0  0  0
 59 60  1  0  0  0
 59 62  1  0  0  0
 60 61  2  0  0  0
 60 67  1  0  0  0
 62 63  1  0  0  0
 63 64  1  0  0  0
 64 65  2  0  0  0
 64 66  1  0  0  0
  1 68  1  0  0  0
  1 69  1  0  0  0
  1 70  1  0  0  0
  2 71  1  0  0  0
  5 72  1  0  0  0
  5 73  1  0  0  0
  6 74  1  0  0  0
  7 75  1  0  0  0
  8 76  1  0  0  0
 11 77  1  0  0  0
 11 78  1  0  0  0
 12 79  1  0  0  0
 13 80  1  0  0  0
 14 81  1  0  0  0
 17 82  1  0  0  0
 18 83  1  0  0  0
 18 84  1  0  0  0
 18 85  1  0  0  0
 19 86  1  0  0  0
 19 87  1  0  0  0
 19 88  1  0  0  0
 20 89  1  0  0  0
 21 90  1  0  0  0
 24 91  1  0  0  0
 24 92  1  0  0  0
 26 93  1  0  0  0
 27 94  1  0  0  0
 28 95  1  0  0  0
 29 96  1  0  0  0
 33 97  1  0  0  0
 34 98  1  0  0  0
 36 99  1  0  0  0
 37100  1  0  0  0
 40101  1  0  0  0
 41102  1  0  0  0
 41103  1  0  0  0
 41104  1  0  0  0
 42105  1  0  0  0
 42106  1  0  0  0
 42107  1  0  0  0
 44108  1  0  0  0
 47109  1  0  0  0
 47110  1  0  0  0
 48111  1  0  0  0
 48112  1  0  0  0
 49113  1  0  0  0
 49114  1  0  0  0
 50115  1  0  0  0
 51116  1  0  0  0
 54117  1  0  0  0
 54118  1  0  0  0
 57119  1  0  0  0
 58120  1  0  0  0
 59121  1  0  0  0
 62122  1  0  0  0
 62123  1  0  0  0
 63124  1  0  0  0
 63125  1  0  0  0
 66126  1  0  0  0
 67127  1  0  0  0
M  END
$$$$
