### 
### Created by X-TOOL on Mon Sep 10 21:13:31 2018
### 

@<TRIPOS>MOLECULE
5tq1_ligand
  122   123     1     0     0
SMALL
GAST_HUCK


@<TRIPOS>ATOM
      1 N           2.6210    6.0060   30.1050 N.4       1 SER         0.2396
      2 CA          2.3880    7.2130   29.3240 C.3       1 SER         0.0885
      3 C           2.1060    6.8750   27.8600 C.2       1 SER         0.2290
      4 O           2.2500    7.7240   26.9780 O.2       1 SER        -0.3906
      5 CB          3.5920    8.1520   29.4230 C.3       1 SER         0.1041
      6 OG          4.7480    7.5650   28.8500 O.3       1 SER        -0.3870
      7 N           1.7170    5.6280   27.6030 N.am      1 SER        -0.2588
      8 CA          1.2730    5.2520   26.2680 C.3       1 SER         0.1540
      9 C          -0.0550    5.9320   25.9710 C.2       1 SER         0.2062
     10 O          -0.9800    5.9010   26.7920 O.2       1 SER        -0.3943
     11 CB          1.1170    3.7340   26.1660 C.3       1 SER         0.0843
     12 OG          2.3800    3.1010   26.0890 O.3       1 SER        -0.3903
     13 N          -0.1390    6.5620   24.8070 N.am      1 VAL        -0.2634
     14 CA         -1.3530    7.2530   24.3950 C.3       1 VAL         0.1333
     15 C          -2.1850    6.3380   23.5100 C.2       1 VAL         0.2044
     16 O          -1.7060    5.8440   22.4860 O.2       1 VAL        -0.3944
     17 CB         -1.0190    8.5800   23.6930 C.3       1 VAL        -0.0063
     18 CG1        -2.2630    9.2120   23.0810 C.3       1 VAL        -0.0584
     19 CG2        -0.3750    9.5390   24.6860 C.3       1 VAL        -0.0584
     20 N          -3.4310    6.1120   23.9120 N.am      1 PTR        -0.2607
     21 CA         -4.3550    5.3280   23.1100 C.3       1 PTR         0.1468
     22 C          -5.5540    6.1730   22.7010 C.2       1 PTR         0.2074
     23 O          -5.8430    7.2100   23.3100 O.2       1 PTR        -0.3941
     24 CB         -4.8440    4.1250   23.9120 C.3       1 PTR         0.0400
     25 CG         -3.7720    3.1170   24.2690 C.ar      1 PTR        -0.0004
     26 CD1        -3.1310    3.1690   25.4970 C.ar      1 PTR        -0.0239
     27 CD2        -3.4120    2.1030   23.3900 C.ar      1 PTR        -0.0239
     28 CE1        -2.1540    2.2500   25.8360 C.ar      1 PTR         0.0115
     29 CE2        -2.4400    1.1730   23.7220 C.ar      1 PTR         0.0115
     30 CZ         -1.8020    1.2630   24.9450 C.ar      1 PTR         0.1728
     31 OH         -0.8970    0.3870   25.2990 O.3       1 PTR        -0.2040
     32 P           0.5410    0.0960   24.6210 P.3       1 PTR         0.1348
     33 O1P         0.6320    0.7930   23.2580 O.co2     1 PTR        -0.6653
     34 O2P         1.5980    0.5800   25.6190 O.co2     1 PTR        -0.6653
     35 O3P         0.6260   -1.3740   24.4840 O.co2     1 PTR        -0.6653
     36 N          -6.2570    5.7310   21.6690 N.am      1 VAL        -0.2632
     37 CA         -7.5080    6.3550   21.2700 C.3       1 VAL         0.1335
     38 C          -8.4380    6.2830   22.4750 C.2       1 VAL         0.2066
     39 O          -8.4960    5.2480   23.1390 O.2       1 VAL        -0.3942
     40 CB         -8.1060    5.6580   20.0410 C.3       1 VAL        -0.0062
     41 CG1        -9.5190    6.1560   19.7660 C.3       1 VAL        -0.0584
     42 CG2        -7.2210    5.8940   18.8330 C.3       1 VAL        -0.0584
     43 N          -9.1480    7.3740   22.7750 N.am      1 PRO        -0.2498
     44 CA         -9.9580    7.4030   24.0000 C.3       1 PRO         0.1338
     45 C         -11.0100    6.3070   24.0200 C.2       1 PRO         0.2042
     46 O         -11.5990    5.9630   22.9920 O.2       1 PRO        -0.3944
     47 CB        -10.6040    8.7920   23.9680 C.3       1 PRO        -0.0104
     48 CG         -9.6960    9.6100   23.1390 C.3       1 PRO        -0.0281
     49 CD         -9.1490    8.6820   22.0950 C.3       1 PRO         0.0369
     50 N         -11.2430    5.7640   25.2140 N.am      1 ASP        -0.2622
     51 CA        -12.2930    4.7810   25.4180 C.3       1 ASP         0.1423
     52 C         -13.6410    5.3450   24.9750 C.2       1 ASP         0.2051
     53 O         -13.7950    6.5380   24.7030 O.2       1 ASP        -0.3943
     54 CB        -12.3850    4.4080   26.8990 C.3       1 ASP         0.0406
     55 CG        -11.3040    3.4340   27.3290 C.2       1 ASP         0.0393
     56 OD1       -10.9540    2.5480   26.5230 O.co2     1 ASP        -0.5688
     57 OD2       -10.8090    3.5500   28.4740 O.co2     1 ASP        -0.5688
     58 N         -14.6300    4.4580   24.9160 N.am      1 GLU        -0.2693
     59 CA        -16.0210    4.8480   24.7000 C.3       1 GLU         0.0959
     60 C         -16.2540    5.2480   23.2460 C.2       1 GLU         0.0602
     61 O         -15.5240    4.8250   22.3490 O.co2     1 GLU        -0.5666
     62 CB        -16.4160    6.0070   25.6270 C.3       1 GLU        -0.0064
     63 CG        -15.9200    5.8930   27.0750 C.3       1 GLU         0.0038
     64 CD        -16.6630    4.8440   27.8760 C.2       1 GLU         0.0350
     65 OE1       -17.9090    4.8170   27.8110 O.co2     1 GLU        -0.5690
     66 OE2       -15.9990    4.0450   28.5720 O.co2     1 GLU        -0.5690
     67 OXT       -17.1770    6.0030   22.9380 O.co2     1 GLU        -0.5666
     68 H1          2.8040    6.2565   31.0641 H         1 SER         0.2016
     69 H2          3.4148    5.5110   29.7297 H         1 SER         0.2016
     70 H3          1.8055    5.4152   30.0618 H         1 SER         0.2016
     71 H4          1.5081    7.7279   29.7371 H         1 SER         0.1122
     72 H5          3.7891    8.3723   30.4825 H         1 SER         0.0640
     73 H6          3.3628    9.0868   28.8905 H         1 SER         0.0640
     74 H7          4.5847    7.3762   27.9334 H         1 SER         0.2099
     75 H8          1.7298    4.9441   28.3325 H         1 SER         0.1885
     76 H9          2.0212    5.5842   25.5332 H         1 SER         0.0823
     77 H10         0.5369    3.4913   25.2635 H         1 SER         0.0606
     78 H11         0.5834    3.3662   27.0548 H         1 SER         0.0606
     79 H12         2.2585    2.1608   26.0265 H         1 SER         0.2097
     80 H13         0.6525    6.5626   24.1958 H         1 VAL         0.1883
     81 H14        -1.9407    7.4860   25.2952 H         1 VAL         0.0802
     82 H15        -0.3012    8.3754   22.8850 H         1 VAL         0.0343
     83 H16        -1.9897   10.1567   22.5883 H         1 VAL         0.0234
     84 H17        -3.0003    9.4113   23.8726 H         1 VAL         0.0234
     85 H18        -2.6971    8.5243   22.3403 H         1 VAL         0.0234
     86 H19         0.5208    9.0707   25.1198 H         1 VAL         0.0234
     87 H20        -1.0912    9.7725   25.4875 H         1 VAL         0.0234
     88 H21        -0.0895   10.4663   24.1678 H         1 VAL         0.0234
     89 H22        -3.7395    6.4895   24.7851 H         1 PTR         0.1886
     90 H23        -3.8359    4.9759   22.2064 H         1 PTR         0.0840
     91 H24        -5.6137    3.6093   23.3191 H         1 PTR         0.0584
     92 H25        -5.2889    4.4960   24.8471 H         1 PTR         0.0584
     93 H26        -3.4003    3.9444   26.2050 H         1 PTR         0.0703
     94 H27        -3.9015    2.0381   22.4250 H         1 PTR         0.0703
     95 H28        -1.6666    2.3077   26.8025 H         1 PTR         0.0736
     96 H29        -2.1819    0.3811   23.0282 H         1 PTR         0.0736
     97 H30        -5.9178    4.9464   21.1500 H         1 VAL         0.1883
     98 H31        -7.3255    7.4095   21.0157 H         1 VAL         0.0803
     99 H32        -8.1502    4.5769   20.2391 H         1 VAL         0.0343
    100 H33        -9.9235    5.6415   18.8819 H         1 VAL         0.0234
    101 H34        -9.4962    7.2401   19.5808 H         1 VAL         0.0234
    102 H35       -10.1577    5.9460   20.6366 H         1 VAL         0.0234
    103 H36        -6.2051    5.5299   19.0460 H         1 VAL         0.0234
    104 H37        -7.1853    6.9704   18.6093 H         1 VAL         0.0234
    105 H38        -7.6304    5.3529   17.9672 H         1 VAL         0.0234
    106 H39        -9.3157    7.2955   24.8865 H         1 PRO         0.0802
    107 H40       -10.6812    9.2072   24.9837 H         1 PRO         0.0313
    108 H41       -11.6050    8.7437   23.5145 H         1 PRO         0.0313
    109 H42        -8.8803   10.0188   23.7534 H         1 PRO         0.0287
    110 H43       -10.2482   10.4355   22.6662 H         1 PRO         0.0287
    111 H44        -9.7958    8.6638   21.2055 H         1 PRO         0.0524
    112 H45        -8.1301    8.9749   21.8016 H         1 PRO         0.0524
    113 H46       -10.6791    6.0410   25.9920 H         1 ASP         0.1884
    114 H47       -12.0623    3.8816   24.8283 H         1 ASP         0.0819
    115 H48       -13.3666    3.9479   27.0851 H         1 ASP         0.0478
    116 H49       -12.2903    5.3252   27.4988 H         1 ASP         0.0478
    117 H50       -14.4133    3.4877   25.0235 H         1 GLU         0.1875
    118 H51       -16.6610    3.9836   24.9307 H         1 GLU         0.0727
    119 H52       -17.5143    6.0647   25.6485 H         1 GLU         0.0323
    120 H53       -16.0083    6.9357   25.2012 H         1 GLU         0.0323
    121 H54       -16.0510    6.8677   27.5678 H         1 GLU         0.0432
    122 H55       -14.8519    5.6304   27.0597 H         1 GLU         0.0432
@<TRIPOS>BOND
     1    1    2 1  
     2    2    3 1  
     3    2    5 1  
     4    3    4 2  
     5    3    7 am 
     6    5    6 1  
     7    7    8 1  
     8    8    9 1  
     9    8   11 1  
    10    9   10 2  
    11    9   13 am 
    12   11   12 1  
    13   13   14 1  
    14   14   15 1  
    15   14   17 1  
    16   15   16 2  
    17   15   20 am 
    18   17   18 1  
    19   17   19 1  
    20   20   21 1  
    21   21   22 1  
    22   21   24 1  
    23   22   23 2  
    24   22   36 am 
    25   24   25 1  
    26   25   26 ar 
    27   25   27 ar 
    28   26   28 ar 
    29   27   29 ar 
    30   28   30 ar 
    31   29   30 ar 
    32   30   31 1  
    33   31   32 1  
    34   32   33 ar 
    35   32   34 ar 
    36   32   35 ar 
    37   36   37 1  
    38   37   38 1  
    39   37   40 1  
    40   38   39 2  
    41   38   43 am 
    42   40   41 1  
    43   40   42 1  
    44   43   44 1  
    45   43   49 1  
    46   44   45 1  
    47   44   47 1  
    48   45   46 2  
    49   45   50 am 
    50   47   48 1  
    51   48   49 1  
    52   50   51 1  
    53   51   52 1  
    54   51   54 1  
    55   52   53 2  
    56   52   58 am 
    57   54   55 1  
    58   55   56 ar 
    59   55   57 ar 
    60   58   59 1  
    61   59   60 1  
    62   59   62 1  
    63   60   61 ar 
    64   60   67 ar 
    65   62   63 1  
    66   63   64 1  
    67   64   65 ar 
    68   64   66 ar 
    69    1   68 1  
    70    1   69 1  
    71    1   70 1  
    72    2   71 1  
    73    5   72 1  
    74    5   73 1  
    75    6   74 1  
    76    7   75 1  
    77    8   76 1  
    78   11   77 1  
    79   11   78 1  
    80   12   79 1  
    81   13   80 1  
    82   14   81 1  
    83   17   82 1  
    84   18   83 1  
    85   18   84 1  
    86   18   85 1  
    87   19   86 1  
    88   19   87 1  
    89   19   88 1  
    90   20   89 1  
    91   21   90 1  
    92   24   91 1  
    93   24   92 1  
    94   26   93 1  
    95   27   94 1  
    96   28   95 1  
    97   29   96 1  
    98   36   97 1  
    99   37   98 1  
   100   40   99 1  
   101   41  100 1  
   102   41  101 1  
   103   41  102 1  
   104   42  103 1  
   105   42  104 1  
   106   42  105 1  
   107   44  106 1  
   108   47  107 1  
   109   47  108 1  
   110   48  109 1  
   111   48  110 1  
   112   49  111 1  
   113   49  112 1  
   114   50  113 1  
   115   51  114 1  
   116   54  115 1  
   117   54  116 1  
   118   58  117 1  
   119   59  118 1  
   120   62  119 1  
   121   62  120 1  
   122   63  121 1  
   123   63  122 1  
@<TRIPOS>SUBSTRUCTURE
     1 SER         1

