3ot3_ligand
  -I-interpret- 

 45 48  0  0  0  0  0  0  0  0999 V2000
   14.5990   -1.0590   10.0490 C   0  0  0  0  0
   15.7060   -1.7940   10.2340 C   0  0  0  0  0
   16.7320   -1.1520    9.5530 N   0  0  0  0  0
   16.2760    0.0090    9.0040 N   0  0  0  0  0
   14.9820    0.0340    9.3260 C   0  0  0  0  0
   15.8910   -2.9520   10.9110 N   0  0  0  0  0
   17.0860   -3.4190   10.9130 C   0  0  0  0  0
   18.2730   -2.7730   10.2290 C   0  0  0  0  0
   18.0460   -1.6350    9.5390 C   0  0  0  0  0
   20.0270   -3.4330   10.4170 Br  0  0  0  0  0
   19.0380   -0.9170    8.8840 N   0  0  0  0  0
   13.3320   -1.2610   10.7110 C   0  0  0  0  0
   12.3310   -0.2700   10.9200 C   0  0  0  0  0
   11.3310   -0.7350   11.7010 N   0  0  0  0  0
   11.7300   -2.0250   12.0540 N   0  0  0  0  0
   12.9480   -2.3490   11.5270 C   0  0  0  0  0
   10.9220   -2.8870   12.9420 C   0  0  0  0  0
   17.3200   -4.6950   11.7000 C   0  0  0  0  0
   17.2380   -4.3010   13.2040 C   0  0  0  0  0
   17.3590   -5.5160   14.0930 C   0  0  0  0  0
   16.2360   -6.5150   13.8300 C   0  0  0  0  0
   16.2690   -6.9320   12.3420 C   0  0  0  0  0
   16.1610   -5.7080   11.4250 C   0  0  0  0  0
   17.1430   -5.0330   15.5060 N   0  3  0  0  0
   14.3041    0.8392    9.0428 H   0  0  0  0  0
   18.8082   -0.0408    8.4152 H   0  0  0  0  0
   19.9964   -1.2659    8.8718 H   0  0  0  0  0
   12.3668    0.7364   10.5028 H   0  0  0  0  0
   13.5120   -3.2653   11.7014 H   0  0  0  0  0
   10.8020   -2.3989   13.9092 H   0  0  0  0  0
    9.9426   -3.0523   12.4930 H   0  0  0  0  0
   11.4276   -3.8433   13.0764 H   0  0  0  0  0
   18.2747   -5.1443   11.4266 H   0  0  0  0  0
   16.2729   -3.8292   13.3884 H   0  0  0  0  0
   18.0584   -3.6202   13.4310 H   0  0  0  0  0
   18.3249   -5.9891   13.9162 H   0  0  0  0  0
   15.2749   -6.0557   14.0611 H   0  0  0  0  0
   16.3717   -7.3938   14.4604 H   0  0  0  0  0
   15.4239   -7.5917   12.1452 H   0  0  0  0  0
   17.2141   -7.4366   12.1414 H   0  0  0  0  0
   16.2271   -6.0411   10.3892 H   0  0  0  0  0
   15.2102   -5.2109   11.6171 H   0  0  0  0  0
   17.2154   -5.8219   16.1485 H   0  0  0  0  0
   17.8520   -4.3375   15.7384 H   0  0  0  0  0
   16.2161   -4.6142   15.5829 H   0  0  0  0  0
  1  2  4  0  0  0
  1  5  4  0  0  0
  1 12  1  0  0  0
  2  3  4  0  0  0
  2  6  4  0  0  0
  3  4  4  0  0  0
  3  9  4  0  0  0
  4  5  4  0  0  0
  6  7  4  0  0  0
  7  8  4  0  0  0
  7 18  1  0  0  0
  8  9  4  0  0  0
  8 10  1  0  0  0
  9 11  1  0  0  0
 12 13  4  0  0  0
 12 16  4  0  0  0
 13 14  4  0  0  0
 14 15  4  0  0  0
 15 16  4  0  0  0
 15 17  1  0  0  0
 18 19  1  0  0  0
 18 23  1  0  0  0
 19 20  1  0  0  0
 20 21  1  0  0  0
 20 24  1  0  0  0
 21 22  1  0  0  0
 22 23  1  0  0  0
  5 25  1  0  0  0
 11 26  1  0  0  0
 11 27  1  0  0  0
 13 28  1  0  0  0
 16 29  1  0  0  0
 17 30  1  0  0  0
 17 31  1  0  0  0
 17 32  1  0  0  0
 18 33  1  0  0  0
 19 34  1  0  0  0
 19 35  1  0  0  0
 20 36  1  0  0  0
 21 37  1  0  0  0
 21 38  1  0  0  0
 22 39  1  0  0  0
 22 40  1  0  0  0
 23 41  1  0  0  0
 23 42  1  0  0  0
 24 43  1  0  0  0
 24 44  1  0  0  0
 24 45  1  0  0  0
M  END
$$$$
