5emj_ligand
  -I-interpret- 

 59 63  0  0  0  0  0  0  0  0999 V2000
   23.0450  -44.7790  -10.5560 C   0  0  0  0  0
   23.5970  -43.4980   -9.9310 C   0  0  0  0  0
   23.4050  -43.4590   -8.5230 C   0  0  0  0  0
   24.1290  -42.5030   -7.7890 C   0  0  0  0  0
   23.9900  -42.4350   -6.3990 C   0  0  0  0  0
   23.1030  -43.2960   -5.7200 C   0  0  0  0  0
   22.3560  -44.2390   -6.4400 C   0  0  0  0  0
   22.5050  -44.3240   -7.8340 C   0  0  0  0  0
   21.7670  -45.2950   -8.4910 C   0  0  0  0  0
   21.7500  -45.1350   -9.9520 N   0  3  0  0  0
   21.2400  -46.3960  -10.5040 C   0  0  0  0  0
   19.7510  -46.5510  -10.1110 C   0  0  0  0  0
   19.0710  -45.3510  -10.3820 O   0  0  0  0  0
   19.0430  -47.6270  -10.9100 C   0  0  0  0  0
   19.7490  -48.8950  -10.7580 N   0  0  0  0  0
   19.6820  -49.7180   -9.7160 C   0  0  0  0  0
   20.8900  -50.0620   -9.1130 C   0  0  0  0  0
   18.5090  -50.2460   -9.2830 N   0  0  0  0  0
   18.5050  -51.1550   -8.1900 C   0  0  0  0  0
   19.7230  -51.4930   -7.5740 C   0  0  0  0  0
   20.9380  -50.9400   -8.0290 C   0  0  0  0  0
   22.1790  -51.2680   -7.4330 C   0  0  0  0  0
   23.2010  -51.9350   -8.1450 C   0  0  0  0  0
   24.3710  -52.2380   -7.5480 C   0  0  0  0  0
   25.4790  -52.8570   -7.9870 N   0  0  0  0  0
   25.8020  -53.4430   -9.3170 C   0  0  0  0  0
   26.3540  -52.9110   -6.9910 C   0  0  0  0  0
   25.8020  -52.3270   -5.9300 N   0  0  0  0  0
   24.5890  -51.9110   -6.2570 C   0  0  0  0  0
   23.6700  -51.2740   -5.5250 C   0  0  0  0  0
   22.4320  -50.9320   -6.0970 C   0  0  0  0  0
   23.7514  -45.5903  -10.3801 H   0  0  0  0  0
   22.9035  -44.6177  -11.6247 H   0  0  0  0  0
   23.0664  -42.6523  -10.3684 H   0  0  0  0  0
   24.6685  -43.4601  -10.1275 H   0  0  0  0  0
   24.7991  -41.8144   -8.3037 H   0  0  0  0  0
   24.5738  -41.7083   -5.8340 H   0  0  0  0  0
   22.9984  -43.2284   -4.6371 H   0  0  0  0  0
   21.6638  -44.9021   -5.9211 H   0  0  0  0  0
   20.7376  -45.2143   -8.1419 H   0  0  0  0  0
   22.2284  -46.2583   -8.2736 H   0  0  0  0  0
   21.1542  -44.3391  -10.1798 H   0  0  0  0  0
   21.8149  -47.2316  -10.1048 H   0  0  0  0  0
   21.3351  -46.3875  -11.5898 H   0  0  0  0  0
   19.7389  -46.8159   -9.0537 H   0  0  0  0  0
   18.1472  -45.4460  -10.1386 H   0  0  0  0  0
   19.0279  -47.3451  -11.9628 H   0  0  0  0  0
   18.0216  -47.7355  -10.5453 H   0  0  0  0  0
   20.3546  -49.1783  -11.5284 H   0  0  0  0  0
   21.8175  -49.6363   -9.4960 H   0  0  0  0  0
   17.5689  -51.5849   -7.8337 H   0  0  0  0  0
   19.7282  -52.1899   -6.7359 H   0  0  0  0  0
   23.0416  -52.2075   -9.1883 H   0  0  0  0  0
   25.0843  -54.2296   -9.5500 H   0  0  0  0  0
   25.7495  -52.6645  -10.0781 H   0  0  0  0  0
   26.8078  -53.8624   -9.2932 H   0  0  0  0  0
   27.3486  -53.3549   -7.0341 H   0  0  0  0  0
   23.8800  -51.0200   -4.4860 H   0  0  0  0  0
   21.6776  -50.4112   -5.5073 H   0  0  0  0  0
  1  2  1  0  0  0
  1 10  1  0  0  0
  2  3  1  0  0  0
  3  4  4  0  0  0
  3  8  4  0  0  0
  4  5  4  0  0  0
  5  6  4  0  0  0
  6  7  4  0  0  0
  7  8  4  0  0  0
  8  9  1  0  0  0
  9 10  1  0  0  0
 10 11  1  0  0  0
 11 12  1  0  0  0
 12 13  1  0  0  0
 12 14  1  0  0  0
 14 15  1  0  0  0
 15 16  1  0  0  0
 16 17  4  0  0  0
 16 18  4  0  0  0
 17 21  4  0  0  0
 18 19  4  0  0  0
 19 20  4  0  0  0
 20 21  4  0  0  0
 21 22  1  0  0  0
 22 23  4  0  0  0
 22 31  4  0  0  0
 23 24  4  0  0  0
 24 25  4  0  0  0
 24 29  4  0  0  0
 25 26  1  0  0  0
 25 27  4  0  0  0
 27 28  4  0  0  0
 28 29  4  0  0  0
 29 30  4  0  0  0
 30 31  4  0  0  0
  1 32  1  0  0  0
  1 33  1  0  0  0
  2 34  1  0  0  0
  2 35  1  0  0  0
  4 36  1  0  0  0
  5 37  1  0  0  0
  6 38  1  0  0  0
  7 39  1  0  0  0
  9 40  1  0  0  0
  9 41  1  0  0  0
 10 42  1  0  0  0
 11 43  1  0  0  0
 11 44  1  0  0  0
 12 45  1  0  0  0
 13 46  1  0  0  0
 14 47  1  0  0  0
 14 48  1  0  0  0
 15 49  1  0  0  0
 17 50  1  0  0  0
 19 51  1  0  0  0
 20 52  1  0  0  0
 23 53  1  0  0  0
 26 54  1  0  0  0
 26 55  1  0  0  0
 26 56  1  0  0  0
 27 57  1  0  0  0
 30 58  1  0  0  0
 31 59  1  0  0  0
M  END
$$$$
