2agv_ligand
  -I-interpret- 

 38 38  0  0  0  0  0  0  0  0999 V2000
    7.4130  -13.7920   11.6700 O   0  0  0  0  0
    1.9460  -13.3450   10.6600 O   0  0  0  0  0
    6.0640  -13.6700   11.3900 C   0  0  0  0  0
    5.6440  -13.0110   10.1660 C   0  0  0  0  0
    4.2280  -12.9480   10.0000 C   0  0  0  0  0
    3.2990  -13.4680   10.9300 C   0  0  0  0  0
    3.7210  -14.1210   12.1430 C   0  0  0  0  0
    5.1470  -14.1880   12.3170 C   0  0  0  0  0
    6.6240  -12.4090    9.0950 C   0  0  0  0  0
    7.5070  -11.3110    9.7240 C   0  0  0  0  0
    7.5250  -13.5030    8.5040 C   0  0  0  0  0
    5.9060  -11.7630    7.8990 C   0  0  0  0  0
    2.7320  -14.7000   13.1900 C   0  0  0  0  0
    1.8320  -15.7690   12.5800 C   0  0  0  0  0
    3.4540  -15.3470   14.3900 C   0  0  0  0  0
    1.8860  -13.5510   13.7820 C   0  0  0  0  0
    7.5249  -14.2471   12.5078 H   0  0  0  0  0
    1.4411  -13.7407   11.3742 H   0  0  0  0  0
    3.8390  -12.4697    9.1011 H   0  0  0  0  0
    5.5357  -14.6662   13.2161 H   0  0  0  0  0
    8.1201  -11.7471   10.5127 H   0  0  0  0  0
    8.1513  -10.8810    8.9571 H   0  0  0  0  0
    6.8712  -10.5321   10.1449 H   0  0  0  0  0
    8.1692  -13.0679    7.7400 H   0  0  0  0  0
    8.1380  -13.9340    9.2956 H   0  0  0  0  0
    6.9051  -14.2810    8.0584 H   0  0  0  0  0
    5.2989  -10.9281    8.2490 H   0  0  0  0  0
    6.6458  -11.4016    7.1847 H   0  0  0  0  0
    5.2660  -12.5028    7.4182 H   0  0  0  0  0
    1.2549  -15.3339   11.7641 H   0  0  0  0  0
    2.4461  -16.5844   12.1979 H   0  0  0  0  0
    1.1539  -16.1502   13.3435 H   0  0  0  0  0
    4.0847  -16.1626   14.0362 H   0  0  0  0  0
    4.0707  -14.5987   14.8878 H   0  0  0  0  0
    2.7149  -15.7352   15.0908 H   0  0  0  0  0
    2.5443  -12.8268   14.2619 H   0  0  0  0  0
    1.3283  -13.0630   12.9827 H   0  0  0  0  0
    1.1906  -13.9552   14.5176 H   0  0  0  0  0
  3  1  1  0  0  0
  6  2  1  0  0  0
  4  3  4  0  0  0
  3  8  4  0  0  0
  5  4  4  0  0  0
  4  9  1  0  0  0
  5  6  4  0  0  0
  6  7  4  0  0  0
  7  8  4  0  0  0
  7 13  1  0  0  0
  9 10  1  0  0  0
  9 11  1  0  0  0
  9 12  1  0  0  0
 13 14  1  0  0  0
 13 15  1  0  0  0
 13 16  1  0  0  0
  1 17  1  0  0  0
  2 18  1  0  0  0
  5 19  1  0  0  0
  8 20  1  0  0  0
 10 21  1  0  0  0
 10 22  1  0  0  0
 10 23  1  0  0  0
 11 24  1  0  0  0
 11 25  1  0  0  0
 11 26  1  0  0  0
 12 27  1  0  0  0
 12 28  1  0  0  0
 12 29  1  0  0  0
 14 30  1  0  0  0
 14 31  1  0  0  0
 14 32  1  0  0  0
 15 33  1  0  0  0
 15 34  1  0  0  0
 15 35  1  0  0  0
 16 36  1  0  0  0
 16 37  1  0  0  0
 16 38  1  0  0  0
M  END
$$$$
