6gji_ligand
  -I-interpret- 

 47 48  0  0  0  0  0  0  0  0999 V2000
   -2.3130   15.2920   -5.0090 O   0  0  0  0  0
   -1.2530   15.2840   -4.4750 C   0  0  0  0  0
   -0.5200   14.1890   -4.3400 O   0  0  0  0  0
   -0.9860   12.9460   -4.8030 C   0  0  0  0  0
    0.0940   11.9410   -4.5290 C   0  0  0  0  0
   -0.5640   16.4640   -3.8530 C   0  0  0  0  0
   -1.1230   17.7210   -4.2700 N   0  0  0  0  0
   -0.9320   18.1870   -5.4800 C   0  0  0  0  0
   -0.2920   17.5770   -6.2910 O   0  0  0  0  0
   -1.4880   19.3700   -5.7320 N   0  0  0  0  0
   -2.0540   20.2140   -4.6980 C   0  0  0  0  0
   -0.9600   21.1460   -4.2800 C   0  0  0  0  0
    0.4240   21.0900   -4.4900 C   0  0  0  0  0
    0.9290   22.1720   -3.9410 N   0  0  0  0  0
    2.3190   22.5770   -3.8760 C   0  0  0  0  0
   -0.0100   22.9890   -3.3570 N   0  0  0  0  0
   -1.1910   22.2980   -3.6000 N   0  0  0  0  0
   -1.6120   19.9420   -7.0150 C   0  0  0  0  0
   -3.0190   19.9860   -7.4910 C   0  0  0  0  0
   -3.5900   21.1800   -7.8690 C   0  0  0  0  0
   -4.8850   21.2070   -8.3280 C   0  0  0  0  0
   -5.6000   20.0270   -8.4060 C   0  0  0  0  0
   -6.8600   20.0470   -8.8600 N   0  0  0  0  0
   -5.0210   18.8460   -8.0290 C   0  0  0  0  0
   -3.7260   18.8070   -7.5670 C   0  0  0  0  0
   -1.2086   12.9910   -5.8691 H   0  0  0  0  0
   -1.9092   12.6673   -4.2949 H   0  0  0  0  0
    1.0022   12.2326   -5.0564 H   0  0  0  0  0
    0.2906   11.9038   -3.4575 H   0  0  0  0  0
   -0.2290   10.9590   -4.8747 H   0  0  0  0  0
    0.4799   16.4434   -4.1660 H   0  0  0  0  0
   -0.6838   16.3882   -2.7723 H   0  0  0  0  0
   -1.6807   18.2623   -3.6095 H   0  0  0  0  0
   -2.4101   19.6208   -3.8557 H   0  0  0  0  0
   -2.9202   20.7630   -5.0673 H   0  0  0  0  0
    0.9739   20.3036   -5.0071 H   0  0  0  0  0
    2.8924   21.8190   -3.3425 H   0  0  0  0  0
    2.7117   22.6869   -4.8868 H   0  0  0  0  0
    2.3946   23.5287   -3.3500 H   0  0  0  0  0
   -1.0425   19.3268   -7.7117 H   0  0  0  0  0
   -1.2453   20.9670   -6.9608 H   0  0  0  0  0
   -3.0152   22.1038   -7.8043 H   0  0  0  0  0
   -5.3435   22.1494   -8.6275 H   0  0  0  0  0
   -7.2854   20.9291   -9.1453 H   0  0  0  0  0
   -7.3941   19.1801   -8.9205 H   0  0  0  0  0
   -5.5949   17.9217   -8.0958 H   0  0  0  0  0
   -3.2696   17.8635   -7.2677 H   0  0  0  0  0
  1  2  2  0  0  0
  2  3  1  0  0  0
  2  6  1  0  0  0
  3  4  1  0  0  0
  4  5  1  0  0  0
  6  7  1  0  0  0
  7  8  1  0  0  0
  8  9  2  0  0  0
  8 10  1  0  0  0
 10 11  1  0  0  0
 10 18  1  0  0  0
 11 12  1  0  0  0
 12 13  4  0  0  0
 12 17  4  0  0  0
 13 14  4  0  0  0
 14 15  1  0  0  0
 14 16  4  0  0  0
 16 17  4  0  0  0
 18 19  1  0  0  0
 19 20  4  0  0  0
 19 25  4  0  0  0
 20 21  4  0  0  0
 21 22  4  0  0  0
 22 23  1  0  0  0
 22 24  4  0  0  0
 24 25  4  0  0  0
  4 26  1  0  0  0
  4 27  1  0  0  0
  5 28  1  0  0  0
  5 29  1  0  0  0
  5 30  1  0  0  0
  6 31  1  0  0  0
  6 32  1  0  0  0
  7 33  1  0  0  0
 11 34  1  0  0  0
 11 35  1  0  0  0
 13 36  1  0  0  0
 15 37  1  0  0  0
 15 38  1  0  0  0
 15 39  1  0  0  0
 18 40  1  0  0  0
 18 41  1  0  0  0
 20 42  1  0  0  0
 21 43  1  0  0  0
 23 44  1  0  0  0
 23 45  1  0  0  0
 24 46  1  0  0  0
 25 47  1  0  0  0
M  END
$$$$
