### 
### Created by X-TOOL on Wed Jan  1 15:39:36 2020
### 

@<TRIPOS>MOLECULE
6h96_ligand
   99   104     1     0     0
SMALL
GAST_HUCK


@<TRIPOS>ATOM
      1 C13       -11.9490   87.2980   53.4810 C.ar      1 FWE        -0.0554
      2 C15       -10.2960   87.2760   55.4180 C.2       1 FWE         0.1958
      3 C17        -9.0980   86.6150   57.5100 C.3       1 FWE         0.1631
      4 C21        -8.0230   87.7460   57.4730 C.2       1 FWE         0.2720
      5 C24        -5.7120   89.3710   56.0560 C.ar      1 FWE        -0.0262
      6 C26        -3.4130   89.9410   56.6400 C.ar      1 FWE         0.0426
      7 C02       -21.4520   89.9460   49.2100 C.ar      1 FWE         0.0891
      8 C03       -20.6290   88.8330   49.0850 C.ar      1 FWE        -0.0321
      9 C04       -19.4860   88.7200   49.8730 C.ar      1 FWE        -0.0636
     10 C05       -19.1050   89.6920   50.8050 C.ar      1 FWE        -0.0384
     11 C06       -17.8850   89.5570   51.6550 C.2       1 FWE        -0.0502
     12 C07       -17.6420   89.9620   52.9190 C.2       1 FWE         0.0312
     13 C08       -18.6840   90.6720   53.6270 C.3       1 FWE        -0.0231
     14 C09       -16.3520   89.6790   53.6260 C.2       1 FWE         0.2302
     15 C11       -14.0480   88.5750   53.5980 C.ar      1 FWE         0.0713
     16 C12       -13.1490   87.7140   52.9300 C.ar      1 FWE        -0.0350
     17 C14       -11.5400   87.6660   54.7520 C.ar      1 FWE         0.0339
     18 C18        -8.2900   85.4680   56.9090 C.3       1 FWE         0.0786
     19 C19        -6.8770   85.9890   56.6050 C.2       1 FWE         0.1456
     20 C23        -5.6910   88.1810   56.7920 C.ar      1 FWE         0.1100
     21 C25        -4.6100   90.2160   55.9720 C.ar      1 FWE        -0.0515
     22 C27        -2.2670   90.8060   56.5820 C.2       1 FWE         0.2215
     23 C29         0.1830   90.9880   56.4380 C.ar      1 FWE         0.0929
     24 C30         0.2920   92.3310   56.8160 C.ar      1 FWE        -0.0529
     25 C31         1.4810   93.0270   56.8070 C.ar      1 FWE        -0.0728
     26 C32         2.6830   92.4560   56.4310 C.ar      1 FWE         0.0605
     27 C33         3.9800   93.1620   56.3950 C.2       1 FWE         0.2115
     28 C35         6.4580   92.9720   56.0170 C.ar      1 FWE         0.0902
     29 C36         6.8260   94.2980   56.2530 C.ar      1 FWE        -0.0555
     30 C37         8.1510   94.7260   56.1480 C.ar      1 FWE        -0.0794
     31 C38         9.1850   93.8660   55.7920 C.ar      1 FWE         0.0154
     32 C39        10.6340   94.3840   55.6900 C.2       1 FWE         0.0462
     33 C42         8.8130   92.5420   55.5480 C.ar      1 FWE         0.1184
     34 C44         7.4890   92.1090   55.6540 C.ar      1 FWE         0.1427
     35 C46         6.4520   90.5560   54.1230 C.3       1 FWE         0.0533
     36 C48         2.5820   91.0900   56.0500 C.ar      1 FWE         0.1252
     37 C50         1.3690   90.3820   56.0620 C.ar      1 FWE         0.1450
     38 C52         1.6880   88.1830   56.6770 C.3       1 FWE         0.0533
     39 C54        -3.4200   88.7670   57.3670 C.ar      1 FWE        -0.0515
     40 C55        -4.5030   87.9300   57.4640 C.ar      1 FWE        -0.0262
     41 C58       -12.4340   88.5030   55.4260 C.ar      1 FWE        -0.0554
     42 C59       -13.6330   88.9260   54.8820 C.ar      1 FWE        -0.0350
     43 C61       -19.9650   90.7920   50.9060 C.ar      1 FWE        -0.0636
     44 C62       -21.1150   90.9320   50.1320 C.ar      1 FWE        -0.0321
     45 N10       -15.2790   88.9720   53.0380 N.am      1 FWE        -0.2307
     46 N16       -10.2510   86.9880   56.7840 N.am      1 FWE        -0.2634
     47 N20        -5.8960   85.3280   56.1040 N.2       1 FWE        -0.3864
     48 N22        -6.7940   87.3650   56.9230 N.am      1 FWE        -0.1320
     49 N28        -1.0150   90.3170   56.4760 N.am      1 FWE        -0.2372
     50 N34         5.1370   92.5090   56.1110 N.am      1 FWE        -0.2407
     51 O01       -22.5690   90.0590   48.4370 O.3       1 FWE        -0.3320
     52 O40        11.4740   93.5600   55.2810 O.co2     1 FWE        -0.5683
     53 O41        10.8490   95.5610   56.0240 O.co2     1 FWE        -0.5683
     54 O43         9.7240   91.5970   55.1910 O.3       1 FWE        -0.3380
     55 O45         7.1920   90.7860   55.3890 O.3       1 FWE        -0.3319
     56 O47         3.9730   94.3650   56.6320 O.2       1 FWE        -0.3872
     57 O49         3.6370   90.3210   55.6470 O.3       1 FWE        -0.3361
     58 O51         1.2990   89.0380   55.6900 O.3       1 FWE        -0.3315
     59 O53        -2.4610   92.0160   56.7120 O.2       1 FWE        -0.3798
     60 O56        -8.2320   88.8990   57.8070 O.2       1 FWE        -0.3654
     61 O57        -9.2540   87.1890   54.7650 O.2       1 FWE        -0.3919
     62 O60       -16.2580   90.0320   54.7920 O.2       1 FWE        -0.3747
     63 H1        -11.3022   86.6572   52.8928 H         1 FWE         0.0630
     64 H2         -9.3981   86.3776   58.5413 H         1 FWE         0.0848
     65 H3         -6.6206   89.6446   55.5319 H         1 FWE         0.0549
     66 H4        -20.8766   88.0529   48.3743 H         1 FWE         0.0548
     67 H5        -18.8637   87.8397   49.7593 H         1 FWE         0.0590
     68 H6        -17.0519   89.0462   51.1745 H         1 FWE         0.0552
     69 H7        -19.5563   90.7954   52.9683 H         1 FWE         0.0401
     70 H8        -18.3118   91.6613   53.9317 H         1 FWE         0.0401
     71 H9        -18.9766   90.0995   54.5195 H         1 FWE         0.0401
     72 H10       -13.4113   87.3623   51.9387 H         1 FWE         0.0518
     73 H11        -8.7676   85.1216   55.9806 H         1 FWE         0.0604
     74 H12        -8.2344   84.6353   57.6256 H         1 FWE         0.0604
     75 H13        -4.6816   91.1149   55.3704 H         1 FWE         0.0637
     76 H14        -0.6053   92.8505   57.1322 H         1 FWE         0.0405
     77 H15         1.4739   94.0684   57.1080 H         1 FWE         0.0516
     78 H16         6.0610   95.0160   56.5256 H         1 FWE         0.0397
     79 H17         8.3822   95.7654   56.3511 H         1 FWE         0.0497
     80 H18         6.2624   89.4795   53.9996 H         1 FWE         0.0566
     81 H19         7.0512   90.9222   53.2763 H         1 FWE         0.0566
     82 H20         5.4941   91.0957   54.1549 H         1 FWE         0.0566
     83 H21         1.6081   87.1467   56.3169 H         1 FWE         0.0566
     84 H22         1.0392   88.3171   57.5551 H         1 FWE         0.0566
     85 H23         2.7308   88.3949   56.9558 H         1 FWE         0.0566
     86 H24        -2.5140   88.4895   57.8936 H         1 FWE         0.0637
     87 H25        -4.4282   87.0448   58.0852 H         1 FWE         0.0549
     88 H26       -12.1747   88.8369   56.4242 H         1 FWE         0.0630
     89 H27       -14.2788   89.5585   55.4803 H         1 FWE         0.0518
     90 H28       -19.7249   91.5715   51.6200 H         1 FWE         0.0590
     91 H29       -21.7452   91.8064   50.2478 H         1 FWE         0.0548
     92 H30       -15.4132   88.7148   52.0810 H         1 FWE         0.2273
     93 H31       -11.1098   87.0514   57.2924 H         1 FWE         0.1874
     94 H32        -5.0093   85.7818   55.9492 H         1 FWE         0.0589
     95 H33        -0.9489   89.3210   56.4164 H         1 FWE         0.2233
     96 H34         5.0283   91.5298   55.9394 H         1 FWE         0.2218
     97 H35       -22.6391   89.2994   47.8708 H         1 FWE         0.2491
     98 H36        10.5872   91.9913   55.1475 H         1 FWE         0.2450
     99 H37         3.4768   90.0019   54.7667 H         1 FWE         0.2460
@<TRIPOS>BOND
     1    1   16 ar 
     2   17    1 ar 
     3    2   17 1  
     4   46    2 am 
     5    2   61 2  
     6    4    3 1  
     7   18    3 1  
     8    3   46 1  
     9   48    4 am 
    10    4   60 2  
    11    5   20 ar 
    12   21    5 ar 
    13    6   21 ar 
    14   22    6 1  
    15    6   39 ar 
    16    8    7 ar 
    17    7   44 ar 
    18    7   51 1  
    19    9    8 ar 
    20   10    9 ar 
    21   11   10 1  
    22   10   43 ar 
    23   12   11 2  
    24   12   13 1  
    25   14   12 1  
    26   45   14 am 
    27   14   62 2  
    28   16   15 ar 
    29   15   42 ar 
    30   15   45 1  
    31   17   41 ar 
    32   19   18 1  
    33   19   47 2  
    34   48   19 1  
    35   20   40 ar 
    36   20   48 1  
    37   49   22 am 
    38   22   59 2  
    39   24   23 ar 
    40   23   37 ar 
    41   23   49 1  
    42   25   24 ar 
    43   26   25 ar 
    44   27   26 1  
    45   26   36 ar 
    46   50   27 am 
    47   27   56 2  
    48   28   29 ar 
    49   28   34 ar 
    50   28   50 1  
    51   29   30 ar 
    52   30   31 ar 
    53   31   32 1  
    54   31   33 ar 
    55   32   52 ar 
    56   32   53 ar 
    57   33   34 ar 
    58   33   54 1  
    59   34   55 1  
    60   55   35 1  
    61   36   37 ar 
    62   36   57 1  
    63   37   58 1  
    64   58   38 1  
    65   39   40 ar 
    66   41   42 ar 
    67   43   44 ar 
    68    1   63 1  
    69    3   64 1  
    70    5   65 1  
    71    8   66 1  
    72    9   67 1  
    73   11   68 1  
    74   13   69 1  
    75   13   70 1  
    76   13   71 1  
    77   16   72 1  
    78   18   73 1  
    79   18   74 1  
    80   21   75 1  
    81   24   76 1  
    82   25   77 1  
    83   29   78 1  
    84   30   79 1  
    85   35   80 1  
    86   35   81 1  
    87   35   82 1  
    88   38   83 1  
    89   38   84 1  
    90   38   85 1  
    91   39   86 1  
    92   40   87 1  
    93   41   88 1  
    94   42   89 1  
    95   43   90 1  
    96   44   91 1  
    97   45   92 1  
    98   46   93 1  
    99   47   94 1  
   100   49   95 1  
   101   50   96 1  
   102   51   97 1  
   103   54   98 1  
   104   57   99 1  
@<TRIPOS>SUBSTRUCTURE
     1 FWE         1

