6h96_ligand
  -I-interpret- 

100105  0  0  0  0  0  0  0  0999 V2000
  -11.9490   87.2980   53.4810 C   0  0  0  0  0
  -10.2960   87.2760   55.4180 C   0  0  0  0  0
   -9.0980   86.6150   57.5100 C   0  0  0  0  0
   -8.0230   87.7460   57.4730 C   0  0  0  0  0
   -5.7120   89.3710   56.0560 C   0  0  0  0  0
   -3.4130   89.9410   56.6400 C   0  0  0  0  0
  -21.4520   89.9460   49.2100 C   0  0  0  0  0
  -20.6290   88.8330   49.0850 C   0  0  0  0  0
  -19.4860   88.7200   49.8730 C   0  0  0  0  0
  -19.1050   89.6920   50.8050 C   0  0  0  0  0
  -17.8850   89.5570   51.6550 C   0  0  0  0  0
  -17.6420   89.9620   52.9190 C   0  0  0  0  0
  -18.6840   90.6720   53.6270 C   0  0  0  0  0
  -16.3520   89.6790   53.6260 C   0  0  0  0  0
  -14.0480   88.5750   53.5980 C   0  0  0  0  0
  -13.1490   87.7140   52.9300 C   0  0  0  0  0
  -11.5400   87.6660   54.7520 C   0  0  0  0  0
   -8.2900   85.4680   56.9090 C   0  0  0  0  0
   -6.8770   85.9890   56.6050 C   0  0  0  0  0
   -5.6910   88.1810   56.7920 C   0  0  0  0  0
   -4.6100   90.2160   55.9720 C   0  0  0  0  0
   -2.2670   90.8060   56.5820 C   0  0  0  0  0
    0.1830   90.9880   56.4380 C   0  0  0  0  0
    0.2920   92.3310   56.8160 C   0  0  0  0  0
    1.4810   93.0270   56.8070 C   0  0  0  0  0
    2.6830   92.4560   56.4310 C   0  0  0  0  0
    3.9800   93.1620   56.3950 C   0  0  0  0  0
    6.4580   92.9720   56.0170 C   0  0  0  0  0
    6.8260   94.2980   56.2530 C   0  0  0  0  0
    8.1510   94.7260   56.1480 C   0  0  0  0  0
    9.1850   93.8660   55.7920 C   0  0  0  0  0
   10.6340   94.3840   55.6900 C   0  0  0  0  0
    8.8130   92.5420   55.5480 C   0  0  0  0  0
    7.4890   92.1090   55.6540 C   0  0  0  0  0
    6.4520   90.5560   54.1230 C   0  0  0  0  0
    2.5820   91.0900   56.0500 C   0  0  0  0  0
    1.3690   90.3820   56.0620 C   0  0  0  0  0
    1.6880   88.1830   56.6770 C   0  0  0  0  0
   -3.4200   88.7670   57.3670 C   0  0  0  0  0
   -4.5030   87.9300   57.4640 C   0  0  0  0  0
  -12.4340   88.5030   55.4260 C   0  0  0  0  0
  -13.6330   88.9260   54.8820 C   0  0  0  0  0
  -19.9650   90.7920   50.9060 C   0  0  0  0  0
  -21.1150   90.9320   50.1320 C   0  0  0  0  0
  -15.2790   88.9720   53.0380 N   0  0  0  0  0
  -10.2510   86.9880   56.7840 N   0  0  0  0  0
   -5.8960   85.3280   56.1040 N   0  0  0  0  0
   -6.7940   87.3650   56.9230 N   0  0  0  0  0
   -1.0150   90.3170   56.4760 N   0  0  0  0  0
    5.1370   92.5090   56.1110 N   0  0  0  0  0
  -22.5690   90.0590   48.4370 O   0  0  0  0  0
   11.4740   93.5600   55.2810 O   0  0  0  0  0
   10.8490   95.5610   56.0240 O   0  0  0  0  0
    9.7240   91.5970   55.1910 O   0  0  0  0  0
    7.1920   90.7860   55.3890 O   0  0  0  0  0
    3.9730   94.3650   56.6320 O   0  0  0  0  0
    3.6370   90.3210   55.6470 O   0  0  0  0  0
    1.2990   89.0380   55.6900 O   0  0  0  0  0
   -2.4610   92.0160   56.7120 O   0  0  0  0  0
   -8.2320   88.8990   57.8070 O   0  0  0  0  0
   -9.2540   87.1890   54.7650 O   0  0  0  0  0
  -16.2580   90.0320   54.7920 O   0  0  0  0  0
  -11.2986   86.6536   52.8895 H   0  0  0  0  0
   -9.5185   86.3668   58.4845 H   0  0  0  0  0
   -6.6256   89.6461   55.5290 H   0  0  0  0  0
  -20.8780   88.0486   48.3703 H   0  0  0  0  0
  -18.8603   87.8349   49.7586 H   0  0  0  0  0
  -17.0511   89.0457   51.1740 H   0  0  0  0  0
  -18.9339   91.5837   53.0844 H   0  0  0  0  0
  -19.5677   90.0382   53.7015 H   0  0  0  0  0
  -18.3331   90.9273   54.6269 H   0  0  0  0  0
  -13.4127   87.3604   51.9333 H   0  0  0  0  0
   -8.7646   85.1124   55.9944 H   0  0  0  0  0
   -8.2409   84.6348   57.6101 H   0  0  0  0  0
   -4.6820   91.1199   55.3670 H   0  0  0  0  0
   -0.6103   92.8534   57.1339 H   0  0  0  0  0
    1.4739   94.0741   57.1097 H   0  0  0  0  0
    6.0568   95.0200   56.5271 H   0  0  0  0  0
    8.3835   95.7712   56.3522 H   0  0  0  0  0
    5.5031   91.0913   54.1559 H   0  0  0  0  0
    7.0467   90.9193   53.2849 H   0  0  0  0  0
    6.2647   89.4891   54.0018 H   0  0  0  0  0
    2.7213   88.3940   56.9523 H   0  0  0  0  0
    1.0444   88.3169   57.5465 H   0  0  0  0  0
    1.6084   87.1565   56.3190 H   0  0  0  0  0
   -2.5090   88.4880   57.8965 H   0  0  0  0  0
   -4.4278   87.0399   58.0886 H   0  0  0  0  0
  -12.1732   88.8388   56.4297 H   0  0  0  0  0
  -14.2824   89.5620   55.4836 H   0  0  0  0  0
  -19.7236   91.5758   51.6239 H   0  0  0  0  0
  -21.7487   91.8112   50.2484 H   0  0  0  0  0
  -15.4159   88.7096   52.0619 H   0  0  0  0  0
  -11.1270   87.0526   57.3025 H   0  0  0  0  0
   -6.0143   84.3440   55.8629 H   0  0  0  0  0
   -0.9476   89.3010   56.4152 H   0  0  0  0  0
    5.0262   91.5103   55.9360 H   0  0  0  0  0
  -23.0206   90.8797   48.6472 H   0  0  0  0  0
   11.0375   92.7256   55.0944 H   0  0  0  0  0
    9.2789   90.7553   55.0683 H   0  0  0  0  0
    3.3265   89.4361   55.4417 H   0  0  0  0  0
  1 16  4  0  0  0
 17  1  4  0  0  0
  2 17  1  0  0  0
 46  2  1  0  0  0
  2 61  2  0  0  0
  4  3  1  0  0  0
 18  3  1  0  0  0
  3 46  1  0  0  0
 48  4  1  0  0  0
  4 60  2  0  0  0
  5 20  4  0  0  0
 21  5  4  0  0  0
  6 21  4  0  0  0
 22  6  1  0  0  0
  6 39  4  0  0  0
  8  7  4  0  0  0
  7 44  4  0  0  0
  7 51  1  0  0  0
  9  8  4  0  0  0
 10  9  4  0  0  0
 11 10  1  0  0  0
 10 43  4  0  0  0
 12 11  2  0  0  0
 12 13  1  0  0  0
 14 12  1  0  0  0
 45 14  1  0  0  0
 14 62  2  0  0  0
 16 15  4  0  0  0
 15 42  4  0  0  0
 15 45  1  0  0  0
 17 41  4  0  0  0
 19 18  1  0  0  0
 19 47  2  0  0  0
 48 19  1  0  0  0
 20 40  4  0  0  0
 20 48  1  0  0  0
 49 22  1  0  0  0
 22 59  2  0  0  0
 24 23  4  0  0  0
 23 37  4  0  0  0
 23 49  1  0  0  0
 25 24  4  0  0  0
 26 25  4  0  0  0
 27 26  1  0  0  0
 26 36  4  0  0  0
 50 27  1  0  0  0
 27 56  2  0  0  0
 28 29  4  0  0  0
 28 34  4  0  0  0
 28 50  1  0  0  0
 29 30  4  0  0  0
 30 31  4  0  0  0
 31 32  1  0  0  0
 31 33  4  0  0  0
 32 52  1  0  0  0
 32 53  2  0  0  0
 33 34  4  0  0  0
 33 54  1  0  0  0
 34 55  1  0  0  0
 55 35  1  0  0  0
 36 37  4  0  0  0
 36 57  1  0  0  0
 37 58  1  0  0  0
 58 38  1  0  0  0
 39 40  4  0  0  0
 41 42  4  0  0  0
 43 44  4  0  0  0
  1 63  1  0  0  0
  3 64  1  0  0  0
  5 65  1  0  0  0
  8 66  1  0  0  0
  9 67  1  0  0  0
 11 68  1  0  0  0
 13 69  1  0  0  0
 13 70  1  0  0  0
 13 71  1  0  0  0
 16 72  1  0  0  0
 18 73  1  0  0  0
 18 74  1  0  0  0
 21 75  1  0  0  0
 24 76  1  0  0  0
 25 77  1  0  0  0
 29 78  1  0  0  0
 30 79  1  0  0  0
 35 80  1  0  0  0
 35 81  1  0  0  0
 35 82  1  0  0  0
 38 83  1  0  0  0
 38 84  1  0  0  0
 38 85  1  0  0  0
 39 86  1  0  0  0
 40 87  1  0  0  0
 41 88  1  0  0  0
 42 89  1  0  0  0
 43 90  1  0  0  0
 44 91  1  0  0  0
 45 92  1  0  0  0
 46 93  1  0  0  0
 47 94  1  0  0  0
 49 95  1  0  0  0
 50 96  1  0  0  0
 51 97  1  0  0  0
 52 98  1  0  0  0
 54 99  1  0  0  0
 57100  1  0  0  0
M  END
$$$$
