6fqu_ligand
  -I-interpret- 

 49 51  0  0  0  0  0  0  0  0999 V2000
   -0.8010   -3.6550   -5.9090 C   0  0  0  0  0
   -6.9280   -1.9030   -1.1050 C   0  0  0  0  0
   -0.7310   -0.6500    0.1720 C   0  0  0  0  0
   -1.7560   -0.6660   -0.7730 C   0  0  0  0  0
   -5.0520   -1.9610   -4.4360 C   0  0  0  0  0
    0.1800   -1.6990    0.2480 C   0  0  0  0  0
   -3.7410   -1.9540   -4.8940 C   0  0  0  0  0
   -0.9600   -2.7840   -1.5810 C   0  0  0  0  0
   -4.2340   -1.8050   -2.1720 C   0  0  0  0  0
   -1.2230   -2.1880   -5.7900 C   0  0  0  0  0
    2.8040   -4.8670    0.7000 C   0  0  0  0  0
    2.2570   -3.5920    0.0690 C   0  0  0  0  0
    2.7040   -6.0230   -0.2810 C   0  0  0  0  0
    0.6590   -5.0570   -1.3070 C   0  0  0  0  0
   -6.6490   -1.9290   -2.6200 C   0  0  0  0  0
   -5.3120   -1.8810   -3.0630 C   0  0  0  0  0
   -1.8700   -1.7270   -1.6730 C   0  0  0  0  0
    0.0580   -2.7740   -0.6320 C   0  0  0  0  0
   -2.6800   -1.8740   -3.9930 C   0  0  0  0  0
   -2.9100   -1.7860   -2.6180 C   0  0  0  0  0
    1.2380   -6.2580   -0.5870 C   0  0  0  0  0
    0.5450   -6.4860    0.5730 F   0  0  0  0  0
    1.1010   -7.2980   -1.3660 F   0  0  0  0  0
    0.9400   -3.7900   -0.5870 N   0  0  0  0  0
   -7.5740   -2.1480   -3.4130 O   0  0  0  0  0
   -1.3770   -1.8590   -4.4040 O   0  0  0  0  0
    0.1447   -3.8031   -5.3877 H   0  0  0  0  0
   -1.5667   -4.2894   -5.4625 H   0  0  0  0  0
   -0.6817   -3.9132   -6.9612 H   0  0  0  0  0
   -7.6573   -1.1235   -0.8845 H   0  0  0  0  0
   -7.3223   -2.8700   -0.7928 H   0  0  0  0  0
   -6.0011   -1.6972   -0.5696 H   0  0  0  0  0
   -0.6424    0.1925    0.8579 H   0  0  0  0  0
   -2.4724    0.1547   -0.8093 H   0  0  0  0  0
   -5.8774   -2.0287   -5.1447 H   0  0  0  0  0
    0.9805   -1.6807    0.9875 H   0  0  0  0  0
   -3.5404   -2.0114   -5.9638 H   0  0  0  0  0
   -1.0491   -3.6294   -2.2632 H   0  0  0  0  0
   -4.4334   -1.7594   -1.1014 H   0  0  0  0  0
   -2.1672   -2.0332   -6.3121 H   0  0  0  0  0
   -0.4620   -1.5487   -6.2376 H   0  0  0  0  0
    2.2208   -5.1031    1.5901 H   0  0  0  0  0
    3.8501   -4.7135    0.9649 H   0  0  0  0  0
    2.9641   -3.2693   -0.6952 H   0  0  0  0  0
    2.1257   -2.8575    0.8636 H   0  0  0  0  0
    3.1455   -6.9209    0.1513 H   0  0  0  0  0
    3.2449   -5.7854   -1.1970 H   0  0  0  0  0
   -0.4220   -5.1832   -1.3665 H   0  0  0  0  0
    1.1172   -4.9974   -2.2942 H   0  0  0  0  0
 10  1  1  0  0  0
 15  2  1  0  0  0
  4  3  4  0  0  0
  3  6  4  0  0  0
 17  4  4  0  0  0
  7  5  4  0  0  0
  5 16  4  0  0  0
 18  6  4  0  0  0
 19  7  4  0  0  0
 17  8  4  0  0  0
  8 18  4  0  0  0
  9 16  4  0  0  0
 20  9  4  0  0  0
 26 10  1  0  0  0
 12 11  1  0  0  0
 11 13  1  0  0  0
 24 12  1  0  0  0
 21 13  1  0  0  0
 14 21  1  0  0  0
 24 14  1  0  0  0
 16 15  1  0  0  0
 15 25  2  0  0  0
 20 17  1  0  0  0
 18 24  1  0  0  0
 19 20  4  0  0  0
 19 26  1  0  0  0
 21 22  1  0  0  0
 21 23  1  0  0  0
  1 27  1  0  0  0
  1 28  1  0  0  0
  1 29  1  0  0  0
  2 30  1  0  0  0
  2 31  1  0  0  0
  2 32  1  0  0  0
  3 33  1  0  0  0
  4 34  1  0  0  0
  5 35  1  0  0  0
  6 36  1  0  0  0
  7 37  1  0  0  0
  8 38  1  0  0  0
  9 39  1  0  0  0
 10 40  1  0  0  0
 10 41  1  0  0  0
 11 42  1  0  0  0
 11 43  1  0  0  0
 12 44  1  0  0  0
 12 45  1  0  0  0
 13 46  1  0  0  0
 13 47  1  0  0  0
 14 48  1  0  0  0
 14 49  1  0  0  0
M  END
$$$$
