5m25_ligand
  -I-interpret- 

 90 91  0  0  0  0  0  0  0  0999 V2000
  -12.5350   22.3480    8.1760 N   0  0  0  0  0
  -11.5170   23.3360    7.9500 C   0  0  0  0  0
  -11.0530   23.5840    6.6570 C   0  0  0  0  0
  -10.0450   24.5500    6.4270 C   0  0  0  0  0
  -10.9790   24.0590    9.0340 C   0  0  0  0  0
   -9.9840   25.0260    8.8040 C   0  0  0  0  0
   -9.5200   25.2730    7.5070 C   0  0  0  0  0
   -8.4840   26.2960    7.2860 C   0  0  0  0  0
   -8.3980   26.6290    5.8630 N   0  0  0  0  0
   -7.4420   25.8440    5.0620 C   0  0  0  0  0
   -6.7820   24.9700    5.5730 O   0  0  0  0  0
   -7.2870   26.1100    3.5800 C   0  0  0  0  0
   -6.1200   27.0130    3.3800 C   0  0  0  0  0
   -8.5110   26.6370    3.0480 N   0  0  0  0  0
   -9.6840   25.8100    2.8940 C   0  0  0  0  0
   -9.6460   24.6530    3.2350 O   0  0  0  0  0
  -10.9690   26.3750    2.3220 C   0  0  0  0  0
  -10.9260   26.3350    0.7990 C   0  0  0  0  0
  -10.4630   24.9470    0.2770 C   0  0  0  0  0
  -10.4070   24.9200   -1.2720 C   0  0  0  0  0
  -11.3300   25.8490   -1.8930 N   0  0  0  0  0
  -12.5800   25.3470   -2.4490 C   0  0  0  0  0
  -12.8610   24.0580   -2.3390 N   0  0  0  0  0
  -13.4190   26.1520   -3.0340 N   0  0  0  0  0
  -11.1340   27.7370    2.7070 N   0  0  0  0  0
  -11.2700   28.0260    4.1070 C   0  0  0  0  0
  -11.2600   27.1530    4.9070 O   0  0  0  0  0
  -11.4280   29.4710    4.5380 C   0  0  0  0  0
  -12.8490   29.8970    4.3090 C   0  0  0  0  0
  -10.5890   30.2740    3.7110 N   0  0  0  0  0
   -9.1550   30.1190    3.6790 C   0  0  0  0  0
   -8.6270   29.2720    4.3810 O   0  0  0  0  0
   -8.3340   31.0460    2.7810 C   0  0  0  0  0
   -7.4160   31.7810    3.5810 N   0  3  0  0  0
   -7.5860   30.3280    1.6870 C   0  0  0  0  0
   -8.3950   29.2580    1.1930 O   0  0  0  0  0
  -17.2510   18.4520   11.0070 C   0  0  0  0  0
  -18.1480   18.2460    9.8970 O   0  0  0  0  0
  -16.0650   19.3480   10.5660 C   0  0  0  0  0
  -14.9480   19.4430   11.3910 C   0  0  0  0  0
  -13.8410   20.2560   11.0110 C   0  0  0  0  0
  -16.0900   20.0810    9.3370 C   0  0  0  0  0
  -14.9930   20.8910    8.9640 C   0  0  0  0  0
  -13.8600   20.9800    9.7970 C   0  0  0  0  0
  -12.7210   21.7970    9.4540 N   0  0  0  0  0
  -13.1269   22.0446    7.4027 H   0  0  0  0  0
  -11.4708   23.0287    5.8173 H   0  0  0  0  0
   -9.6790   24.7308    5.4163 H   0  0  0  0  0
  -11.3330   23.8692   10.0473 H   0  0  0  0  0
   -9.5712   25.5873    9.6422 H   0  0  0  0  0
   -7.5220   25.9077    7.6204 H   0  0  0  0  0
   -8.7432   27.1936    7.8475 H   0  0  0  0  0
   -8.9693   27.3651    5.4481 H   0  0  0  0  0
   -7.0887   25.1885    3.0326 H   0  0  0  0  0
   -6.2920   27.9497    3.9101 H   0  0  0  0  0
   -5.2210   26.5342    3.7681 H   0  0  0  0  0
   -5.9958   27.2138    2.3159 H   0  0  0  0  0
   -8.5532   27.6182    2.7724 H   0  0  0  0  0
  -11.7928   25.7715    2.7032 H   0  0  0  0  0
  -10.2163   27.0871    0.4544 H   0  0  0  0  0
  -11.9298   26.5282    0.4207 H   0  0  0  0  0
  -11.1761   24.1939    0.6123 H   0  0  0  0  0
   -9.4644   24.7452    0.6646 H   0  0  0  0  0
  -10.6817   23.9159   -1.5950 H   0  0  0  0  0
   -9.3988   25.2065   -1.5711 H   0  0  0  0  0
  -11.1071   26.8432   -1.9404 H   0  0  0  0  0
  -13.7370   23.6932   -2.7132 H   0  0  0  0  0
  -12.2015   23.4296   -1.8800 H   0  0  0  0  0
  -13.2048   27.1466   -3.1073 H   0  0  0  0  0
  -11.1548   28.4823    2.0109 H   0  0  0  0  0
  -11.1652   29.5807    5.5901 H   0  0  0  0  0
  -13.0899   29.8002    3.2504 H   0  0  0  0  0
  -13.5157   29.2634    4.8940 H   0  0  0  0  0
  -12.9697   30.9356    4.6169 H   0  0  0  0  0
  -11.0189   30.9851    3.1195 H   0  0  0  0  0
   -9.0428   31.7087    2.2845 H   0  0  0  0  0
   -6.8671   32.4002    2.9846 H   0  0  0  0  0
   -7.9310   32.3348    4.2655 H   0  0  0  0  0
   -6.7940   31.1333    4.0646 H   0  0  0  0  0
   -6.6515   29.9295    2.0818 H   0  0  0  0  0
   -7.3627   31.0232    0.8777 H   0  0  0  0  0
   -7.9230   28.7971    0.4956 H   0  0  0  0  0
  -16.8684   17.4887   11.3443 H   0  0  0  0  0
  -17.7893   18.9411   11.8189 H   0  0  0  0  0
  -18.8795   17.6908   10.1769 H   0  0  0  0  0
  -14.9199   18.8932   12.3318 H   0  0  0  0  0
  -12.9702   20.3203   11.6635 H   0  0  0  0  0
  -16.9605   20.0143    8.6844 H   0  0  0  0  0
  -15.0238   21.4490    8.0282 H   0  0  0  0  0
  -12.0202   21.9824   10.1716 H   0  0  0  0  0
  1  2  1  0  0  0
 45  1  1  0  0  0
  2  3  4  0  0  0
  2  5  4  0  0  0
  3  4  4  0  0  0
  4  7  4  0  0  0
  5  6  4  0  0  0
  6  7  4  0  0  0
  7  8  1  0  0  0
  8  9  1  0  0  0
  9 10  1  0  0  0
 10 11  2  0  0  0
 10 12  1  0  0  0
 12 13  1  0  0  0
 12 14  1  0  0  0
 14 15  1  0  0  0
 15 16  2  0  0  0
 15 17  1  0  0  0
 17 18  1  0  0  0
 17 25  1  0  0  0
 18 19  1  0  0  0
 19 20  1  0  0  0
 20 21  1  0  0  0
 21 22  1  0  0  0
 22 23  1  0  0  0
 22 24  2  0  0  0
 25 26  1  0  0  0
 26 27  2  0  0  0
 26 28  1  0  0  0
 28 29  1  0  0  0
 28 30  1  0  0  0
 30 31  1  0  0  0
 31 32  2  0  0  0
 31 33  1  0  0  0
 33 34  1  0  0  0
 33 35  1  0  0  0
 35 36  1  0  0  0
 37 38  1  0  0  0
 39 37  1  0  0  0
 40 39  4  0  0  0
 42 39  4  0  0  0
 41 40  4  0  0  0
 44 41  4  0  0  0
 43 42  4  0  0  0
 44 43  4  0  0  0
 44 45  1  0  0  0
  1 46  1  0  0  0
  3 47  1  0  0  0
  4 48  1  0  0  0
  5 49  1  0  0  0
  6 50  1  0  0  0
  8 51  1  0  0  0
  8 52  1  0  0  0
  9 53  1  0  0  0
 12 54  1  0  0  0
 13 55  1  0  0  0
 13 56  1  0  0  0
 13 57  1  0  0  0
 14 58  1  0  0  0
 17 59  1  0  0  0
 18 60  1  0  0  0
 18 61  1  0  0  0
 19 62  1  0  0  0
 19 63  1  0  0  0
 20 64  1  0  0  0
 20 65  1  0  0  0
 21 66  1  0  0  0
 23 67  1  0  0  0
 23 68  1  0  0  0
 24 69  1  0  0  0
 25 70  1  0  0  0
 28 71  1  0  0  0
 29 72  1  0  0  0
 29 73  1  0  0  0
 29 74  1  0  0  0
 30 75  1  0  0  0
 33 76  1  0  0  0
 34 77  1  0  0  0
 34 78  1  0  0  0
 34 79  1  0  0  0
 35 80  1  0  0  0
 35 81  1  0  0  0
 36 82  1  0  0  0
 37 83  1  0  0  0
 37 84  1  0  0  0
 38 85  1  0  0  0
 40 86  1  0  0  0
 41 87  1  0  0  0
 42 88  1  0  0  0
 43 89  1  0  0  0
 45 90  1  0  0  0
M  END
$$$$
