2pyn_ligand
  -I-interpret- 

 86 89  0  0  0  0  0  0  0  0999 V2000
  -12.8470   13.7840   27.6230 C   0  0  0  0  0
  -12.6750   12.9750   28.9230 C   0  0  0  0  0
  -12.8840   11.4660   28.7450 C   0  0  0  0  0
  -12.1810   10.9280   27.4960 C   0  0  0  0  0
  -12.6230   11.7100   26.2680 C   0  0  0  0  0
  -12.1690   13.1600   26.4020 C   0  0  0  0  0
  -11.0390   15.3410   28.3640 N   0  3  0  0  0
  -11.0360   14.7060   29.6950 C   0  0  0  0  0
  -11.3080   13.2100   29.5690 C   0  0  0  0  0
  -12.3760   15.2340   27.7480 C   0  0  0  0  0
   -9.6980   14.8390   30.3560 C   0  0  0  0  0
   -9.7250   15.1520   31.6500 N   0  0  0  0  0
   -8.5370   15.3490   32.4790 C   0  0  0  0  0
   -7.6660   16.4330   31.8560 C   0  0  0  0  0
   -7.7750   14.0410   32.6220 C   0  0  0  0  0
   -8.9680   15.7660   33.8770 C   0  0  0  0  0
   -8.6920   14.6310   29.7010 O   0  0  0  0  0
  -10.6700   16.7630   28.4400 C   0  0  0  0  0
  -10.0980   17.1960   27.0930 C   0  0  0  0  0
   -8.6250   16.8290   26.9330 C   0  0  0  0  0
  -10.2860   18.5980   26.9020 O   0  0  0  0  0
   -8.2830   17.0440   25.5490 N   0  0  0  0  0
   -7.6960   17.6510   27.8270 C   0  0  0  0  0
   -8.0140   16.0640   24.6890 C   0  0  0  0  0
   -8.0650   14.8740   24.9720 O   0  0  0  0  0
   -7.6030   16.4850   23.3120 C   0  0  0  0  0
   -6.4110   17.2000   23.1280 C   0  0  0  0  0
   -6.0090   17.6100   21.8540 C   0  0  0  0  0
   -6.7760   17.3300   20.7190 C   0  0  0  0  0
   -7.9760   16.6240   20.8140 C   0  0  0  0  0
   -8.4530   16.1680   22.1380 C   0  0  0  0  0
   -8.7130   16.3550   19.7040 O   0  0  0  0  0
   -9.7450   15.3980   22.2760 C   0  0  0  0  0
   -6.1250   16.8550   27.9280 S   0  0  0  0  0
   -5.1280   17.5380   26.7320 C   0  0  0  0  0
   -4.0170   16.8290   26.2710 C   0  0  0  0  0
   -3.1850   17.3760   25.2950 C   0  0  0  0  0
   -3.4600   18.6370   24.7740 C   0  0  0  0  0
   -4.5690   19.3480   25.2260 C   0  0  0  0  0
   -5.3980   18.8000   26.2050 C   0  0  0  0  0
  -13.9252   13.7654   27.4640 H   0  0  0  0  0
  -13.4622   13.3472   29.5786 H   0  0  0  0  0
  -13.9530   11.2820   28.6381 H   0  0  0  0  0
  -12.4640   10.9606   29.6147 H   0  0  0  0  0
  -12.4416    9.8779   27.3637 H   0  0  0  0  0
  -11.1032   11.0348   27.6187 H   0  0  0  0  0
  -13.7092   11.6744   26.1847 H   0  0  0  0  0
  -12.1779   11.2697   25.3758 H   0  0  0  0  0
  -11.0865   13.1962   26.5244 H   0  0  0  0  0
  -12.4439   13.7154   25.5053 H   0  0  0  0  0
  -10.3482   14.8506   27.7960 H   0  0  0  0  0
  -11.8065   15.2046   30.2831 H   0  0  0  0  0
  -10.5362   12.7579   28.9461 H   0  0  0  0  0
  -11.3003   12.7607   30.5621 H   0  0  0  0  0
  -13.0839   15.7645   28.3849 H   0  0  0  0  0
  -12.3199   15.6577   26.7453 H   0  0  0  0  0
  -10.6371   15.2618   32.0932 H   0  0  0  0  0
   -7.3669   16.1257   30.8539 H   0  0  0  0  0
   -8.2313   17.3632   31.7986 H   0  0  0  0  0
   -6.7789   16.5829   32.4714 H   0  0  0  0  0
   -8.4186   13.2964   33.0903 H   0  0  0  0  0
   -7.4693   13.6905   31.6362 H   0  0  0  0  0
   -6.8928   14.2018   33.2416 H   0  0  0  0  0
   -9.5335   16.6960   33.8192 H   0  0  0  0  0
   -9.5931   14.9856   34.3110 H   0  0  0  0  0
   -8.0852   15.9141   34.4990 H   0  0  0  0  0
   -9.9248   16.9097   29.2218 H   0  0  0  0  0
  -11.5503   17.3607   28.6765 H   0  0  0  0  0
  -10.6450   16.6495   26.3247 H   0  0  0  0  0
   -8.4904   15.7906   27.2359 H   0  0  0  0  0
   -9.9219   18.8557   26.0519 H   0  0  0  0  0
   -8.2449   18.0047   25.2083 H   0  0  0  0  0
   -8.1281   17.7317   28.8245 H   0  0  0  0  0
   -7.5724   18.6481   27.4044 H   0  0  0  0  0
   -5.7893   17.4394   23.9907 H   0  0  0  0  0
   -5.0753   18.1612   21.7424 H   0  0  0  0  0
   -6.4305   17.6692   19.7425 H   0  0  0  0  0
   -9.4999   15.8655   19.9546 H   0  0  0  0  0
   -9.5377   14.4164   22.7022 H   0  0  0  0  0
  -10.4237   15.9441   22.9312 H   0  0  0  0  0
  -10.2027   15.2798   21.2938 H   0  0  0  0  0
   -3.7986   15.8412   26.6769 H   0  0  0  0  0
   -2.3196   16.8163   24.9402 H   0  0  0  0  0
   -2.8085   19.0674   24.0135 H   0  0  0  0  0
   -4.7893   20.3331   24.8146 H   0  0  0  0  0
   -6.2619   19.3619   26.5600 H   0  0  0  0  0
  1  2  1  0  0  0
  1  6  1  0  0  0
 10  1  1  0  0  0
  2  3  1  0  0  0
  2  9  1  0  0  0
  3  4  1  0  0  0
  5  4  1  0  0  0
  6  5  1  0  0  0
  7  8  1  0  0  0
  7 10  1  0  0  0
  7 18  1  0  0  0
  8  9  1  0  0  0
  8 11  1  0  0  0
 11 12  1  0  0  0
 11 17  2  0  0  0
 12 13  1  0  0  0
 13 14  1  0  0  0
 13 15  1  0  0  0
 13 16  1  0  0  0
 18 19  1  0  0  0
 19 20  1  0  0  0
 19 21  1  0  0  0
 20 22  1  0  0  0
 20 23  1  0  0  0
 22 24  1  0  0  0
 23 34  1  0  0  0
 24 25  2  0  0  0
 24 26  1  0  0  0
 26 27  4  0  0  0
 26 31  4  0  0  0
 27 28  4  0  0  0
 28 29  4  0  0  0
 29 30  4  0  0  0
 30 31  4  0  0  0
 30 32  1  0  0  0
 31 33  1  0  0  0
 34 35  1  0  0  0
 35 36  4  0  0  0
 35 40  4  0  0  0
 36 37  4  0  0  0
 37 38  4  0  0  0
 38 39  4  0  0  0
 39 40  4  0  0  0
  1 41  1  0  0  0
  2 42  1  0  0  0
  3 43  1  0  0  0
  3 44  1  0  0  0
  4 45  1  0  0  0
  4 46  1  0  0  0
  5 47  1  0  0  0
  5 48  1  0  0  0
  6 49  1  0  0  0
  6 50  1  0  0  0
  7 51  1  0  0  0
  8 52  1  0  0  0
  9 53  1  0  0  0
  9 54  1  0  0  0
 10 55  1  0  0  0
 10 56  1  0  0  0
 12 57  1  0  0  0
 14 58  1  0  0  0
 14 59  1  0  0  0
 14 60  1  0  0  0
 15 61  1  0  0  0
 15 62  1  0  0  0
 15 63  1  0  0  0
 16 64  1  0  0  0
 16 65  1  0  0  0
 16 66  1  0  0  0
 18 67  1  0  0  0
 18 68  1  0  0  0
 19 69  1  0  0  0
 20 70  1  0  0  0
 21 71  1  0  0  0
 22 72  1  0  0  0
 23 73  1  0  0  0
 23 74  1  0  0  0
 27 75  1  0  0  0
 28 76  1  0  0  0
 29 77  1  0  0  0
 32 78  1  0  0  0
 33 79  1  0  0  0
 33 80  1  0  0  0
 33 81  1  0  0  0
 36 82  1  0  0  0
 37 83  1  0  0  0
 38 84  1  0  0  0
 39 85  1  0  0  0
 40 86  1  0  0  0
M  END
$$$$
