6i0r_ligand
  -I-interpret- 

 18 18  0  0  0  0  0  0  0  0999 V2000
   10.4020    2.1370    9.2160 O   0  0  0  0  0
   10.2180    1.9780   10.4360 C   0  0  0  0  0
    9.2560    2.4860   11.0280 O   0  0  0  0  0
   11.1910    1.1280   11.1790 C   0  0  0  0  0
   11.9530    0.2890   10.4690 N   0  0  0  0  0
   12.8390   -0.5090   11.0580 C   0  0  0  0  0
   13.0150   -0.4910   12.4360 C   0  0  0  0  0
   14.1910   -1.5170   13.1450 S   0  0  0  0  0
   12.2590    0.3570   13.2420 C   0  0  0  0  0
   11.3360    1.1840   12.6480 C   0  0  0  0  0
   10.5280    2.1050   13.4760 C   0  0  0  0  0
    9.6420    1.6890   14.2410 O   0  0  0  0  0
   10.7940    3.3070   13.3730 O   0  0  0  0  0
   11.1953    1.6668    8.9492 H   0  0  0  0  0
   13.4367   -1.1880   10.4499 H   0  0  0  0  0
   14.1933   -1.3414   14.4634 H   0  0  0  0  0
   12.3968    0.3645   14.3232 H   0  0  0  0  0
    9.5889    0.7326   14.1773 H   0  0  0  0  0
  1  2  1  0  0  0
  2  3  2  0  0  0
  2  4  1  0  0  0
  4  5  4  0  0  0
  4 10  4  0  0  0
  5  6  4  0  0  0
  6  7  4  0  0  0
  7  8  1  0  0  0
  7  9  4  0  0  0
  9 10  4  0  0  0
 10 11  1  0  0  0
 11 12  1  0  0  0
 11 13  2  0  0  0
  1 14  1  0  0  0
  6 15  1  0  0  0
  8 16  1  0  0  0
  9 17  1  0  0  0
 12 18  1  0  0  0
M  END
$$$$
