2z7g_ligand
  -I-interpret- 

 43 44  0  0  0  0  0  0  0  0999 V2000
   11.1280   12.4930   20.8060 C   0  0  0  0  0
   11.2890   13.5410   21.6690 C   0  0  0  0  0
   11.3170   14.8440   21.1580 C   0  0  0  0  0
   11.0300   14.0770   19.0180 C   0  0  0  0  0
   11.5140   14.8780   23.3390 C   0  0  0  0  0
   11.1890   15.1420   19.8320 N   0  0  0  0  0
   10.9990   12.8050   19.4730 N   0  0  0  0  0
   11.4920   15.6660   22.2350 N   0  0  0  0  0
   11.4290   13.5780   22.9820 N   0  0  0  0  0
   11.6060   17.1340   22.4080 C   0  0  0  0  0
   10.3050   17.9310   22.1900 C   0  0  0  0  0
   11.0920   11.1990   21.2030 N   0  0  0  0  0
    9.6850   17.7460   20.8140 C   0  0  0  0  0
    8.3600   18.4180   20.4980 C   0  0  0  0  0
    7.8760   17.8430   19.1520 C   0  0  0  0  0
    8.0060   16.2970   19.0820 C   0  0  0  0  0
    6.7940   15.5750   18.4960 C   0  0  0  0  0
   12.9100   17.7480   21.9080 C   0  0  0  0  0
   13.9610   17.3190   22.7340 O   0  0  0  0  0
   13.1900   17.8300   20.4080 C   0  0  0  0  0
   10.9219   14.2506   17.9473 H   0  0  0  0  0
   11.5893   15.2408   24.3641 H   0  0  0  0  0
   11.7277   17.2636   23.4834 H   0  0  0  0  0
   10.5537   18.9874   22.2917 H   0  0  0  0  0
    9.5806   17.5709   22.9206 H   0  0  0  0  0
   11.1876   10.9659   22.1914 H   0  0  0  0  0
   10.9693   10.4573   20.5137 H   0  0  0  0  0
    9.4787   16.6780   20.7435 H   0  0  0  0  0
   10.3977   18.1991   20.1249 H   0  0  0  0  0
    8.4801   19.4996   20.4356 H   0  0  0  0  0
    7.6312   18.2252   21.2853 H   0  0  0  0  0
    8.4965   18.2679   18.3630 H   0  0  0  0  0
    6.8220   18.0966   19.0384 H   0  0  0  0  0
    8.1187   15.9433   20.1068 H   0  0  0  0  0
    8.8494   16.0808   18.4262 H   0  0  0  0  0
    5.9158   15.7886   19.1053 H   0  0  0  0  0
    6.6238   15.9219   17.4768 H   0  0  0  0  0
    6.9806   14.5011   18.4893 H   0  0  0  0  0
   12.7831   18.8252   22.0158 H   0  0  0  0  0
   14.7856   17.7016   22.4254 H   0  0  0  0  0
   13.1914   16.8256   19.9845 H   0  0  0  0  0
   12.4153   18.4273   19.9272 H   0  0  0  0  0
   14.1623   18.2954   20.2461 H   0  0  0  0  0
  1  2  4  0  0  0
  1  7  4  0  0  0
  1 12  1  0  0  0
  2  3  4  0  0  0
  2  9  4  0  0  0
  3  6  4  0  0  0
  3  8  4  0  0  0
  6  4  4  0  0  0
  4  7  4  0  0  0
  8  5  4  0  0  0
  5  9  4  0  0  0
  8 10  1  0  0  0
 10 11  1  0  0  0
 10 18  1  0  0  0
 11 13  1  0  0  0
 13 14  1  0  0  0
 14 15  1  0  0  0
 15 16  1  0  0  0
 16 17  1  0  0  0
 18 19  1  0  0  0
 18 20  1  0  0  0
  4 21  1  0  0  0
  5 22  1  0  0  0
 10 23  1  0  0  0
 11 24  1  0  0  0
 11 25  1  0  0  0
 12 26  1  0  0  0
 12 27  1  0  0  0
 13 28  1  0  0  0
 13 29  1  0  0  0
 14 30  1  0  0  0
 14 31  1  0  0  0
 15 32  1  0  0  0
 15 33  1  0  0  0
 16 34  1  0  0  0
 16 35  1  0  0  0
 17 36  1  0  0  0
 17 37  1  0  0  0
 17 38  1  0  0  0
 18 39  1  0  0  0
 19 40  1  0  0  0
 20 41  1  0  0  0
 20 42  1  0  0  0
 20 43  1  0  0  0
M  END
$$$$
