2e2b_ligand
  -I-interpret- 

 75 79  0  0  0  0  0  0  0  0999 V2000
   15.6550   50.5460   16.6180 C   0  0  0  0  0
   16.7720   49.6800   16.8410 C   0  0  0  0  0
   16.6580   48.5680   17.7030 C   0  0  0  0  0
   15.4080   48.2740   18.3950 C   0  0  0  0  0
   14.2470   49.1670   18.1710 C   0  0  0  0  0
   14.4220   50.2630   17.2900 C   0  0  0  0  0
   12.8320   49.0030   18.8360 C   0  0  0  0  0
   12.9460   49.1650   20.1830 F   0  0  0  0  0
   12.3190   47.7720   18.5830 F   0  0  0  0  0
   11.9420   49.9650   18.4300 F   0  0  0  0  0
   15.4200   47.0200   19.3230 C   0  0  0  0  0
   16.6820   46.6270   20.0070 N   0  3  0  0  0
   16.6770   45.3040   20.6620 C   0  0  0  0  0
   17.1820   45.5670   22.0850 C   0  0  0  0  0
   18.0920   46.7950   21.8390 C   0  0  0  0  0
   17.1450   47.6240   21.0090 C   0  0  0  0  0
   18.6280   47.5080   23.0830 N   0  3  0  0  0
   19.5410   46.7250   23.9420 C   0  0  0  0  0
   19.2540   48.8230   22.6890 C   0  0  0  0  0
   11.5450   62.0160   12.1620 N   0  0  0  0  0
   10.6260   61.3800   11.4130 C   0  0  0  0  0
   10.6700   60.1010   11.0160 N   0  0  0  0  0
   11.7450   59.3640   11.4040 C   0  0  0  0  0
   12.8520   59.9020   12.2290 C   0  0  0  0  0
   12.6290   61.3150   12.5630 C   0  0  0  0  0
   13.9470   59.1190   12.6150 C   0  0  0  0  0
   13.9940   57.8030   12.2150 N   0  0  0  0  0
   15.0140   57.0320   12.5580 C   0  0  0  0  0
   16.0610   57.4220   13.2720 N   0  0  0  0  0
   16.1060   58.7230   13.7210 C   0  0  0  0  0
   15.0700   59.6490   13.4250 C   0  0  0  0  0
   14.9480   55.7250   12.0930 N   0  0  0  0  0
   15.7000   53.8490   13.3820 C   0  0  0  0  0
   16.6380   52.7710   13.6250 C   0  0  0  0  0
   17.7250   52.5870   12.7390 C   0  0  0  0  0
   17.8950   53.4590   11.6120 C   0  0  0  0  0
   16.9640   54.5200   11.3800 C   0  0  0  0  0
   15.8750   54.6970   12.2750 C   0  0  0  0  0
   17.2370   55.3920   10.1560 C   0  0  0  0  0
   16.5330   51.8610   14.7350 N   0  0  0  0  0
   15.6600   51.7530   15.7370 C   0  0  0  0  0
   14.8550   52.6550   15.9710 O   0  0  0  0  0
   17.7194   49.8808   16.3408 H   0  0  0  0  0
   17.5194   47.9174   17.8542 H   0  0  0  0  0
   13.5742   50.9252   17.1145 H   0  0  0  0  0
   15.1917   46.1841   18.6617 H   0  0  0  0  0
   14.7324   47.2676   20.1317 H   0  0  0  0  0
   17.3286   46.5813   19.2195 H   0  0  0  0  0
   17.3077   44.5885   20.1343 H   0  0  0  0  0
   15.6835   44.8556   20.6613 H   0  0  0  0  0
   17.6922   44.7184   22.5408 H   0  0  0  0  0
   16.3903   45.7380   22.8144 H   0  0  0  0  0
   19.0471   46.5496   21.3745 H   0  0  0  0  0
   16.3360   48.0723   21.5857 H   0  0  0  0  0
   17.6086   48.5057   20.5665 H   0  0  0  0  0
   17.8098   47.6566   23.6736 H   0  0  0  0  0
   19.0244   45.8359   24.3036 H   0  0  0  0  0
   20.4164   46.4284   23.3642 H   0  0  0  0  0
   19.8531   47.3353   24.7895 H   0  0  0  0  0
   20.0752   48.6398   21.9961 H   0  0  0  0  0
   18.5043   49.4512   22.2079 H   0  0  0  0  0
   19.6332   49.3247   23.5793 H   0  0  0  0  0
    9.7603   61.9626   11.0981 H   0  0  0  0  0
   11.7950   58.3211   11.0912 H   0  0  0  0  0
   13.3785   61.8261   13.1672 H   0  0  0  0  0
   16.9572   59.0503   14.3180 H   0  0  0  0  0
   15.0989   60.6822   13.7710 H   0  0  0  0  0
   14.1180   55.4861   11.5504 H   0  0  0  0  0
   14.8587   54.0020   14.0580 H   0  0  0  0  0
   18.4364   51.7797   12.9129 H   0  0  0  0  0
   18.7343   53.3127   10.9321 H   0  0  0  0  0
   18.2150   55.8624   10.2574 H   0  0  0  0  0
   17.2216   54.7724    9.2594 H   0  0  0  0  0
   16.4685   56.1613   10.0808 H   0  0  0  0  0
   17.2732   51.1596   14.7602 H   0  0  0  0  0
  1  2  4  0  0  0
  1  6  4  0  0  0
 41  1  1  0  0  0
  2  3  4  0  0  0
  3  4  4  0  0  0
  5  4  4  0  0  0
  4 11  1  0  0  0
  6  5  4  0  0  0
  5  7  1  0  0  0
  7  8  1  0  0  0
  7  9  1  0  0  0
  7 10  1  0  0  0
 11 12  1  0  0  0
 12 13  1  0  0  0
 12 16  1  0  0  0
 13 14  1  0  0  0
 15 14  1  0  0  0
 16 15  1  0  0  0
 15 17  1  0  0  0
 17 18  1  0  0  0
 17 19  1  0  0  0
 20 21  4  0  0  0
 25 20  4  0  0  0
 22 21  4  0  0  0
 23 22  4  0  0  0
 24 23  4  0  0  0
 24 25  4  0  0  0
 26 24  1  0  0  0
 27 26  4  0  0  0
 26 31  4  0  0  0
 28 27  4  0  0  0
 28 29  4  0  0  0
 32 28  1  0  0  0
 29 30  4  0  0  0
 30 31  4  0  0  0
 38 32  1  0  0  0
 34 33  4  0  0  0
 33 38  4  0  0  0
 34 35  4  0  0  0
 40 34  1  0  0  0
 35 36  4  0  0  0
 36 37  4  0  0  0
 38 37  4  0  0  0
 37 39  1  0  0  0
 40 41  1  0  0  0
 41 42  2  0  0  0
  2 43  1  0  0  0
  3 44  1  0  0  0
  6 45  1  0  0  0
 11 46  1  0  0  0
 11 47  1  0  0  0
 12 48  1  0  0  0
 13 49  1  0  0  0
 13 50  1  0  0  0
 14 51  1  0  0  0
 14 52  1  0  0  0
 15 53  1  0  0  0
 16 54  1  0  0  0
 16 55  1  0  0  0
 17 56  1  0  0  0
 18 57  1  0  0  0
 18 58  1  0  0  0
 18 59  1  0  0  0
 19 60  1  0  0  0
 19 61  1  0  0  0
 19 62  1  0  0  0
 21 63  1  0  0  0
 23 64  1  0  0  0
 25 65  1  0  0  0
 30 66  1  0  0  0
 31 67  1  0  0  0
 32 68  1  0  0  0
 33 69  1  0  0  0
 35 70  1  0  0  0
 36 71  1  0  0  0
 39 72  1  0  0  0
 39 73  1  0  0  0
 39 74  1  0  0  0
 40 75  1  0  0  0
M  END
$$$$
