1q1y_ligand
  -I-interpret- 

 61 61  0  0  0  0  0  0  0  0999 V2000
  -17.7270  144.2480   43.5130 C   0  0  0  0  0
  -18.6200  143.4310   42.5920 C   0  0  0  0  0
  -19.8200  143.6990   42.5520 O   0  0  0  0  0
  -18.0370  142.4380   41.9150 N   0  0  0  0  0
  -18.6800  141.6450   41.1490 O   0  0  0  0  0
  -17.4860  143.6490   44.9310 C   0  0  0  0  0
  -16.7950  144.8090   45.6770 C   0  0  0  0  0
  -15.6450  145.1960   45.4100 O   0  0  0  0  0
  -16.6810  142.3310   44.8230 C   0  0  0  0  0
  -15.5580  141.8030   45.7250 C   0  0  0  0  0
  -15.9960  141.5950   47.1760 C   0  0  0  0  0
  -16.5630  140.2510   47.6350 C   0  0  0  0  0
  -16.9280  140.0640   49.1050 C   0  0  0  0  0
  -17.6040  145.3820   46.5740 N   0  0  0  0  0
  -17.3240  146.5820   47.3590 C   0  0  0  0  0
  -18.6180  147.3930   47.5810 C   0  0  0  0  0
  -19.4220  147.7030   46.3220 C   0  0  0  0  0
  -18.6370  148.5750   48.5620 C   0  0  0  0  0
  -16.4970  146.3220   48.6230 C   0  0  0  0  0
  -17.0430  145.6030   49.4690 O   0  0  0  0  0
  -15.3310  147.0020   48.8300 N   0  0  0  0  0
  -14.5450  147.0910   50.0710 C   0  0  0  0  0
  -14.6330  147.7740   47.7710 C   0  0  0  0  0
  -13.3660  148.3460   48.3630 C   0  0  0  0  0
  -13.2870  147.9190   49.7920 C   0  0  0  0  0
  -15.2650  147.7540   51.2560 C   0  0  0  0  0
  -15.9827  148.7778   51.0999 O   0  0  0  0  0
  -15.1347  147.2629   52.4090 O   0  0  0  0  0
  -18.2316  145.2023   43.6638 H   0  0  0  0  0
  -16.7510  144.2982   43.0303 H   0  0  0  0  0
  -17.0304  142.3073   42.0149 H   0  0  0  0  0
  -18.0714  141.0101   40.7641 H   0  0  0  0  0
  -18.3774  143.3365   45.4749 H   0  0  0  0  0
  -16.1295  142.5083   43.8997 H   0  0  0  0  0
  -17.4636  141.6009   45.0294 H   0  0  0  0  0
  -14.7588  142.5442   45.7248 H   0  0  0  0  0
  -15.2472  140.8349   45.3323 H   0  0  0  0  0
  -16.8231  142.2926   47.3077 H   0  0  0  0  0
  -15.0768  141.7072   47.7509 H   0  0  0  0  0
  -15.7646  139.5322   47.4507 H   0  0  0  0  0
  -17.5048  140.1454   47.0966 H   0  0  0  0  0
  -16.0401  140.2108   49.7200 H   0  0  0  0  0
  -17.6896  140.7921   49.3844 H   0  0  0  0  0
  -17.3141  139.0560   49.2568 H   0  0  0  0  0
  -18.5087  144.9360   46.7257 H   0  0  0  0  0
  -16.6573  147.2145   46.7729 H   0  0  0  0  0
  -19.1345  146.6211   48.1516 H   0  0  0  0  0
  -18.8079  148.2843   45.6342 H   0  0  0  0  0
  -19.7209  146.7699   45.8444 H   0  0  0  0  0
  -20.3096  148.2755   46.5911 H   0  0  0  0  0
  -18.3775  148.2215   49.5599 H   0  0  0  0  0
  -17.9130  149.3238   48.2407 H   0  0  0  0  0
  -19.6339  149.0154   48.5790 H   0  0  0  0  0
  -14.3400  146.0599   50.3588 H   0  0  0  0  0
  -15.2739  148.5777   47.4084 H   0  0  0  0  0
  -14.3938  147.1244   46.9291 H   0  0  0  0  0
  -13.3782  149.4339   48.2963 H   0  0  0  0  0
  -12.4975  147.9824   47.8139 H   0  0  0  0  0
  -12.3864  147.3325   49.9740 H   0  0  0  0  0
  -13.2347  148.7831   50.4543 H   0  0  0  0  0
  -15.9826  149.0291   50.1734 H   0  0  0  0  0
  1  2  1  0  0  0
  1  6  1  0  0  0
  2  3  2  0  0  0
  2  4  1  0  0  0
  4  5  1  0  0  0
  6  7  1  0  0  0
  6  9  1  0  0  0
  7  8  2  0  0  0
  7 14  1  0  0  0
  9 10  1  0  0  0
 10 11  1  0  0  0
 11 12  1  0  0  0
 12 13  1  0  0  0
 14 15  1  0  0  0
 15 16  1  0  0  0
 15 19  1  0  0  0
 16 17  1  0  0  0
 16 18  1  0  0  0
 19 20  2  0  0  0
 19 21  1  0  0  0
 21 22  1  0  0  0
 21 23  1  0  0  0
 22 25  1  0  0  0
 22 26  1  0  0  0
 23 24  1  0  0  0
 24 25  1  0  0  0
 26 27  1  0  0  0
 26 28  2  0  0  0
  1 29  1  0  0  0
  1 30  1  0  0  0
  4 31  1  0  0  0
  5 32  1  0  0  0
  6 33  1  0  0  0
  9 34  1  0  0  0
  9 35  1  0  0  0
 10 36  1  0  0  0
 10 37  1  0  0  0
 11 38  1  0  0  0
 11 39  1  0  0  0
 12 40  1  0  0  0
 12 41  1  0  0  0
 13 42  1  0  0  0
 13 43  1  0  0  0
 13 44  1  0  0  0
 14 45  1  0  0  0
 15 46  1  0  0  0
 16 47  1  0  0  0
 17 48  1  0  0  0
 17 49  1  0  0  0
 17 50  1  0  0  0
 18 51  1  0  0  0
 18 52  1  0  0  0
 18 53  1  0  0  0
 22 54  1  0  0  0
 23 55  1  0  0  0
 23 56  1  0  0  0
 24 57  1  0  0  0
 24 58  1  0  0  0
 25 59  1  0  0  0
 25 60  1  0  0  0
 27 61  1  0  0  0
M  END
$$$$
