6au2_ligand
  -I-interpret- 

 26 28  0  0  0  0  0  0  0  0999 V2000
   16.7530   59.0130    8.4090 C   0  0  0  0  0
   16.7600   59.6360    7.0410 C   0  0  0  0  0
   17.9500   60.0690    6.4650 C   0  0  0  0  0
   12.8850   59.2150    8.5650 N   0  0  0  0  0
   17.9680   60.5520    5.1670 C   0  0  0  0  0
   16.8060   60.6070    4.4260 C   0  0  0  0  0
   14.3440   59.4080    6.9270 N   0  0  0  0  0
   15.6020   60.2090    4.9810 C   0  0  0  0  0
   15.5840   59.7420    6.2940 C   0  0  0  0  0
   13.1650   58.0830    5.1110 C   0  0  0  0  0
   13.2670   58.6740    6.4700 C   0  0  0  0  0
   14.0440   59.7190    8.2340 C   0  0  0  0  0
   12.3880   58.5460    7.4310 N   0  0  0  0  0
   16.1350   59.7830    9.4480 O   0  0  0  0  0
   14.9870   60.5010    9.0560 C   0  0  0  0  0
   17.7978   58.8947    8.6964 H   0  0  0  0  0
   16.1731   58.0940    8.3234 H   0  0  0  0  0
   18.8753   60.0278    7.0396 H   0  0  0  0  0
   18.9065   60.8908    4.7283 H   0  0  0  0  0
   16.8360   60.9660    3.3973 H   0  0  0  0  0
   14.6814   60.2601    4.3996 H   0  0  0  0  0
   13.2193   58.8768    4.3660 H   0  0  0  0  0
   13.9862   57.3827    4.9581 H   0  0  0  0  0
   12.2150   57.5573    5.0152 H   0  0  0  0  0
   14.4605   60.7916    9.9651 H   0  0  0  0  0
   15.3226   61.3434    8.4511 H   0  0  0  0  0
  2  1  1  0  0  0
  1 14  1  0  0  0
  2  3  4  0  0  0
  9  2  4  0  0  0
  3  5  4  0  0  0
 12  4  4  0  0  0
  4 13  4  0  0  0
  5  6  4  0  0  0
  6  8  4  0  0  0
  7  9  1  0  0  0
  7 11  4  0  0  0
  7 12  4  0  0  0
  8  9  4  0  0  0
 11 10  1  0  0  0
 11 13  4  0  0  0
 12 15  1  0  0  0
 14 15  1  0  0  0
  1 16  1  0  0  0
  1 17  1  0  0  0
  3 18  1  0  0  0
  5 19  1  0  0  0
  6 20  1  0  0  0
  8 21  1  0  0  0
 10 22  1  0  0  0
 10 23  1  0  0  0
 10 24  1  0  0  0
 15 25  1  0  0  0
 15 26  1  0  0  0
M  END
$$$$
