4b5d_ligand
  -I-interpret- 

 39 41  0  0  0  0  0  0  0  0999 V2000
   13.5190   31.6260   22.3520 O   0  0  0  0  0
   14.1200   30.8490   23.3160 C   0  0  0  0  0
   14.2270   29.3620   23.0100 C   0  0  0  0  0
   15.3310   29.0330   22.0700 C   0  0  0  0  0
   16.2200   27.9110   22.5090 C   0  0  0  0  0
   15.1320   27.6700   21.5100 C   0  0  0  0  0
   15.2740   26.5640   20.4600 C   0  0  0  0  0
   14.8990   25.2290   20.6090 C   0  0  0  0  0
   15.0770   24.3780   19.5520 N   0  0  0  0  0
   15.6170   24.8000   18.3790 C   0  0  0  0  0
   15.9910   26.1630   18.2100 C   0  0  0  0  0
   16.5420   26.7090   17.0070 O   0  0  0  0  0
   17.4530   27.7520   17.0640 C   0  0  0  0  0
   18.1540   28.0320   15.7550 C   0  0  0  0  0
   17.3860   27.4300   14.6620 C   0  0  0  0  0
   18.2870   26.2640   14.6990 C   0  0  0  0  0
   19.1940   27.0200   15.5540 N   0  3  0  0  0
   15.8160   27.0320   19.2680 C   0  0  0  0  0
   13.5034   32.5405   22.6436 H   0  0  0  0  0
   13.4968   30.9325   24.2064 H   0  0  0  0  0
   15.1425   31.2151   23.4082 H   0  0  0  0  0
   13.2924   29.0540   22.5412 H   0  0  0  0  0
   14.4289   28.8462   23.9488 H   0  0  0  0  0
   15.5271   30.0353   21.6892 H   0  0  0  0  0
   16.5961   27.4753   23.4347 H   0  0  0  0  0
   17.2835   27.7054   22.6305 H   0  0  0  0  0
   14.1687   27.3108   21.1478 H   0  0  0  0  0
   14.4735   24.8713   21.5466 H   0  0  0  0  0
   15.7645   24.0918   17.5637 H   0  0  0  0  0
   18.2195   27.4713   17.7864 H   0  0  0  0  0
   16.8973   28.6510   17.3307 H   0  0  0  0  0
   18.3843   29.0973   15.7690 H   0  0  0  0  0
   17.2267   27.9761   13.7322 H   0  0  0  0  0
   16.3077   27.2983   14.7513 H   0  0  0  0  0
   18.6459   25.8125   13.7741 H   0  0  0  0  0
   17.9162   25.2880   15.0120 H   0  0  0  0  0
   19.6328   26.5708   16.3578 H   0  0  0  0  0
   20.1139   27.2935   15.2085 H   0  0  0  0  0
   16.1011   28.0794   19.1697 H   0  0  0  0  0
  1  2  1  0  0  0
  2  3  1  0  0  0
  3  4  1  0  0  0
  4  5  1  0  0  0
  4  6  1  0  0  0
  5  6  1  0  0  0
  6  7  1  0  0  0
  7  8  4  0  0  0
  7 18  4  0  0  0
  8  9  4  0  0  0
  9 10  4  0  0  0
 10 11  4  0  0  0
 11 12  1  0  0  0
 11 18  4  0  0  0
 12 13  1  0  0  0
 13 14  1  0  0  0
 14 15  1  0  0  0
 14 17  1  0  0  0
 15 16  1  0  0  0
 16 17  1  0  0  0
  1 19  1  0  0  0
  2 20  1  0  0  0
  2 21  1  0  0  0
  3 22  1  0  0  0
  3 23  1  0  0  0
  4 24  1  0  0  0
  5 25  1  0  0  0
  5 26  1  0  0  0
  6 27  1  0  0  0
  8 28  1  0  0  0
 10 29  1  0  0  0
 13 30  1  0  0  0
 13 31  1  0  0  0
 14 32  1  0  0  0
 15 33  1  0  0  0
 15 34  1  0  0  0
 16 35  1  0  0  0
 16 36  1  0  0  0
 17 37  1  0  0  0
 17 38  1  0  0  0
 18 39  1  0  0  0
M  END
$$$$
