1ol2_ligand
  -I-interpret- 

104104  0  0  0  0  0  0  0  0999 V2000
   35.4900   20.8900   -1.4670 N   0  3  0  0  0
   36.8980   20.7850   -1.1240 C   0  0  0  0  0
   37.1980   21.7720   -0.0240 C   0  0  0  0  0
   36.6690   22.8740   -0.0620 O   0  0  0  0  0
   37.7280   20.7680   -2.4030 C   0  0  0  0  0
   38.3030   21.7770   -3.0600 C   0  0  0  0  0
   39.7790   21.7060   -3.4090 C   0  0  0  0  0
   40.0590   22.3590   -4.6860 N   0  0  0  0  0
   39.1810   22.5160   -5.6870 C   0  0  0  0  0
   39.3720   23.5090   -6.5660 N   0  0  0  0  0
   38.1000   21.7310   -5.8160 N   0  0  0  0  0
   37.9480   21.3600    1.0110 N   0  0  0  0  0
   38.5500   22.2930    1.9550 C   0  0  0  0  0
   39.7410   22.9040    1.2980 C   0  0  0  0  0
   40.5610   22.1250    0.8330 O   0  0  0  0  0
   38.9490   21.6250    3.2490 C   0  0  0  0  0
   38.8000   22.2640    4.4120 C   0  0  0  0  0
   39.9830   22.8420    5.1640 C   0  0  0  0  0
   41.0170   21.8370    5.4170 N   0  0  0  0  0
   42.3390   21.9900    5.2440 C   0  0  0  0  0
   43.1170   20.9930    4.7820 N   0  0  0  0  0
   42.8840   23.1730    5.5390 N   0  0  0  0  0
   39.8680   24.2350    1.2670 N   0  0  0  0  0
   41.0250   24.8540    0.6150 C   0  0  0  0  0
   42.2290   24.9760    1.5270 C   0  0  0  0  0
   42.1600   25.6200    2.5610 O   0  0  0  0  0
   40.6260   26.1330   -0.1070 C   0  0  0  0  0
   39.5170   26.0340   -1.1480 C   0  0  0  0  0
   38.8430   27.3650   -1.4590 C   0  0  0  0  0
   39.9420   25.3780   -2.4630 C   0  0  0  0  0
   43.3540   24.3270    1.1900 N   0  0  0  0  0
   44.6720   24.4850    1.8030 C   0  0  0  0  0
   45.2530   25.7680    1.3180 C   0  0  0  0  0
   45.5270   25.8930    0.1300 O   0  0  0  0  0
   45.6990   23.4470    1.3680 C   0  0  0  0  0
   46.9410   23.3680    1.9130 C   0  0  0  0  0
   47.1090   23.4670    3.1270 O   0  0  0  0  0
   47.9750   23.1230    1.0930 N   0  0  0  0  0
   45.4610   26.6840    2.2550 N   0  0  0  0  0
   46.1540   27.9190    1.9270 C   0  0  0  0  0
   47.5150   27.9050    2.5530 C   0  0  0  0  0
   48.4870   28.1060    1.8500 O   0  0  0  0  0
   45.3720   29.0870    2.4840 C   0  0  0  0  0
   44.0960   29.3760    1.8110 C   0  0  0  0  0
   42.9070   29.3080    2.5080 C   0  0  0  0  0
   44.0660   29.6420    0.4480 C   0  0  0  0  0
   41.7000   29.5170    1.8460 C   0  0  0  0  0
   42.8680   29.8820   -0.2120 C   0  0  0  0  0
   41.6780   29.8040    0.4900 C   0  0  0  0  0
   40.5090   29.9740   -0.1450 F   0  0  0  0  0
   47.5760   27.6520    3.8670 N   0  0  0  0  0
   34.9331   20.9015   -0.6125 H   0  0  0  0  0
   35.3318   21.7519   -1.9890 H   0  0  0  0  0
   35.2202   20.0900   -2.0394 H   0  0  0  0  0
   37.1959   19.8408   -0.6682 H   0  0  0  0  0
   36.9689   20.4697   -3.1261 H   0  0  0  0  0
   38.6107   20.2299   -2.0575 H   0  0  0  0  0
   38.2219   22.6270   -2.3825 H   0  0  0  0  0
   37.7942   21.8022   -4.0236 H   0  0  0  0  0
   40.0654   20.6572   -3.4872 H   0  0  0  0  0
   40.3434   22.2168   -2.6288 H   0  0  0  0  0
   41.0002   22.7257   -4.8275 H   0  0  0  0  0
   40.1750   24.1302   -6.4671 H   0  0  0  0  0
   37.4384   21.8947   -6.5749 H   0  0  0  0  0
   37.9400   20.9707   -5.1551 H   0  0  0  0  0
   38.1016   20.3600    1.1409 H   0  0  0  0  0
   37.8149   23.0541    2.2167 H   0  0  0  0  0
   40.0254   21.4800    3.1569 H   0  0  0  0  0
   38.2823   20.7661    3.3259 H   0  0  0  0  0
   38.4201   21.4932    5.0826 H   0  0  0  0  0
   38.2078   23.1409    4.1501 H   0  0  0  0  0
   39.6271   23.2138    6.1248 H   0  0  0  0  0
   40.4195   23.6340    4.5554 H   0  0  0  0  0
   40.7010   20.9295    5.7591 H   0  0  0  0  0
   44.1184   21.1429    4.6586 H   0  0  0  0  0
   42.7050   20.0878    4.5554 H   0  0  0  0  0
   42.2979   23.9322    5.8862 H   0  0  0  0  0
   39.1553   24.8226    1.6997 H   0  0  0  0  0
   41.3749   24.1761   -0.1636 H   0  0  0  0  0
   41.5140   26.4522   -0.6526 H   0  0  0  0  0
   40.2453   26.8006    0.6659 H   0  0  0  0  0
   38.7944   25.3803   -0.6595 H   0  0  0  0  0
   38.3977   27.7667   -0.5488 H   0  0  0  0  0
   39.5849   28.0657   -1.8420 H   0  0  0  0  0
   38.0660   27.2111   -2.2078 H   0  0  0  0  0
   40.7497   25.9564   -2.9117 H   0  0  0  0  0
   40.2862   24.3626   -2.2664 H   0  0  0  0  0
   39.0919   25.3492   -3.1446 H   0  0  0  0  0
   43.2823   23.6537    0.4272 H   0  0  0  0  0
   44.5024   24.4100    2.8771 H   0  0  0  0  0
   45.8980   23.7121    0.3296 H   0  0  0  0  0
   45.2382   22.5027    1.6579 H   0  0  0  0  0
   48.9147   23.0165    1.4750 H   0  0  0  0  0
   47.8210   23.0433    0.0878 H   0  0  0  0  0
   45.1340   26.5213    3.2074 H   0  0  0  0  0
   46.2454   28.0114    0.8448 H   0  0  0  0  0
   45.9981   29.9696    2.3529 H   0  0  0  0  0
   45.1275   28.8324    3.5152 H   0  0  0  0  0
   42.9127   29.0908    3.5761 H   0  0  0  0  0
   44.9999   29.6627   -0.1138 H   0  0  0  0  0
   40.7631   29.4543    2.3995 H   0  0  0  0  0
   42.8650   30.1296   -1.2735 H   0  0  0  0  0
   48.4798   27.6188    4.3386 H   0  0  0  0  0
   46.7186   27.4925    4.3960 H   0  0  0  0  0
  1  2  1  0  0  0
  2  3  1  0  0  0
  2  5  1  0  0  0
  3  4  2  0  0  0
  3 12  1  0  0  0
  5  6  1  0  0  0
  6  7  1  0  0  0
  7  8  1  0  0  0
  8  9  1  0  0  0
  9 10  2  0  0  0
  9 11  1  0  0  0
 12 13  1  0  0  0
 13 14  1  0  0  0
 13 16  1  0  0  0
 14 15  2  0  0  0
 14 23  1  0  0  0
 16 17  1  0  0  0
 17 18  1  0  0  0
 18 19  1  0  0  0
 19 20  1  0  0  0
 20 21  1  0  0  0
 20 22  2  0  0  0
 23 24  1  0  0  0
 24 25  1  0  0  0
 24 27  1  0  0  0
 25 26  2  0  0  0
 25 31  1  0  0  0
 27 28  1  0  0  0
 28 29  1  0  0  0
 28 30  1  0  0  0
 31 32  1  0  0  0
 32 33  1  0  0  0
 32 35  1  0  0  0
 33 34  2  0  0  0
 33 39  1  0  0  0
 35 36  1  0  0  0
 36 37  2  0  0  0
 36 38  1  0  0  0
 39 40  1  0  0  0
 40 41  1  0  0  0
 40 43  1  0  0  0
 41 42  2  0  0  0
 41 51  1  0  0  0
 43 44  1  0  0  0
 44 45  4  0  0  0
 44 46  4  0  0  0
 45 47  4  0  0  0
 46 48  4  0  0  0
 47 49  4  0  0  0
 48 49  4  0  0  0
 49 50  1  0  0  0
  1 52  1  0  0  0
  1 53  1  0  0  0
  1 54  1  0  0  0
  2 55  1  0  0  0
  5 56  1  0  0  0
  5 57  1  0  0  0
  6 58  1  0  0  0
  6 59  1  0  0  0
  7 60  1  0  0  0
  7 61  1  0  0  0
  8 62  1  0  0  0
 10 63  1  0  0  0
 11 64  1  0  0  0
 11 65  1  0  0  0
 12 66  1  0  0  0
 13 67  1  0  0  0
 16 68  1  0  0  0
 16 69  1  0  0  0
 17 70  1  0  0  0
 17 71  1  0  0  0
 18 72  1  0  0  0
 18 73  1  0  0  0
 19 74  1  0  0  0
 21 75  1  0  0  0
 21 76  1  0  0  0
 22 77  1  0  0  0
 23 78  1  0  0  0
 24 79  1  0  0  0
 27 80  1  0  0  0
 27 81  1  0  0  0
 28 82  1  0  0  0
 29 83  1  0  0  0
 29 84  1  0  0  0
 29 85  1  0  0  0
 30 86  1  0  0  0
 30 87  1  0  0  0
 30 88  1  0  0  0
 31 89  1  0  0  0
 32 90  1  0  0  0
 35 91  1  0  0  0
 35 92  1  0  0  0
 38 93  1  0  0  0
 38 94  1  0  0  0
 39 95  1  0  0  0
 40 96  1  0  0  0
 43 97  1  0  0  0
 43 98  1  0  0  0
 45 99  1  0  0  0
 46100  1  0  0  0
 47101  1  0  0  0
 48102  1  0  0  0
 51103  1  0  0  0
 51104  1  0  0  0
M  END
$$$$
