### 
### Created by X-TOOL on Mon Sep 10 21:12:50 2018
### 

@<TRIPOS>MOLECULE
1ol2_ligand
  106   106     1     0     0
SMALL
GAST_HUCK


@<TRIPOS>ATOM
      1 N          35.4900   20.8900   -1.4670 N.4       1 ARG         0.2379
      2 CA         36.8980   20.7850   -1.1240 C.3       1 ARG         0.0651
      3 C          37.1980   21.7720   -0.0240 C.2       1 ARG         0.2267
      4 O          36.6690   22.8740   -0.0620 O.2       1 ARG        -0.3907
      5 CB         37.7280   20.7680   -2.4030 C.3       1 ARG         0.0110
      6 CG         38.3030   21.7770   -3.0600 C.3       1 ARG        -0.0125
      7 CD         39.7790   21.7060   -3.4090 C.3       1 ARG         0.0629
      8 NE         40.0590   22.3590   -4.6860 N.pl3     1 ARG        -0.2723
      9 CZ         39.1810   22.5160   -5.6870 C.cat     1 ARG         0.2882
     10 NH1        39.3720   23.5090   -6.5660 N.pl3     1 ARG        -0.2849
     11 NH2        38.1000   21.7310   -5.8160 N.pl3     1 ARG        -0.2849
     12 N          37.9480   21.3600    1.0110 N.am      1 ARG        -0.2610
     13 CA         38.5500   22.2930    1.9550 C.3       1 ARG         0.1312
     14 C          39.7410   22.9040    1.2980 C.2       1 ARG         0.2039
     15 O          40.5610   22.1250    0.8330 O.2       1 ARG        -0.3944
     16 CB         38.9490   21.6250    3.2490 C.3       1 ARG        -0.0092
     17 CG         38.8000   22.2640    4.4120 C.3       1 ARG        -0.0156
     18 CD         39.9830   22.8420    5.1640 C.3       1 ARG         0.0627
     19 NE         41.0170   21.8370    5.4170 N.pl3     1 ARG        -0.2723
     20 CZ         42.3390   21.9900    5.2440 C.cat     1 ARG         0.2882
     21 NH1        43.1170   20.9930    4.7820 N.pl3     1 ARG        -0.2849
     22 NH2        42.8840   23.1730    5.5390 N.pl3     1 ARG        -0.2849
     23 N          39.8680   24.2350    1.2670 N.am      1 LEU        -0.2637
     24 CA         41.0250   24.8540    0.6150 C.3       1 LEU         0.1312
     25 C          42.2290   24.9760    1.5270 C.2       1 LEU         0.2040
     26 O          42.1600   25.6200    2.5610 O.2       1 LEU        -0.3944
     27 CB         40.6260   26.1330   -0.1070 C.3       1 LEU        -0.0101
     28 CG         39.5170   26.0340   -1.1480 C.3       1 LEU        -0.0425
     29 CD1        38.8430   27.3650   -1.4590 C.3       1 LEU        -0.0625
     30 CD2        39.9420   25.3780   -2.4630 C.3       1 LEU        -0.0625
     31 N          43.3540   24.3270    1.1900 N.am      1 ASN        -0.2616
     32 CA         44.6720   24.4850    1.8030 C.3       1 ASN         0.1476
     33 C          45.2530   25.7680    1.3180 C.2       1 ASN         0.2064
     34 O          45.5270   25.8930    0.1300 O.2       1 ASN        -0.3942
     35 CB         45.6990   23.4470    1.3680 C.3       1 ASN         0.0773
     36 CG         46.9410   23.3680    1.9130 C.2       1 ASN         0.1780
     37 OD1        47.1090   23.4670    3.1270 O.2       1 ASN        -0.3970
     38 ND2        47.9750   23.1230    1.0930 N.am      1 ASN        -0.3007
     39 N          45.4610   26.6840    2.2550 N.am      1 PFF        -0.2619
     40 CA         46.1540   27.9190    1.9270 C.3       1 PFF         0.1396
     41 C          47.5150   27.9050    2.5530 C.2       1 PFF         0.2012
     42 O          48.4870   28.1060    1.8500 O.2       1 PFF        -0.3946
     43 CB         45.3720   29.0870    2.4840 C.3       1 PFF         0.0196
     44 CG         44.0960   29.3760    1.8110 C.ar      1 PFF        -0.0424
     45 CD1        42.9070   29.3080    2.5080 C.ar      1 PFF        -0.0618
     46 CD2        44.0660   29.6420    0.4480 C.ar      1 PFF        -0.0618
     47 CE1        41.7000   29.5170    1.8460 C.ar      1 PFF        -0.0349
     48 CE2        42.8680   29.8820   -0.2120 C.ar      1 PFF        -0.0349
     49 CZ         41.6780   29.8040    0.4900 C.ar      1 PFF         0.1248
     50 F          40.5090   29.9740   -0.1450 F         1 PFF        -0.1893
     51 N          47.5760   27.6520    3.8670 N.am      1 NH2        -0.2988
     52 H1         35.2736   20.2353   -2.2022 H         1 ARG         0.2015
     53 H2         35.2897   21.8265   -1.7814 H         1 ARG         0.2015
     54 H3         34.9299   20.6810   -0.6554 H         1 ARG         0.2015
     55 H4         37.0536   19.7947   -0.6711 H         1 ARG         0.1098
     56 H5         37.0656   20.3035   -3.1483 H         1 ARG         0.0347
     57 H6         38.5600   20.0853   -2.1757 H         1 ARG         0.0347
     58 H7         38.1642   22.6781   -2.4446 H         1 ARG         0.0302
     59 H8         37.7568   21.8925   -4.0078 H         1 ARG         0.0302
     60 H9         40.0807   20.6502   -3.4737 H         1 ARG         0.0689
     61 H10        40.3579   22.2050   -2.6179 H         1 ARG         0.0689
     62 H11        41.0095   22.7293   -4.8289 H         1 ARG         0.2642
     63 H12        38.7080   23.6451   -7.3416 H         1 ARG         0.2615
     64 H13        40.1828   24.1363   -6.4662 H         1 ARG         0.2615
     65 H14        37.9385   20.9632   -5.1487 H         1 ARG         0.2615
     66 H15        37.4320   21.8963   -6.5823 H         1 ARG         0.2615
     67 H16        38.0985   20.3796    1.1383 H         1 ARG         0.1884
     68 H17        37.8200   23.0829    2.1857 H         1 ARG         0.0800
     69 H18        40.0168   21.3761    3.1599 H         1 ARG         0.0313
     70 H19        38.3611   20.6980    3.3204 H         1 ARG         0.0313
     71 H20        38.3176   21.5508    5.0966 H         1 ARG         0.0301
     72 H21        38.1175   23.1044    4.2173 H         1 ARG         0.0301
     73 H22        39.6313   23.2397    6.1274 H         1 ARG         0.0689
     74 H23        40.4187   23.6572    4.5678 H         1 ARG         0.0689
     75 H24        40.6979   20.9206    5.7624 H         1 ARG         0.2642
     76 H25        44.1287   21.1433    4.6606 H         1 ARG         0.2615
     77 H26        42.7005   20.0800    4.5500 H         1 ARG         0.2615
     78 H27        42.2927   23.9386    5.8927 H         1 ARG         0.2615
     79 H28        43.8956   23.3198    5.4128 H         1 ARG         0.2615
     80 H29        39.1693   24.8111    1.6912 H         1 LEU         0.1883
     81 H30        41.3348   24.1549   -0.1757 H         1 LEU         0.0800
     82 H31        41.5222   26.5183   -0.6153 H         1 LEU         0.0315
     83 H32        40.2986   26.8544    0.6562 H         1 LEU         0.0315
     84 H33        38.7485   25.3841   -0.7042 H         1 LEU         0.0298
     85 H34        38.0586   27.2110   -2.2147 H         1 LEU         0.0232
     86 H35        39.5907   28.0731   -1.8457 H         1 LEU         0.0232
     87 H36        38.3931   27.7715   -0.5412 H         1 LEU         0.0232
     88 H37        40.4303   24.4153   -2.2514 H         1 LEU         0.0232
     89 H38        40.6459   26.0379   -2.9913 H         1 LEU         0.0232
     90 H39        39.0554   25.2090   -3.0918 H         1 LEU         0.0232
     91 H40        43.2837   23.6669    0.4421 H         1 ASN         0.1885
     92 H41        44.5665   24.4781    2.8979 H         1 ASN         0.0826
     93 H42        45.8495   23.6014    0.2894 H         1 ASN         0.0551
     94 H43        45.2302   22.4662    1.5361 H         1 ASN         0.0551
     95 H44        48.9020   23.0588    1.4626 H         1 ASN         0.1814
     96 H45        47.8184   23.0047    0.1125 H         1 ASN         0.1814
     97 H46        45.1404   26.5245    3.1887 H         1 PFF         0.1885
     98 H47        46.2459   28.0164    0.8352 H         1 PFF         0.0822
     99 H48        46.0044   29.9839    2.4100 H         1 PFF         0.0466
    100 H49        45.1566   28.8765    3.5419 H         1 PFF         0.0466
    101 H50        42.9126   29.0920    3.5703 H         1 PFF         0.0547
    102 H51        44.9947   29.6626   -0.1107 H         1 PFF         0.0547
    103 H52        40.7683   29.4547    2.3965 H         1 PFF         0.0587
    104 H53        42.8650   30.1282   -1.2677 H         1 PFF         0.0587
    105 H54        48.4612   27.6316    4.3317 H         1 NH2         0.1815
    106 H55        46.7363   27.4835    4.3833 H         1 NH2         0.1815
@<TRIPOS>BOND
     1    1    2 1  
     2    2    3 1  
     3    2    5 1  
     4    3    4 2  
     5    3   12 am 
     6    5    6 1  
     7    6    7 1  
     8    7    8 1  
     9    8    9 ar 
    10    9   10 ar 
    11    9   11 ar 
    12   12   13 1  
    13   13   14 1  
    14   13   16 1  
    15   14   15 2  
    16   14   23 am 
    17   16   17 1  
    18   17   18 1  
    19   18   19 1  
    20   19   20 ar 
    21   20   21 ar 
    22   20   22 ar 
    23   23   24 1  
    24   24   25 1  
    25   24   27 1  
    26   25   26 2  
    27   25   31 am 
    28   27   28 1  
    29   28   29 1  
    30   28   30 1  
    31   31   32 1  
    32   32   33 1  
    33   32   35 1  
    34   33   34 2  
    35   33   39 am 
    36   35   36 1  
    37   36   37 2  
    38   36   38 am 
    39   39   40 1  
    40   40   41 1  
    41   40   43 1  
    42   41   42 2  
    43   41   51 am 
    44   43   44 1  
    45   44   45 ar 
    46   44   46 ar 
    47   45   47 ar 
    48   46   48 ar 
    49   47   49 ar 
    50   48   49 ar 
    51   49   50 1  
    52    1   52 1  
    53    1   53 1  
    54    1   54 1  
    55    2   55 1  
    56    5   56 1  
    57    5   57 1  
    58    6   58 1  
    59    6   59 1  
    60    7   60 1  
    61    7   61 1  
    62    8   62 1  
    63   10   63 1  
    64   10   64 1  
    65   11   65 1  
    66   11   66 1  
    67   12   67 1  
    68   13   68 1  
    69   16   69 1  
    70   16   70 1  
    71   17   71 1  
    72   17   72 1  
    73   18   73 1  
    74   18   74 1  
    75   19   75 1  
    76   21   76 1  
    77   21   77 1  
    78   22   78 1  
    79   22   79 1  
    80   23   80 1  
    81   24   81 1  
    82   27   82 1  
    83   27   83 1  
    84   28   84 1  
    85   29   85 1  
    86   29   86 1  
    87   29   87 1  
    88   30   88 1  
    89   30   89 1  
    90   30   90 1  
    91   31   91 1  
    92   32   92 1  
    93   35   93 1  
    94   35   94 1  
    95   38   95 1  
    96   38   96 1  
    97   39   97 1  
    98   40   98 1  
    99   43   99 1  
   100   43  100 1  
   101   45  101 1  
   102   46  102 1  
   103   47  103 1  
   104   48  104 1  
   105   51  105 1  
   106   51  106 1  
@<TRIPOS>SUBSTRUCTURE
     1 ARG         1

