5wex_ligand
  -I-interpret- 

 33 34  0  0  0  0  0  0  0  0999 V2000
    1.6950    9.4390   82.6240 C   0  0  0  0  0
    0.9620    8.5830   84.6970 C   0  0  0  0  0
   -2.3480    5.0820   84.9110 C   0  0  0  0  0
   -0.1750    4.0400   84.9620 C   0  0  0  0  0
    2.6530   10.1640   83.2590 C   0  0  0  0  0
    1.9280    9.3340   85.3440 C   0  0  0  0  0
   -2.8580    4.0220   85.6400 C   0  0  0  0  0
   -0.6940    2.9800   85.6760 C   0  0  0  0  0
    0.8290    8.6310   83.3180 C   0  0  0  0  0
   -1.0070    5.0770   84.5790 C   0  0  0  0  0
    2.7900   10.1260   84.6340 C   0  0  0  0  0
   -2.0230    2.9550   86.0230 C   0  0  0  0  0
   -0.9720    6.8990   82.9800 C   0  0  0  0  0
   -2.1590    0.2650   86.3070 N   0  0  0  0  0
   -0.1370    7.9260   82.5610 N   0  0  0  0  0
   -0.3700    6.1000   83.8780 N   0  0  0  0  0
   -2.1250    1.7760   88.2660 O   0  0  0  0  0
   -4.1370    1.7300   86.8560 O   0  0  0  0  0
    3.7700   10.8730   85.2600 F   0  0  0  0  0
   -2.6460    6.8290   82.2870 S   0  0  0  0  0
   -2.6930    1.6170   86.9690 S   0  0  0  0  0
    1.6123    9.5004   81.5389 H   0  0  0  0  0
    0.2970    7.9454   85.2795 H   0  0  0  0  0
   -2.9926    5.9058   84.6044 H   0  0  0  0  0
    0.8832    4.0605   84.7014 H   0  0  0  0  0
    3.3270   10.7881   82.6723 H   0  0  0  0  0
    2.0033    9.2944   86.4307 H   0  0  0  0  0
   -3.9116    4.0131   85.9191 H   0  0  0  0  0
   -0.0440    2.1550   85.9674 H   0  0  0  0  0
   -1.5080   -0.3309   86.8185 H   0  0  0  0  0
   -2.4689   -0.0025   85.3728 H   0  0  0  0  0
   -0.2316    8.2078   81.5853 H   0  0  0  0  0
   -2.8100    7.8295   81.4262 H   0  0  0  0  0
  1  5  4  0  0  0
  9  1  4  0  0  0
  2  6  4  0  0  0
  9  2  4  0  0  0
  3  7  4  0  0  0
 10  3  4  0  0  0
  4  8  4  0  0  0
 10  4  4  0  0  0
  5 11  4  0  0  0
  6 11  4  0  0  0
  7 12  4  0  0  0
  8 12  4  0  0  0
 15  9  1  0  0  0
 16 10  1  0  0  0
 11 19  1  0  0  0
 12 21  1  0  0  0
 13 15  1  0  0  0
 13 16  2  0  0  0
 13 20  1  0  0  0
 21 14  1  0  0  0
 21 17  2  0  0  0
 21 18  2  0  0  0
  1 22  1  0  0  0
  2 23  1  0  0  0
  3 24  1  0  0  0
  4 25  1  0  0  0
  5 26  1  0  0  0
  6 27  1  0  0  0
  7 28  1  0  0  0
  8 29  1  0  0  0
 14 30  1  0  0  0
 14 31  1  0  0  0
 15 32  1  0  0  0
 20 33  1  0  0  0
M  END
$$$$
