2kfh_ligand
  -I-interpret- 

187190  0  0  0  0  0  0  0  0999 V2000
   22.1820   12.4340    5.7720 N   0  3  0  0  0
   20.8050   12.5850    6.2860 C   0  0  0  0  0
   19.7940   12.0530    5.2750 C   0  0  0  0  0
   19.7590   12.4960    4.1260 O   0  0  0  0  0
   20.5280   14.0610    6.5850 C   0  0  0  0  0
   19.2090   14.3160    7.2620 C   0  0  0  0  0
   19.0530   14.0700    8.6190 C   0  0  0  0  0
   18.1310   14.8080    6.5460 C   0  0  0  0  0
   17.8450   14.3080    9.2460 C   0  0  0  0  0
   16.9200   15.0490    7.1690 C   0  0  0  0  0
   16.7760   14.7980    8.5200 C   0  0  0  0  0
   18.9860   11.0940    5.7040 N   0  0  0  0  0
   17.9700   10.5050    4.8400 C   0  0  0  0  0
   16.8190   11.4790    4.5970 C   0  0  0  0  0
   16.2940   12.0910    5.5310 O   0  0  0  0  0
   17.4370    9.1990    5.4420 C   0  0  0  0  0
   16.4270    8.5250    4.5330 C   0  0  0  0  0
   15.2240    8.7580    4.6370 O   0  0  0  0  0
   16.9130    7.6850    3.6360 N   0  0  0  0  0
   16.4350   11.6160    3.3340 N   0  0  0  0  0
   15.3830   12.5410    2.9430 C   0  0  0  0  0
   14.6820   12.0260    1.6860 C   0  0  0  0  0
   15.3360   11.5090    0.7790 O   0  0  0  0  0
   15.9920   13.9290    2.6980 C   0  0  0  0  0
   14.9840   15.0290    2.4240 C   0  0  0  0  0
   14.2260   15.5790    3.4530 C   0  0  0  0  0
   14.8040   15.5270    1.1380 C   0  0  0  0  0
   13.3160   16.5900    3.2060 C   0  0  0  0  0
   13.8970   16.5430    0.8870 C   0  0  0  0  0
   13.1570   17.0680    1.9240 C   0  0  0  0  0
   12.2600   18.0850    1.6810 O   0  0  0  0  0
   13.3620   12.1500    1.6400 N   0  0  0  0  0
   12.5910   11.6720    0.4970 C   0  0  0  0  0
   11.8410   12.8190   -0.1770 C   0  0  0  0  0
   11.9500   13.9730    0.2410 O   0  0  0  0  0
   11.6350   10.5430    0.9280 C   0  0  0  0  0
   10.6900   10.8970    2.0700 C   0  0  0  0  0
    9.5000   11.7250    1.6270 C   0  0  0  0  0
    8.8670   11.3570    0.6140 O   0  0  0  0  0
    9.1800   12.7280    2.3010 O   0  0  0  0  0
   11.1040   12.5040   -1.2320 N   0  0  0  0  0
   10.3780   13.5160   -1.9860 C   0  0  0  0  0
    8.8820   13.2190   -2.0030 C   0  0  0  0  0
    8.0620   14.0350   -1.5770 O   0  0  0  0  0
   10.9230   13.5810   -3.4150 C   0  0  0  0  0
   10.9320   12.2950   -4.0190 O   0  0  0  0  0
    8.5440   12.0470   -2.5120 N   0  0  0  0  0
    7.1630   11.6030   -2.6110 C   0  0  0  0  0
    7.0800   10.1300   -2.2490 C   0  0  0  0  0
    6.2310    9.3900   -2.7520 O   0  0  0  0  0
    6.6250   11.8160   -4.0400 C   0  0  0  0  0
    7.6690   11.5750   -4.9930 O   0  0  0  0  0
    6.0780   13.2250   -4.2200 C   0  0  0  0  0
    7.9560    9.7200   -1.3500 N   0  0  0  0  0
    8.1140    8.3230   -1.0510 C   0  0  0  0  0
    9.5760    7.9450   -1.0070 C   0  0  0  0  0
   10.4140    8.6390   -1.5830 O   0  0  0  0  0
    9.9110    6.8430   -0.3350 N   0  0  0  0  0
   11.2980    6.3980   -0.1600 C   0  0  0  0  0
   11.8900    5.8210   -1.4480 C   0  0  0  0  0
   13.0410    5.3800   -1.4740 O   0  0  0  0  0
   11.1760    5.3280    0.9290 C   0  0  0  0  0
    9.8090    4.7720    0.7440 C   0  0  0  0  0
    8.9550    5.9340    0.3230 C   0  0  0  0  0
   11.0800    5.7910   -2.5000 N   0  0  0  0  0
   11.5050    5.2390   -3.7850 C   0  0  0  0  0
   11.7470    6.3290   -4.8300 C   0  0  0  0  0
   12.6920    6.2420   -5.6110 O   0  0  0  0  0
   10.4580    4.2570   -4.3130 C   0  0  0  0  0
   10.1520    3.1530   -3.3500 C   0  0  0  0  0
   11.1400    2.2730   -2.9430 C   0  0  0  0  0
    8.8670    2.9900   -2.8600 C   0  0  0  0  0
   10.8520    1.2510   -2.0640 C   0  0  0  0  0
    8.5730    1.9680   -1.9820 C   0  0  0  0  0
    9.6020    1.1190   -1.5490 C   0  0  0  0  0
   10.9030    7.3520   -4.8260 N   0  0  0  0  0
   10.8950    8.3590   -5.8830 C   0  0  0  0  0
   11.8740    9.4980   -5.6080 C   0  0  0  0  0
   11.7250   10.6040   -6.1340 O   0  0  0  0  0
    9.4750    8.9240   -6.0610 C   0  0  0  0  0
    8.8640    9.1280   -4.7800 O   0  0  0  0  0
    8.6230    7.9820   -6.8940 C   0  0  0  0  0
   12.8900    9.2210   -4.8070 N   0  0  0  0  0
   13.9070   10.2120   -4.5060 C   0  0  0  0  0
   14.8080   10.4370   -5.7170 C   0  0  0  0  0
   15.1150    9.4970   -6.4530 O   0  0  0  0  0
   14.7250    9.7790   -3.3030 C   0  0  0  0  0
   15.2170   11.6820   -5.9250 N   0  0  0  0  0
   16.0730   12.0260   -7.0510 C   0  0  0  0  0
   17.5370   11.8790   -6.6620 C   0  0  0  0  0
   18.1230   10.8100   -6.9390 O   0  0  0  0  0
   15.7980   13.4580   -7.5220 C   0  0  0  0  0
   14.3460   13.7200   -7.8910 C   0  0  0  0  0
   13.8920   12.8840   -9.0760 C   0  0  0  0  0
   12.4670   13.2320   -9.4800 C   0  0  0  0  0
   12.3420   14.6500   -9.9150 N   0  3  0  0  0
   18.0910   12.8240   -6.0620 O   0  0  0  0  0
   22.3636   11.4501    5.5738 H   0  0  0  0  0
   22.2859   12.9793    4.9163 H   0  0  0  0  0
   22.8437   12.7687    6.4724 H   0  0  0  0  0
   20.7055   12.0069    7.2047 H   0  0  0  0  0
   20.5052   14.5841    5.6290 H   0  0  0  0  0
   21.3093   14.4039    7.2633 H   0  0  0  0  0
   19.8931   13.6846    9.1967 H   0  0  0  0  0
   18.2379   15.0076    5.4798 H   0  0  0  0  0
   17.7353   14.1095   10.3121 H   0  0  0  0  0
   16.0791   15.4370    6.5941 H   0  0  0  0  0
   15.8217   14.9860    9.0120 H   0  0  0  0  0
   19.0773   10.7594    6.6632 H   0  0  0  0  0
   18.4393   10.2843    3.8813 H   0  0  0  0  0
   16.9431    9.4348    6.3847 H   0  0  0  0  0
   18.2779    8.5194    5.5804 H   0  0  0  0  0
   16.2829    7.2013    2.9962 H   0  0  0  0  0
   17.9182    7.5203    3.5835 H   0  0  0  0  0
   16.8920   11.0550    2.6151 H   0  0  0  0  0
   14.6436   12.6180    3.7401 H   0  0  0  0  0
   16.6185   13.8465    1.8099 H   0  0  0  0  0
   16.5221   14.2064    3.6091 H   0  0  0  0  0
   14.3516   15.2069    4.4698 H   0  0  0  0  0
   15.3856   15.1113    0.3152 H   0  0  0  0  0
   12.7267   17.0072    4.0225 H   0  0  0  0  0
   13.7692   16.9254   -0.1257 H   0  0  0  0  0
   12.2684   18.3008    0.7456 H   0  0  0  0  0
   12.8750   12.5894    2.4212 H   0  0  0  0  0
   13.2820   11.2621   -0.2396 H   0  0  0  0  0
   12.2585    9.7211    1.2799 H   0  0  0  0  0
   11.0112   10.3131    0.0642 H   0  0  0  0  0
   11.2526   11.4882    2.7926 H   0  0  0  0  0
   10.3072    9.9636    2.4828 H   0  0  0  0  0
    9.7948   12.8310    3.0311 H   0  0  0  0  0
   11.0437   11.5283   -1.5232 H   0  0  0  0  0
   10.5216   14.4810   -1.5000 H   0  0  0  0  0
   11.9454   13.9572   -3.3812 H   0  0  0  0  0
   10.2817   14.2376   -4.0030 H   0  0  0  0  0
   11.2774   12.3645   -4.9120 H   0  0  0  0  0
    9.2820   11.4288   -2.8491 H   0  0  0  0  0
    6.5554   12.1883   -1.9208 H   0  0  0  0  0
    5.8092   11.1119   -4.2037 H   0  0  0  0  0
    7.3280   11.7092   -5.8803 H   0  0  0  0  0
    5.2642   13.3904   -3.5139 H   0  0  0  0  0
    6.8727   13.9481   -4.0364 H   0  0  0  0  0
    5.7068   13.3419   -5.2381 H   0  0  0  0  0
    8.5300   10.4060   -0.8597 H   0  0  0  0  0
    7.6237    7.7394   -1.8302 H   0  0  0  0  0
    7.6693    8.1199   -0.0768 H   0  0  0  0  0
   11.9717    7.2133    0.1037 H   0  0  0  0  0
   11.3204    5.7398    1.9278 H   0  0  0  0  0
   11.9466    4.5621    0.8408 H   0  0  0  0  0
    9.4368    4.3151    1.6609 H   0  0  0  0  0
    9.7990    3.9783   -0.0031 H   0  0  0  0  0
    8.1399    5.6362   -0.3366 H   0  0  0  0  0
    8.4436    6.4028    1.1637 H   0  0  0  0  0
   10.1349    6.1636   -2.4087 H   0  0  0  0  0
   12.4485    4.7212   -3.6124 H   0  0  0  0  0
   10.8561    3.8042   -5.2210 H   0  0  0  0  0
    9.5366    4.8140   -4.4826 H   0  0  0  0  0
   12.1556    2.3894   -3.3213 H   0  0  0  0  0
    8.0798    3.6766   -3.1715 H   0  0  0  0  0
   11.6321    0.5445   -1.7805 H   0  0  0  0  0
    7.5524    1.8217   -1.6285 H   0  0  0  0  0
    9.3988    0.3538   -0.7998 H   0  0  0  0  0
   10.2369    7.4382   -4.0584 H   0  0  0  0  0
   11.2165    7.8662   -6.8006 H   0  0  0  0  0
    9.5475    9.8789   -6.5815 H   0  0  0  0  0
    7.9793    9.4803   -4.9012 H   0  0  0  0  0
    9.0781    7.8552   -7.8763 H   0  0  0  0  0
    8.5582    7.0153   -6.3947 H   0  0  0  0  0
    7.6235    8.4019   -7.0067 H   0  0  0  0  0
   12.9601    8.2917   -4.3924 H   0  0  0  0  0
   13.4146   11.1545   -4.2667 H   0  0  0  0  0
   14.0687    9.6683   -2.4398 H   0  0  0  0  0
   15.2085    8.8261   -3.5180 H   0  0  0  0  0
   15.4831   10.5328   -3.0904 H   0  0  0  0  0
   14.9244   12.4161   -5.2801 H   0  0  0  0  0
   15.8521   11.3426   -7.8709 H   0  0  0  0  0
   17.5170   10.2238   -7.3981 H   0  0  0  0  0
   16.3944   13.6233   -8.4192 H   0  0  0  0  0
   16.0466   14.1235   -6.6953 H   0  0  0  0  0
   14.2506   14.7713   -8.1626 H   0  0  0  0  0
   13.7264   13.4561   -7.0339 H   0  0  0  0  0
   13.9268   11.8318   -8.7936 H   0  0  0  0  0
   14.5524   13.0872   -9.9190 H   0  0  0  0  0
   11.8210   13.0824   -8.6149 H   0  0  0  0  0
   12.1837   12.5925  -10.3160 H   0  0  0  0  0
   11.3745   14.8403  -10.1760 H   0  0  0  0  0
   12.6159   15.2649   -9.1486 H   0  0  0  0  0
   12.9503   14.8131  -10.7174 H   0  0  0  0  0
  1  2  1  0  0  0
  2  3  1  0  0  0
  2  5  1  0  0  0
  3  4  2  0  0  0
  3 12  1  0  0  0
  5  6  1  0  0  0
  6  7  4  0  0  0
  6  8  4  0  0  0
  7  9  4  0  0  0
  8 10  4  0  0  0
  9 11  4  0  0  0
 10 11  4  0  0  0
 12 13  1  0  0  0
 13 14  1  0  0  0
 13 16  1  0  0  0
 14 15  2  0  0  0
 14 20  1  0  0  0
 16 17  1  0  0  0
 17 18  2  0  0  0
 17 19  1  0  0  0
 20 21  1  0  0  0
 21 22  1  0  0  0
 21 24  1  0  0  0
 22 23  2  0  0  0
 22 32  1  0  0  0
 24 25  1  0  0  0
 25 26  4  0  0  0
 25 27  4  0  0  0
 26 28  4  0  0  0
 27 29  4  0  0  0
 28 30  4  0  0  0
 29 30  4  0  0  0
 30 31  1  0  0  0
 32 33  1  0  0  0
 33 34  1  0  0  0
 33 36  1  0  0  0
 34 35  2  0  0  0
 34 41  1  0  0  0
 36 37  1  0  0  0
 37 38  1  0  0  0
 38 39  2  0  0  0
 38 40  1  0  0  0
 41 42  1  0  0  0
 42 43  1  0  0  0
 42 45  1  0  0  0
 43 44  2  0  0  0
 43 47  1  0  0  0
 45 46  1  0  0  0
 47 48  1  0  0  0
 48 49  1  0  0  0
 48 51  1  0  0  0
 49 50  2  0  0  0
 49 54  1  0  0  0
 51 52  1  0  0  0
 51 53  1  0  0  0
 54 55  1  0  0  0
 55 56  1  0  0  0
 56 57  2  0  0  0
 56 58  1  0  0  0
 58 59  1  0  0  0
 58 64  1  0  0  0
 59 60  1  0  0  0
 59 62  1  0  0  0
 60 61  2  0  0  0
 60 65  1  0  0  0
 62 63  1  0  0  0
 63 64  1  0  0  0
 65 66  1  0  0  0
 66 67  1  0  0  0
 66 69  1  0  0  0
 67 68  2  0  0  0
 67 76  1  0  0  0
 69 70  1  0  0  0
 70 71  4  0  0  0
 70 72  4  0  0  0
 71 73  4  0  0  0
 72 74  4  0  0  0
 73 75  4  0  0  0
 74 75  4  0  0  0
 76 77  1  0  0  0
 77 78  1  0  0  0
 77 80  1  0  0  0
 78 79  2  0  0  0
 78 83  1  0  0  0
 80 81  1  0  0  0
 80 82  1  0  0  0
 83 84  1  0  0  0
 84 85  1  0  0  0
 84 87  1  0  0  0
 85 86  2  0  0  0
 85 88  1  0  0  0
 88 89  1  0  0  0
 89 90  1  0  0  0
 89 92  1  0  0  0
 90 91  1  0  0  0
 90 97  2  0  0  0
 92 93  1  0  0  0
 93 94  1  0  0  0
 94 95  1  0  0  0
 95 96  1  0  0  0
  1 98  1  0  0  0
  1 99  1  0  0  0
  1100  1  0  0  0
  2101  1  0  0  0
  5102  1  0  0  0
  5103  1  0  0  0
  7104  1  0  0  0
  8105  1  0  0  0
  9106  1  0  0  0
 10107  1  0  0  0
 11108  1  0  0  0
 12109  1  0  0  0
 13110  1  0  0  0
 16111  1  0  0  0
 16112  1  0  0  0
 19113  1  0  0  0
 19114  1  0  0  0
 20115  1  0  0  0
 21116  1  0  0  0
 24117  1  0  0  0
 24118  1  0  0  0
 26119  1  0  0  0
 27120  1  0  0  0
 28121  1  0  0  0
 29122  1  0  0  0
 31123  1  0  0  0
 32124  1  0  0  0
 33125  1  0  0  0
 36126  1  0  0  0
 36127  1  0  0  0
 37128  1  0  0  0
 37129  1  0  0  0
 40130  1  0  0  0
 41131  1  0  0  0
 42132  1  0  0  0
 45133  1  0  0  0
 45134  1  0  0  0
 46135  1  0  0  0
 47136  1  0  0  0
 48137  1  0  0  0
 51138  1  0  0  0
 52139  1  0  0  0
 53140  1  0  0  0
 53141  1  0  0  0
 53142  1  0  0  0
 54143  1  0  0  0
 55144  1  0  0  0
 55145  1  0  0  0
 59146  1  0  0  0
 62147  1  0  0  0
 62148  1  0  0  0
 63149  1  0  0  0
 63150  1  0  0  0
 64151  1  0  0  0
 64152  1  0  0  0
 65153  1  0  0  0
 66154  1  0  0  0
 69155  1  0  0  0
 69156  1  0  0  0
 71157  1  0  0  0
 72158  1  0  0  0
 73159  1  0  0  0
 74160  1  0  0  0
 75161  1  0  0  0
 76162  1  0  0  0
 77163  1  0  0  0
 80164  1  0  0  0
 81165  1  0  0  0
 82166  1  0  0  0
 82167  1  0  0  0
 82168  1  0  0  0
 83169  1  0  0  0
 84170  1  0  0  0
 87171  1  0  0  0
 87172  1  0  0  0
 87173  1  0  0  0
 88174  1  0  0  0
 89175  1  0  0  0
 91176  1  0  0  0
 92177  1  0  0  0
 92178  1  0  0  0
 93179  1  0  0  0
 93180  1  0  0  0
 94181  1  0  0  0
 94182  1  0  0  0
 95183  1  0  0  0
 95184  1  0  0  0
 96185  1  0  0  0
 96186  1  0  0  0
 96187  1  0  0  0
M  END
$$$$
