### 
### Created by X-TOOL on Mon Sep 10 21:13:02 2018
### 

@<TRIPOS>MOLECULE
2kfh_ligand
  185   188     1     0     0
SMALL
GAST_HUCK


@<TRIPOS>ATOM
      1 N          22.1820   12.4340    5.7720 N.4       1 PHE         0.2394
      2 CA         20.8050   12.5850    6.2860 C.3       1 PHE         0.0744
      3 C          19.7940   12.0530    5.2750 C.2       1 PHE         0.2289
      4 O          19.7590   12.4960    4.1260 O.2       1 PHE        -0.3905
      5 CB         20.5280   14.0610    6.5850 C.3       1 PHE         0.0416
      6 CG         19.2090   14.3160    7.2620 C.ar      1 PHE        -0.0353
      7 CD1        19.0530   14.0700    8.6190 C.ar      1 PHE        -0.0600
      8 CD2        18.1310   14.8080    6.5460 C.ar      1 PHE        -0.0600
      9 CE1        17.8450   14.3080    9.2460 C.ar      1 PHE        -0.0686
     10 CE2        16.9200   15.0490    7.1690 C.ar      1 PHE        -0.0686
     11 CZ         16.7760   14.7980    8.5200 C.ar      1 PHE        -0.0687
     12 N          18.9860   11.0940    5.7040 N.am      1 ASN        -0.2587
     13 CA         17.9700   10.5050    4.8400 C.3       1 ASN         0.1477
     14 C          16.8190   11.4790    4.5970 C.2       1 ASN         0.2064
     15 O          16.2940   12.0910    5.5310 O.2       1 ASN        -0.3942
     16 CB         17.4370    9.1990    5.4420 C.3       1 ASN         0.0773
     17 CG         16.4270    8.5250    4.5330 C.2       1 ASN         0.1780
     18 OD1        15.2240    8.7580    4.6370 O.2       1 ASN        -0.3970
     19 ND2        16.9130    7.6850    3.6360 N.am      1 ASN        -0.3007
     20 N          16.4350   11.6160    3.3340 N.am      1 TYR        -0.2620
     21 CA         15.3830   12.5410    2.9430 C.3       1 TYR         0.1390
     22 C          14.6820   12.0260    1.6860 C.2       1 TYR         0.2057
     23 O          15.3360   11.5090    0.7790 O.2       1 TYR        -0.3942
     24 CB         15.9920   13.9290    2.6980 C.3       1 TYR         0.0163
     25 CG         14.9840   15.0290    2.4240 C.ar      1 TYR        -0.0493
     26 CD1        14.2260   15.5790    3.4530 C.ar      1 TYR        -0.0685
     27 CD2        14.8040   15.5270    1.1380 C.ar      1 TYR        -0.0685
     28 CE1        13.3160   16.5900    3.2060 C.ar      1 TYR        -0.0398
     29 CE2        13.8970   16.5430    0.8870 C.ar      1 TYR        -0.0398
     30 CZ         13.1570   17.0680    1.9240 C.ar      1 TYR         0.0805
     31 OH         12.2600   18.0850    1.6810 O.3       1 TYR        -0.3376
     32 N          13.3620   12.1500    1.6400 N.am      1 GLU        -0.2635
     33 CA         12.5910   11.6720    0.4970 C.3       1 GLU         0.1325
     34 C          11.8410   12.8190   -0.1770 C.2       1 GLU         0.2041
     35 O          11.9500   13.9730    0.2410 O.2       1 GLU        -0.3944
     36 CB         11.6350   10.5430    0.9280 C.3       1 GLU        -0.0008
     37 CG         10.6900   10.8970    2.0700 C.3       1 GLU         0.0044
     38 CD          9.5000   11.7250    1.6270 C.2       1 GLU         0.0350
     39 OE1         8.8670   11.3570    0.6140 O.co2     1 GLU        -0.5690
     40 OE2         9.1800   12.7280    2.3010 O.co2     1 GLU        -0.5690
     41 N          11.1040   12.5040   -1.2320 N.am      1 SER        -0.2616
     42 CA         10.3780   13.5160   -1.9860 C.3       1 SER         0.1539
     43 C           8.8820   13.2190   -2.0030 C.2       1 SER         0.2063
     44 O           8.0620   14.0350   -1.5770 O.2       1 SER        -0.3943
     45 CB         10.9230   13.5810   -3.4150 C.3       1 SER         0.0843
     46 OG         10.9320   12.2950   -4.0190 O.3       1 SER        -0.3903
     47 N           8.5440   12.0470   -2.5120 N.am      1 THR        -0.2613
     48 CA          7.1630   11.6030   -2.6110 C.3       1 THR         0.1565
     49 C           7.0800   10.1300   -2.2490 C.2       1 THR         0.2063
     50 O           6.2310    9.3900   -2.7520 O.2       1 THR        -0.3943
     51 CB          6.6250   11.8160   -4.0400 C.3       1 THR         0.0924
     52 OG1         7.6690   11.5750   -4.9930 O.3       1 THR        -0.3874
     53 CG2         6.0780   13.2250   -4.2200 C.3       1 THR        -0.0346
     54 N           7.9560    9.7200   -1.3500 N.am      1 GLY        -0.2663
     55 CA          8.1140    8.3230   -1.0510 C.3       1 GLY         0.1203
     56 C           9.5760    7.9450   -1.0070 C.2       1 GLY         0.2032
     57 O          10.4140    8.6390   -1.5830 O.2       1 GLY        -0.3945
     58 N           9.9110    6.8430   -0.3350 N.am      1 PRO        -0.2501
     59 CA         11.2980    6.3980   -0.1600 C.3       1 PRO         0.1338
     60 C          11.8900    5.8210   -1.4480 C.2       1 PRO         0.2042
     61 O          13.0410    5.3800   -1.4740 O.2       1 PRO        -0.3944
     62 CB         11.1760    5.3280    0.9290 C.3       1 PRO        -0.0104
     63 CG          9.8090    4.7720    0.7440 C.3       1 PRO        -0.0281
     64 CD          8.9550    5.9340    0.3230 C.3       1 PRO         0.0369
     65 N          11.0800    5.7910   -2.5000 N.am      1 PHE        -0.2619
     66 CA         11.5050    5.2390   -3.7850 C.3       1 PHE         0.1404
     67 C          11.7470    6.3290   -4.8300 C.2       1 PHE         0.2060
     68 O          12.6920    6.2420   -5.6110 O.2       1 PHE        -0.3942
     69 CB         10.4580    4.2570   -4.3130 C.3       1 PHE         0.0214
     70 CG         10.1520    3.1530   -3.3500 C.ar      1 PHE        -0.0386
     71 CD1        11.1400    2.2730   -2.9430 C.ar      1 PHE        -0.0601
     72 CD2         8.8670    2.9900   -2.8600 C.ar      1 PHE        -0.0601
     73 CE1        10.8520    1.2510   -2.0640 C.ar      1 PHE        -0.0686
     74 CE2         8.5730    1.9680   -1.9820 C.ar      1 PHE        -0.0686
     75 CZ          9.6020    1.1190   -1.5490 C.ar      1 PHE        -0.0687
     76 N          10.9030    7.3520   -4.8260 N.am      1 THR        -0.2612
     77 CA         10.8950    8.3590   -5.8830 C.3       1 THR         0.1565
     78 C          11.8740    9.4980   -5.6080 C.2       1 THR         0.2065
     79 O          11.7250   10.6040   -6.1340 O.2       1 THR        -0.3943
     80 CB          9.4750    8.9240   -6.0610 C.3       1 THR         0.0924
     81 OG1         8.8640    9.1280   -4.7800 O.3       1 THR        -0.3874
     82 CG2         8.6230    7.9820   -6.8940 C.3       1 THR        -0.0346
     83 N          12.8900    9.2210   -4.8070 N.am      1 ALA        -0.2639
     84 CA         13.9070   10.2120   -4.5060 C.3       1 ALA         0.1282
     85 C          14.8080   10.4370   -5.7170 C.2       1 ALA         0.2031
     86 O          15.1150    9.4970   -6.4530 O.2       1 ALA        -0.3944
     87 CB         14.7250    9.7790   -3.3030 C.3       1 ALA        -0.0244
     88 N          15.2170   11.6820   -5.9250 N.am      1 LYS        -0.2695
     89 CA         16.0730   12.0260   -7.0510 C.3       1 LYS         0.0944
     90 C          17.5370   11.8790   -6.6620 C.2       1 LYS         0.0601
     91 O          18.1230   10.8100   -6.9390 O.co2     1 LYS        -0.5666
     92 CB         15.7980   13.4580   -7.5220 C.3       1 LYS        -0.0177
     93 CG         14.3460   13.7200   -7.8910 C.3       1 LYS        -0.0446
     94 CD         13.8920   12.8840   -9.0760 C.3       1 LYS        -0.0125
     95 CE         12.4670   13.2320   -9.4800 C.3       1 LYS        -0.0354
     96 NZ         12.3420   14.6500   -9.9150 N.4       1 LYS         0.2185
     97 OXT        18.0910   12.8240   -6.0620 O.co2     1 LYS        -0.5666
     98 H1         22.8354   12.7901    6.4520 H         1 PHE         0.2017
     99 H2         22.2779   12.9501    4.9115 H         1 PHE         0.2017
    100 H3         22.3722   11.4588    5.6020 H         1 PHE         0.2017
    101 H4         20.7087   12.0086    7.2179 H         1 PHE         0.1122
    102 H5         20.5402   14.6138    5.6341 H         1 PHE         0.0507
    103 H6         21.3293   14.4370    7.2381 H         1 PHE         0.0507
    104 H7         19.8885   13.6867    9.1935 H         1 PHE         0.0557
    105 H8         18.2373   15.0065    5.4856 H         1 PHE         0.0557
    106 H9         17.7359   14.1106   10.3063 H         1 PHE         0.0599
    107 H10        16.0837   15.4349    6.5973 H         1 PHE         0.0599
    108 H11        15.8269   14.9849    9.0093 H         1 PHE         0.0559
    109 H12        19.0755   10.7660    6.6444 H         1 ASN         0.1886
    110 H13        18.4366   10.2745    3.8709 H         1 ASN         0.0826
    111 H14        16.9544    9.4227    6.4048 H         1 ASN         0.0551
    112 H15        18.2810    8.5128    5.6055 H         1 ASN         0.0551
    113 H16        16.2952    7.2107    3.0088 H         1 ASN         0.1814
    114 H17        17.8986    7.5237    3.5844 H         1 ASN         0.1814
    115 H18        16.8830   11.0660    2.6292 H         1 TYR         0.1885
    116 H19        14.6459   12.6134    3.7563 H         1 TYR         0.0821
    117 H20        16.6652   13.8587    1.8309 H         1 TYR         0.0453
    118 H21        16.5710   14.2105    3.5899 H         1 TYR         0.0453
    119 H22        14.3509   15.2090    4.4642 H         1 TYR         0.0530
    120 H23        15.3824   15.1136    0.3197 H         1 TYR         0.0530
    121 H24        12.7299   17.0049    4.0180 H         1 TYR         0.0525
    122 H25        13.7699   16.9233   -0.1201 H         1 TYR         0.0525
    123 H26        11.8347   18.3316    2.4940 H         1 TYR         0.2458
    124 H27        12.8846   12.5807    2.4059 H         1 GLU         0.1883
    125 H28        13.2957   11.2551   -0.2375 H         1 GLU         0.0801
    126 H29        12.2437    9.6829    1.2436 H         1 GLU         0.0330
    127 H30        11.0258   10.2610    0.0566 H         1 GLU         0.0330
    128 H31        11.2516   11.4680    2.8240 H         1 GLU         0.0433
    129 H32        10.3187    9.9637    2.5184 H         1 GLU         0.0433
    130 H33        11.0449   11.5474   -1.5175 H         1 SER         0.1884
    131 H34        10.5338   14.4921   -1.5034 H         1 SER         0.0823
    132 H35        11.9504   13.9731   -3.3900 H         1 SER         0.0606
    133 H36        10.2884   14.2532   -4.0111 H         1 SER         0.0606
    134 H37        11.2738   12.3638   -4.9027 H         1 SER         0.2097
    135 H38         9.2675   11.4410   -2.8425 H         1 THR         0.1884
    136 H39         6.5485   12.1839   -1.9075 H         1 THR         0.0826
    137 H40         5.8098   11.0991   -4.2173 H         1 THR         0.0639
    138 H41         7.9781   10.6812   -4.9031 H         1 THR         0.2101
    139 H42         5.7030   13.3443   -5.2472 H         1 THR         0.0257
    140 H43         6.8791   13.9558   -4.0350 H         1 THR         0.0257
    141 H44         5.2566   13.3932   -3.5080 H         1 THR         0.0257
    142 H45         8.5187   10.3925   -0.8693 H         1 GLY         0.1881
    143 H46         7.6113    7.7289   -1.8284 H         1 GLY         0.0763
    144 H47         7.6570    8.1096   -0.0735 H         1 GLY         0.0763
    145 H48        11.9310    7.2305    0.1809 H         1 PRO         0.0802
    146 H49        11.2833    5.7748    1.9284 H         1 PRO         0.0313
    147 H50        11.9369    4.5453    0.7936 H         1 PRO         0.0313
    148 H51         9.4375    4.3440    1.6867 H         1 PRO         0.0287
    149 H52         9.8123    3.9955   -0.0351 H         1 PRO         0.0287
    150 H53         8.1716    5.6122   -0.3789 H         1 PRO         0.0524
    151 H54         8.4901    6.4167    1.1953 H         1 PRO         0.0524
    152 H55        10.1534    6.1563   -2.4105 H         1 PHE         0.1885
    153 H56        12.4487    4.6962   -3.6279 H         1 PHE         0.0823
    154 H57        10.8334    3.8132   -5.2469 H         1 PHE         0.0474
    155 H58         9.5298    4.8108   -4.5174 H         1 PHE         0.0474
    156 H59        12.1500    2.3887   -3.3192 H         1 PHE         0.0557
    157 H60         8.0842    3.6728   -3.1698 H         1 PHE         0.0557
    158 H61        11.6278    0.5483   -1.7820 H         1 PHE         0.0599
    159 H62         7.5580    1.8225   -1.6304 H         1 PHE         0.0599
    160 H63         9.3999    0.3580   -0.8039 H         1 PHE         0.0559
    161 H64        10.2499    7.4365   -4.0734 H         1 THR         0.1884
    162 H65        11.1963    7.8697   -6.8210 H         1 THR         0.0826
    163 H66         9.5431    9.8912   -6.5806 H         1 THR         0.0639
    164 H67         7.9884    9.4767   -4.8999 H         1 THR         0.2101
    165 H68         7.6139    8.4047   -7.0085 H         1 THR         0.0257
    166 H69         8.5567    7.0059   -6.3911 H         1 THR         0.0257
    167 H70         9.0812    7.8532   -7.8857 H         1 THR         0.0257
    168 H71        12.9587    8.3099   -4.4005 H         1 ALA         0.1883
    169 H72        13.4075   11.1616   -4.2635 H         1 ALA         0.0797
    170 H73        15.4905   10.5390   -3.0874 H         1 ALA         0.0277
    171 H74        15.2136    8.8174   -3.5187 H         1 ALA         0.0277
    172 H75        14.0638    9.6670   -2.4311 H         1 ALA         0.0277
    173 H76        14.9301   12.4017   -5.2927 H         1 LYS         0.1875
    174 H77        15.8567   11.3358   -7.8797 H         1 LYS         0.0726
    175 H78        16.4209   13.6568   -8.4066 H         1 LYS         0.0305
    176 H79        16.0791   14.1482   -6.7130 H         1 LYS         0.0305
    177 H80        14.2320   14.7843   -8.1446 H         1 LYS         0.0269
    178 H81        13.7120   13.4795   -7.0249 H         1 LYS         0.0269
    179 H82        13.9378   11.8194   -8.8029 H         1 LYS         0.0317
    180 H83        14.5627   13.0734   -9.9270 H         1 LYS         0.0317
    181 H84        11.8028   13.0646   -8.6193 H         1 LYS         0.0813
    182 H85        12.1633   12.5776  -10.3104 H         1 LYS         0.0813
    183 H86        11.3862   14.8392  -10.1732 H         1 LYS         0.1994
    184 H87        12.9427   14.8124  -10.7080 H         1 LYS         0.1994
    185 H88        12.6124   15.2587   -9.1584 H         1 LYS         0.1994
@<TRIPOS>BOND
     1    1    2 1  
     2    2    3 1  
     3    2    5 1  
     4    3    4 2  
     5    3   12 am 
     6    5    6 1  
     7    6    7 ar 
     8    6    8 ar 
     9    7    9 ar 
    10    8   10 ar 
    11    9   11 ar 
    12   10   11 ar 
    13   12   13 1  
    14   13   14 1  
    15   13   16 1  
    16   14   15 2  
    17   14   20 am 
    18   16   17 1  
    19   17   18 2  
    20   17   19 am 
    21   20   21 1  
    22   21   22 1  
    23   21   24 1  
    24   22   23 2  
    25   22   32 am 
    26   24   25 1  
    27   25   26 ar 
    28   25   27 ar 
    29   26   28 ar 
    30   27   29 ar 
    31   28   30 ar 
    32   29   30 ar 
    33   30   31 1  
    34   32   33 1  
    35   33   34 1  
    36   33   36 1  
    37   34   35 2  
    38   34   41 am 
    39   36   37 1  
    40   37   38 1  
    41   38   39 ar 
    42   38   40 ar 
    43   41   42 1  
    44   42   43 1  
    45   42   45 1  
    46   43   44 2  
    47   43   47 am 
    48   45   46 1  
    49   47   48 1  
    50   48   49 1  
    51   48   51 1  
    52   49   50 2  
    53   49   54 am 
    54   51   52 1  
    55   51   53 1  
    56   54   55 1  
    57   55   56 1  
    58   56   57 2  
    59   56   58 am 
    60   58   59 1  
    61   58   64 1  
    62   59   60 1  
    63   59   62 1  
    64   60   61 2  
    65   60   65 am 
    66   62   63 1  
    67   63   64 1  
    68   65   66 1  
    69   66   67 1  
    70   66   69 1  
    71   67   68 2  
    72   67   76 am 
    73   69   70 1  
    74   70   71 ar 
    75   70   72 ar 
    76   71   73 ar 
    77   72   74 ar 
    78   73   75 ar 
    79   74   75 ar 
    80   76   77 1  
    81   77   78 1  
    82   77   80 1  
    83   78   79 2  
    84   78   83 am 
    85   80   81 1  
    86   80   82 1  
    87   83   84 1  
    88   84   85 1  
    89   84   87 1  
    90   85   86 2  
    91   85   88 am 
    92   88   89 1  
    93   89   90 1  
    94   89   92 1  
    95   90   91 ar 
    96   90   97 ar 
    97   92   93 1  
    98   93   94 1  
    99   94   95 1  
   100   95   96 1  
   101    1   98 1  
   102    1   99 1  
   103    1  100 1  
   104    2  101 1  
   105    5  102 1  
   106    5  103 1  
   107    7  104 1  
   108    8  105 1  
   109    9  106 1  
   110   10  107 1  
   111   11  108 1  
   112   12  109 1  
   113   13  110 1  
   114   16  111 1  
   115   16  112 1  
   116   19  113 1  
   117   19  114 1  
   118   20  115 1  
   119   21  116 1  
   120   24  117 1  
   121   24  118 1  
   122   26  119 1  
   123   27  120 1  
   124   28  121 1  
   125   29  122 1  
   126   31  123 1  
   127   32  124 1  
   128   33  125 1  
   129   36  126 1  
   130   36  127 1  
   131   37  128 1  
   132   37  129 1  
   133   41  130 1  
   134   42  131 1  
   135   45  132 1  
   136   45  133 1  
   137   46  134 1  
   138   47  135 1  
   139   48  136 1  
   140   51  137 1  
   141   52  138 1  
   142   53  139 1  
   143   53  140 1  
   144   53  141 1  
   145   54  142 1  
   146   55  143 1  
   147   55  144 1  
   148   59  145 1  
   149   62  146 1  
   150   62  147 1  
   151   63  148 1  
   152   63  149 1  
   153   64  150 1  
   154   64  151 1  
   155   65  152 1  
   156   66  153 1  
   157   69  154 1  
   158   69  155 1  
   159   71  156 1  
   160   72  157 1  
   161   73  158 1  
   162   74  159 1  
   163   75  160 1  
   164   76  161 1  
   165   77  162 1  
   166   80  163 1  
   167   81  164 1  
   168   82  165 1  
   169   82  166 1  
   170   82  167 1  
   171   83  168 1  
   172   84  169 1  
   173   87  170 1  
   174   87  171 1  
   175   87  172 1  
   176   88  173 1  
   177   89  174 1  
   178   92  175 1  
   179   92  176 1  
   180   93  177 1  
   181   93  178 1  
   182   94  179 1  
   183   94  180 1  
   184   95  181 1  
   185   95  182 1  
   186   96  183 1  
   187   96  184 1  
   188   96  185 1  
@<TRIPOS>SUBSTRUCTURE
     1 PHE         1

