4pnu_ligand
  -I-interpret- 

 55 58  0  0  0  0  0  0  0  0999 V2000
   10.9330   -5.1970   -8.9980 C   0  0  0  0  0
   11.4650   -6.5630   -8.6380 C   0  0  0  0  0
   11.9830   -7.2640   -9.8680 C   0  0  0  0  0
   12.7330   -8.5780   -9.4650 C   0  0  0  0  0
   13.9170   -8.4360   -9.0840 O   0  0  0  0  0
   12.1510   -9.6930   -9.5570 O   0  0  0  0  0
   10.8420   -7.5340  -10.8040 C   0  0  0  0  0
    9.9290   -6.4350  -10.8300 C   0  0  0  0  0
    9.9610   -5.3550  -10.0130 C   0  0  0  0  0
    8.9400   -4.5340  -10.3610 C   0  0  0  0  0
    8.5110   -3.3480   -9.8650 C   0  0  0  0  0
    7.4050   -2.6940  -10.4210 C   0  0  0  0  0
    6.7200   -1.0590   -9.7910 Br  0  0  0  0  0
    6.7500   -3.2930  -11.4890 C   0  0  0  0  0
    7.2150   -4.5120  -11.9630 C   0  0  0  0  0
    8.2900   -5.1010  -11.3980 C   0  0  0  0  0
    8.8980   -6.2540  -11.6690 N   0  0  0  0  0
    8.5020   -7.2000  -12.7510 C   0  0  0  0  0
    7.4970   -8.2870  -12.2930 C   0  0  0  0  0
    7.2780   -9.2400  -13.0310 O   0  0  0  0  0
    6.8650   -8.1570  -11.1090 N   0  0  0  0  0
    5.8950   -9.1850  -10.6640 C   0  0  0  0  0
    6.2760   -9.7770   -9.2940 C   0  0  0  0  0
    7.2400   -9.2760   -8.6760 O   0  0  0  0  0
    5.5710  -10.7230   -8.8870 O   0  0  0  0  0
    4.4930   -8.5660  -10.5780 C   0  0  0  0  0
    4.1850   -8.2070  -11.9050 C   0  0  0  0  0
    3.6900   -9.1780  -12.7810 C   0  0  0  0  0
    3.3920   -8.8510  -14.1030 C   0  0  0  0  0
    3.5820   -7.5480  -14.5600 C   0  0  0  0  0
    4.0780   -6.5780  -13.6950 C   0  0  0  0  0
    4.3780   -6.9000  -12.3640 C   0  0  0  0  0
   11.7439   -4.5602   -9.3515 H   0  0  0  0  0
   10.4871   -4.7257   -8.1221 H   0  0  0  0  0
   10.6596   -7.1553   -8.2037 H   0  0  0  0  0
   12.2800   -6.4503   -7.9231 H   0  0  0  0  0
   12.7013   -6.6272  -10.3844 H   0  0  0  0  0
   11.2527   -9.5591   -9.8681 H   0  0  0  0  0
   10.3107   -8.4216  -10.4604 H   0  0  0  0  0
   11.2407   -7.6809  -11.8078 H   0  0  0  0  0
    9.0342   -2.8971   -9.0217 H   0  0  0  0  0
    5.8850   -2.8138  -11.9475 H   0  0  0  0  0
    6.7084   -4.9970  -12.7974 H   0  0  0  0  0
    9.4056   -7.7113  -13.0830 H   0  0  0  0  0
    8.0158   -6.6157  -13.5323 H   0  0  0  0  0
    7.0553   -7.3481  -10.5175 H   0  0  0  0  0
    5.9079   -9.9930  -11.3955 H   0  0  0  0  0
    7.6179   -8.5642   -9.1976 H   0  0  0  0  0
    4.4651   -7.7087   -9.9055 H   0  0  0  0  0
    3.7637   -9.2615  -10.1628 H   0  0  0  0  0
    3.5361  -10.1976  -12.4278 H   0  0  0  0  0
    3.0100   -9.6151  -14.7800 H   0  0  0  0  0
    3.3428   -7.2900  -15.5916 H   0  0  0  0  0
    4.2344   -5.5609  -14.0545 H   0  0  0  0  0
    4.7604   -6.1343  -11.6890 H   0  0  0  0  0
  1  2  1  0  0  0
  1  9  1  0  0  0
  2  3  1  0  0  0
  3  4  1  0  0  0
  3  7  1  0  0  0
  4  5  2  0  0  0
  4  6  1  0  0  0
  7  8  1  0  0  0
  8  9  4  0  0  0
  8 17  4  0  0  0
  9 10  4  0  0  0
 10 11  4  0  0  0
 10 16  4  0  0  0
 11 12  4  0  0  0
 12 13  1  0  0  0
 12 14  4  0  0  0
 14 15  4  0  0  0
 15 16  4  0  0  0
 16 17  4  0  0  0
 17 18  1  0  0  0
 18 19  1  0  0  0
 19 20  2  0  0  0
 19 21  1  0  0  0
 21 22  1  0  0  0
 22 23  1  0  0  0
 22 26  1  0  0  0
 23 24  1  0  0  0
 23 25  2  0  0  0
 26 27  1  0  0  0
 27 28  4  0  0  0
 27 32  4  0  0  0
 28 29  4  0  0  0
 29 30  4  0  0  0
 30 31  4  0  0  0
 31 32  4  0  0  0
  1 33  1  0  0  0
  1 34  1  0  0  0
  2 35  1  0  0  0
  2 36  1  0  0  0
  3 37  1  0  0  0
  6 38  1  0  0  0
  7 39  1  0  0  0
  7 40  1  0  0  0
 11 41  1  0  0  0
 14 42  1  0  0  0
 15 43  1  0  0  0
 18 44  1  0  0  0
 18 45  1  0  0  0
 21 46  1  0  0  0
 22 47  1  0  0  0
 24 48  1  0  0  0
 26 49  1  0  0  0
 26 50  1  0  0  0
 28 51  1  0  0  0
 29 52  1  0  0  0
 30 53  1  0  0  0
 31 54  1  0  0  0
 32 55  1  0  0  0
M  END
$$$$
