4mpc_ligand
  -I-interpret- 

 31 33  0  0  0  0  0  0  0  0999 V2000
   10.0180    6.0550  -36.3150 O   0  0  0  0  0
   12.0400    2.4430  -36.5460 C   0  0  0  0  0
   11.8740    3.0710  -35.2940 C   0  0  0  0  0
   10.8270    4.2540  -37.6150 C   0  0  0  0  0
   10.6820    4.8600  -36.3870 C   0  0  0  0  0
   11.1990    4.2790  -35.2220 C   0  0  0  0  0
   11.5230    3.0300  -37.6830 C   0  0  0  0  0
   12.2230   -0.1310  -37.3070 O   0  0  0  0  0
   17.4600   -0.0900  -38.9160 C   0  0  0  0  0
   18.6270    0.6190  -38.9690 C   0  0  0  0  0
   18.7040    1.8890  -38.4050 C   0  0  0  0  0
   17.6290    2.5180  -37.7490 C   0  0  0  0  0
   13.2500    0.4890  -35.3090 O   0  0  0  0  0
   12.8940    0.9300  -36.6350 S   0  0  0  0  0
   11.6640    2.4010  -38.9380 O   0  0  0  0  0
   14.2530    1.1240  -37.5540 N   0  0  0  0  0
   15.1240    2.1560  -37.0930 C   0  0  0  0  0
   16.4410    1.8060  -37.6970 C   0  0  0  0  0
   16.3660    0.5390  -38.2550 C   0  0  0  0  0
   14.9860    0.0200  -38.0640 C   0  0  0  0  0
    9.9962    6.3532  -35.4028 H   0  0  0  0  0
   12.2734    2.6099  -34.3907 H   0  0  0  0  0
   10.4130    4.7104  -38.5141 H   0  0  0  0  0
   11.0706    4.7762  -34.2606 H   0  0  0  0  0
   17.3710   -1.0833  -39.3558 H   0  0  0  0  0
   19.5019    0.1877  -39.4554 H   0  0  0  0  0
   19.6496    2.4267  -38.4752 H   0  0  0  0  0
   17.7255    3.5095  -37.3067 H   0  0  0  0  0
   11.2496    2.9420  -39.6142 H   0  0  0  0  0
   14.8827    3.0022  -36.4497 H   0  0  0  0  0
   14.6184   -0.9853  -38.2699 H   0  0  0  0  0
  5  1  1  0  0  0
  2  3  4  0  0  0
  2  7  4  0  0  0
 14  2  1  0  0  0
  3  6  4  0  0  0
  4  5  4  0  0  0
  7  4  4  0  0  0
  6  5  4  0  0  0
  7 15  1  0  0  0
 14  8  2  0  0  0
 10  9  4  0  0  0
  9 19  4  0  0  0
 11 10  4  0  0  0
 12 11  4  0  0  0
 18 12  4  0  0  0
 14 13  2  0  0  0
 16 14  1  0  0  0
 17 16  4  0  0  0
 16 20  4  0  0  0
 17 18  4  0  0  0
 18 19  4  0  0  0
 19 20  4  0  0  0
  1 21  1  0  0  0
  3 22  1  0  0  0
  4 23  1  0  0  0
  6 24  1  0  0  0
  9 25  1  0  0  0
 10 26  1  0  0  0
 11 27  1  0  0  0
 12 28  1  0  0  0
 15 29  1  0  0  0
 17 30  1  0  0  0
 20 31  1  0  0  0
M  END
$$$$
