6gvx_ligand
  -I-interpret- 

 56 60  0  0  0  0  0  0  0  0999 V2000
    8.1830   -0.7370    1.2910 C   0  0  0  0  0
    9.3370   -0.3470    2.2080 C   0  0  0  0  0
    8.9590   -0.5680    3.6680 C   0  0  0  0  0
    8.4610   -1.9920    3.8810 C   0  0  0  0  0
    7.3410   -2.3140    2.9000 C   0  0  0  0  0
    7.8350   -2.1460    1.5260 N   0  3  0  0  0
    6.7930   -2.5670    0.5790 C   0  0  0  0  0
    6.5130   -4.0480    0.8010 C   0  0  0  0  0
    5.4250   -4.4820   -0.0100 O   0  0  0  0  0
    4.7700   -5.6240    0.3640 C   0  0  0  0  0
    3.4670   -5.5480    0.8410 C   0  0  0  0  0
    2.8040   -6.7050    1.2300 C   0  0  0  0  0
    5.4160   -6.8510    0.2850 C   0  0  0  0  0
    4.7520   -8.0080    0.6740 C   0  0  0  0  0
    3.4420   -7.9360    1.1340 C   0  0  0  0  0
    2.7410   -9.1690    1.5750 C   0  0  0  0  0
    1.5340   -9.0550    2.2590 C   0  0  0  0  0
    3.2980  -10.4280    1.3430 C   0  0  0  0  0
    2.6560  -11.5240    1.7700 N   0  0  0  0  0
    1.4810  -11.3520    2.4210 C   0  0  0  0  0
    0.9390  -10.1770    2.6630 N   0  0  0  0  0
   -0.2670  -10.2450    3.3530 N   0  0  0  0  0
   -0.4490  -11.5810    3.5350 C   0  0  0  0  0
    0.6160  -12.2940    2.9670 C   0  0  0  0  0
    0.7740  -13.7770    2.9810 C   0  0  0  0  0
    1.6230  -14.4320    2.0990 C   0  0  0  0  0
    1.7390  -15.8160    2.1660 C   0  0  0  0  0
    1.0460  -16.5150    3.0750 N   0  0  0  0  0
    0.2270  -15.9070    3.9420 C   0  0  0  0  0
    0.0730  -14.5260    3.9170 C   0  0  0  0  0
    8.4799   -0.6017    0.2510 H   0  0  0  0  0
    7.3191   -0.1065    1.5012 H   0  0  0  0  0
    9.5667    0.7079    2.0581 H   0  0  0  0  0
   10.2026   -0.9651    1.9694 H   0  0  0  0  0
    8.1652    0.1286    3.9375 H   0  0  0  0  0
    9.8388   -0.4039    4.2902 H   0  0  0  0  0
    8.0809   -2.0872    4.8981 H   0  0  0  0  0
    9.2863   -2.6852    3.7182 H   0  0  0  0  0
    6.5016   -1.6400    3.0708 H   0  0  0  0  0
    7.0126   -3.3430    3.0463 H   0  0  0  0  0
    8.6673   -2.7201    1.3915 H   0  0  0  0  0
    7.1289   -2.3998   -0.4444 H   0  0  0  0  0
    5.8846   -1.9868    0.7412 H   0  0  0  0  0
    6.2560   -4.2048    1.8486 H   0  0  0  0  0
    7.4020   -4.6187    0.5327 H   0  0  0  0  0
    2.9662   -4.5823    0.9098 H   0  0  0  0  0
    1.7841   -6.6475    1.6103 H   0  0  0  0  0
    6.4412   -6.9062   -0.0812 H   0  0  0  0  0
    5.2581   -8.9718    0.6185 H   0  0  0  0  0
    1.0899   -8.0796    2.4577 H   0  0  0  0  0
    4.2489  -10.5189    0.8180 H   0  0  0  0  0
   -1.2990  -12.0313    4.0477 H   0  0  0  0  0
    2.1929  -13.8669    1.3614 H   0  0  0  0  0
    2.3996  -16.3369    1.4729 H   0  0  0  0  0
   -0.3232  -16.4995    4.6730 H   0  0  0  0  0
   -0.5928  -14.0346    4.6265 H   0  0  0  0  0
  1  2  1  0  0  0
  1  6  1  0  0  0
  2  3  1  0  0  0
  3  4  1  0  0  0
  4  5  1  0  0  0
  5  6  1  0  0  0
  6  7  1  0  0  0
  7  8  1  0  0  0
  8  9  1  0  0  0
  9 10  1  0  0  0
 10 11  4  0  0  0
 10 13  4  0  0  0
 11 12  4  0  0  0
 12 15  4  0  0  0
 13 14  4  0  0  0
 14 15  4  0  0  0
 15 16  1  0  0  0
 16 17  4  0  0  0
 16 18  4  0  0  0
 17 21  4  0  0  0
 18 19  4  0  0  0
 19 20  4  0  0  0
 20 21  4  0  0  0
 20 24  4  0  0  0
 21 22  4  0  0  0
 22 23  4  0  0  0
 23 24  4  0  0  0
 24 25  1  0  0  0
 25 26  4  0  0  0
 25 30  4  0  0  0
 26 27  4  0  0  0
 27 28  4  0  0  0
 28 29  4  0  0  0
 29 30  4  0  0  0
  1 31  1  0  0  0
  1 32  1  0  0  0
  2 33  1  0  0  0
  2 34  1  0  0  0
  3 35  1  0  0  0
  3 36  1  0  0  0
  4 37  1  0  0  0
  4 38  1  0  0  0
  5 39  1  0  0  0
  5 40  1  0  0  0
  6 41  1  0  0  0
  7 42  1  0  0  0
  7 43  1  0  0  0
  8 44  1  0  0  0
  8 45  1  0  0  0
 11 46  1  0  0  0
 12 47  1  0  0  0
 13 48  1  0  0  0
 14 49  1  0  0  0
 17 50  1  0  0  0
 18 51  1  0  0  0
 23 52  1  0  0  0
 26 53  1  0  0  0
 27 54  1  0  0  0
 29 55  1  0  0  0
 30 56  1  0  0  0
M  END
$$$$
