4gg5_ligand
  -I-interpret- 

 55 58  0  0  0  0  0  0  0  0999 V2000
   -4.7250   17.3410   34.7260 C   0  0  0  0  0
   -5.9100   18.1030   35.2380 C   0  0  0  0  0
   -5.6570   18.7360   36.5620 N   0  3  0  0  0
   -6.2770   18.2720   37.7510 C   0  0  0  0  0
   -4.3840   19.4930   36.6070 C   0  0  0  0  0
   -3.5470   19.3240   35.3850 C   0  0  0  0  0
   -3.5550   18.0170   34.9550 N   0  0  0  0  0
   -2.6120   17.6870   33.8640 C   0  0  0  0  0
   -2.6940   16.5240   33.1180 C   0  0  0  0  0
   -1.7440   16.3100   32.0800 C   0  0  0  0  0
   -1.5800   18.6380   33.5670 C   0  0  0  0  0
   -0.7200   18.4130   32.5960 N   0  0  0  0  0
   -0.7690   17.2890   31.8490 C   0  0  0  0  0
    0.1900   17.1190   30.8230 C   0  0  0  0  0
    0.1740   15.9760   30.0300 C   0  0  0  0  0
    1.1990   15.8200   28.9050 C   0  0  0  0  0
    0.5030   15.8650   27.7440 F   0  0  0  0  0
    2.0420   16.8300   28.8940 F   0  0  0  0  0
    1.8460   14.6800   28.9750 F   0  0  0  0  0
   -0.8270   14.9590   30.2590 C   0  0  0  0  0
   -1.7610   15.1220   31.2510 C   0  0  0  0  0
   -2.7580   14.0970   31.4800 N   0  0  0  0  0
   -2.8570   12.9630   30.5840 C   0  0  0  0  0
   -3.6070   13.2920   29.2920 C   0  0  0  0  0
   -2.8930   13.3800   28.0660 C   0  0  0  0  0
   -4.9910   13.5290   29.3350 C   0  0  0  0  0
   -5.6890   13.8460   28.1600 C   0  0  0  0  0
   -4.9760   13.9240   26.9300 C   0  0  0  0  0
   -3.5860   13.6900   26.9020 C   0  0  0  0  0
   -2.8980   13.7710   25.6550 N   0  0  0  0  0
   -3.5250   14.3000   24.6510 O   0  0  0  0  0
   -1.6640   13.3320   25.5140 O   0  0  0  0  0
   -4.8404   17.2056   33.6506 H   0  0  0  0  0
   -4.6785   16.3847   35.2470 H   0  0  0  0  0
   -6.7350   17.4003   35.3549 H   0  0  0  0  0
   -6.1318   18.8964   34.5243 H   0  0  0  0  0
   -6.3930   19.4396   36.6226 H   0  0  0  0  0
   -5.5993   17.5963   38.2728 H   0  0  0  0  0
   -6.5105   19.1215   38.3928 H   0  0  0  0  0
   -7.1957   17.7431   37.4976 H   0  0  0  0  0
   -3.8087   19.1158   37.4525 H   0  0  0  0  0
   -4.6349   20.5506   36.6881 H   0  0  0  0  0
   -2.5215   19.6062   35.6233 H   0  0  0  0  0
   -3.9542   19.9536   34.5939 H   0  0  0  0  0
   -3.4706   15.7867   33.3214 H   0  0  0  0  0
   -1.5072   19.5556   34.1508 H   0  0  0  0  0
    0.9447   17.8869   30.6530 H   0  0  0  0  0
   -0.8401   14.0604   29.6423 H   0  0  0  0  0
   -3.3926   14.1737   32.2748 H   0  0  0  0  0
   -3.4092   12.1773   31.0997 H   0  0  0  0  0
   -1.8449   12.6610   30.3148 H   0  0  0  0  0
   -1.8172   13.2068   28.0393 H   0  0  0  0  0
   -5.5240   13.4664   30.2838 H   0  0  0  0  0
   -6.7630   14.0301   28.1883 H   0  0  0  0  0
   -5.5058   14.1651   26.0084 H   0  0  0  0  0
  1  2  1  0  0  0
  1  7  1  0  0  0
  2  3  1  0  0  0
  3  4  1  0  0  0
  3  5  1  0  0  0
  5  6  1  0  0  0
  6  7  1  0  0  0
  7  8  1  0  0  0
  8  9  4  0  0  0
  8 11  4  0  0  0
  9 10  4  0  0  0
 10 13  4  0  0  0
 10 21  4  0  0  0
 11 12  4  0  0  0
 12 13  4  0  0  0
 13 14  4  0  0  0
 14 15  4  0  0  0
 15 16  1  0  0  0
 15 20  4  0  0  0
 16 17  1  0  0  0
 16 18  1  0  0  0
 16 19  1  0  0  0
 20 21  4  0  0  0
 21 22  1  0  0  0
 22 23  1  0  0  0
 23 24  1  0  0  0
 24 25  4  0  0  0
 24 26  4  0  0  0
 25 29  4  0  0  0
 26 27  4  0  0  0
 27 28  4  0  0  0
 28 29  4  0  0  0
 29 30  1  0  0  0
 30 31  2  0  0  0
 30 32  2  0  0  0
  1 33  1  0  0  0
  1 34  1  0  0  0
  2 35  1  0  0  0
  2 36  1  0  0  0
  3 37  1  0  0  0
  4 38  1  0  0  0
  4 39  1  0  0  0
  4 40  1  0  0  0
  5 41  1  0  0  0
  5 42  1  0  0  0
  6 43  1  0  0  0
  6 44  1  0  0  0
  9 45  1  0  0  0
 11 46  1  0  0  0
 14 47  1  0  0  0
 20 48  1  0  0  0
 22 49  1  0  0  0
 23 50  1  0  0  0
 23 51  1  0  0  0
 25 52  1  0  0  0
 26 53  1  0  0  0
 27 54  1  0  0  0
 28 55  1  0  0  0
M  END
$$$$
