2xag_ligand
  -I-interpret- 

106112  0  0  0  0  0  0  0  0999 V2000
   -6.9590   67.0990   89.2470 P   0  0  0  0  0
   -6.0220   67.4750   88.0980 O   0  0  0  0  0
   -8.3570   66.4980   89.0530 O   0  0  0  0  0
   -7.2380   68.4520   90.0720 O   0  0  0  0  0
   -6.2200   69.4570   90.0930 C   0  0  0  0  0
   -6.9800   70.7480   89.9690 C   0  0  0  0  0
   -6.1220   71.8190   90.2750 O   0  0  0  0  0
   -7.4920   70.9820   88.5680 C   0  0  0  0  0
   -8.9020   71.2460   88.6740 O   0  0  0  0  0
   -6.6740   72.1740   88.0820 C   0  0  0  0  0
   -7.3340   72.9710   87.0950 O   0  0  0  0  0
   -6.4110   72.8940   89.3900 C   0  0  0  0  0
   -5.2330   73.8070   89.3640 N   0  0  0  0  0
   -4.0060   73.5490   88.8490 C   0  0  0  0  0
   -3.2090   74.6280   89.0410 N   0  0  0  0  0
   -3.9450   75.5420   89.6910 C   0  0  0  0  0
   -3.6260   76.7980   90.1250 C   0  0  0  0  0
   -2.3890   77.2490   89.8770 N   0  0  0  0  0
   -4.5320   77.5430   90.7820 N   0  0  0  0  0
   -5.9070   77.0700   91.0460 C   0  0  0  0  0
   -6.1750   75.7350   90.5410 N   0  0  0  0  0
   -5.2170   75.0300   89.9030 C   0  0  0  0  0
   -8.4820   57.4030   86.1410 N   0  0  0  0  0
   -9.5090   56.5210   86.3000 C   0  0  0  0  0
   -9.9200   56.1880   87.5510 O   0  0  0  0  0
  -10.1580   55.9620   85.2360 N   0  0  0  0  0
   -9.8500   56.2790   83.9570 C   0  0  0  0  0
  -10.4830   55.7090   82.8950 O   0  0  0  0  0
   -8.6670   57.1300   83.7290 C   0  0  0  0  0
   -8.4650   57.6520   82.3680 N   0  0  0  0  0
   -7.7450   58.8790   82.3080 C   0  0  0  0  0
   -7.7840   59.5690   81.0980 C   0  0  0  0  0
   -7.1690   60.7980   80.9420 C   0  0  0  0  0
   -7.2120   61.5190   79.6220 C   0  0  0  0  0
   -6.5080   61.3660   82.0070 C   0  0  0  0  0
   -5.8400   62.7010   81.7970 C   0  0  0  0  0
   -6.4720   60.6860   83.2340 C   0  0  0  0  0
   -7.1110   59.4400   83.4250 C   0  0  0  0  0
   -7.0240   58.7180   84.6830 N   0  0  0  0  0
   -8.0920   57.8110   84.9080 C   0  0  0  0  0
   -6.6050   59.5330   85.8660 C   0  0  0  0  0
   -7.5980   60.4780   86.5680 C   0  0  0  0  0
   -8.3080   61.2310   85.5850 O   0  0  0  0  0
   -6.8340   61.3970   87.5410 C   0  0  0  0  0
   -5.8930   60.6420   88.3150 O   0  0  0  0  0
   -7.6650   62.1560   88.5650 C   0  0  0  0  0
   -8.7970   62.7750   87.9330 O   0  0  0  0  0
   -6.7390   63.1630   89.2990 C   0  0  0  0  0
   -7.4250   63.9890   90.2700 O   0  0  0  0  0
   -6.7320   65.0980   91.2300 P   0  0  0  0  0
   -5.5310   64.5490   91.9980 O   0  0  0  0  0
   -7.9110   65.7430   91.9790 O   0  0  0  0  0
   -6.0710   66.1660   90.2180 O   0  0  0  0  0
   -8.0370   56.5260   81.4890 C   0  0  0  0  0
   -8.5950   56.3860   80.3790 O   0  0  0  0  0
   -7.0180   55.4820   81.9000 C   0  0  0  0  0
   -6.4210   55.8240   83.2460 C   0  0  0  0  0
   -6.4520   54.6950   84.2520 C   0  0  0  0  0
   -5.2670   54.4750   84.9620 C   0  0  0  0  0
   -5.1860   53.4700   85.9110 C   0  0  0  0  0
   -7.5890   53.9110   84.5000 C   0  0  0  0  0
   -7.5150   52.8950   85.4510 C   0  0  0  0  0
   -6.3120   52.6790   86.1460 C   0  0  0  0  0
   -6.1450   51.3180   87.4600 Br  0  0  0  0  0
   -8.7597   66.3440   89.9107 H   0  0  0  0  0
   -5.4942   69.3264   89.2904 H   0  0  0  0  0
   -5.6191   69.4172   91.0016 H   0  0  0  0  0
   -7.8263   70.6849   90.6530 H   0  0  0  0  0
   -7.3847   70.1527   87.8689 H   0  0  0  0  0
   -9.3519   70.4564   88.9836 H   0  0  0  0  0
   -5.7680   71.8985   87.5422 H   0  0  0  0  0
   -6.7625   73.6983   86.8382 H   0  0  0  0  0
   -7.2551   73.5305   89.6555 H   0  0  0  0  0
   -3.7081   72.6221   88.3589 H   0  0  0  0  0
   -1.7215   76.6597   89.3794 H   0  0  0  0  0
   -2.1147   78.1816   90.1858 H   0  0  0  0  0
   -6.6515   77.6681   91.5714 H   0  0  0  0  0
  -10.6455   55.5621   87.4922 H   0  0  0  0  0
  -10.1221   56.0653   82.0799 H   0  0  0  0  0
   -8.3128   59.1288   80.2526 H   0  0  0  0  0
   -6.7452   60.8999   78.8559 H   0  0  0  0  0
   -8.2492   61.7152   79.3502 H   0  0  0  0  0
   -6.6726   62.4624   79.7070 H   0  0  0  0  0
   -5.0883   62.6104   81.0128 H   0  0  0  0  0
   -6.5875   63.4375   81.5022 H   0  0  0  0  0
   -5.3629   63.0170   82.7247 H   0  0  0  0  0
   -5.9327   61.1342   84.0684 H   0  0  0  0  0
   -5.8392   60.2001   85.4702 H   0  0  0  0  0
   -6.3628   58.7908   86.6266 H   0  0  0  0  0
   -8.3221   59.9035   87.1457 H   0  0  0  0  0
   -8.9275   61.8206   86.0211 H   0  0  0  0  0
   -6.3853   62.1238   86.8639 H   0  0  0  0  0
   -5.4278   61.2305   88.9140 H   0  0  0  0  0
   -8.0788   61.4785   89.3119 H   0  0  0  0  0
   -9.3101   63.2490   88.5915 H   0  0  0  0  0
   -6.3208   63.8289   88.5442 H   0  0  0  0  0
   -5.9906   62.5822   89.8380 H   0  0  0  0  0
   -8.5724   66.0305   91.3453 H   0  0  0  0  0
   -6.2213   55.4536   81.1567 H   0  0  0  0  0
   -7.5124   54.5130   81.9683 H   0  0  0  0  0
   -7.0162   56.6373   83.6612 H   0  0  0  0  0
   -5.3730   56.0710   83.0763 H   0  0  0  0  0
   -4.3972   55.1020   84.7659 H   0  0  0  0  0
   -4.2618   53.2999   86.4633 H   0  0  0  0  0
   -8.5162   54.0939   83.9570 H   0  0  0  0  0
   -8.3852   52.2711   85.6550 H   0  0  0  0  0
  1  2  2  0  0  0
  1  3  1  0  0  0
  1  4  1  0  0  0
 53  1  1  0  0  0
  4  5  1  0  0  0
  5  6  1  0  0  0
  6  7  1  0  0  0
  6  8  1  0  0  0
  7 12  1  0  0  0
  8  9  1  0  0  0
  8 10  1  0  0  0
 10 11  1  0  0  0
 10 12  1  0  0  0
 12 13  1  0  0  0
 13 14  4  0  0  0
 13 22  4  0  0  0
 14 15  4  0  0  0
 16 15  4  0  0  0
 16 17  4  0  0  0
 22 16  4  0  0  0
 17 18  1  0  0  0
 17 19  4  0  0  0
 20 19  4  0  0  0
 21 20  4  0  0  0
 22 21  4  0  0  0
 23 24  4  0  0  0
 40 23  4  0  0  0
 24 25  1  0  0  0
 24 26  4  0  0  0
 27 26  4  0  0  0
 27 28  1  0  0  0
 29 27  4  0  0  0
 29 30  1  0  0  0
 40 29  4  0  0  0
 31 30  1  0  0  0
 30 54  1  0  0  0
 31 32  4  0  0  0
 38 31  4  0  0  0
 32 33  4  0  0  0
 33 34  1  0  0  0
 35 33  4  0  0  0
 35 36  1  0  0  0
 37 35  4  0  0  0
 38 37  4  0  0  0
 39 38  1  0  0  0
 39 40  1  0  0  0
 41 39  1  0  0  0
 42 41  1  0  0  0
 42 43  1  0  0  0
 44 42  1  0  0  0
 44 45  1  0  0  0
 46 44  1  0  0  0
 46 47  1  0  0  0
 48 46  1  0  0  0
 49 48  1  0  0  0
 50 49  1  0  0  0
 50 51  2  0  0  0
 50 52  1  0  0  0
 50 53  1  0  0  0
 54 55  2  0  0  0
 54 56  1  0  0  0
 56 57  1  0  0  0
 57 58  1  0  0  0
 58 59  4  0  0  0
 58 61  4  0  0  0
 59 60  4  0  0  0
 60 63  4  0  0  0
 61 62  4  0  0  0
 62 63  4  0  0  0
 63 64  1  0  0  0
  3 65  1  0  0  0
  5 66  1  0  0  0
  5 67  1  0  0  0
  6 68  1  0  0  0
  8 69  1  0  0  0
  9 70  1  0  0  0
 10 71  1  0  0  0
 11 72  1  0  0  0
 12 73  1  0  0  0
 14 74  1  0  0  0
 18 75  1  0  0  0
 18 76  1  0  0  0
 20 77  1  0  0  0
 25 78  1  0  0  0
 28 79  1  0  0  0
 32 80  1  0  0  0
 34 81  1  0  0  0
 34 82  1  0  0  0
 34 83  1  0  0  0
 36 84  1  0  0  0
 36 85  1  0  0  0
 36 86  1  0  0  0
 37 87  1  0  0  0
 41 88  1  0  0  0
 41 89  1  0  0  0
 42 90  1  0  0  0
 43 91  1  0  0  0
 44 92  1  0  0  0
 45 93  1  0  0  0
 46 94  1  0  0  0
 47 95  1  0  0  0
 48 96  1  0  0  0
 48 97  1  0  0  0
 52 98  1  0  0  0
 56 99  1  0  0  0
 56100  1  0  0  0
 57101  1  0  0  0
 57102  1  0  0  0
 59103  1  0  0  0
 60104  1  0  0  0
 61105  1  0  0  0
 62106  1  0  0  0
M  END
$$$$
