### 
### Created by X-TOOL on Sun Sep  9 21:51:19 2018
### 

@<TRIPOS>MOLECULE
2xag_ligand
  104   110     1     0     0
SMALL
GAST_HUCK


@<TRIPOS>ATOM
      1 PA         -6.9590   67.0990   89.2470 P.3       1 NON         0.2972
      2 O1A        -6.0220   67.4750   88.0980 O.co2     1 NON        -0.6127
      3 O2A        -8.3570   66.4980   89.0530 O.co2     1 NON        -0.6127
      4 O5B        -7.2380   68.4520   90.0720 O.3       1 NON        -0.2476
      5 C5B        -6.2200   69.4570   90.0930 C.3       1 NON         0.1128
      6 C4B        -6.9800   70.7480   89.9690 C.3       1 NON         0.1189
      7 O4B        -6.1220   71.8190   90.2750 O.3       1 NON        -0.3364
      8 C3B        -7.4920   70.9820   88.5680 C.3       1 NON         0.1149
      9 O3B        -8.9020   71.2460   88.6740 O.3       1 NON        -0.3864
     10 C2B        -6.6740   72.1740   88.0820 C.3       1 NON         0.1385
     11 O2B        -7.3340   72.9710   87.0950 O.3       1 NON        -0.3836
     12 C1B        -6.4110   72.8940   89.3900 C.3       1 NON         0.2010
     13 N9A        -5.2330   73.8070   89.3640 N.pl3     1 NON        -0.1919
     14 C8A        -4.0060   73.5490   88.8490 C.2       1 NON         0.1123
     15 N7A        -3.2090   74.6280   89.0410 N.2       1 NON        -0.2958
     16 C5A        -3.9450   75.5420   89.6910 C.ar      1 NON         0.1045
     17 C6A        -3.6260   76.7980   90.1250 C.ar      1 NON         0.1298
     18 N6A        -2.3890   77.2490   89.8770 N.pl3     1 NON        -0.3152
     19 N1A        -4.5320   77.5430   90.7820 N.ar      1 NON        -0.2698
     20 C2A        -5.9070   77.0700   91.0460 C.ar      1 NON         0.0533
     21 N3A        -6.1750   75.7350   90.5410 N.ar      1 NON        -0.2714
     22 C4A        -5.2170   75.0300   89.9030 C.ar      1 NON         0.1613
     23 N1         -8.4820   57.4030   86.1410 N.ar      1 NON        -0.2533
     24 C2         -9.5090   56.5210   86.3000 C.ar      1 NON         0.2008
     25 O2         -9.9200   56.1880   87.5510 O.3       1 NON        -0.3076
     26 N3        -10.1580   55.9620   85.2360 N.ar      1 NON        -0.2521
     27 C4         -9.8500   56.2790   83.9570 C.ar      1 NON         0.1800
     28 O4        -10.4830   55.7090   82.8950 O.3       1 NON        -0.3216
     29 C4X        -8.6670   57.1300   83.7290 C.ar      1 NON         0.1797
     30 N5         -8.4650   57.6520   82.3680 N.am      1 NON        -0.1791
     31 C5X        -7.7450   58.8790   82.3080 C.ar      1 NON         0.1011
     32 C6         -7.7840   59.5690   81.0980 C.ar      1 NON        -0.0499
     33 C7         -7.1690   60.7980   80.9420 C.ar      1 NON        -0.0681
     34 C7M        -7.2120   61.5190   79.6220 C.3       1 NON        -0.0422
     35 C8         -6.5080   61.3660   82.0070 C.ar      1 NON        -0.0682
     36 C8M        -5.8400   62.7010   81.7970 C.3       1 NON        -0.0429
     37 C9         -6.4720   60.6860   83.2340 C.ar      1 NON        -0.0540
     38 C9A        -7.1110   59.4400   83.4250 C.ar      1 NON         0.0805
     39 N10        -7.0240   58.7180   84.6830 N.pl3     1 NON        -0.2521
     40 C10        -8.0920   57.8110   84.9080 C.ar      1 NON         0.1569
     41 C1'        -6.6050   59.5330   85.8660 C.3       1 NON         0.0721
     42 C2'        -7.5980   60.4780   86.5680 C.3       1 NON         0.1067
     43 O2'        -8.3080   61.2310   85.5850 O.3       1 NON        -0.3868
     44 C3'        -6.8340   61.3970   87.5410 C.3       1 NON         0.1115
     45 O3'        -5.8930   60.6420   88.3150 O.3       1 NON        -0.3865
     46 C4'        -7.6650   62.1560   88.5650 C.3       1 NON         0.1118
     47 O4'        -8.7970   62.7750   87.9330 O.3       1 NON        -0.3865
     48 C5'        -6.7390   63.1630   89.2990 C.3       1 NON         0.1124
     49 O5'        -7.4250   63.9890   90.2700 O.3       1 NON        -0.2477
     50 P          -6.7320   65.0980   91.2300 P.3       1 NON         0.2972
     51 O1P        -5.5310   64.5490   91.9980 O.co2     1 NON        -0.6127
     52 O2P        -7.9110   65.7430   91.9790 O.co2     1 NON        -0.6127
     53 O3P        -6.0710   66.1660   90.2180 O.3       1 NON        -0.1319
     54 C1B        -8.0370   56.5260   81.4890 C.2       1 NON         0.2215
     55 O1B        -8.5950   56.3860   80.3790 O.2       1 NON        -0.3800
     56 C2B        -7.0180   55.4820   81.9000 C.3       1 NON         0.0562
     57 C3B        -6.4210   55.8240   83.2460 C.3       1 NON        -0.0002
     58 CB1        -6.4520   54.6950   84.2520 C.ar      1 NON        -0.0379
     59 CB6        -5.2670   54.4750   84.9620 C.ar      1 NON        -0.0573
     60 CB5        -5.1860   53.4700   85.9110 C.ar      1 NON        -0.0590
     61 CB2        -7.5890   53.9110   84.5000 C.ar      1 NON        -0.0573
     62 CB3        -7.5150   52.8950   85.4510 C.ar      1 NON        -0.0590
     63 CB4        -6.3120   52.6790   86.1460 C.ar      1 NON         0.0056
     64 BR         -6.1450   51.3180   87.4600 Br        1 NON        -0.0561
     65 H          -5.4942   69.3264   89.2904 H         1 NON         0.0648
     66 H          -5.6191   69.4172   91.0016 H         1 NON         0.0648
     67 H          -7.8263   70.6849   90.6530 H         1 NON         0.0651
     68 H          -7.3847   70.1527   87.8689 H         1 NON         0.0648
     69 H          -9.0408   72.0230   89.2206 H         1 NON         0.2100
     70 H          -5.7680   71.8985   87.5422 H         1 NON         0.0676
     71 H          -8.1513   73.3182   87.4598 H         1 NON         0.2101
     72 H          -7.2551   73.5305   89.6555 H         1 NON         0.0996
     73 H          -3.7081   72.6221   88.3589 H         1 NON         0.1349
     74 H          -1.7215   76.6597   89.3794 H         1 NON         0.1820
     75 H          -2.1147   78.1816   90.1858 H         1 NON         0.1820
     76 H          -6.6515   77.6681   91.5714 H         1 NON         0.0996
     77 H         -10.6455   55.5620   87.4922 H         1 NON         0.2554
     78 H         -10.1221   56.0653   82.0799 H         1 NON         0.2505
     79 H          -8.3128   59.1288   80.2526 H         1 NON         0.0394
     80 H          -6.7452   60.8999   78.8559 H         1 NON         0.0353
     81 H          -8.2492   61.7152   79.3502 H         1 NON         0.0353
     82 H          -6.6726   62.4624   79.7070 H         1 NON         0.0353
     83 H          -6.2654   63.4310   82.4856 H         1 NON         0.0349
     84 H          -4.7705   62.6040   81.9834 H         1 NON         0.0349
     85 H          -6.0028   63.0299   80.7706 H         1 NON         0.0349
     86 H          -5.9327   61.1342   84.0684 H         1 NON         0.0408
     87 H          -5.8392   60.2001   85.4702 H         1 NON         0.0587
     88 H          -6.3628   58.7908   86.6266 H         1 NON         0.0587
     89 H          -8.3221   59.9035   87.1457 H         1 NON         0.0643
     90 H          -8.9275   61.8206   86.0211 H         1 NON         0.2100
     91 H          -6.3853   62.1238   86.8639 H         1 NON         0.0647
     92 H          -5.4278   61.2305   88.9140 H         1 NON         0.2100
     93 H          -8.0788   61.4785   89.3119 H         1 NON         0.0647
     94 H          -9.3436   62.0993   87.5253 H         1 NON         0.2100
     95 H          -6.3208   63.8289   88.5442 H         1 NON         0.0647
     96 H          -5.9906   62.5822   89.8380 H         1 NON         0.0647
     97 H          -6.2213   55.4536   81.1567 H         1 NON         0.0532
     98 H          -7.5124   54.5130   81.9683 H         1 NON         0.0532
     99 H          -7.0162   56.6373   83.6612 H         1 NON         0.0457
    100 H          -5.3730   56.0710   83.0763 H         1 NON         0.0457
    101 H          -4.3972   55.1020   84.7659 H         1 NON         0.0564
    102 H          -4.2618   53.2999   86.4633 H         1 NON         0.0626
    103 H          -8.5162   54.0939   83.9570 H         1 NON         0.0564
    104 H          -8.3852   52.2711   85.6550 H         1 NON         0.0626
@<TRIPOS>BOND
     1    1    2 ar 
     2    1    3 ar 
     3    1    4 1  
     4   53    1 1  
     5    4    5 1  
     6    5    6 1  
     7    6    7 1  
     8    6    8 1  
     9    7   12 1  
    10    8    9 1  
    11    8   10 1  
    12   10   11 1  
    13   10   12 1  
    14   12   13 1  
    15   13   14 1  
    16   13   22 1  
    17   14   15 2  
    18   16   15 1  
    19   16   17 ar 
    20   22   16 ar 
    21   17   18 1  
    22   17   19 ar 
    23   20   19 ar 
    24   21   20 ar 
    25   22   21 ar 
    26   23   24 ar 
    27   40   23 ar 
    28   24   25 1  
    29   24   26 ar 
    30   27   26 ar 
    31   27   28 1  
    32   29   27 ar 
    33   29   30 1  
    34   40   29 ar 
    35   31   30 1  
    36   30   54 am 
    37   31   32 ar 
    38   38   31 ar 
    39   32   33 ar 
    40   33   34 1  
    41   35   33 ar 
    42   35   36 1  
    43   37   35 ar 
    44   38   37 ar 
    45   39   38 1  
    46   39   40 1  
    47   41   39 1  
    48   42   41 1  
    49   42   43 1  
    50   44   42 1  
    51   44   45 1  
    52   46   44 1  
    53   46   47 1  
    54   48   46 1  
    55   49   48 1  
    56   50   49 1  
    57   50   51 ar 
    58   50   52 ar 
    59   50   53 1  
    60   54   55 2  
    61   54   56 1  
    62   56   57 1  
    63   57   58 1  
    64   58   59 ar 
    65   58   61 ar 
    66   59   60 ar 
    67   60   63 ar 
    68   61   62 ar 
    69   62   63 ar 
    70   63   64 1  
    71    5   65 1  
    72    5   66 1  
    73    6   67 1  
    74    8   68 1  
    75    9   69 1  
    76   10   70 1  
    77   11   71 1  
    78   12   72 1  
    79   14   73 1  
    80   18   74 1  
    81   18   75 1  
    82   20   76 1  
    83   25   77 1  
    84   28   78 1  
    85   32   79 1  
    86   34   80 1  
    87   34   81 1  
    88   34   82 1  
    89   36   83 1  
    90   36   84 1  
    91   36   85 1  
    92   37   86 1  
    93   41   87 1  
    94   41   88 1  
    95   42   89 1  
    96   43   90 1  
    97   44   91 1  
    98   45   92 1  
    99   46   93 1  
   100   47   94 1  
   101   48   95 1  
   102   48   96 1  
   103   56   97 1  
   104   56   98 1  
   105   57   99 1  
   106   57  100 1  
   107   59  101 1  
   108   60  102 1  
   109   61  103 1  
   110   62  104 1  
@<TRIPOS>SUBSTRUCTURE
     1 NON         1

