3zpt_ligand
  -I-interpret- 

 99101  0  0  0  0  0  0  0  0999 V2000
   12.1620   24.1620    4.6500 C   0  0  0  0  0
   10.4320   25.4730    5.7020 N   0  0  0  0  0
   12.5310   25.4960    4.2410 O   0  0  0  0  0
   16.4530   16.4560   10.8180 Br  0  0  0  0  0
   11.1050   24.2620    5.5940 C   0  0  0  0  0
   15.4430   22.2920    7.2620 N   0  3  0  0  0
   10.6260   23.2790    6.1820 O   0  0  0  0  0
    9.2080   25.7140    6.5040 C   0  0  0  0  0
   15.9400   21.6950    6.2630 N   0  0  0  0  0
   14.1540   20.2630    6.0720 O   0  0  0  0  0
    9.5600   26.5670    7.7330 C   0  0  0  0  0
   16.8640   18.7970    5.6090 N   0  0  0  0  0
   18.9000   19.5270    5.0670 O   0  0  0  0  0
    8.2890   26.7530    8.5780 C   0  0  0  0  0
    7.0640   25.8640    5.3800 N   0  0  0  0  0
   18.6960   17.8850    6.5940 O   0  0  0  0  0
    8.5130   27.5510    5.2640 O   0  0  0  0  0
   13.4410   23.4880    5.2140 C   0  0  0  0  0
   13.8540   24.1050    6.5700 C   0  0  0  0  0
   15.3000   23.7260    6.9760 C   0  0  0  0  0
   16.3350   22.1120    8.4290 C   0  0  0  0  0
   16.3350   20.7900    8.9200 C   0  0  0  0  0
   15.2710   20.6510    5.7090 C   0  0  0  0  0
   16.1590   19.7910    4.7980 C   0  0  0  0  0
   15.4200   19.1040    3.6530 C   0  0  0  0  0
   16.4550   18.5440    2.6780 C   0  0  0  0  0
   14.5530   17.9440    4.1720 C   0  0  0  0  0
   14.5510   20.1170    2.9050 C   0  0  0  0  0
   18.1750   18.8290    5.7920 C   0  0  0  0  0
   20.1050   18.0290    6.7580 C   0  0  0  0  0
   15.1650   20.1910    9.3770 C   0  0  0  0  0
   15.1970   18.8850    9.8690 C   0  0  0  0  0
   16.4030   18.2090   10.0230 C   0  0  0  0  0
   17.5800   18.8340    9.6290 C   0  0  0  0  0
   17.5320   20.0990    9.0480 C   0  0  0  0  0
   11.6700   23.3700    3.4000 C   0  0  0  0  0
   10.3960   23.7750    2.9460 C   0  0  0  0  0
   10.2140   24.9960    2.2920 C   0  0  0  0  0
    8.9380   25.3990    1.8860 C   0  0  0  0  0
    7.8190   24.6120    2.1490 C   0  0  0  0  0
    8.0010   23.4080    2.8250 C   0  0  0  0  0
    9.2840   22.9660    3.1650 C   0  0  0  0  0
    6.5440   25.0400    1.7110 C   0  0  0  0  0
    5.5150   24.7900    2.6260 C   0  0  0  0  0
    8.2750   26.4330    5.7210 C   0  0  0  0  0
   10.6450   25.8930    8.5850 C   0  0  0  0  0
    5.3520   25.4650    3.8390 C   0  0  0  0  0
    6.1980   26.4560    4.3390 C   0  0  0  0  0
   10.8130   26.2651    5.1846 H   0  0  0  0  0
   11.7607   25.9450    3.8852 H   0  0  0  0  0
   14.5229   21.9000    7.4623 H   0  0  0  0  0
    8.7890   24.7576    6.8168 H   0  0  0  0  0
   16.8352   21.9953    5.8772 H   0  0  0  0  0
    9.9449   27.5298    7.3969 H   0  0  0  0  0
   16.3250   18.0516    6.0498 H   0  0  0  0  0
    7.5278   27.2556    7.9812 H   0  0  0  0  0
    7.9189   25.7779    8.8948 H   0  0  0  0  0
    8.5224   27.3569    9.4549 H   0  0  0  0  0
    6.7601   25.0155    5.8576 H   0  0  0  0  0
   14.2536   23.6394    4.5035 H   0  0  0  0  0
   13.2356   22.4282    5.3646 H   0  0  0  0  0
   13.1780   23.7219    7.3344 H   0  0  0  0  0
   13.8037   25.1898    6.4760 H   0  0  0  0  0
   15.9596   23.9716    6.1437 H   0  0  0  0  0
   15.5518   24.2776    7.8818 H   0  0  0  0  0
   15.9766   22.7635    9.2260 H   0  0  0  0  0
   17.3504   22.3497    8.1121 H   0  0  0  0  0
   16.8586   20.4765    4.3198 H   0  0  0  0  0
   17.0668   19.3592    2.2918 H   0  0  0  0  0
   17.0899   17.8259    3.1969 H   0  0  0  0  0
   15.9439   18.0489    1.8523 H   0  0  0  0  0
   15.1888   17.2105    4.6678 H   0  0  0  0  0
   13.8196   18.3290    4.8805 H   0  0  0  0  0
   14.0385   17.4735    3.3341 H   0  0  0  0  0
   13.8239   20.5482    3.5931 H   0  0  0  0  0
   15.1832   20.9073    2.5003 H   0  0  0  0  0
   14.0290   19.6147    2.0906 H   0  0  0  0  0
   20.5923   17.9525    5.7860 H   0  0  0  0  0
   20.3206   19.0025    7.1984 H   0  0  0  0  0
   20.4754   17.2417    7.4145 H   0  0  0  0  0
   14.2244   20.7411    9.3508 H   0  0  0  0  0
   14.2643   18.3882   10.1361 H   0  0  0  0  0
   18.5384   18.3355    9.7743 H   0  0  0  0  0
   18.4533   20.5557    8.6864 H   0  0  0  0  0
   11.5996   22.3197    3.6830 H   0  0  0  0  0
   12.3801   23.5540    2.5938 H   0  0  0  0  0
   11.0724   25.6388    2.0969 H   0  0  0  0  0
    8.8171   26.3435    1.3555 H   0  0  0  0  0
    7.1342   22.8034    3.0921 H   0  0  0  0  0
    9.4146   21.9778    3.6060 H   0  0  0  0  0
    6.3109   24.4850    0.8023 H   0  0  0  0  0
    6.5960   26.1195    1.5695 H   0  0  0  0  0
    4.7905   24.0152    2.3753 H   0  0  0  0  0
   10.2861   24.9220    8.9263 H   0  0  0  0  0
   11.5451   25.7587    7.9850 H   0  0  0  0  0
   10.8714   26.5214    9.4464 H   0  0  0  0  0
    4.4892   25.1939    4.4473 H   0  0  0  0  0
    6.8120   26.8580    3.5331 H   0  0  0  0  0
    5.6060   27.2646    4.7676 H   0  0  0  0  0
  1  3  1  0  0  0
  1  5  1  0  0  0
 18  1  1  0  0  0
  1 36  1  0  0  0
  5  2  1  0  0  0
  2  8  1  0  0  0
 33  4  1  0  0  0
  5  7  2  0  0  0
  6  9  1  0  0  0
  6 20  1  0  0  0
 21  6  1  0  0  0
  8 11  1  0  0  0
  8 45  1  0  0  0
  9 23  1  0  0  0
 23 10  2  0  0  0
 11 14  1  0  0  0
 11 46  1  0  0  0
 24 12  1  0  0  0
 12 29  1  0  0  0
 29 13  2  0  0  0
 45 15  1  0  0  0
 15 48  1  0  0  0
 29 16  1  0  0  0
 16 30  1  0  0  0
 45 17  2  0  0  0
 19 18  1  0  0  0
 20 19  1  0  0  0
 22 21  1  0  0  0
 31 22  4  0  0  0
 22 35  4  0  0  0
 23 24  1  0  0  0
 24 25  1  0  0  0
 25 26  1  0  0  0
 25 27  1  0  0  0
 25 28  1  0  0  0
 32 31  4  0  0  0
 32 33  4  0  0  0
 33 34  4  0  0  0
 34 35  4  0  0  0
 36 37  1  0  0  0
 37 38  4  0  0  0
 37 42  4  0  0  0
 38 39  4  0  0  0
 39 40  4  0  0  0
 40 41  4  0  0  0
 40 43  1  0  0  0
 41 42  4  0  0  0
 43 44  1  0  0  0
 44 47  2  0  0  0
 47 48  1  0  0  0
  2 49  1  0  0  0
  3 50  1  0  0  0
  6 51  1  0  0  0
  8 52  1  0  0  0
  9 53  1  0  0  0
 11 54  1  0  0  0
 12 55  1  0  0  0
 14 56  1  0  0  0
 14 57  1  0  0  0
 14 58  1  0  0  0
 15 59  1  0  0  0
 18 60  1  0  0  0
 18 61  1  0  0  0
 19 62  1  0  0  0
 19 63  1  0  0  0
 20 64  1  0  0  0
 20 65  1  0  0  0
 21 66  1  0  0  0
 21 67  1  0  0  0
 24 68  1  0  0  0
 26 69  1  0  0  0
 26 70  1  0  0  0
 26 71  1  0  0  0
 27 72  1  0  0  0
 27 73  1  0  0  0
 27 74  1  0  0  0
 28 75  1  0  0  0
 28 76  1  0  0  0
 28 77  1  0  0  0
 30 78  1  0  0  0
 30 79  1  0  0  0
 30 80  1  0  0  0
 31 81  1  0  0  0
 32 82  1  0  0  0
 34 83  1  0  0  0
 35 84  1  0  0  0
 36 85  1  0  0  0
 36 86  1  0  0  0
 38 87  1  0  0  0
 39 88  1  0  0  0
 41 89  1  0  0  0
 42 90  1  0  0  0
 43 91  1  0  0  0
 43 92  1  0  0  0
 44 93  1  0  0  0
 46 94  1  0  0  0
 46 95  1  0  0  0
 46 96  1  0  0  0
 47 97  1  0  0  0
 48 98  1  0  0  0
 48 99  1  0  0  0
M  END
$$$$
