### 
### Created by X-TOOL on Wed Jan  1 15:39:35 2020
### 

@<TRIPOS>MOLECULE
5y1u_ligand
  114   113     1     0     0
SMALL
GAST_HUCK


@<TRIPOS>ATOM
      1 N         177.4700   -8.9060  143.1220 N.4       1 LYS         0.2379
      2 CA        176.9420   -8.8480  141.7580 C.3       1 LYS         0.0650
      3 C         178.0560   -8.8920  140.6810 C.2       1 LYS         0.2267
      4 O         178.9900   -8.0850  140.7180 O.2       1 LYS        -0.3907
      5 CB        176.0870   -7.5840  141.6040 C.3       1 LYS         0.0080
      6 CG        175.2570   -7.4900  140.3220 C.3       1 LYS        -0.0410
      7 CD        174.4220   -6.2110  140.3230 C.3       1 LYS        -0.0123
      8 CE        173.5040   -6.1200  139.1120 C.3       1 LYS        -0.0354
      9 NZ        172.4440   -5.0840  139.3110 N.4       1 LYS         0.2185
     10 N         177.9490   -9.8550  139.7550 N.am      1 ARG        -0.2610
     11 CA        178.7900   -9.9010  138.5570 C.3       1 ARG         0.1312
     12 C         178.6450   -8.6280  137.7350 C.2       1 ARG         0.2039
     13 O         177.5690   -8.0300  137.6540 O.2       1 ARG        -0.3944
     14 CB        178.4050  -11.0700  137.6400 C.3       1 ARG        -0.0092
     15 CG        179.1030  -12.4070  137.8340 C.3       1 ARG        -0.0156
     16 CD        178.1140  -13.3760  138.4480 C.3       1 ARG         0.0627
     17 NE        178.6090  -14.7460  138.5210 N.pl3     1 ARG        -0.2723
     18 CZ        178.1710  -15.6350  139.4070 C.cat     1 ARG         0.2882
     19 NH1       177.2420  -15.2780  140.2830 N.pl3     1 ARG        -0.2849
     20 NH2       178.6610  -16.8690  139.4250 N.pl3     1 ARG        -0.2849
     21 N         179.7320   -8.2400  137.0830 N.am      1 ARG        -0.2637
     22 CA        179.6770   -7.2660  136.0040 C.3       1 ARG         0.1311
     23 C         180.3130   -7.8640  134.7530 C.2       1 ARG         0.2039
     24 O         181.3920   -8.4640  134.8170 O.2       1 ARG        -0.3944
     25 CB        180.3740   -5.9670  136.3890 C.3       1 ARG        -0.0092
     26 CG        179.6150   -5.1400  137.4060 C.3       1 ARG        -0.0156
     27 CD        180.4190   -3.8980  137.7750 C.3       1 ARG         0.0627
     28 NE        179.7660   -3.0870  138.8070 N.pl3     1 ARG        -0.2723
     29 CZ        180.3150   -2.0110  139.3700 C.cat     1 ARG         0.2882
     30 NH1       181.5290   -1.6190  139.0030 N.pl3     1 ARG        -0.2849
     31 NH2       179.6560   -1.3270  140.3010 N.pl3     1 ARG        -0.2849
     32 N         179.6280   -7.7240  133.6210 N.am      1 LYS        -0.2637
     33 CA        180.1430   -8.2040  132.3470 C.3       1 LYS         0.1309
     34 C         180.9840   -7.1150  131.6920 C.2       1 LYS         0.2033
     35 O         180.6730   -5.9260  131.8160 O.2       1 LYS        -0.3944
     36 CB        178.9930   -8.6360  131.4350 C.3       1 LYS        -0.0122
     37 CG        178.3310   -9.9390  131.8660 C.3       1 LYS        -0.0440
     38 CD        177.1150  -10.2740  131.0260 C.3       1 LYS        -0.0124
     39 CE        175.8390   -9.7290  131.6320 C.3       1 LYS        -0.0354
     40 NZ        174.6360  -10.4520  131.1100 N.4       1 LYS         0.2185
     41 N         182.0490   -7.5380  131.0010 N.am      1 LEU        -0.2695
     42 CA        183.1100   -6.6620  130.4740 C.3       1 LEU         0.0946
     43 C         183.9620   -6.1190  131.6200 C.2       1 LEU         0.0601
     44 O         183.4990   -5.3110  132.4310 O.co2     1 LEU        -0.5666
     45 CB        182.5490   -5.4930  129.6450 C.3       1 LEU        -0.0156
     46 CG        182.0850   -5.6660  128.1990 C.3       1 LEU        -0.0431
     47 CD1       181.0260   -6.7320  128.0780 C.3       1 LEU        -0.0625
     48 CD2       181.5650   -4.3400  127.6640 C.3       1 LEU        -0.0625
     49 OXT       185.1360   -6.4740  131.7650 O.co2     1 LEU        -0.5666
     50 H1        176.7066   -8.8742  143.7794 H         1 LYS         0.2015
     51 H2        178.0817   -8.1204  143.2792 H         1 LYS         0.2015
     52 H3        177.9853   -9.7633  143.2467 H         1 LYS         0.2015
     53 H4        176.2957   -9.7250  141.6061 H         1 LYS         0.1098
     54 H5        176.7614   -6.7155  141.6331 H         1 LYS         0.0346
     55 H6        175.3946   -7.5395  142.4576 H         1 LYS         0.0346
     56 H7        174.5873   -8.3603  140.2588 H         1 LYS         0.0270
     57 H8        175.9313   -7.4823  139.4530 H         1 LYS         0.0270
     58 H9        175.1007   -5.3453  140.3183 H         1 LYS         0.0317
     59 H10       173.8075   -6.1903  141.2351 H         1 LYS         0.0317
     60 H11       173.0246   -7.0969  138.9514 H         1 LYS         0.0813
     61 H12       174.1023   -5.8553  138.2277 H         1 LYS         0.0813
     62 H13       171.8532   -5.0467  138.4951 H         1 LYS         0.1994
     63 H14       172.8759   -4.1846  139.4544 H         1 LYS         0.1994
     64 H15       171.8883   -5.3224  140.1175 H         1 LYS         0.1994
     65 H16       177.2656  -10.5729  139.8878 H         1 ARG         0.1884
     66 H17       179.8379  -10.0155  138.8713 H         1 ARG         0.0800
     67 H18       178.6003  -10.7492  136.6061 H         1 ARG         0.0313
     68 H19       177.3271  -11.2447  137.7723 H         1 ARG         0.0313
     69 H20       179.9661  -12.2820  138.5044 H         1 ARG         0.0301
     70 H21       179.4461  -12.7918  136.8623 H         1 ARG         0.0301
     71 H22       177.1972  -13.3693  137.8403 H         1 ARG         0.0689
     72 H23       177.8806  -13.0356  139.4676 H         1 ARG         0.0689
     73 H24       179.3350  -15.0397  137.8519 H         1 ARG         0.2642
     74 H25       176.8962  -15.9596  140.9735 H         1 ARG         0.2615
     75 H26       176.8661  -14.3191  140.2731 H         1 ARG         0.2615
     76 H27       179.3827  -17.1465  138.7445 H         1 ARG         0.2615
     77 H28       178.3194  -17.5487  140.1194 H         1 ARG         0.2615
     78 H29       180.6166   -8.6287  137.3407 H         1 ARG         0.1883
     79 H30       178.6218   -7.0408  135.7901 H         1 ARG         0.0800
     80 H31       180.5055   -5.3621  135.4798 H         1 ARG         0.0313
     81 H32       181.3594   -6.2146  136.8104 H         1 ARG         0.0313
     82 H33       179.4419   -5.7432  138.3094 H         1 ARG         0.0301
     83 H34       178.6487   -4.8343  136.9784 H         1 ARG         0.0301
     84 H35       180.5486   -3.2819  136.8730 H         1 ARG         0.0689
     85 H36       181.4044   -4.2145  138.1475 H         1 ARG         0.0689
     86 H37       178.8240   -3.3662  139.1163 H         1 ARG         0.2642
     87 H38       181.9549   -0.7877  139.4370 H         1 ARG         0.2615
     88 H39       182.0451   -2.1462  138.2842 H         1 ARG         0.2615
     89 H40       178.7137   -1.6265  140.5898 H         1 ARG         0.2615
     90 H41       180.0879   -0.4978  140.7332 H         1 ARG         0.2615
     91 H42       178.7341   -7.2764  133.6462 H         1 LYS         0.1883
     92 H43       180.7851   -9.0775  132.5330 H         1 LYS         0.0800
     93 H44       179.3868   -8.7661  130.4162 H         1 LYS         0.0312
     94 H45       178.2316   -7.8422  131.4352 H         1 LYS         0.0312
     95 H46       178.0198   -9.8465  132.9170 H         1 LYS         0.0269
     96 H47       179.0621  -10.7553  131.7705 H         1 LYS         0.0269
     97 H48       177.0303  -11.3677  130.9442 H         1 LYS         0.0317
     98 H49       177.2454   -9.8403  130.0236 H         1 LYS         0.0317
     99 H50       175.7514   -8.6613  131.3824 H         1 LYS         0.0813
    100 H51       175.8821   -9.8478  132.7247 H         1 LYS         0.0813
    101 H52       173.8044  -10.0678  131.5306 H         1 LYS         0.1994
    102 H53       174.7067  -11.4311  131.3391 H         1 LYS         0.1994
    103 H54       174.5870  -10.3438  130.1090 H         1 LYS         0.1994
    104 H55       182.1307   -8.5199  130.8299 H         1 LEU         0.1875
    105 H56       183.7532   -7.2665  129.8176 H         1 LEU         0.0726
    106 H57       183.3372   -4.7260  129.6242 H         1 LEU         0.0308
    107 H58       181.6806   -5.1114  130.2019 H         1 LEU         0.0308
    108 H59       182.9505   -5.9723  127.5932 H         1 LEU         0.0297
    109 H60       180.7191   -6.8262  127.0259 H         1 LEU         0.0232
    110 H61       180.1553   -6.4551  128.6905 H         1 LEU         0.0232
    111 H62       181.4308   -7.6926  128.4292 H         1 LEU         0.0232
    112 H63       182.3484   -3.5737  127.7592 H         1 LEU         0.0232
    113 H64       180.6801   -4.0334  128.2411 H         1 LEU         0.0232
    114 H65       181.2906   -4.4542  126.6049 H         1 LEU         0.0232
@<TRIPOS>BOND
     1    1    2 1  
     2    2    3 1  
     3    2    5 1  
     4    3    4 2  
     5    3   10 am 
     6    5    6 1  
     7    6    7 1  
     8    7    8 1  
     9    8    9 1  
    10   10   11 1  
    11   11   12 1  
    12   11   14 1  
    13   12   13 2  
    14   12   21 am 
    15   14   15 1  
    16   15   16 1  
    17   16   17 1  
    18   17   18 ar 
    19   18   19 ar 
    20   18   20 ar 
    21   21   22 1  
    22   22   23 1  
    23   22   25 1  
    24   23   24 2  
    25   23   32 am 
    26   25   26 1  
    27   26   27 1  
    28   27   28 1  
    29   28   29 ar 
    30   29   30 ar 
    31   29   31 ar 
    32   32   33 1  
    33   33   34 1  
    34   33   36 1  
    35   34   35 2  
    36   34   41 am 
    37   36   37 1  
    38   37   38 1  
    39   38   39 1  
    40   39   40 1  
    41   41   42 1  
    42   42   43 1  
    43   42   45 1  
    44   43   44 ar 
    45   43   49 ar 
    46   45   46 1  
    47   46   47 1  
    48   46   48 1  
    49    1   50 1  
    50    1   51 1  
    51    1   52 1  
    52    2   53 1  
    53    5   54 1  
    54    5   55 1  
    55    6   56 1  
    56    6   57 1  
    57    7   58 1  
    58    7   59 1  
    59    8   60 1  
    60    8   61 1  
    61    9   62 1  
    62    9   63 1  
    63    9   64 1  
    64   10   65 1  
    65   11   66 1  
    66   14   67 1  
    67   14   68 1  
    68   15   69 1  
    69   15   70 1  
    70   16   71 1  
    71   16   72 1  
    72   17   73 1  
    73   19   74 1  
    74   19   75 1  
    75   20   76 1  
    76   20   77 1  
    77   21   78 1  
    78   22   79 1  
    79   25   80 1  
    80   25   81 1  
    81   26   82 1  
    82   26   83 1  
    83   27   84 1  
    84   27   85 1  
    85   28   86 1  
    86   30   87 1  
    87   30   88 1  
    88   31   89 1  
    89   31   90 1  
    90   32   91 1  
    91   33   92 1  
    92   36   93 1  
    93   36   94 1  
    94   37   95 1  
    95   37   96 1  
    96   38   97 1  
    97   38   98 1  
    98   39   99 1  
    99   39  100 1  
   100   40  101 1  
   101   40  102 1  
   102   40  103 1  
   103   41  104 1  
   104   42  105 1  
   105   45  106 1  
   106   45  107 1  
   107   46  108 1  
   108   47  109 1  
   109   47  110 1  
   110   47  111 1  
   111   48  112 1  
   112   48  113 1  
   113   48  114 1  
@<TRIPOS>SUBSTRUCTURE
     1 LYS         1

