5y1u_ligand
  -I-interpret- 

113112  0  0  0  0  0  0  0  0999 V2000
  177.4700   -8.9060  143.1220 N   0  3  0  0  0
  176.9420   -8.8480  141.7580 C   0  0  0  0  0
  178.0560   -8.8920  140.6810 C   0  0  0  0  0
  178.9900   -8.0850  140.7180 O   0  0  0  0  0
  176.0870   -7.5840  141.6040 C   0  0  0  0  0
  175.2570   -7.4900  140.3220 C   0  0  0  0  0
  174.4220   -6.2110  140.3230 C   0  0  0  0  0
  173.5040   -6.1200  139.1120 C   0  0  0  0  0
  172.4440   -5.0840  139.3110 N   0  3  0  0  0
  177.9490   -9.8550  139.7550 N   0  0  0  0  0
  178.7900   -9.9010  138.5570 C   0  0  0  0  0
  178.6450   -8.6280  137.7350 C   0  0  0  0  0
  177.5690   -8.0300  137.6540 O   0  0  0  0  0
  178.4050  -11.0700  137.6400 C   0  0  0  0  0
  179.1030  -12.4070  137.8340 C   0  0  0  0  0
  178.1140  -13.3760  138.4480 C   0  0  0  0  0
  178.6090  -14.7460  138.5210 N   0  0  0  0  0
  178.1710  -15.6350  139.4070 C   0  0  0  0  0
  177.2420  -15.2780  140.2830 N   0  0  0  0  0
  178.6610  -16.8690  139.4250 N   0  0  0  0  0
  179.7320   -8.2400  137.0830 N   0  0  0  0  0
  179.6770   -7.2660  136.0040 C   0  0  0  0  0
  180.3130   -7.8640  134.7530 C   0  0  0  0  0
  181.3920   -8.4640  134.8170 O   0  0  0  0  0
  180.3740   -5.9670  136.3890 C   0  0  0  0  0
  179.6150   -5.1400  137.4060 C   0  0  0  0  0
  180.4190   -3.8980  137.7750 C   0  0  0  0  0
  179.7660   -3.0870  138.8070 N   0  0  0  0  0
  180.3150   -2.0110  139.3700 C   0  0  0  0  0
  181.5290   -1.6190  139.0030 N   0  0  0  0  0
  179.6560   -1.3270  140.3010 N   0  0  0  0  0
  179.6280   -7.7240  133.6210 N   0  0  0  0  0
  180.1430   -8.2040  132.3470 C   0  0  0  0  0
  180.9840   -7.1150  131.6920 C   0  0  0  0  0
  180.6730   -5.9260  131.8160 O   0  0  0  0  0
  178.9930   -8.6360  131.4350 C   0  0  0  0  0
  178.3310   -9.9390  131.8660 C   0  0  0  0  0
  177.1150  -10.2740  131.0260 C   0  0  0  0  0
  175.8390   -9.7290  131.6320 C   0  0  0  0  0
  174.6360  -10.4520  131.1100 N   0  3  0  0  0
  182.0490   -7.5380  131.0010 N   0  0  0  0  0
  183.1100   -6.6620  130.4740 C   0  0  0  0  0
  183.9620   -6.1190  131.6200 C   0  0  0  0  0
  183.4990   -5.3110  132.4310 O   0  0  0  0  0
  182.5490   -5.4930  129.6450 C   0  0  0  0  0
  182.0850   -5.6660  128.1990 C   0  0  0  0  0
  181.0260   -6.7320  128.0780 C   0  0  0  0  0
  181.5650   -4.3400  127.6640 C   0  0  0  0  0
  185.1360   -6.4740  131.7650 O   0  0  0  0  0
  178.0396   -9.7453  143.2294 H   0  0  0  0  0
  178.0422   -8.0804  143.2992 H   0  0  0  0  0
  176.6949   -8.9326  143.7845 H   0  0  0  0  0
  176.3295   -9.7353  141.5977 H   0  0  0  0  0
  176.7818   -6.7445  141.5818 H   0  0  0  0  0
  175.3758   -7.5922  142.4300 H   0  0  0  0  0
  174.5899   -8.3502  140.2663 H   0  0  0  0  0
  175.9287   -7.4755  139.4637 H   0  0  0  0  0
  175.1043   -5.3614  140.2949 H   0  0  0  0  0
  173.8011   -6.2130  141.2189 H   0  0  0  0  0
  173.0218   -7.0869  138.9684 H   0  0  0  0  0
  174.1015   -5.8430  138.2435 H   0  0  0  0  0
  171.8469   -5.0472  138.4849 H   0  0  0  0  0
  171.8825   -5.3263  140.1273 H   0  0  0  0  0
  172.8822   -4.1744  139.4560 H   0  0  0  0  0
  177.2519  -10.5872  139.8905 H   0  0  0  0  0
  179.8137  -10.0189  138.9123 H   0  0  0  0  0
  178.6824  -10.7474  136.6364 H   0  0  0  0  0
  177.3539  -11.2644  137.8533 H   0  0  0  0  0
  179.9648  -12.2867  138.4904 H   0  0  0  0  0
  179.4532  -12.7883  136.8748 H   0  0  0  0  0
  177.2262  -13.3821  137.8156 H   0  0  0  0  0
  177.9201  -13.0434  139.4677 H   0  0  0  0  0
  179.3279  -15.0368  137.8584 H   0  0  0  0  0
  176.8698  -14.3284  140.2732 H   0  0  0  0  0
  178.3227  -17.5421  140.1127 H   0  0  0  0  0
  179.3757  -17.1438  138.7511 H   0  0  0  0  0
  180.6343   -8.6364  137.3459 H   0  0  0  0  0
  178.6325   -7.0267  135.8043 H   0  0  0  0  0
  180.4619   -5.3662  135.4838 H   0  0  0  0  0
  181.3309   -6.2337  136.8378 H   0  0  0  0  0
  179.4489   -5.7383  138.3019 H   0  0  0  0  0
  178.6602   -4.8344  136.9782 H   0  0  0  0  0
  180.5168   -3.2844  136.8794 H   0  0  0  0  0
  181.3815   -4.2267  138.1670 H   0  0  0  0  0
  178.8332   -3.3635  139.1133 H   0  0  0  0  0
  182.0401   -2.1411  138.2912 H   0  0  0  0  0
  180.0837   -0.5059  140.7290 H   0  0  0  0  0
  178.7229   -1.6236  140.5870 H   0  0  0  0  0
  178.7163   -7.2674  133.6467 H   0  0  0  0  0
  180.7756   -9.0748  132.5192 H   0  0  0  0  0
  179.4065   -8.7928  130.4387 H   0  0  0  0  0
  178.2338   -7.8548  131.4732 H   0  0  0  0  0
  178.0060   -9.8264  132.9003 H   0  0  0  0  0
  179.0571  -10.7428  131.7442 H   0  0  0  0  0
  177.0287  -11.3591  130.9689 H   0  0  0  0  0
  177.2452   -9.8222  130.0426 H   0  0  0  0  0
  175.7520   -8.6751  131.3675 H   0  0  0  0  0
  175.8830   -9.8642  132.7127 H   0  0  0  0  0
  173.7952  -10.0624  131.5362 H   0  0  0  0  0
  174.5875  -10.3418  130.0971 H   0  0  0  0  0
  174.7088  -11.4425  131.3423 H   0  0  0  0  0
  182.1323   -8.5395  130.8265 H   0  0  0  0  0
  183.7249   -7.2693  129.8098 H   0  0  0  0  0
  183.3963   -4.8125  129.5600 H   0  0  0  0  0
  181.6353   -5.2221  130.1741 H   0  0  0  0  0
  182.9408   -5.9867  127.6049 H   0  0  0  0  0
  181.4283   -7.6832  128.4264 H   0  0  0  0  0
  180.1638   -6.4564  128.6853 H   0  0  0  0  0
  180.7228   -6.8244  127.0351 H   0  0  0  0  0
  180.7264   -4.0068  128.2754 H   0  0  0  0  0
  182.3616   -3.5970  127.7016 H   0  0  0  0  0
  181.2358   -4.4696  126.6330 H   0  0  0  0  0
  185.3681   -7.0982  131.0736 H   0  0  0  0  0
  1  2  1  0  0  0
  2  3  1  0  0  0
  2  5  1  0  0  0
  3  4  2  0  0  0
  3 10  1  0  0  0
  5  6  1  0  0  0
  6  7  1  0  0  0
  7  8  1  0  0  0
  8  9  1  0  0  0
 10 11  1  0  0  0
 11 12  1  0  0  0
 11 14  1  0  0  0
 12 13  2  0  0  0
 12 21  1  0  0  0
 14 15  1  0  0  0
 15 16  1  0  0  0
 16 17  1  0  0  0
 17 18  1  0  0  0
 18 19  2  0  0  0
 18 20  1  0  0  0
 21 22  1  0  0  0
 22 23  1  0  0  0
 22 25  1  0  0  0
 23 24  2  0  0  0
 23 32  1  0  0  0
 25 26  1  0  0  0
 26 27  1  0  0  0
 27 28  1  0  0  0
 28 29  1  0  0  0
 29 30  2  0  0  0
 29 31  1  0  0  0
 32 33  1  0  0  0
 33 34  1  0  0  0
 33 36  1  0  0  0
 34 35  2  0  0  0
 34 41  1  0  0  0
 36 37  1  0  0  0
 37 38  1  0  0  0
 38 39  1  0  0  0
 39 40  1  0  0  0
 41 42  1  0  0  0
 42 43  1  0  0  0
 42 45  1  0  0  0
 43 44  2  0  0  0
 43 49  1  0  0  0
 45 46  1  0  0  0
 46 47  1  0  0  0
 46 48  1  0  0  0
  1 50  1  0  0  0
  1 51  1  0  0  0
  1 52  1  0  0  0
  2 53  1  0  0  0
  5 54  1  0  0  0
  5 55  1  0  0  0
  6 56  1  0  0  0
  6 57  1  0  0  0
  7 58  1  0  0  0
  7 59  1  0  0  0
  8 60  1  0  0  0
  8 61  1  0  0  0
  9 62  1  0  0  0
  9 63  1  0  0  0
  9 64  1  0  0  0
 10 65  1  0  0  0
 11 66  1  0  0  0
 14 67  1  0  0  0
 14 68  1  0  0  0
 15 69  1  0  0  0
 15 70  1  0  0  0
 16 71  1  0  0  0
 16 72  1  0  0  0
 17 73  1  0  0  0
 19 74  1  0  0  0
 20 75  1  0  0  0
 20 76  1  0  0  0
 21 77  1  0  0  0
 22 78  1  0  0  0
 25 79  1  0  0  0
 25 80  1  0  0  0
 26 81  1  0  0  0
 26 82  1  0  0  0
 27 83  1  0  0  0
 27 84  1  0  0  0
 28 85  1  0  0  0
 30 86  1  0  0  0
 31 87  1  0  0  0
 31 88  1  0  0  0
 32 89  1  0  0  0
 33 90  1  0  0  0
 36 91  1  0  0  0
 36 92  1  0  0  0
 37 93  1  0  0  0
 37 94  1  0  0  0
 38 95  1  0  0  0
 38 96  1  0  0  0
 39 97  1  0  0  0
 39 98  1  0  0  0
 40 99  1  0  0  0
 40100  1  0  0  0
 40101  1  0  0  0
 41102  1  0  0  0
 42103  1  0  0  0
 45104  1  0  0  0
 45105  1  0  0  0
 46106  1  0  0  0
 47107  1  0  0  0
 47108  1  0  0  0
 47109  1  0  0  0
 48110  1  0  0  0
 48111  1  0  0  0
 48112  1  0  0  0
 49113  1  0  0  0
M  END
$$$$
