4r59_ligand
  -I-interpret- 

 47 48  0  0  0  0  0  0  0  0999 V2000
   -1.9580    7.3500   82.0560 O   0  0  0  0  0
   -1.4160    8.6970   81.9830 C   0  0  0  0  0
   -0.9330    9.1690   80.7160 C   0  0  0  0  0
   -2.0420    9.6090   79.9230 O   0  0  0  0  0
    0.0690   10.2700   80.6640 C   0  0  0  0  0
   -0.3040   11.4020   79.9550 O   0  0  0  0  0
    0.9750   10.5010   81.8920 C   0  0  0  0  0
    1.2860   11.7760   82.3430 C   0  0  0  0  0
    2.4260   11.3750   83.0700 O   0  0  0  0  0
    0.7080    9.6530   83.0900 O   0  0  0  0  0
   -0.5520    8.9760   83.1280 C   0  0  0  0  0
   -0.3490    7.6330   84.1870 S   0  0  0  0  0
   -1.3240    8.2220   85.1070 O   0  0  0  0  0
    0.9470    7.7120   84.7580 O   0  0  0  0  0
   -0.7630    6.2740   83.9150 N   0  0  0  0  0
   -2.0260    5.7680   84.3150 C   0  0  0  0  0
   -2.1170    4.4860   85.1410 C   0  0  0  0  0
    0.2530    5.2950   83.7720 C   0  0  0  0  0
    0.1900    4.0330   84.5930 C   0  0  0  0  0
   -0.8950    3.9640   85.5120 C   0  0  0  0  0
   -0.7830    2.6580   86.2400 O   0  0  0  0  0
   -1.5740    1.5650   86.7070 S   0  0  0  0  0
   -1.5210    1.4330   87.9430 O   0  0  0  0  0
   -2.8940    1.7080   86.3350 O   0  0  0  0  0
   -1.0660    0.3630   86.0300 N   0  0  0  0  0
   -2.5208    7.1911   81.2947 H   0  0  0  0  0
   -2.2928    9.3400   82.0600 H   0  0  0  0  0
   -0.3970    8.2907   80.3561 H   0  0  0  0  0
   -2.7222    8.9316   79.9224 H   0  0  0  0  0
    0.8006    9.8021   80.0053 H   0  0  0  0  0
   -0.8623   11.1465   79.2170 H   0  0  0  0  0
    1.8610   10.1729   81.3485 H   0  0  0  0  0
    0.5109   12.3129   82.8898 H   0  0  0  0  0
    1.4243   12.5504   81.5885 H   0  0  0  0  0
    2.8232   12.1421   83.4888 H   0  0  0  0  0
   -1.2125    9.7831   83.4447 H   0  0  0  0  0
   -2.5269    5.5218   83.3787 H   0  0  0  0  0
   -2.4310    6.5399   84.9694 H   0  0  0  0  0
   -2.6110    3.7382   84.5206 H   0  0  0  0  0
   -2.6534    4.7315   86.0576 H   0  0  0  0  0
    1.1649    5.7933   84.1010 H   0  0  0  0  0
    0.1676    4.9571   82.7392 H   0  0  0  0  0
    1.1049    3.9973   85.1844 H   0  0  0  0  0
    0.0603    3.2086   83.8918 H   0  0  0  0  0
   -0.8090    4.7456   86.2668 H   0  0  0  0  0
   -0.7332   -0.4295   86.5792 H   0  0  0  0  0
   -1.0463    0.3215   85.0110 H   0  0  0  0  0
  1  2  1  0  0  0
  2  3  1  0  0  0
  2 11  1  0  0  0
  3  4  1  0  0  0
  3  5  1  0  0  0
  5  6  1  0  0  0
  5  7  1  0  0  0
  7  8  1  0  0  0
  7 10  1  0  0  0
  8  9  1  0  0  0
 10 11  1  0  0  0
 11 12  1  0  0  0
 12 13  2  0  0  0
 12 14  2  0  0  0
 12 15  1  0  0  0
 15 16  1  0  0  0
 15 18  1  0  0  0
 16 17  1  0  0  0
 17 20  1  0  0  0
 18 19  1  0  0  0
 19 20  1  0  0  0
 20 21  1  0  0  0
 21 22  1  0  0  0
 22 23  2  0  0  0
 22 24  2  0  0  0
 22 25  1  0  0  0
  1 26  1  0  0  0
  2 27  1  0  0  0
  3 28  1  0  0  0
  4 29  1  0  0  0
  5 30  1  0  0  0
  6 31  1  0  0  0
  7 32  1  0  0  0
  8 33  1  0  0  0
  8 34  1  0  0  0
  9 35  1  0  0  0
 11 36  1  0  0  0
 16 37  1  0  0  0
 16 38  1  0  0  0
 17 39  1  0  0  0
 17 40  1  0  0  0
 18 41  1  0  0  0
 18 42  1  0  0  0
 19 43  1  0  0  0
 19 44  1  0  0  0
 20 45  1  0  0  0
 25 46  1  0  0  0
 25 47  1  0  0  0
M  END
$$$$
