2osf_ligand
  -I-interpret- 

 15 15  0  0  0  0  0  0  0  0999 V2000
   -6.4720    3.1380   16.2150 C   0  0  0  0  0
   -6.2820    1.8150   16.6210 C   0  0  0  0  0
   -6.7820    1.1950   17.7190 O   0  0  0  0  0
   -5.3800   -0.6500   16.5780 S   0  0  0  0  0
   -5.4910    0.9580   15.8660 C   0  0  0  0  0
   -4.8810    1.4270   14.6940 C   0  0  0  0  0
   -5.0820    2.7420   14.2840 C   0  0  0  0  0
   -5.8730    3.5950   15.0380 C   0  0  0  0  0
   -6.0240    4.8970   14.6700 O   0  0  0  0  0
   -7.0851    3.8114   16.8140 H   0  0  0  0  0
   -6.4805    0.2837   17.7357 H   0  0  0  0  0
   -4.6127   -1.4203   15.8120 H   0  0  0  0  0
   -4.2497    0.7623   14.1042 H   0  0  0  0  0
   -4.6158    3.1022   13.3669 H   0  0  0  0  0
   -5.5564    5.0517   13.8460 H   0  0  0  0  0
  1  2  4  0  0  0
  1  8  4  0  0  0
  2  3  1  0  0  0
  2  5  4  0  0  0
  5  4  1  0  0  0
  5  6  4  0  0  0
  6  7  4  0  0  0
  7  8  4  0  0  0
  8  9  1  0  0  0
  1 10  1  0  0  0
  3 11  1  0  0  0
  4 12  1  0  0  0
  6 13  1  0  0  0
  7 14  1  0  0  0
  9 15  1  0  0  0
M  END
$$$$
