6pf3_ligand
  -I-interpret- 

 45 48  0  0  0  0  0  0  0  0999 V2000
   -3.4010   10.2510   22.5170 N   0  0  0  0  0
   -3.0270    9.3190   23.4730 C   0  0  0  0  0
   -6.1580    8.3920   24.9040 O   0  0  0  0  0
   -5.6420    9.8460   23.2650 N   0  0  0  0  0
   -3.8670    8.6440   24.3190 C   0  0  0  0  0
   -7.5070    1.7780   25.0950 O   0  0  0  0  0
   -1.7420    8.9140   23.7380 N   0  0  0  0  0
   -5.3130    8.9360   24.2000 C   0  0  0  0  0
   -4.4560    1.8500   21.1310 O   0  0  0  0  0
   -5.2730   11.3620   21.5760 N   0  0  0  0  0
   -4.6840   10.4750   22.4530 C   0  0  0  0  0
   -3.5680   -0.2040   20.6920 O   0  0  0  0  0
   -3.0650    7.7780   25.1350 C   0  0  0  0  0
   -6.1070    1.5850   23.2890 N   0  0  0  0  0
   -1.7590    7.9760   24.7500 C   0  0  0  0  0
   -6.0100    3.9390   26.1340 C   0  0  0  0  0
   -5.7650    3.3650   24.8660 C   0  0  0  0  0
   -4.7830    3.9430   24.0300 C   0  0  0  0  0
   -4.0550    5.0710   24.4580 C   0  0  0  0  0
   -6.5520    2.1660   24.4190 C   0  0  0  0  0
   -6.6010    0.4480   22.5800 C   0  0  0  0  0
   -7.8400   -0.1540   22.9210 C   0  0  0  0  0
   -8.3220   -1.2700   22.2200 C   0  0  0  0  0
   -7.5760   -1.8030   21.1590 C   0  0  0  0  0
   -6.3470   -1.2200   20.8020 C   0  0  0  0  0
   -5.8420   -0.0940   21.4980 C   0  0  0  0  0
   -4.5160    0.4880   21.0660 C   0  0  0  0  0
   -3.5350    6.8440   26.2220 C   0  0  0  0  0
   -4.3020    5.6330   25.7270 C   0  0  0  0  0
   -5.2810    5.0620   26.5640 C   0  0  0  0  0
   -9.8300   -1.9790   22.6620 Cl  0  0  0  0  0
   -2.7277   10.7228   21.9132 H   0  0  0  0  0
   -5.2963    2.1916   21.4454 H   0  0  0  0  0
   -6.2853   11.4873   21.5804 H   0  0  0  0  0
   -5.2870    2.0270   22.8734 H   0  0  0  0  0
   -0.8867    7.4771   25.1723 H   0  0  0  0  0
   -6.7708    3.5074   26.7844 H   0  0  0  0  0
   -4.5874    3.5133   23.0475 H   0  0  0  0  0
   -3.2993    5.5099   23.8065 H   0  0  0  0  0
   -8.4275    0.2576   23.7417 H   0  0  0  0  0
   -7.9485   -2.6687   20.6113 H   0  0  0  0  0
   -5.7736   -1.6413   19.9763 H   0  0  0  0  0
   -4.2141    7.4123   26.8576 H   0  0  0  0  0
   -2.6443    6.4711   26.7277 H   0  0  0  0  0
   -5.4738    5.4917   27.5470 H   0  0  0  0  0
  2  1  1  0  0  0
  1 11  1  0  0  0
  5  2  4  0  0  0
  7  2  4  0  0  0
  8  3  2  0  0  0
  8  4  1  0  0  0
  4 11  4  0  0  0
  5  8  1  0  0  0
 13  5  4  0  0  0
 20  6  2  0  0  0
 15  7  4  0  0  0
 27  9  1  0  0  0
 11 10  2  0  0  0
 27 12  2  0  0  0
 13 15  4  0  0  0
 28 13  1  0  0  0
 20 14  1  0  0  0
 14 21  1  0  0  0
 17 16  4  0  0  0
 16 30  4  0  0  0
 18 17  4  0  0  0
 17 20  1  0  0  0
 19 18  4  0  0  0
 29 19  4  0  0  0
 21 22  4  0  0  0
 21 26  4  0  0  0
 22 23  4  0  0  0
 23 24  4  0  0  0
 23 31  1  0  0  0
 25 24  4  0  0  0
 26 25  4  0  0  0
 26 27  1  0  0  0
 28 29  1  0  0  0
 29 30  4  0  0  0
  1 32  1  0  0  0
  9 33  1  0  0  0
 10 34  1  0  0  0
 14 35  1  0  0  0
 15 36  1  0  0  0
 16 37  1  0  0  0
 18 38  1  0  0  0
 19 39  1  0  0  0
 22 40  1  0  0  0
 24 41  1  0  0  0
 25 42  1  0  0  0
 28 43  1  0  0  0
 28 44  1  0  0  0
 30 45  1  0  0  0
M  END
$$$$
