1hih_ligand
  -I-interpret- 

 93 94  0  0  0  0  0  0  0  0999 V2000
    6.7720   -7.7770   17.7370 C   0  0  0  0  0
    7.1810   -6.3010   17.7280 C   0  0  0  0  0
    7.3320   -5.6920   18.7870 O   0  0  0  0  0
    7.3370   -5.7360   16.5290 N   0  0  0  0  0
    7.7120   -4.3250   16.3100 C   0  0  0  0  0
    9.0510   -4.2240   15.5240 C   0  0  0  0  0
    9.4450   -2.7780   15.2470 C   0  0  0  0  0
   10.1660   -4.9490   16.2940 C   0  0  0  0  0
    6.5980   -3.6290   15.5190 C   0  0  0  0  0
    6.4990   -3.8030   14.3070 O   0  0  0  0  0
    5.8130   -2.8010   16.1990 N   0  0  0  0  0
    4.6990   -2.1070   15.5770 C   0  0  0  0  0
    3.4080   -2.5770   16.2330 C   0  0  0  0  0
    3.2970   -4.0860   16.2750 C   0  0  0  0  0
    3.3920   -4.8290   17.5510 C   0  0  0  0  0
    3.2150   -6.1850   17.5400 C   0  0  0  0  0
    2.9490   -6.8680   16.3470 C   0  0  0  0  0
    2.8520   -6.2050   15.1350 C   0  0  0  0  0
    3.0200   -4.8340   15.0600 C   0  0  0  0  0
    4.8100   -0.5720   15.6880 C   0  0  0  0  0
    5.0810   -0.1840   17.0370 O   0  0  0  0  0
    5.9520   -0.0500   14.8420 C   0  0  0  0  0
    5.6940   -0.2190   13.4260 N   0  3  0  0  0
    6.9760    0.2000   12.8490 C   0  0  0  0  0
    7.0550    0.7770   11.4470 C   0  0  0  0  0
    8.5770    0.7750   11.2470 C   0  0  0  0  0
    9.0840    1.7400   10.1890 C   0  0  0  0  0
    8.5960    3.1430   10.4910 C   0  0  0  0  0
    7.0770    3.1630   10.5400 C   0  0  0  0  0
    6.5680    2.2170   11.5930 C   0  0  0  0  0
    4.5240    0.5620   13.0690 N   0  0  0  0  0
    3.6110    0.1480   12.1910 C   0  0  0  0  0
    3.5990   -0.9970   11.7100 O   0  0  0  0  0
    2.5780    1.1960   11.7700 C   0  0  0  0  0
    2.9860    1.8490   10.5200 N   0  0  0  0  0
    1.1670    0.5740   11.6480 C   0  0  0  0  0
    0.7830   -0.1610   12.9230 C   0  0  0  0  0
    0.1340    1.6920   11.3430 C   0  0  0  0  0
    3.2180    3.1540   10.4490 C   0  0  0  0  0
    3.0360    3.9100   11.4080 O   0  0  0  0  0
    3.7090    3.7320    9.1480 C   0  0  0  0  0
    7.5261   -8.3584   18.2674 H   0  0  0  0  0
    5.8102   -7.8831   18.2388 H   0  0  0  0  0
    6.6897   -8.1361   16.7112 H   0  0  0  0  0
    7.1866   -6.3200   15.7063 H   0  0  0  0  0
    7.8450   -3.8407   17.2774 H   0  0  0  0  0
    8.9063   -4.7070   14.5576 H   0  0  0  0  0
    9.6162   -2.2621   16.1918 H   0  0  0  0  0
   10.3572   -2.7592   14.6507 H   0  0  0  0  0
    8.6423   -2.2822   14.7011 H   0  0  0  0  0
   11.0810   -4.9384   15.7017 H   0  0  0  0  0
   10.3400   -4.4413   17.2427 H   0  0  0  0  0
    9.8651   -5.9797   16.4818 H   0  0  0  0  0
    5.9985   -2.6475   17.1902 H   0  0  0  0  0
    4.7093   -2.3449   14.5133 H   0  0  0  0  0
    2.5731   -2.1940   15.6462 H   0  0  0  0  0
    3.3985   -2.2098   17.2593 H   0  0  0  0  0
    3.5995   -4.3046   18.4837 H   0  0  0  0  0
    3.2820   -6.7426   18.4742 H   0  0  0  0  0
    2.8148   -7.9494   16.3729 H   0  0  0  0  0
    2.6404   -6.7711   14.2279 H   0  0  0  0  0
    2.9455   -4.3208   14.1012 H   0  0  0  0  0
    3.8603   -0.1596   15.3472 H   0  0  0  0  0
    5.1466    0.7725   17.0867 H   0  0  0  0  0
    6.8510   -0.6117   15.0958 H   0  0  0  0  0
    6.0692    1.0147   15.0441 H   0  0  0  0  0
    5.4504   -1.1512   13.0912 H   0  0  0  0  0
    7.5507   -0.7240   12.7860 H   0  0  0  0  0
    7.2971    1.0211   13.4899 H   0  0  0  0  0
    6.5010    0.2756   10.6534 H   0  0  0  0  0
    8.8507   -0.2272   10.9173 H   0  0  0  0  0
    9.0202    1.0834   12.1939 H   0  0  0  0  0
    8.7087    1.4319    9.2131 H   0  0  0  0  0
   10.1740    1.7316   10.1886 H   0  0  0  0  0
    8.9394    3.8194    9.7082 H   0  0  0  0  0
    8.9910    3.4612   11.4558 H   0  0  0  0  0
    6.6885    2.8533    9.5698 H   0  0  0  0  0
    6.7450    4.1725   10.7823 H   0  0  0  0  0
    6.9375    2.5810   12.5517 H   0  0  0  0  0
    5.4821    2.1953   11.5016 H   0  0  0  0  0
    4.3943    1.4718   13.5115 H   0  0  0  0  0
    2.5298    1.9581   12.5478 H   0  0  0  0  0
    3.0947    1.2818    9.6793 H   0  0  0  0  0
    1.1734   -0.1491   10.8324 H   0  0  0  0  0
    1.5019   -0.9583   13.1118 H   0  0  0  0  0
    0.7862    0.5384   13.7590 H   0  0  0  0  0
   -0.2133   -0.5880   12.8087 H   0  0  0  0  0
    0.1414    2.4223   12.1521 H   0  0  0  0  0
    0.3978    2.1830   10.4063 H   0  0  0  0  0
   -0.8600    1.2529   11.2572 H   0  0  0  0  0
    2.9915    4.4680    8.7851 H   0  0  0  0  0
    4.6748    4.2117    9.3066 H   0  0  0  0  0
    3.8148    2.9332    8.4140 H   0  0  0  0  0
  1  2  1  0  0  0
  2  4  1  0  0  0
  2  3  2  0  0  0
  4  5  1  0  0  0
  5  9  1  0  0  0
  5  6  1  0  0  0
  6  8  1  0  0  0
  6  7  1  0  0  0
  9 11  1  0  0  0
  9 10  2  0  0  0
 11 12  1  0  0  0
 12 20  1  0  0  0
 12 13  1  0  0  0
 13 14  1  0  0  0
 14 19  4  0  0  0
 14 15  4  0  0  0
 15 16  4  0  0  0
 16 17  4  0  0  0
 17 18  4  0  0  0
 18 19  4  0  0  0
 20 22  1  0  0  0
 20 21  1  0  0  0
 22 23  1  0  0  0
 23 31  1  0  0  0
 23 24  1  0  0  0
 24 25  1  0  0  0
 25 30  1  0  0  0
 25 26  1  0  0  0
 26 27  1  0  0  0
 27 28  1  0  0  0
 28 29  1  0  0  0
 29 30  1  0  0  0
 31 32  1  0  0  0
 32 34  1  0  0  0
 32 33  2  0  0  0
 34 36  1  0  0  0
 34 35  1  0  0  0
 35 39  1  0  0  0
 39 41  1  0  0  0
 39 40  2  0  0  0
 36 38  1  0  0  0
 36 37  1  0  0  0
  1 42  1  0  0  0
  1 43  1  0  0  0
  1 44  1  0  0  0
  4 45  1  0  0  0
  5 46  1  0  0  0
  6 47  1  0  0  0
  7 48  1  0  0  0
  7 49  1  0  0  0
  7 50  1  0  0  0
  8 51  1  0  0  0
  8 52  1  0  0  0
  8 53  1  0  0  0
 11 54  1  0  0  0
 12 55  1  0  0  0
 13 56  1  0  0  0
 13 57  1  0  0  0
 15 58  1  0  0  0
 16 59  1  0  0  0
 17 60  1  0  0  0
 18 61  1  0  0  0
 19 62  1  0  0  0
 20 63  1  0  0  0
 21 64  1  0  0  0
 22 65  1  0  0  0
 22 66  1  0  0  0
 23 67  1  0  0  0
 24 68  1  0  0  0
 24 69  1  0  0  0
 25 70  1  0  0  0
 26 71  1  0  0  0
 26 72  1  0  0  0
 27 73  1  0  0  0
 27 74  1  0  0  0
 28 75  1  0  0  0
 28 76  1  0  0  0
 29 77  1  0  0  0
 29 78  1  0  0  0
 30 79  1  0  0  0
 30 80  1  0  0  0
 31 81  1  0  0  0
 34 82  1  0  0  0
 35 83  1  0  0  0
 36 84  1  0  0  0
 37 85  1  0  0  0
 37 86  1  0  0  0
 37 87  1  0  0  0
 38 88  1  0  0  0
 38 89  1  0  0  0
 38 90  1  0  0  0
 41 91  1  0  0  0
 41 92  1  0  0  0
 41 93  1  0  0  0
M  END
$$$$
