1uv6_ligand
  -I-interpret- 

 25 24  0  0  0  0  0  0  0  0999 V2000
  138.2390  125.0330   87.5690 N   0  3  0  0  0
  138.5130  124.8230   86.1350 C   0  0  0  0  0
  138.5250  123.3600   85.6930 C   0  0  0  0  0
  138.8370  123.2630   84.2910 O   0  0  0  0  0
  137.9650  122.5310   83.3580 C   0  0  0  0  0
  138.3260  122.4610   82.2050 O   0  0  0  0  0
  137.0350  124.2980   88.0220 C   0  0  0  0  0
  139.4300  124.6350   88.3690 C   0  0  0  0  0
  137.9670  126.4770   87.7550 C   0  0  0  0  0
  136.8360  121.9630   83.7780 N   0  0  0  0  0
  139.5093  125.2205   85.9414 H   0  0  0  0  0
  137.7106  125.3137   85.5841 H   0  0  0  0  0
  137.5400  122.9276   85.8687 H   0  0  0  0  0
  139.2823  122.8225   86.2637 H   0  0  0  0  0
  137.1985  123.2269   87.9029 H   0  0  0  0  0
  136.8467  124.5236   89.0717 H   0  0  0  0  0
  136.1771  124.6047   87.4236 H   0  0  0  0  0
  139.2524  124.8621   89.4202 H   0  0  0  0  0
  139.6042  123.5655   88.2514 H   0  0  0  0  0
  140.3022  125.1871   88.0190 H   0  0  0  0  0
  137.0980  126.7611   87.1616 H   0  0  0  0  0
  137.7698  126.6755   88.8085 H   0  0  0  0  0
  138.8337  127.0533   87.4314 H   0  0  0  0  0
  136.2477  121.4507   83.1209 H   0  0  0  0  0
  136.5596  122.0403   84.7568 H   0  0  0  0  0
  1  2  1  0  0  0
  1  7  1  0  0  0
  1  8  1  0  0  0
  1  9  1  0  0  0
  2  3  1  0  0  0
  3  4  1  0  0  0
  4  5  1  0  0  0
  5  6  2  0  0  0
  5 10  1  0  0  0
  2 11  1  0  0  0
  2 12  1  0  0  0
  3 13  1  0  0  0
  3 14  1  0  0  0
  7 15  1  0  0  0
  7 16  1  0  0  0
  7 17  1  0  0  0
  8 18  1  0  0  0
  8 19  1  0  0  0
  8 20  1  0  0  0
  9 21  1  0  0  0
  9 22  1  0  0  0
  9 23  1  0  0  0
 10 24  1  0  0  0
 10 25  1  0  0  0
M  END
$$$$
