5d1u_ligand
  -I-interpret- 

 40 40  0  0  0  0  0  0  0  0999 V2000
   11.8430   19.1530   26.6200 C   0  0  0  0  0
   12.5380   19.1850   27.9720 C   0  0  0  0  0
    9.0860   15.5470   25.6760 C   0  0  0  0  0
   14.3120   20.0030   29.2590 O   0  0  0  0  0
   10.3630   19.0300   26.5930 N   0  0  0  0  0
    9.1660   20.8480   27.9620 C   0  0  0  0  0
    8.1570   20.3560   28.7880 C   0  0  0  0  0
    7.9990   20.8760   30.0620 C   0  0  0  0  0
    8.8360   21.8760   30.5150 C   0  0  0  0  0
    9.8410   22.3750   29.7000 C   0  0  0  0  0
   10.0100   21.8550   28.4260 C   0  0  0  0  0
    9.3030   17.0450   25.4880 C   0  0  0  0  0
    9.9400   17.6290   26.7440 C   0  0  0  0  0
   12.5230   18.0080   25.8620 C   0  0  0  0  0
   13.5520   20.0360   28.0920 N   0  0  0  0  0
   12.2610   18.4230   28.8880 O   0  0  0  0  0
    9.3860   20.2550   26.4840 S   0  0  0  0  0
    8.0860   19.9670   25.8980 O   0  0  0  0  0
    9.9840   21.3100   25.7040 O   0  0  0  0  0
    8.6690   22.3710   31.7550 F   0  0  0  0  0
    6.9110   20.3500   30.9600 C   0  0  0  0  0
   11.9591   20.1357   26.1629 H   0  0  0  0  0
   10.0454   15.0620   25.8562 H   0  0  0  0  0
    8.4275   15.3807   26.5286 H   0  0  0  0  0
    8.6306   15.1315   24.7771 H   0  0  0  0  0
   15.0039   20.6665   29.2078 H   0  0  0  0  0
    7.4954   19.5658   28.4331 H   0  0  0  0  0
   10.4938   23.1708   30.0587 H   0  0  0  0  0
   10.8056   22.2351   27.7852 H   0  0  0  0  0
    8.3440   17.5308   25.3079 H   0  0  0  0  0
    9.9616   17.2121   24.6357 H   0  0  0  0  0
    9.1911   17.5972   27.5353 H   0  0  0  0  0
   10.8310   17.0403   26.9625 H   0  0  0  0  0
   12.2495   17.0576   26.3203 H   0  0  0  0  0
   12.1970   18.0184   24.8219 H   0  0  0  0  0
   13.6045   18.1364   25.9064 H   0  0  0  0  0
   13.7686   20.6979   27.3468 H   0  0  0  0  0
    5.9421   20.5104   30.4871 H   0  0  0  0  0
    7.0632   19.2837   31.1268 H   0  0  0  0  0
    6.9428   20.8765   31.9139 H   0  0  0  0  0
  1  2  1  0  0  0
  5  1  1  0  0  0
  1 14  1  0  0  0
  2 15  1  0  0  0
  2 16  2  0  0  0
 12  3  1  0  0  0
 15  4  1  0  0  0
 13  5  1  0  0  0
  5 17  1  0  0  0
  6  7  4  0  0  0
  6 11  4  0  0  0
 17  6  1  0  0  0
  7  8  4  0  0  0
  8  9  4  0  0  0
  8 21  1  0  0  0
 10  9  4  0  0  0
  9 20  1  0  0  0
 11 10  4  0  0  0
 12 13  1  0  0  0
 17 18  2  0  0  0
 17 19  2  0  0  0
  1 22  1  0  0  0
  3 23  1  0  0  0
  3 24  1  0  0  0
  3 25  1  0  0  0
  4 26  1  0  0  0
  7 27  1  0  0  0
 10 28  1  0  0  0
 11 29  1  0  0  0
 12 30  1  0  0  0
 12 31  1  0  0  0
 13 32  1  0  0  0
 13 33  1  0  0  0
 14 34  1  0  0  0
 14 35  1  0  0  0
 14 36  1  0  0  0
 15 37  1  0  0  0
 21 38  1  0  0  0
 21 39  1  0  0  0
 21 40  1  0  0  0
M  END
$$$$
