4dh6_ligand
  -I-interpret- 

 84 88  0  0  0  0  0  0  0  0999 V2000
   62.9460   44.3320    9.4040 C   0  0  0  0  0
   61.4210   44.4750    9.2920 C   0  0  0  0  0
   61.5390   45.9820    9.5360 C   0  0  0  0  0
   63.0780   45.8550    9.5440 C   0  0  0  0  0
   63.7480   46.4820    8.3090 C   0  0  0  0  0
   63.7120   46.2250   10.7860 O   0  0  0  0  0
   63.9570   47.5610   10.9730 C   0  0  0  0  0
   64.1600   47.9840   12.2390 N   0  0  0  0  0
   64.4100   49.2540   12.5300 C   0  0  0  0  0
   64.4720   50.2100   11.5160 C   0  0  0  0  0
   64.7580   51.6820   11.8590 C   0  0  0  0  0
   63.5280   52.4430   12.3770 C   0  0  0  0  0
   63.9750   53.7740   12.9780 C   0  0  0  0  0
   62.7770   51.6490   13.4510 C   0  0  0  0  0
   62.5700   52.7390   11.2180 C   0  0  0  0  0
   64.2750   49.8120   10.1910 C   0  0  0  0  0
   64.0190   48.4710    9.9050 C   0  0  0  0  0
   63.7940   48.0160    8.4360 C   0  0  0  0  0
   64.8160   48.5710    7.5120 N   0  3  0  0  0
   66.2250   48.3060    7.8900 C   0  0  0  0  0
   67.1260   49.2910    7.1440 C   0  0  0  0  0
   66.7410   50.6170    7.5050 O   0  0  0  0  0
   68.6200   49.1030    7.4450 C   0  0  0  0  0
   69.1080   47.7600    7.1050 N   0  0  0  0  0
   69.3860   46.8360    8.0230 C   0  0  0  0  0
   69.1660   46.9620    9.2290 O   0  0  0  0  0
   69.9270   45.5080    7.5160 C   0  0  0  0  0
   71.4500   45.5930    7.3670 C   0  0  0  0  0
   69.5050   44.5010    8.4450 O   0  0  0  0  0
   68.3020   43.8770    7.9600 C   0  0  0  0  0
   69.5120   50.0720    6.6550 C   0  0  0  0  0
   70.9470   49.8950    7.1390 C   0  0  0  0  0
   71.9800   49.5490    6.2720 C   0  0  0  0  0
   73.2680   49.4030    6.7970 C   0  0  0  0  0
   74.4520   49.0810    6.2020 O   0  0  0  0  0
   75.2830   48.6350    7.3060 C   0  0  0  0  0
   74.8300   49.3930    8.4360 O   0  0  0  0  0
   73.5140   49.5940    8.1670 C   0  0  0  0  0
   72.4800   49.9320    9.0150 C   0  0  0  0  0
   71.2030   50.0810    8.4930 C   0  0  0  0  0
   63.5026   43.8055    8.6287 H   0  0  0  0  0
   63.3780   43.6756   10.1594 H   0  0  0  0  0
   60.7710   43.8715    9.9255 H   0  0  0  0  0
   60.9047   44.1072    8.4053 H   0  0  0  0  0
   61.0238   46.4413   10.3796 H   0  0  0  0  0
   61.0519   46.6851    8.8604 H   0  0  0  0  0
   63.1708   46.2186    7.4227 H   0  0  0  0  0
   64.7673   46.1038    8.2305 H   0  0  0  0  0
   64.5677   49.5519   13.5666 H   0  0  0  0  0
   65.0845   52.1736   10.9426 H   0  0  0  0  0
   65.5069   51.6935   12.6510 H   0  0  0  0  0
   64.6629   53.5862   13.8024 H   0  0  0  0  0
   64.4763   54.3666   12.2127 H   0  0  0  0  0
   63.1038   54.3158   13.3462 H   0  0  0  0  0
   62.4413   50.7005   13.0316 H   0  0  0  0  0
   63.4426   51.4601   14.2933 H   0  0  0  0  0
   61.9148   52.2236   13.7894 H   0  0  0  0  0
   63.0814   53.3472   10.4719 H   0  0  0  0  0
   62.2484   51.8010   10.7655 H   0  0  0  0  0
   61.7013   53.2786   11.5951 H   0  0  0  0  0
   64.3211   50.5452    9.3857 H   0  0  0  0  0
   62.8224   48.4150    8.1448 H   0  0  0  0  0
   64.6974   49.5840    7.5208 H   0  0  0  0  0
   64.6671   48.1214    6.6086 H   0  0  0  0  0
   66.4938   47.2837    7.6241 H   0  0  0  0  0
   66.3498   48.4314    8.9655 H   0  0  0  0  0
   66.9963   49.1060    6.0777 H   0  0  0  0  0
   67.2987   51.2477    7.0437 H   0  0  0  0  0
   68.6882   49.2863    8.5173 H   0  0  0  0  0
   69.2399   47.5244    6.1214 H   0  0  0  0  0
   69.5429   45.2552    6.5277 H   0  0  0  0  0
   71.7009   46.3807    6.6566 H   0  0  0  0  0
   71.8964   45.8195    8.3352 H   0  0  0  0  0
   71.8320   44.6390    7.0036 H   0  0  0  0  0
   67.5199   44.6293    7.8575 H   0  0  0  0  0
   68.4971   43.4195    6.9901 H   0  0  0  0  0
   67.9812   43.1114    8.6664 H   0  0  0  0  0
   69.1852   51.0994    6.8152 H   0  0  0  0  0
   69.4460   49.8588    5.5881 H   0  0  0  0  0
   71.7895   49.3956    5.2098 H   0  0  0  0  0
   76.3424   48.7971    7.1074 H   0  0  0  0  0
   75.1917   47.5620    7.4745 H   0  0  0  0  0
   72.6633   50.0798   10.0793 H   0  0  0  0  0
   70.3828   50.3497    9.1587 H   0  0  0  0  0
  1  2  1  0  0  0
  1  4  1  0  0  0
  2  3  1  0  0  0
  3  4  1  0  0  0
  4  5  1  0  0  0
  4  6  1  0  0  0
  5 18  1  0  0  0
  6  7  1  0  0  0
  7  8  4  0  0  0
  7 17  4  0  0  0
  8  9  4  0  0  0
  9 10  4  0  0  0
 10 11  1  0  0  0
 10 16  4  0  0  0
 11 12  1  0  0  0
 12 13  1  0  0  0
 12 14  1  0  0  0
 12 15  1  0  0  0
 16 17  4  0  0  0
 17 18  1  0  0  0
 18 19  1  0  0  0
 19 20  1  0  0  0
 20 21  1  0  0  0
 21 22  1  0  0  0
 21 23  1  0  0  0
 23 24  1  0  0  0
 23 31  1  0  0  0
 24 25  1  0  0  0
 25 26  2  0  0  0
 25 27  1  0  0  0
 27 28  1  0  0  0
 27 29  1  0  0  0
 29 30  1  0  0  0
 31 32  1  0  0  0
 32 33  4  0  0  0
 32 40  4  0  0  0
 33 34  4  0  0  0
 34 35  1  0  0  0
 34 38  4  0  0  0
 35 36  1  0  0  0
 36 37  1  0  0  0
 37 38  1  0  0  0
 38 39  4  0  0  0
 39 40  4  0  0  0
  1 41  1  0  0  0
  1 42  1  0  0  0
  2 43  1  0  0  0
  2 44  1  0  0  0
  3 45  1  0  0  0
  3 46  1  0  0  0
  5 47  1  0  0  0
  5 48  1  0  0  0
  9 49  1  0  0  0
 11 50  1  0  0  0
 11 51  1  0  0  0
 13 52  1  0  0  0
 13 53  1  0  0  0
 13 54  1  0  0  0
 14 55  1  0  0  0
 14 56  1  0  0  0
 14 57  1  0  0  0
 15 58  1  0  0  0
 15 59  1  0  0  0
 15 60  1  0  0  0
 16 61  1  0  0  0
 18 62  1  0  0  0
 19 63  1  0  0  0
 19 64  1  0  0  0
 20 65  1  0  0  0
 20 66  1  0  0  0
 21 67  1  0  0  0
 22 68  1  0  0  0
 23 69  1  0  0  0
 24 70  1  0  0  0
 27 71  1  0  0  0
 28 72  1  0  0  0
 28 73  1  0  0  0
 28 74  1  0  0  0
 30 75  1  0  0  0
 30 76  1  0  0  0
 30 77  1  0  0  0
 31 78  1  0  0  0
 31 79  1  0  0  0
 33 80  1  0  0  0
 36 81  1  0  0  0
 36 82  1  0  0  0
 39 83  1  0  0  0
 40 84  1  0  0  0
M  END
$$$$
