3f15_ligand
  -I-interpret- 

 40 40  0  0  0  0  0  0  0  0999 V2000
   -1.9550   -5.0850   -3.7950 N   0  0  0  0  0
   -4.9290   -6.6750   -6.9970 C   0  0  0  0  0
   -1.6140   -2.1030   -5.3110 N   0  0  0  0  0
   -4.7400   -5.8430   -8.1050 C   0  0  0  0  0
   -2.5590   -5.1750   -7.2270 C   0  0  0  0  0
   -1.6090   -5.9850   -1.3390 C   0  0  0  0  0
   -1.6050   -7.5090   -4.5700 O   0  0  0  0  0
   -0.3230   -5.8060   -5.5920 O   0  0  0  0  0
   -5.6780   -5.7400   -9.1140 O   0  0  0  0  0
   -1.5030   -8.3040   -1.8940 O   0  0  0  0  0
   -3.2590   -2.8540   -4.0040 O   0  0  0  0  0
   -2.0750   -2.8940   -4.3480 C   0  0  0  0  0
   -2.4990   -1.1930   -5.8960 O   0  0  0  0  0
   -1.1100   -3.8820   -3.7080 C   0  0  0  0  0
   -2.4980   -5.6870   -2.5450 C   0  0  0  0  0
   -0.8500   -4.8410   -0.9580 O   0  0  0  0  0
   -0.6870   -7.1540   -1.6500 C   0  0  0  0  0
   -1.5910   -6.1300   -4.9960 S   0  0  0  0  0
   -2.7440   -5.9980   -6.1110 C   0  0  0  0  0
   -3.5520   -5.0970   -8.2130 C   0  0  0  0  0
   -6.6590   -6.7570   -9.3570 C   0  0  0  0  0
   -3.9320   -6.7500   -6.0100 C   0  0  0  0  0
   -5.8430   -7.2609   -6.8999 H   0  0  0  0  0
   -0.6418   -2.1583   -5.6147 H   0  0  0  0  0
   -1.6423   -4.5943   -7.3298 H   0  0  0  0  0
   -2.2522   -6.2500   -0.4999 H   0  0  0  0  0
   -0.9416   -9.0569   -2.0931 H   0  0  0  0  0
   -2.0384   -0.6892   -6.5710 H   0  0  0  0  0
   -0.1342   -3.9601   -4.1873 H   0  0  0  0  0
   -0.7694   -3.6210   -2.7060 H   0  0  0  0  0
   -2.8393   -6.6725   -2.8620 H   0  0  0  0  0
   -3.1883   -4.9293   -2.1741 H   0  0  0  0  0
   -0.3031   -5.0592   -0.1998 H   0  0  0  0  0
   -0.0151   -7.3385   -0.8118 H   0  0  0  0  0
   -0.0767   -6.9313   -2.5252 H   0  0  0  0  0
   -3.4017   -4.4488   -9.0763 H   0  0  0  0  0
   -6.1570   -7.6959   -9.5906 H   0  0  0  0  0
   -7.2759   -6.8849   -8.4675 H   0  0  0  0  0
   -7.2873   -6.4607  -10.1970 H   0  0  0  0  0
   -4.0800   -7.4024   -5.1494 H   0  0  0  0  0
  1 14  1  0  0  0
  1 15  1  0  0  0
 18  1  1  0  0  0
  4  2  4  0  0  0
  2 22  4  0  0  0
 12  3  1  0  0  0
  3 13  1  0  0  0
  4  9  1  0  0  0
 20  4  4  0  0  0
 19  5  4  0  0  0
  5 20  4  0  0  0
 15  6  1  0  0  0
  6 16  1  0  0  0
  6 17  1  0  0  0
 18  7  2  0  0  0
 18  8  2  0  0  0
  9 21  1  0  0  0
 17 10  1  0  0  0
 12 11  2  0  0  0
 14 12  1  0  0  0
 18 19  1  0  0  0
 19 22  4  0  0  0
  2 23  1  0  0  0
  3 24  1  0  0  0
  5 25  1  0  0  0
  6 26  1  0  0  0
 10 27  1  0  0  0
 13 28  1  0  0  0
 14 29  1  0  0  0
 14 30  1  0  0  0
 15 31  1  0  0  0
 15 32  1  0  0  0
 16 33  1  0  0  0
 17 34  1  0  0  0
 17 35  1  0  0  0
 20 36  1  0  0  0
 21 37  1  0  0  0
 21 38  1  0  0  0
 21 39  1  0  0  0
 22 40  1  0  0  0
M  END
$$$$
