2ycr_ligand
  -I-interpret- 

 61 64  0  0  0  0  0  0  0  0999 V2000
  -36.5350   33.7960    7.7370 O   0  0  0  0  0
  -37.1040   32.9820    8.4370 C   0  0  0  0  0
  -37.9890   32.0890    8.0030 N   0  0  0  0  0
  -38.4690   31.8330    6.7630 C   0  0  0  0  0
  -38.0810   32.5160    5.6140 C   0  0  0  0  0
  -38.6400   32.1650    4.3960 C   0  0  0  0  0
  -39.4110   30.8100    6.6800 C   0  0  0  0  0
  -39.9650   30.4620    5.4600 C   0  0  0  0  0
  -39.5820   31.1450    4.3090 C   0  0  0  0  0
  -40.1870   30.7670    2.9900 C   0  0  0  0  0
  -39.7980   31.4600    1.7180 C   0  0  0  0  0
  -41.0760   29.7740    2.9570 N   0  0  0  0  0
  -41.7370   29.3580    1.8890 N   0  0  0  0  0
  -42.9390   28.5400    2.0710 C   0  0  0  0  0
  -43.5320   28.6510    3.4170 N   0  0  0  0  0
  -44.7540   28.9810    3.3880 C   0  0  0  0  0
  -45.2670   29.1950    1.9860 C   0  0  0  0  0
  -44.0490   28.9780    1.2360 N   0  3  0  0  0
  -36.9320   32.8670    9.7520 N   0  0  0  0  0
  -36.1610   33.5520   10.6340 C   0  0  0  0  0
  -35.2900   34.5980   10.3350 C   0  0  0  0  0
  -34.5730   35.1930   11.3620 C   0  0  0  0  0
  -34.6940   34.7560   12.6860 C   0  0  0  0  0
  -35.5640   33.7130   12.9620 C   0  0  0  0  0
  -36.2960   33.1260   11.9460 C   0  0  0  0  0
  -33.9440   35.3470   13.8550 C   0  0  0  0  0
  -32.9510   36.4690   13.7560 C   0  0  0  0  0
  -34.2020   34.8130   15.0460 N   0  0  0  0  0
  -33.6670   35.1200   16.1250 N   0  0  0  0  0
  -34.2020   34.4930   17.3340 C   0  0  0  0  0
  -33.5350   34.5610   18.6140 N   0  0  0  0  0
  -34.2460   33.7060   19.5440 C   0  0  0  0  0
  -34.9010   32.7610   18.5440 C   0  0  0  0  0
  -34.7950   33.1520   17.3300 N   0  0  0  0  0
  -38.3745   31.4909    8.7338 H   0  0  0  0  0
  -37.3454   33.3183    5.6719 H   0  0  0  0  0
  -38.3375   32.6955    3.4931 H   0  0  0  0  0
  -39.7142   30.2795    7.5826 H   0  0  0  0  0
  -40.6976   29.6571    5.4009 H   0  0  0  0  0
  -39.3632   30.7355    1.0294 H   0  0  0  0  0
  -40.6822   31.9085    1.2650 H   0  0  0  0  0
  -39.0669   32.2378    1.9384 H   0  0  0  0  0
  -41.4146   29.6031    0.9528 H   0  0  0  0  0
  -42.5710   27.5401    1.8409 H   0  0  0  0  0
  -45.3691   29.0979    4.2803 H   0  0  0  0  0
  -45.7306   30.1674    1.8199 H   0  0  0  0  0
  -46.0919   28.5407    1.7038 H   0  0  0  0  0
  -44.2316   28.2446    0.5510 H   0  0  0  0  0
  -43.7850   29.8652    0.8074 H   0  0  0  0  0
  -37.4846   32.1227   10.1774 H   0  0  0  0  0
  -35.1739   34.9437    9.3078 H   0  0  0  0  0
  -33.9002   36.0194   11.1330 H   0  0  0  0  0
  -35.6719   33.3534   13.9853 H   0  0  0  0  0
  -36.9884   32.3174   12.1802 H   0  0  0  0  0
  -33.2910   37.3080   14.3630 H   0  0  0  0  0
  -31.9811   36.1270   14.1173 H   0  0  0  0  0
  -32.8625   36.7835   12.7161 H   0  0  0  0  0
  -32.7058   35.1156   18.8268 H   0  0  0  0  0
  -34.9374   34.2238   20.2088 H   0  0  0  0  0
  -33.6207   33.2213   20.2938 H   0  0  0  0  0
  -35.4100   31.8419   18.8343 H   0  0  0  0  0
  1  2  2  0  0  0
  2  3  1  0  0  0
  2 19  1  0  0  0
  3  4  1  0  0  0
  4  5  4  0  0  0
  4  7  4  0  0  0
  5  6  4  0  0  0
  6  9  4  0  0  0
  7  8  4  0  0  0
  8  9  4  0  0  0
  9 10  1  0  0  0
 10 11  1  0  0  0
 10 12  2  0  0  0
 12 13  1  0  0  0
 13 14  1  0  0  0
 14 15  1  0  0  0
 14 18  1  0  0  0
 15 16  2  0  0  0
 16 17  1  0  0  0
 17 18  1  0  0  0
 19 20  1  0  0  0
 20 21  4  0  0  0
 20 25  4  0  0  0
 21 22  4  0  0  0
 22 23  4  0  0  0
 23 24  4  0  0  0
 23 26  1  0  0  0
 24 25  4  0  0  0
 26 27  1  0  0  0
 26 28  2  0  0  0
 28 29  1  0  0  0
 29 30  2  0  0  0
 30 31  1  0  0  0
 30 34  1  0  0  0
 31 32  1  0  0  0
 32 33  1  0  0  0
 33 34  2  0  0  0
  3 35  1  0  0  0
  5 36  1  0  0  0
  6 37  1  0  0  0
  7 38  1  0  0  0
  8 39  1  0  0  0
 11 40  1  0  0  0
 11 41  1  0  0  0
 11 42  1  0  0  0
 13 43  1  0  0  0
 14 44  1  0  0  0
 16 45  1  0  0  0
 17 46  1  0  0  0
 17 47  1  0  0  0
 18 48  1  0  0  0
 18 49  1  0  0  0
 19 50  1  0  0  0
 21 51  1  0  0  0
 22 52  1  0  0  0
 24 53  1  0  0  0
 25 54  1  0  0  0
 27 55  1  0  0  0
 27 56  1  0  0  0
 27 57  1  0  0  0
 31 58  1  0  0  0
 32 59  1  0  0  0
 32 60  1  0  0  0
 33 61  1  0  0  0
M  END
$$$$
