3dx4_ligand
  -I-interpret- 

 25 25  0  0  0  0  0  0  0  0999 V2000
   28.8890   66.0020    6.3060 C   0  0  0  0  0
   29.4390   66.1150    7.6310 O   0  0  0  0  0
   30.8670   65.9320    7.6530 C   0  0  0  0  0
   31.6140   67.1850    7.1500 C   0  0  0  0  0
   31.6440   67.3240    5.7290 O   0  0  0  0  0
   33.0090   66.9450    7.7270 C   0  0  0  0  0
   33.7250   65.9500    6.9610 O   0  0  0  0  0
   32.7100   66.4070    9.1490 C   0  0  0  0  0
   33.5820   65.3310    9.5280 O   0  0  0  0  0
   31.2290   65.9780    9.1140 C   0  0  0  0  0
   31.1470   64.6420    9.7640 N   0  3  0  0  0
   29.3350   66.7607    5.6629 H   0  0  0  0  0
   29.1071   65.0115    5.9067 H   0  0  0  0  0
   27.8097   66.1485    6.3483 H   0  0  0  0  0
   31.1126   65.0410    7.0751 H   0  0  0  0  0
   31.1351   68.1136    7.4606 H   0  0  0  0  0
   30.7529   67.4729    5.4043 H   0  0  0  0  0
   33.6308   67.8402    7.7165 H   0  0  0  0  0
   33.9052   66.2927    6.0826 H   0  0  0  0  0
   32.8893   67.1694    9.9071 H   0  0  0  0  0
   34.4896   65.6438    9.5360 H   0  0  0  0  0
   30.5460   66.6461    9.6387 H   0  0  0  0  0
   30.1784   64.3224    9.7605 H   0  0  0  0  0
   31.7269   63.9789    9.2498 H   0  0  0  0  0
   31.4797   64.7121   10.7257 H   0  0  0  0  0
  1  2  1  0  0  0
  2  3  1  0  0  0
  3  4  1  0  0  0
  3 10  1  0  0  0
  4  5  1  0  0  0
  4  6  1  0  0  0
  6  7  1  0  0  0
  6  8  1  0  0  0
  8  9  1  0  0  0
  8 10  1  0  0  0
 10 11  1  0  0  0
  1 12  1  0  0  0
  1 13  1  0  0  0
  1 14  1  0  0  0
  3 15  1  0  0  0
  4 16  1  0  0  0
  5 17  1  0  0  0
  6 18  1  0  0  0
  7 19  1  0  0  0
  8 20  1  0  0  0
  9 21  1  0  0  0
 10 22  1  0  0  0
 11 23  1  0  0  0
 11 24  1  0  0  0
 11 25  1  0  0  0
M  END
$$$$
