5ael_ligand
  -I-interpret- 

 43 43  0  0  0  0  0  0  0  0999 V2000
   25.1090   -8.3620   11.8330 C   0  0  0  0  0
   25.9850   -8.1810   13.0520 C   0  0  0  0  0
   26.1080   -6.7270   13.5010 C   0  0  0  0  0
   27.0400   -6.6130   14.7530 C   0  0  0  0  0
   26.9060   -5.1870   15.2150 C   0  0  0  0  0
   26.7880   -4.0100   15.5780 C   0  0  0  0  0
   26.6490   -2.6030   16.0320 C   0  0  0  0  0
   26.0300   -1.6240   15.2360 C   0  0  0  0  0
   25.9390   -0.3150   15.7250 C   0  0  0  0  0
   26.4570   -0.0040   16.9780 C   0  0  0  0  0
   27.0610   -0.9960   17.7260 N   0  0  0  0  0
   27.6000   -0.7910   19.0440 C   0  0  0  0  0
   28.3540    0.5330   19.2520 C   0  0  0  0  0
   28.9030    0.6290   20.9600 P   0  0  0  0  0
   28.3090   -0.4340   21.7460 O   0  0  0  0  0
   28.4280    1.9820   21.4640 O   0  0  0  0  0
   30.3700    0.4840   21.1400 O   0  0  0  0  0
   29.7500    0.8180   18.0840 P   0  0  0  0  0
   30.3270    2.1060   18.6590 O   0  0  0  0  0
   30.6500   -0.4250   17.9790 O   0  0  0  0  0
   29.1130    1.0240   16.7390 O   0  0  0  0  0
   27.1340   -2.2700   17.2540 C   0  0  0  0  0
   24.1043   -8.0007   12.0523 H   0  0  0  0  0
   25.5262   -7.7961   11.0001 H   0  0  0  0  0
   25.0672   -9.4192   11.5709 H   0  0  0  0  0
   26.9845   -8.5301   12.7927 H   0  0  0  0  0
   25.5292   -8.7395   13.8696 H   0  0  0  0  0
   25.1180   -6.3537   13.7630 H   0  0  0  0  0
   26.5367   -6.1416   12.6876 H   0  0  0  0  0
   28.0730   -6.8618   14.5097 H   0  0  0  0  0
   26.7532   -7.3176   15.5337 H   0  0  0  0  0
   25.6279   -1.8791   14.2555 H   0  0  0  0  0
   25.4626    0.4597   15.1242 H   0  0  0  0  0
   26.3870    1.0123   17.3658 H   0  0  0  0  0
   28.3228   -1.5895   19.2115 H   0  0  0  0  0
   26.7512   -0.7756   19.7276 H   0  0  0  0  0
   27.6502    1.3349   19.0291 H   0  0  0  0  0
   28.8277    2.6772   20.9362 H   0  0  0  0  0
   30.8218    1.1666   20.6385 H   0  0  0  0  0
   30.7213    1.9244   19.5152 H   0  0  0  0  0
   31.0735   -0.5845   18.8257 H   0  0  0  0  0
   28.2049   -2.4541   17.1675 H   0  0  0  0  0
   26.5114   -2.8390   17.9445 H   0  0  0  0  0
  1  2  1  0  0  0
  2  3  1  0  0  0
  3  4  1  0  0  0
  4  5  1  0  0  0
  5  6  3  0  0  0
  6  7  1  0  0  0
  7  8  2  0  0  0
  7 22  1  0  0  0
  8  9  1  0  0  0
  9 10  2  0  0  0
 10 11  1  0  0  0
 11 12  1  0  0  0
 11 22  1  0  0  0
 12 13  1  0  0  0
 13 14  1  0  0  0
 13 18  1  0  0  0
 14 15  2  0  0  0
 14 16  1  0  0  0
 14 17  1  0  0  0
 18 19  1  0  0  0
 18 20  1  0  0  0
 18 21  2  0  0  0
  1 23  1  0  0  0
  1 24  1  0  0  0
  1 25  1  0  0  0
  2 26  1  0  0  0
  2 27  1  0  0  0
  3 28  1  0  0  0
  3 29  1  0  0  0
  4 30  1  0  0  0
  4 31  1  0  0  0
  8 32  1  0  0  0
  9 33  1  0  0  0
 10 34  1  0  0  0
 12 35  1  0  0  0
 12 36  1  0  0  0
 13 37  1  0  0  0
 16 38  1  0  0  0
 17 39  1  0  0  0
 19 40  1  0  0  0
 20 41  1  0  0  0
 22 42  1  0  0  0
 22 43  1  0  0  0
M  END
$$$$
