### 
### Created by X-TOOL on Mon Sep 10 21:13:21 2018
### 

@<TRIPOS>MOLECULE
5ael_ligand
   39    39     1     0     0
SMALL
GAST_HUCK


@<TRIPOS>ATOM
      1 C01        25.1090   -8.3620   11.8330 C.3       1 QAF        -0.0653
      2 C02        25.9850   -8.1810   13.0520 C.3       1 QAF        -0.0552
      3 C03        26.1080   -6.7270   13.5010 C.3       1 QAF        -0.0436
      4 C04        27.0400   -6.6130   14.7530 C.3       1 QAF         0.0038
      5 C05        26.9060   -5.1870   15.2150 C.1       1 QAF        -0.1126
      6 C06        26.7880   -4.0100   15.5780 C.1       1 QAF        -0.0861
      7 C07        26.6490   -2.6030   16.0320 C.2       1 QAF         0.0074
      8 C08        26.0300   -1.6240   15.2360 C.2       1 QAF        -0.0831
      9 C09        25.9390   -0.3150   15.7250 C.2       1 QAF        -0.0707
     10 C10        26.4570   -0.0040   16.9780 C.2       1 QAF         0.0111
     11 N11        27.0610   -0.9960   17.7260 N.pl3     1 QAF        -0.2939
     12 C12        27.6000   -0.7910   19.0440 C.3       1 QAF         0.0668
     13 C13        28.3540    0.5330   19.2520 C.3       1 QAF         0.1218
     14 P14        28.9030    0.6290   20.9600 P.3       1 QAF         0.0799
     15 O15        28.3090   -0.4340   21.7460 O.co2     1 QAF        -0.5611
     16 O16        28.4280    1.9820   21.4640 O.co2     1 QAF        -0.5611
     17 O17        30.3700    0.4840   21.1400 O.co2     1 QAF        -0.5611
     18 P18        29.7500    0.8180   18.0840 P.3       1 QAF         0.0799
     19 O19        30.3270    2.1060   18.6590 O.co2     1 QAF        -0.5611
     20 O20        30.6500   -0.4250   17.9790 O.co2     1 QAF        -0.5611
     21 O21        29.1130    1.0240   16.7390 O.co2     1 QAF        -0.5611
     22 C22        27.1340   -2.2700   17.2540 C.3       1 QAF         0.0633
     23 H1         25.0660   -9.4286   11.5675 H         1 QAF         0.0230
     24 H2         25.5290   -7.7914   10.9916 H         1 QAF         0.0230
     25 H3         24.0946   -7.9978   12.0530 H         1 QAF         0.0230
     26 H4         26.9908   -8.5596   12.8177 H         1 QAF         0.0263
     27 H5         25.5565   -8.7660   13.8791 H         1 QAF         0.0263
     28 H6         25.1099   -6.3423   13.7574 H         1 QAF         0.0273
     29 H7         26.5313   -6.1298   12.6799 H         1 QAF         0.0273
     30 H8         28.0824   -6.8337   14.4795 H         1 QAF         0.0383
     31 H9         26.7132   -7.3065   15.5418 H         1 QAF         0.0383
     32 H10        25.6283   -1.8789   14.2564 H         1 QAF         0.0433
     33 H11        25.4630    0.4590   15.1248 H         1 QAF         0.0295
     34 H12        26.3871    1.0114   17.3654 H         1 QAF         0.1004
     35 H13        28.2969   -1.6150   19.2572 H         1 QAF         0.0566
     36 H14        26.7656   -0.8219   19.7601 H         1 QAF         0.0566
     37 H15        27.6322    1.3460   19.0846 H         1 QAF         0.0699
     38 H16        28.2009   -2.5376   17.2476 H         1 QAF         0.0669
     39 H17        26.6020   -2.9010   17.9812 H         1 QAF         0.0669
@<TRIPOS>BOND
     1    1    2 1  
     2    2    3 1  
     3    3    4 1  
     4    4    5 1  
     5    5    6 3  
     6    6    7 1  
     7    7    8 2  
     8    7   22 1  
     9    8    9 1  
    10    9   10 2  
    11   10   11 1  
    12   11   12 1  
    13   11   22 1  
    14   12   13 1  
    15   13   14 1  
    16   13   18 1  
    17   14   15 ar 
    18   14   16 ar 
    19   14   17 ar 
    20   18   19 ar 
    21   18   20 ar 
    22   18   21 ar 
    23    1   23 1  
    24    1   24 1  
    25    1   25 1  
    26    2   26 1  
    27    2   27 1  
    28    3   28 1  
    29    3   29 1  
    30    4   30 1  
    31    4   31 1  
    32    8   32 1  
    33    9   33 1  
    34   10   34 1  
    35   12   35 1  
    36   12   36 1  
    37   13   37 1  
    38   22   38 1  
    39   22   39 1  
@<TRIPOS>SUBSTRUCTURE
     1 QAF         1

