2w8f_ligand
  -I-interpret- 

 56 60  0  0  0  0  0  0  0  0999 V2000
   46.2040   35.6470   54.2390 C   0  0  0  0  0
   45.8010   37.0180   54.6210 N   0  3  0  0  0
   46.2310   37.9790   53.6000 C   0  0  0  0  0
   46.3070   37.5010   55.9200 C   0  0  0  0  0
   45.4370   38.7260   56.2010 C   0  0  0  0  0
   44.1450   38.4860   55.3990 C   0  0  0  0  0
   44.3490   37.1040   54.7610 C   0  0  0  0  0
   46.0910   36.4710   57.0340 C   0  0  0  0  0
   44.7630   35.6780   56.9510 C   0  0  0  0  0
   43.8630   35.9740   55.6890 C   0  0  0  0  0
   44.9780   34.2700   57.1250 O   0  0  0  0  0
   44.1200   33.7280   58.1500 C   0  0  0  0  0
   42.9120   33.1010   57.5170 C   0  0  0  0  0
   41.7580   33.9010   57.4940 C   0  0  0  0  0
   40.5590   33.4560   56.9280 C   0  0  0  0  0
   40.4940   32.1800   56.3700 C   0  0  0  0  0
   41.6340   31.3740   56.3810 C   0  0  0  0  0
   42.8460   31.8100   56.9380 C   0  0  0  0  0
   43.9680   30.7830   56.8650 C   0  0  0  0  0
   45.3720   31.3030   57.1630 C   0  0  0  0  0
   45.4560   31.6360   58.6270 C   0  0  0  0  0
   46.1340   30.7660   59.4960 C   0  0  0  0  0
   46.2070   31.0740   60.8550 C   0  0  0  0  0
   45.5980   32.2480   61.3180 C   0  0  0  0  0
   44.9180   33.1120   60.4480 C   0  0  0  0  0
   44.8440   32.8070   59.0850 C   0  0  0  0  0
   45.8796   34.9466   55.0086 H   0  0  0  0  0
   45.7397   35.3848   53.2883 H   0  0  0  0  0
   47.2886   35.6029   54.1396 H   0  0  0  0  0
   45.7514   37.7381   52.6513 H   0  0  0  0  0
   45.9464   38.9853   53.9073 H   0  0  0  0  0
   47.3136   37.9253   53.4853 H   0  0  0  0  0
   47.3778   37.7024   55.8892 H   0  0  0  0  0
   45.9319   39.6508   55.9044 H   0  0  0  0  0
   45.2365   38.8447   57.2658 H   0  0  0  0  0
   43.9737   39.2622   54.6531 H   0  0  0  0  0
   43.2568   38.5208   56.0299 H   0  0  0  0  0
   43.7968   36.9950   53.8276 H   0  0  0  0  0
   46.0662   37.0254   57.9722 H   0  0  0  0  0
   46.8967   35.7420   56.9466 H   0  0  0  0  0
   44.1772   36.0558   57.7890 H   0  0  0  0  0
   43.8677   35.0634   55.0900 H   0  0  0  0  0
   42.8929   36.2897   56.0728 H   0  0  0  0  0
   43.7795   34.5465   58.7841 H   0  0  0  0  0
   41.7980   34.8990   57.9305 H   0  0  0  0  0
   39.6813   34.1024   56.9232 H   0  0  0  0  0
   39.5651   31.8163   55.9308 H   0  0  0  0  0
   41.5810   30.3768   55.9441 H   0  0  0  0  0
   43.9869   30.4231   55.8363 H   0  0  0  0  0
   43.7497   30.0365   57.6287 H   0  0  0  0  0
   45.5739   32.1928   56.5666 H   0  0  0  0  0
   46.1117   30.5431   56.9110 H   0  0  0  0  0
   46.5992   29.8580   59.1123 H   0  0  0  0  0
   46.7295   30.4119   61.5455 H   0  0  0  0  0
   45.6542   32.4950   62.3781 H   0  0  0  0  0
   44.4489   34.0177   60.8323 H   0  0  0  0  0
  1  2  1  0  0  0
  2  3  1  0  0  0
  2  4  1  0  0  0
  2  7  1  0  0  0
  4  5  1  0  0  0
  4  8  1  0  0  0
  5  6  1  0  0  0
  6  7  1  0  0  0
  7 10  1  0  0  0
  8  9  1  0  0  0
  9 10  1  0  0  0
  9 11  1  0  0  0
 11 12  1  0  0  0
 12 13  1  0  0  0
 12 26  1  0  0  0
 13 14  4  0  0  0
 13 18  4  0  0  0
 14 15  4  0  0  0
 15 16  4  0  0  0
 16 17  4  0  0  0
 17 18  4  0  0  0
 18 19  1  0  0  0
 19 20  1  0  0  0
 20 21  1  0  0  0
 21 22  4  0  0  0
 21 26  4  0  0  0
 22 23  4  0  0  0
 23 24  4  0  0  0
 24 25  4  0  0  0
 25 26  4  0  0  0
  1 27  1  0  0  0
  1 28  1  0  0  0
  1 29  1  0  0  0
  3 30  1  0  0  0
  3 31  1  0  0  0
  3 32  1  0  0  0
  4 33  1  0  0  0
  5 34  1  0  0  0
  5 35  1  0  0  0
  6 36  1  0  0  0
  6 37  1  0  0  0
  7 38  1  0  0  0
  8 39  1  0  0  0
  8 40  1  0  0  0
  9 41  1  0  0  0
 10 42  1  0  0  0
 10 43  1  0  0  0
 12 44  1  0  0  0
 14 45  1  0  0  0
 15 46  1  0  0  0
 16 47  1  0  0  0
 17 48  1  0  0  0
 19 49  1  0  0  0
 19 50  1  0  0  0
 20 51  1  0  0  0
 20 52  1  0  0  0
 22 53  1  0  0  0
 23 54  1  0  0  0
 24 55  1  0  0  0
 25 56  1  0  0  0
M  END
$$$$
