6exm_ligand
  -I-interpret- 

 47 49  0  0  0  0  0  0  0  0999 V2000
   68.9390   98.8280   12.8720 C   0  0  0  0  0
   67.7840   99.1070   13.8110 C   0  0  0  0  0
   67.2340   98.0130   14.5020 C   0  0  0  0  0
   66.1700   98.2050   15.3800 C   0  0  0  0  0
   65.6390   99.4820   15.5810 C   0  0  0  0  0
   66.1610  100.5890   14.9060 C   0  0  0  0  0
   65.5790  101.9540   15.1470 C   0  0  0  0  0
   64.8000  102.5360   13.9930 C   0  0  0  0  0
   64.5310  101.8960   12.8020 C   0  0  0  0  0
   63.7880  102.4660   11.7130 C   0  0  0  0  0
   63.5780  101.8290   10.6580 O   0  0  0  0  0
   63.2790  103.7800   11.8420 N   0  0  0  0  0
   63.5530  104.4290   13.0360 C   0  0  0  0  0
   62.8280  106.0350   12.9710 S   0  0  0  0  0
   61.7650  105.6430   11.5660 C   0  0  0  0  0
   62.5170  104.5510   10.8600 C   0  0  0  0  0
   63.3750  105.1360    9.7460 C   0  0  0  0  0
   64.5920  104.9110    9.9220 O   0  0  0  0  0
   62.9060  105.7560    8.8070 O   0  0  0  0  0
   64.2770  103.8880   14.1200 C   0  0  0  0  0
   64.4690  104.6510   15.2420 N   0  0  0  0  0
   63.1550  105.2190   15.7750 C   0  0  0  0  0
   65.5750  105.6840   15.0730 C   0  0  0  0  0
   67.2470  100.3940   14.0170 C   0  0  0  0  0
   67.8590  101.5400   13.2610 C   0  0  0  0  0
   69.7661   98.3945   13.4342 H   0  0  0  0  0
   68.6172   98.1293   12.0998 H   0  0  0  0  0
   69.2621   99.7601   12.4085 H   0  0  0  0  0
   67.6409   97.0132   14.3504 H   0  0  0  0  0
   65.7485   97.3534   15.9141 H   0  0  0  0  0
   64.8074   99.6164   16.2728 H   0  0  0  0  0
   66.4196  102.6245   15.3258 H   0  0  0  0  0
   64.8791  101.8528   15.9765 H   0  0  0  0  0
   64.9105  100.8818   12.6775 H   0  0  0  0  0
   61.5783  106.5058   10.9267 H   0  0  0  0  0
   60.7641  105.3358   11.8691 H   0  0  0  0  0
   61.8268  103.8605   10.3753 H   0  0  0  0  0
   64.7093  104.4053   10.7296 H   0  0  0  0  0
   62.6943  105.8444   15.0104 H   0  0  0  0  0
   62.4829  104.3994   16.0292 H   0  0  0  0  0
   63.3534  105.8171   16.6644 H   0  0  0  0  0
   66.5137  105.1764   14.8509 H   0  0  0  0  0
   65.3208  106.3557   14.2530 H   0  0  0  0  0
   65.6794  106.2567   15.9945 H   0  0  0  0  0
   68.9133  101.6254   13.5241 H   0  0  0  0  0
   67.7639  101.3593   12.1903 H   0  0  0  0  0
   67.3420  102.4633   13.5223 H   0  0  0  0  0
  1  2  1  0  0  0
  2  3  4  0  0  0
  2 24  4  0  0  0
  3  4  4  0  0  0
  4  5  4  0  0  0
  5  6  4  0  0  0
  6  7  1  0  0  0
  6 24  4  0  0  0
  7  8  1  0  0  0
  8  9  2  0  0  0
  8 20  1  0  0  0
  9 10  1  0  0  0
 10 11  2  0  0  0
 10 12  1  0  0  0
 12 13  1  0  0  0
 12 16  1  0  0  0
 13 14  1  0  0  0
 13 20  2  0  0  0
 14 15  1  0  0  0
 15 16  1  0  0  0
 16 17  1  0  0  0
 17 18  1  0  0  0
 17 19  2  0  0  0
 20 21  1  0  0  0
 21 22  1  0  0  0
 21 23  1  0  0  0
 24 25  1  0  0  0
  1 26  1  0  0  0
  1 27  1  0  0  0
  1 28  1  0  0  0
  3 29  1  0  0  0
  4 30  1  0  0  0
  5 31  1  0  0  0
  7 32  1  0  0  0
  7 33  1  0  0  0
  9 34  1  0  0  0
 15 35  1  0  0  0
 15 36  1  0  0  0
 16 37  1  0  0  0
 18 38  1  0  0  0
 22 39  1  0  0  0
 22 40  1  0  0  0
 22 41  1  0  0  0
 23 42  1  0  0  0
 23 43  1  0  0  0
 23 44  1  0  0  0
 25 45  1  0  0  0
 25 46  1  0  0  0
 25 47  1  0  0  0
M  END
$$$$
