### 
### Created by X-TOOL on Mon Sep 10 21:12:48 2018
### 

@<TRIPOS>MOLECULE
1i5h_ligand
  241   246     1     0     0
SMALL
GAST_HUCK


@<TRIPOS>ATOM
      1 N          20.6490   17.3830   -7.3000 N.4       1 GLY         0.2357
      2 CA         21.3890   17.0600   -6.0480 C.3       1 GLY         0.0545
      3 C          20.5830   16.1870   -5.1060 C.2       1 GLY         0.2237
      4 O          20.4720   16.4840   -3.9170 O.2       1 GLY        -0.3910
      5 N          20.0180   15.1080   -5.6390 N.am      1 SER        -0.2591
      6 CA         19.2190   14.1890   -4.8380 C.3       1 SER         0.1540
      7 C          20.1100   13.2050   -4.0890 C.2       1 SER         0.2063
      8 O          20.2030   13.2450   -2.8620 O.2       1 SER        -0.3943
      9 CB         18.2360   13.4270   -5.7300 C.3       1 SER         0.0843
     10 OG         17.0940   13.0170   -4.9970 O.3       1 SER        -0.3903
     11 N          20.7660   12.3230   -4.8350 N.am      1 THR        -0.2613
     12 CA         21.6520   11.3290   -4.2450 C.3       1 THR         0.1565
     13 C          20.8670   10.2870   -3.4540 C.2       1 THR         0.2065
     14 O          20.7370    9.1400   -3.8820 O.2       1 THR        -0.3943
     15 CB         22.6950   11.9840   -3.3200 C.3       1 THR         0.0924
     16 OG1        22.7820   13.3870   -3.5950 O.3       1 THR        -0.3874
     17 CG2        24.0600   11.3420   -3.5060 C.3       1 THR        -0.0346
     18 N          20.3420   10.6930   -2.3020 N.am      1 LEU        -0.2636
     19 CA         19.5700    9.7940   -1.4510 C.3       1 LEU         0.1314
     20 C          18.4070    9.1720   -2.2250 C.2       1 LEU         0.2064
     21 O          17.4270    9.8500   -2.5320 O.2       1 LEU        -0.3942
     22 CB         19.0360   10.5500   -0.2330 C.3       1 LEU        -0.0101
     23 CG         18.0530    9.7660    0.6380 C.3       1 LEU        -0.0425
     24 CD1        18.5350    9.7210    2.0800 C.3       1 LEU        -0.0625
     25 CD2        16.6630   10.3780    0.5570 C.3       1 LEU        -0.0625
     26 N          18.4960    7.8690   -2.5530 N.am      1 PRO        -0.2498
     27 CA         17.4470    7.1700   -3.2920 C.3       1 PRO         0.1338
     28 C          16.3230    6.6780   -2.3850 C.2       1 PRO         0.2041
     29 O          15.1540    6.6910   -2.7650 O.2       1 PRO        -0.3944
     30 CB         18.1970    5.9890   -3.9000 C.3       1 PRO        -0.0104
     31 CG         19.2610    5.6720   -2.9030 C.3       1 PRO        -0.0281
     32 CD         19.6280    6.9750   -2.2340 C.3       1 PRO         0.0369
     33 N          16.6900    6.2410   -1.1840 N.am      1 ILE        -0.2634
     34 CA         15.7140    5.7400   -0.2230 C.3       1 ILE         0.1337
     35 C          15.8320    6.4720    1.1130 C.2       1 ILE         0.2067
     36 O          16.7260    6.1850    1.9080 O.2       1 ILE        -0.3942
     37 CB         15.8940    4.2280    0.0210 C.3       1 ILE        -0.0037
     38 CG1        16.0250    3.4860   -1.3110 C.3       1 ILE        -0.0491
     39 CG2        14.7310    3.6750    0.8310 C.3       1 ILE        -0.0582
     40 CD1        16.6120    2.0980   -1.1740 C.3       1 ILE        -0.0648
     41 N          14.9260    7.4300    1.3810 N.am      1 PRO        -0.2498
     42 CA         14.9400    8.1970    2.6320 C.3       1 PRO         0.1338
     43 C          14.6360    7.3270    3.8460 C.2       1 PRO         0.2039
     44 O          15.3140    7.4140    4.8690 O.2       1 PRO        -0.3944
     45 CB         13.8370    9.2410    2.4300 C.3       1 PRO        -0.0104
     46 CG         12.9390    8.6550    1.3970 C.3       1 PRO        -0.0281
     47 CD         13.8240    7.8410    0.4950 C.3       1 PRO         0.0369
     48 N          13.6150    6.4850    3.7250 N.am      1 GLY        -0.2664
     49 CA         13.2430    5.6100    4.8210 C.3       1 GLY         0.1201
     50 C          11.7430    5.5470    5.0350 C.2       1 GLY         0.2008
     51 O          11.2080    4.5090    5.4260 O.2       1 GLY        -0.3947
     52 N          11.0630    6.6590    4.7780 N.am      1 THR        -0.2616
     53 CA          9.6160    6.7250    4.9460 C.3       1 THR         0.1567
     54 C           8.8990    5.9020    3.8780 C.2       1 THR         0.2090
     55 O           9.3070    5.8870    2.7180 O.2       1 THR        -0.3941
     56 CB          9.1080    8.1780    4.8810 C.3       1 THR         0.0924
     57 OG1         9.2810    8.7000    3.5590 O.3       1 THR        -0.3874
     58 CG2         9.8510    9.0550    5.8770 C.3       1 THR        -0.0346
     59 N           7.8140    5.2050    4.2580 N.am      1 PRO        -0.2498
     60 CA          7.0400    4.3790    3.3250 C.3       1 PRO         0.1340
     61 C           6.3490    5.2160    2.2500 C.2       1 PRO         0.2066
     62 O           6.2980    6.4420    2.3460 O.2       1 PRO        -0.3942
     63 CB          6.0040    3.6940    4.2210 C.3       1 PRO        -0.0104
     64 CG          5.8930    4.5700    5.4200 C.3       1 PRO        -0.0281
     65 CD          7.2560    5.1680    5.6220 C.3       1 PRO         0.0369
     66 N           5.8080    4.5610    1.2090 N.am      1 PRO        -0.2498
     67 CA          5.1200    5.2540    0.1130 C.3       1 PRO         0.1340
     68 C           4.0020    6.1650    0.6110 C.2       1 PRO         0.2066
     69 O           3.8130    6.3310    1.8160 O.2       1 PRO        -0.3942
     70 CB          4.5470    4.1120   -0.7300 C.3       1 PRO        -0.0104
     71 CG          5.4090    2.9380   -0.4200 C.3       1 PRO        -0.0281
     72 CD          5.8240    3.1000    1.0150 C.3       1 PRO         0.0369
     73 N           3.2440    6.7760   -0.3170 N.am      1 PRO        -0.2498
     74 CA          2.1410    7.6810    0.0280 C.3       1 PRO         0.1338
     75 C           1.0210    6.9710    0.7820 C.2       1 PRO         0.2042
     76 O           0.4820    5.9670    0.3140 O.2       1 PRO        -0.3944
     77 CB          1.6330    8.1760   -1.3340 C.3       1 PRO        -0.0104
     78 CG          2.7290    7.8710   -2.2970 C.3       1 PRO        -0.0281
     79 CD          3.4030    6.6390   -1.7730 C.3       1 PRO         0.0369
     80 N           0.6680    7.5030    1.9490 N.am      1 ASN        -0.2616
     81 CA         -0.3930    6.9230    2.7640 C.3       1 ASN         0.1476
     82 C          -1.7110    6.9070    1.9960 C.2       1 ASN         0.2064
     83 O          -1.9420    7.7440    1.1220 O.2       1 ASN        -0.3942
     84 CB         -0.5560    7.7110    4.0650 C.3       1 ASN         0.0773
     85 CG         -1.3280    6.9370    5.1180 C.2       1 ASN         0.1780
     86 OD1        -2.3820    7.3750    5.5770 O.2       1 ASN        -0.3970
     87 ND2        -0.8030    5.7810    5.5060 N.am      1 ASN        -0.3007
     88 N          -2.5730    5.9510    2.3250 N.am      1 TYR        -0.2620
     89 CA         -3.8660    5.8280    1.6620 C.3       1 TYR         0.1390
     90 C          -4.7270    7.0620    1.9110 C.2       1 TYR         0.2058
     91 O          -5.4940    7.4800    1.0430 O.2       1 TYR        -0.3942
     92 CB         -4.5970    4.5770    2.1520 C.3       1 TYR         0.0163
     93 CG         -5.9030    4.3200    1.4360 C.ar      1 TYR        -0.0493
     94 CD1        -5.9290    4.0470    0.0740 C.ar      1 TYR        -0.0685
     95 CD2        -7.1110    4.3510    2.1220 C.ar      1 TYR        -0.0685
     96 CE1        -7.1210    3.8110   -0.5840 C.ar      1 TYR        -0.0398
     97 CE2        -8.3060    4.1150    1.4710 C.ar      1 TYR        -0.0398
     98 CZ         -8.3070    3.8470    0.1190 C.ar      1 TYR         0.0805
     99 OH         -9.4960    3.6120   -0.5320 O.3       1 TYR        -0.3376
    100 N          -4.5940    7.6420    3.0990 N.am      1 ASP        -0.2620
    101 CA         -5.3610    8.8280    3.4610 C.3       1 ASP         0.1423
    102 C          -4.9890   10.0090    2.5700 C.2       1 ASP         0.2057
    103 O          -5.8130   10.8870    2.3090 O.2       1 ASP        -0.3943
    104 CB         -5.1210    9.1860    4.9290 C.3       1 ASP         0.0406
    105 CG         -6.1810    8.6060    5.8450 C.2       1 ASP         0.0393
    106 OD1        -6.2550    7.3640    5.9560 O.co2     1 ASP        -0.5688
    107 OD2        -6.9370    9.3940    6.4510 O.co2     1 ASP        -0.5688
    108 N          -3.7450   10.0230    2.1040 N.am      1 SER        -0.2615
    109 CA         -3.2630   11.0940    1.2400 C.3       1 SER         0.1539
    110 C          -3.4910   10.7580   -0.2330 C.2       1 SER         0.2056
    111 O          -3.4930   11.6440   -1.0870 O.2       1 SER        -0.3943
    112 CB         -1.7780   11.3520    1.4910 C.3       1 SER         0.0843
    113 OG         -1.5100   12.7400    1.5890 O.3       1 SER        -0.3903
    114 N          -3.6820    9.4730   -0.5250 N.am      1 LEU        -0.2694
    115 CA         -3.9070    9.0280   -1.8940 C.3       1 LEU         0.0946
    116 C          -5.2980    9.4330   -2.3740 C.2       1 LEU         0.0601
    117 O          -5.3980   10.4390   -3.1070 O.co2     1 LEU        -0.5666
    118 CB         -3.7470    7.5080   -1.9890 C.3       1 LEU        -0.0156
    119 CG         -2.3790    7.0310   -2.4790 C.3       1 LEU        -0.0431
    120 CD1        -2.3650    5.5180   -2.6320 C.3       1 LEU        -0.0625
    121 CD2        -2.0220    7.7050   -3.7950 C.3       1 LEU        -0.0625
    122 OXT        -6.2730    8.7420   -2.0120 O.co2     1 LEU        -0.5666
    123 H1         21.2246   17.9627   -7.8904 H         1 GLY         0.2012
    124 H2         19.7998   17.8754   -7.0709 H         1 GLY         0.2012
    125 H3         20.4220   16.5295   -7.7858 H         1 GLY         0.2012
    126 H4         21.6373   17.9995   -5.5326 H         1 GLY         0.1061
    127 H5         22.3163   16.5308   -6.3128 H         1 GLY         0.1061
    128 H6         20.1443   14.9223   -6.6135 H         1 SER         0.1885
    129 H7         18.6472   14.7737   -4.1024 H         1 SER         0.0823
    130 H8         18.7378   12.5382   -6.1401 H         1 SER         0.0606
    131 H9         17.9175   14.0816   -6.5547 H         1 SER         0.0606
    132 H10        16.5015   12.5476   -5.5724 H         1 SER         0.2097
    133 H11        20.6484   12.3421   -5.8279 H         1 THR         0.1884
    134 H12        22.1831   10.8189   -5.0621 H         1 THR         0.0826
    135 H13        22.3775   11.8442   -2.2761 H         1 THR         0.0639
    136 H14        21.9349   13.7907   -3.4468 H         1 THR         0.2101
    137 H15        24.7868   11.8253   -2.8365 H         1 THR         0.0257
    138 H16        24.3843   11.4659   -4.5498 H         1 THR         0.0257
    139 H17        23.9969   10.2703   -3.2663 H         1 THR         0.0257
    140 H18        20.4799   11.6398   -2.0111 H         1 LEU         0.1883
    141 H19        20.2320    8.9869   -1.1040 H         1 LEU         0.0800
    142 H20        18.5258   11.4563   -0.5913 H         1 LEU         0.0315
    143 H21        19.8937   10.8355    0.3938 H         1 LEU         0.0315
    144 H22        18.0000    8.7349    0.2584 H         1 LEU         0.0298
    145 H23        17.8160    9.1539    2.6894 H         1 LEU         0.0232
    146 H24        18.6188   10.7458    2.4708 H         1 LEU         0.0232
    147 H25        19.5187    9.2307    2.1227 H         1 LEU         0.0232
    148 H26        16.3333   10.4014   -0.4922 H         1 LEU         0.0232
    149 H27        16.6897   11.4028    0.9558 H         1 LEU         0.0232
    150 H28        15.9607    9.7725    1.1486 H         1 LEU         0.0232
    151 H29        17.0240    7.8173   -4.0743 H         1 PRO         0.0802
    152 H30        18.6405    6.2661   -4.8677 H         1 PRO         0.0313
    153 H31        17.5241    5.1298   -4.0376 H         1 PRO         0.0313
    154 H32        20.1394    5.2444   -3.4085 H         1 PRO         0.0287
    155 H33        18.8822    4.9566   -2.1582 H         1 PRO         0.0287
    156 H34        19.7275    6.8422   -1.1466 H         1 PRO         0.0524
    157 H35        20.5685    7.3733   -2.6424 H         1 PRO         0.0524
    158 H36        17.6581    6.2562   -0.9338 H         1 ILE         0.1883
    159 H37        14.7079    5.9132   -0.6326 H         1 ILE         0.0803
    160 H38        16.8196    4.0763    0.5956 H         1 ILE         0.0345
    161 H39        16.6749    4.0748   -1.9750 H         1 ILE         0.0267
    162 H40        15.0248    3.3981   -1.7604 H         1 ILE         0.0267
    163 H41        14.6546    4.2211    1.7828 H         1 ILE         0.0235
    164 H42        14.9002    2.6072    1.0336 H         1 ILE         0.0235
    165 H43        13.7973    3.7969    0.2624 H         1 ILE         0.0235
    166 H44        16.6759    1.6274   -2.1662 H         1 ILE         0.0230
    167 H45        15.9684    1.4905   -0.5208 H         1 ILE         0.0230
    168 H46        17.6184    2.1671   -0.7355 H         1 ILE         0.0230
    169 H47        15.9165    8.6832    2.7733 H         1 PRO         0.0802
    170 H48        14.2637   10.1916    2.0775 H         1 PRO         0.0313
    171 H49        13.2884    9.4109    3.3682 H         1 PRO         0.0313
    172 H50        12.4410    9.4525    0.8261 H         1 PRO         0.0287
    173 H51        12.1804    8.0134    1.8690 H         1 PRO         0.0287
    174 H52        13.2869    6.9651    0.1021 H         1 PRO         0.0524
    175 H53        14.1976    8.4482   -0.3427 H         1 PRO         0.0524
    176 H54        13.0977    6.4541    2.8697 H         1 GLY         0.1881
    177 H55        13.7149    5.9804    5.7430 H         1 GLY         0.0763
    178 H56        13.6103    4.5964    4.6026 H         1 GLY         0.0763
    179 H57        11.5552    7.4701    4.4618 H         1 THR         0.1884
    180 H58         9.3671    6.3109    5.9342 H         1 THR         0.0826
    181 H59         8.0368    8.1881    5.1310 H         1 THR         0.0639
    182 H60         8.7895    8.1691    2.9433 H         1 THR         0.2101
    183 H61         9.4718   10.0856    5.8123 H         1 THR         0.0257
    184 H62        10.9260    9.0446    5.6442 H         1 THR         0.0257
    185 H63         9.6925    8.6693    6.8949 H         1 THR         0.0257
    186 H64         7.6896    3.6354    2.8402 H         1 PRO         0.0802
    187 H65         6.3449    2.6881    4.5072 H         1 PRO         0.0313
    188 H66         5.0352    3.6199    3.7052 H         1 PRO         0.0313
    189 H67         5.6007    3.9784    6.3001 H         1 PRO         0.0287
    190 H68         5.1496    5.3622    5.2473 H         1 PRO         0.0287
    191 H69         7.1835    6.1804    6.0460 H         1 PRO         0.0524
    192 H70         7.8695    4.5371    6.2820 H         1 PRO         0.0524
    193 H71         5.8351    5.8507   -0.4723 H         1 PRO         0.0802
    194 H72         4.5983    4.3579   -1.8009 H         1 PRO         0.0313
    195 H73         3.5026    3.9102   -0.4497 H         1 PRO         0.0313
    196 H74         6.2926    2.9283   -1.0751 H         1 PRO         0.0287
    197 H75         4.8444    2.0032   -0.5519 H         1 PRO         0.0287
    198 H76         5.1104    2.6049    1.6900 H         1 PRO         0.0524
    199 H77         6.8313    2.6911    1.1825 H         1 PRO         0.0524
    200 H78         2.5098    8.5199    0.6364 H         1 PRO         0.0802
    201 H79         1.4379    9.2581   -1.3024 H         1 PRO         0.0313
    202 H80         0.7121    7.6455   -1.6178 H         1 PRO         0.0313
    203 H81         3.4421    8.7073   -2.3430 H         1 PRO         0.0287
    204 H82         2.3169    7.6849   -3.2997 H         1 PRO         0.0287
    205 H83         2.9076    5.7288   -2.1420 H         1 PRO         0.0524
    206 H84         4.4659    6.6181   -2.0555 H         1 PRO         0.0524
    207 H85         1.1419    8.3208    2.2754 H         1 ASN         0.1885
    208 H86        -0.1178    5.8872    3.0116 H         1 ASN         0.0826
    209 H87        -1.0951    8.6448    3.8472 H         1 ASN         0.0551
    210 H88         0.4422    7.9478    4.4619 H         1 ASN         0.0551
    211 H89        -1.2678    5.2277    6.1973 H         1 ASN         0.1814
    212 H90         0.0572    5.4635    5.1070 H         1 ASN         0.1814
    213 H91        -2.3294    5.3004    3.0443 H         1 TYR         0.1885
    214 H92        -3.6944    5.7341    0.5795 H         1 TYR         0.0821
    215 H93        -4.8062    4.6945    3.2255 H         1 TYR         0.0453
    216 H94        -3.9400    3.7081    1.9994 H         1 TYR         0.0453
    217 H95        -4.9987    4.0187   -0.4818 H         1 TYR         0.0530
    218 H96        -7.1155    4.5638    3.1849 H         1 TYR         0.0530
    219 H97        -7.1239    3.5987   -1.6470 H         1 TYR         0.0525
    220 H98        -9.2396    4.1405    2.0213 H         1 TYR         0.0525
    221 H99        -9.3247    3.4451   -1.4514 H         1 TYR         0.2458
    222 H100       -3.9520    7.2556    3.7612 H         1 ASP         0.1884
    223 H101       -6.4298    8.6080    3.3223 H         1 ASP         0.0819
    224 H102       -5.1264   10.2812    5.0312 H         1 ASP         0.0478
    225 H103       -4.1389    8.7942    5.2324 H         1 ASP         0.0478
    226 H104       -3.1233    9.2801    2.3521 H         1 SER         0.1884
    227 H105       -3.8232   12.0101    1.4786 H         1 SER         0.0823
    228 H106       -1.1947   10.9316    0.6585 H         1 SER         0.0606
    229 H107       -1.4821   10.8620    2.4303 H         1 SER         0.0606
    230 H108       -0.5822   12.8720    1.7447 H         1 SER         0.2097
    231 H109       -3.6708    8.7977    0.2124 H         1 LEU         0.1875
    232 H110       -3.1583    9.5038   -2.5444 H         1 LEU         0.0726
    233 H111       -4.5100    7.1274   -2.6840 H         1 LEU         0.0308
    234 H112       -3.9179    7.0838   -0.9886 H         1 LEU         0.0308
    235 H113       -1.6242    7.3110   -1.7294 H         1 LEU         0.0297
    236 H114       -1.3746    5.1943   -2.9846 H         1 LEU         0.0232
    237 H115       -3.1307    5.2161   -3.3618 H         1 LEU         0.0232
    238 H116       -2.5795    5.0492   -1.6603 H         1 LEU         0.0232
    239 H117       -2.0376    8.7970   -3.6637 H         1 LEU         0.0232
    240 H118       -2.7537    7.4178   -4.5644 H         1 LEU         0.0232
    241 H119       -1.0165    7.3877   -4.1085 H         1 LEU         0.0232
@<TRIPOS>BOND
     1    1    2 1  
     2    2    3 1  
     3    3    4 2  
     4    3    5 am 
     5    5    6 1  
     6    6    7 1  
     7    6    9 1  
     8    7    8 2  
     9    7   11 am 
    10    9   10 1  
    11   11   12 1  
    12   12   13 1  
    13   12   15 1  
    14   13   14 2  
    15   13   18 am 
    16   15   16 1  
    17   15   17 1  
    18   18   19 1  
    19   19   20 1  
    20   19   22 1  
    21   20   21 2  
    22   20   26 am 
    23   22   23 1  
    24   23   24 1  
    25   23   25 1  
    26   26   27 1  
    27   26   32 1  
    28   27   28 1  
    29   27   30 1  
    30   28   29 2  
    31   28   33 am 
    32   30   31 1  
    33   31   32 1  
    34   33   34 1  
    35   34   35 1  
    36   34   37 1  
    37   35   36 2  
    38   35   41 am 
    39   37   38 1  
    40   37   39 1  
    41   38   40 1  
    42   41   42 1  
    43   41   47 1  
    44   42   43 1  
    45   42   45 1  
    46   43   44 2  
    47   43   48 am 
    48   45   46 1  
    49   46   47 1  
    50   48   49 1  
    51   49   50 1  
    52   50   51 2  
    53   50   52 am 
    54   52   53 1  
    55   53   54 1  
    56   53   56 1  
    57   54   55 2  
    58   54   59 am 
    59   56   57 1  
    60   56   58 1  
    61   59   60 1  
    62   59   65 1  
    63   60   61 1  
    64   60   63 1  
    65   61   62 2  
    66   61   66 am 
    67   63   64 1  
    68   64   65 1  
    69   66   67 1  
    70   66   72 1  
    71   67   68 1  
    72   67   70 1  
    73   68   69 2  
    74   68   73 am 
    75   70   71 1  
    76   71   72 1  
    77   73   74 1  
    78   73   79 1  
    79   74   75 1  
    80   74   77 1  
    81   75   76 2  
    82   75   80 am 
    83   77   78 1  
    84   78   79 1  
    85   80   81 1  
    86   81   82 1  
    87   81   84 1  
    88   82   83 2  
    89   82   88 am 
    90   84   85 1  
    91   85   86 2  
    92   85   87 am 
    93   88   89 1  
    94   89   90 1  
    95   89   92 1  
    96   90   91 2  
    97   90  100 am 
    98   92   93 1  
    99   93   94 ar 
   100   93   95 ar 
   101   94   96 ar 
   102   95   97 ar 
   103   96   98 ar 
   104   97   98 ar 
   105   98   99 1  
   106  100  101 1  
   107  101  102 1  
   108  101  104 1  
   109  102  103 2  
   110  102  108 am 
   111  104  105 1  
   112  105  106 ar 
   113  105  107 ar 
   114  108  109 1  
   115  109  110 1  
   116  109  112 1  
   117  110  111 2  
   118  110  114 am 
   119  112  113 1  
   120  114  115 1  
   121  115  116 1  
   122  115  118 1  
   123  116  117 ar 
   124  116  122 ar 
   125  118  119 1  
   126  119  120 1  
   127  119  121 1  
   128    1  123 1  
   129    1  124 1  
   130    1  125 1  
   131    2  126 1  
   132    2  127 1  
   133    5  128 1  
   134    6  129 1  
   135    9  130 1  
   136    9  131 1  
   137   10  132 1  
   138   11  133 1  
   139   12  134 1  
   140   15  135 1  
   141   16  136 1  
   142   17  137 1  
   143   17  138 1  
   144   17  139 1  
   145   18  140 1  
   146   19  141 1  
   147   22  142 1  
   148   22  143 1  
   149   23  144 1  
   150   24  145 1  
   151   24  146 1  
   152   24  147 1  
   153   25  148 1  
   154   25  149 1  
   155   25  150 1  
   156   27  151 1  
   157   30  152 1  
   158   30  153 1  
   159   31  154 1  
   160   31  155 1  
   161   32  156 1  
   162   32  157 1  
   163   33  158 1  
   164   34  159 1  
   165   37  160 1  
   166   38  161 1  
   167   38  162 1  
   168   39  163 1  
   169   39  164 1  
   170   39  165 1  
   171   40  166 1  
   172   40  167 1  
   173   40  168 1  
   174   42  169 1  
   175   45  170 1  
   176   45  171 1  
   177   46  172 1  
   178   46  173 1  
   179   47  174 1  
   180   47  175 1  
   181   48  176 1  
   182   49  177 1  
   183   49  178 1  
   184   52  179 1  
   185   53  180 1  
   186   56  181 1  
   187   57  182 1  
   188   58  183 1  
   189   58  184 1  
   190   58  185 1  
   191   60  186 1  
   192   63  187 1  
   193   63  188 1  
   194   64  189 1  
   195   64  190 1  
   196   65  191 1  
   197   65  192 1  
   198   67  193 1  
   199   70  194 1  
   200   70  195 1  
   201   71  196 1  
   202   71  197 1  
   203   72  198 1  
   204   72  199 1  
   205   74  200 1  
   206   77  201 1  
   207   77  202 1  
   208   78  203 1  
   209   78  204 1  
   210   79  205 1  
   211   79  206 1  
   212   80  207 1  
   213   81  208 1  
   214   84  209 1  
   215   84  210 1  
   216   87  211 1  
   217   87  212 1  
   218   88  213 1  
   219   89  214 1  
   220   92  215 1  
   221   92  216 1  
   222   94  217 1  
   223   95  218 1  
   224   96  219 1  
   225   97  220 1  
   226   99  221 1  
   227  100  222 1  
   228  101  223 1  
   229  104  224 1  
   230  104  225 1  
   231  108  226 1  
   232  109  227 1  
   233  112  228 1  
   234  112  229 1  
   235  113  230 1  
   236  114  231 1  
   237  115  232 1  
   238  118  233 1  
   239  118  234 1  
   240  119  235 1  
   241  120  236 1  
   242  120  237 1  
   243  120  238 1  
   244  121  239 1  
   245  121  240 1  
   246  121  241 1  
@<TRIPOS>SUBSTRUCTURE
     1 GLY         1

