1i5h_ligand
  -I-interpret- 

243248  0  0  0  0  0  0  0  0999 V2000
   20.6490   17.3830   -7.3000 N   0  3  0  0  0
   21.3890   17.0600   -6.0480 C   0  0  0  0  0
   20.5830   16.1870   -5.1060 C   0  0  0  0  0
   20.4720   16.4840   -3.9170 O   0  0  0  0  0
   20.0180   15.1080   -5.6390 N   0  0  0  0  0
   19.2190   14.1890   -4.8380 C   0  0  0  0  0
   20.1100   13.2050   -4.0890 C   0  0  0  0  0
   20.2030   13.2450   -2.8620 O   0  0  0  0  0
   18.2360   13.4270   -5.7300 C   0  0  0  0  0
   17.0940   13.0170   -4.9970 O   0  0  0  0  0
   20.7660   12.3230   -4.8350 N   0  0  0  0  0
   21.6520   11.3290   -4.2450 C   0  0  0  0  0
   20.8670   10.2870   -3.4540 C   0  0  0  0  0
   20.7370    9.1400   -3.8820 O   0  0  0  0  0
   22.6950   11.9840   -3.3200 C   0  0  0  0  0
   22.7820   13.3870   -3.5950 O   0  0  0  0  0
   24.0600   11.3420   -3.5060 C   0  0  0  0  0
   20.3420   10.6930   -2.3020 N   0  0  0  0  0
   19.5700    9.7940   -1.4510 C   0  0  0  0  0
   18.4070    9.1720   -2.2250 C   0  0  0  0  0
   17.4270    9.8500   -2.5320 O   0  0  0  0  0
   19.0360   10.5500   -0.2330 C   0  0  0  0  0
   18.0530    9.7660    0.6380 C   0  0  0  0  0
   18.5350    9.7210    2.0800 C   0  0  0  0  0
   16.6630   10.3780    0.5570 C   0  0  0  0  0
   18.4960    7.8690   -2.5530 N   0  0  0  0  0
   17.4470    7.1700   -3.2920 C   0  0  0  0  0
   16.3230    6.6780   -2.3850 C   0  0  0  0  0
   15.1540    6.6910   -2.7650 O   0  0  0  0  0
   18.1970    5.9890   -3.9000 C   0  0  0  0  0
   19.2610    5.6720   -2.9030 C   0  0  0  0  0
   19.6280    6.9750   -2.2340 C   0  0  0  0  0
   16.6900    6.2410   -1.1840 N   0  0  0  0  0
   15.7140    5.7400   -0.2230 C   0  0  0  0  0
   15.8320    6.4720    1.1130 C   0  0  0  0  0
   16.7260    6.1850    1.9080 O   0  0  0  0  0
   15.8940    4.2280    0.0210 C   0  0  0  0  0
   16.0250    3.4860   -1.3110 C   0  0  0  0  0
   14.7310    3.6750    0.8310 C   0  0  0  0  0
   16.6120    2.0980   -1.1740 C   0  0  0  0  0
   14.9260    7.4300    1.3810 N   0  0  0  0  0
   14.9400    8.1970    2.6320 C   0  0  0  0  0
   14.6360    7.3270    3.8460 C   0  0  0  0  0
   15.3140    7.4140    4.8690 O   0  0  0  0  0
   13.8370    9.2410    2.4300 C   0  0  0  0  0
   12.9390    8.6550    1.3970 C   0  0  0  0  0
   13.8240    7.8410    0.4950 C   0  0  0  0  0
   13.6150    6.4850    3.7250 N   0  0  0  0  0
   13.2430    5.6100    4.8210 C   0  0  0  0  0
   11.7430    5.5470    5.0350 C   0  0  0  0  0
   11.2080    4.5090    5.4260 O   0  0  0  0  0
   11.0630    6.6590    4.7780 N   0  0  0  0  0
    9.6160    6.7250    4.9460 C   0  0  0  0  0
    8.8990    5.9020    3.8780 C   0  0  0  0  0
    9.3070    5.8870    2.7180 O   0  0  0  0  0
    9.1080    8.1780    4.8810 C   0  0  0  0  0
    9.2810    8.7000    3.5590 O   0  0  0  0  0
    9.8510    9.0550    5.8770 C   0  0  0  0  0
    7.8140    5.2050    4.2580 N   0  0  0  0  0
    7.0400    4.3790    3.3250 C   0  0  0  0  0
    6.3490    5.2160    2.2500 C   0  0  0  0  0
    6.2980    6.4420    2.3460 O   0  0  0  0  0
    6.0040    3.6940    4.2210 C   0  0  0  0  0
    5.8930    4.5700    5.4200 C   0  0  0  0  0
    7.2560    5.1680    5.6220 C   0  0  0  0  0
    5.8080    4.5610    1.2090 N   0  0  0  0  0
    5.1200    5.2540    0.1130 C   0  0  0  0  0
    4.0020    6.1650    0.6110 C   0  0  0  0  0
    3.8130    6.3310    1.8160 O   0  0  0  0  0
    4.5470    4.1120   -0.7300 C   0  0  0  0  0
    5.4090    2.9380   -0.4200 C   0  0  0  0  0
    5.8240    3.1000    1.0150 C   0  0  0  0  0
    3.2440    6.7760   -0.3170 N   0  0  0  0  0
    2.1410    7.6810    0.0280 C   0  0  0  0  0
    1.0210    6.9710    0.7820 C   0  0  0  0  0
    0.4820    5.9670    0.3140 O   0  0  0  0  0
    1.6330    8.1760   -1.3340 C   0  0  0  0  0
    2.7290    7.8710   -2.2970 C   0  0  0  0  0
    3.4030    6.6390   -1.7730 C   0  0  0  0  0
    0.6680    7.5030    1.9490 N   0  0  0  0  0
   -0.3930    6.9230    2.7640 C   0  0  0  0  0
   -1.7110    6.9070    1.9960 C   0  0  0  0  0
   -1.9420    7.7440    1.1220 O   0  0  0  0  0
   -0.5560    7.7110    4.0650 C   0  0  0  0  0
   -1.3280    6.9370    5.1180 C   0  0  0  0  0
   -2.3820    7.3750    5.5770 O   0  0  0  0  0
   -0.8030    5.7810    5.5060 N   0  0  0  0  0
   -2.5730    5.9510    2.3250 N   0  0  0  0  0
   -3.8660    5.8280    1.6620 C   0  0  0  0  0
   -4.7270    7.0620    1.9110 C   0  0  0  0  0
   -5.4940    7.4800    1.0430 O   0  0  0  0  0
   -4.5970    4.5770    2.1520 C   0  0  0  0  0
   -5.9030    4.3200    1.4360 C   0  0  0  0  0
   -5.9290    4.0470    0.0740 C   0  0  0  0  0
   -7.1110    4.3510    2.1220 C   0  0  0  0  0
   -7.1210    3.8110   -0.5840 C   0  0  0  0  0
   -8.3060    4.1150    1.4710 C   0  0  0  0  0
   -8.3070    3.8470    0.1190 C   0  0  0  0  0
   -9.4960    3.6120   -0.5320 O   0  0  0  0  0
   -4.5940    7.6420    3.0990 N   0  0  0  0  0
   -5.3610    8.8280    3.4610 C   0  0  0  0  0
   -4.9890   10.0090    2.5700 C   0  0  0  0  0
   -5.8130   10.8870    2.3090 O   0  0  0  0  0
   -5.1210    9.1860    4.9290 C   0  0  0  0  0
   -6.1810    8.6060    5.8450 C   0  0  0  0  0
   -6.2550    7.3640    5.9560 O   0  0  0  0  0
   -6.9370    9.3940    6.4510 O   0  0  0  0  0
   -3.7450   10.0230    2.1040 N   0  0  0  0  0
   -3.2630   11.0940    1.2400 C   0  0  0  0  0
   -3.4910   10.7580   -0.2330 C   0  0  0  0  0
   -3.4930   11.6440   -1.0870 O   0  0  0  0  0
   -1.7780   11.3520    1.4910 C   0  0  0  0  0
   -1.5100   12.7400    1.5890 O   0  0  0  0  0
   -3.6820    9.4730   -0.5250 N   0  0  0  0  0
   -3.9070    9.0280   -1.8940 C   0  0  0  0  0
   -5.2980    9.4330   -2.3740 C   0  0  0  0  0
   -5.3980   10.4390   -3.1070 O   0  0  0  0  0
   -3.7470    7.5080   -1.9890 C   0  0  0  0  0
   -2.3790    7.0310   -2.4790 C   0  0  0  0  0
   -2.3650    5.5180   -2.6320 C   0  0  0  0  0
   -2.0220    7.7050   -3.7950 C   0  0  0  0  0
   -6.2730    8.7420   -2.0120 O   0  0  0  0  0
   21.2324   17.9696   -7.8966 H   0  0  0  0  0
   20.4198   16.5186   -7.7907 H   0  0  0  0  0
   19.7900   17.8811   -7.0669 H   0  0  0  0  0
   21.6068   17.9967   -5.5349 H   0  0  0  0  0
   22.2920   16.5146   -6.3222 H   0  0  0  0  0
   20.1468   14.9186   -6.6329 H   0  0  0  0  0
   18.6599   14.7737   -4.1075 H   0  0  0  0  0
   18.7354   12.5410   -6.1220 H   0  0  0  0  0
   17.9146   14.0856   -6.5369 H   0  0  0  0  0
   16.4953   12.5426   -5.5785 H   0  0  0  0  0
   20.6460   12.3425   -5.8477 H   0  0  0  0  0
   22.1674   10.8379   -5.0704 H   0  0  0  0  0
   22.3772   11.8353   -2.2880 H   0  0  0  0  0
   23.4339   13.7860   -3.0141 H   0  0  0  0  0
   23.9961   10.2802   -3.2683 H   0  0  0  0  0
   24.3802   11.4654   -4.5406 H   0  0  0  0  0
   24.7792   11.8217   -2.8421 H   0  0  0  0  0
   20.4827   11.6587   -2.0053 H   0  0  0  0  0
   20.2303    8.9935   -1.1174 H   0  0  0  0  0
   18.4955   11.4166   -0.6138 H   0  0  0  0  0
   19.8965   10.7808    0.3950 H   0  0  0  0  0
   18.0003    8.7441    0.2625 H   0  0  0  0  0
   19.5098    9.2350    2.1209 H   0  0  0  0  0
   18.6176   10.7370    2.4660 H   0  0  0  0  0
   17.8217    9.1588    2.6828 H   0  0  0  0  0
   16.7008   11.4099    0.9061 H   0  0  0  0  0
   16.3170   10.3552   -0.4764 H   0  0  0  0  0
   15.9785    9.8060    1.1834 H   0  0  0  0  0
   16.9551    7.8131   -4.0218 H   0  0  0  0  0
   18.6116    6.2277   -4.8794 H   0  0  0  0  0
   17.5411    5.1380   -4.0833 H   0  0  0  0  0
   20.1289    5.2260   -3.3887 H   0  0  0  0  0
   18.9054    4.9459   -2.1720 H   0  0  0  0  0
   19.7762    6.8617   -1.1601 H   0  0  0  0  0
   20.5799    7.3693   -2.5896 H   0  0  0  0  0
   17.6774    6.2565   -0.9288 H   0  0  0  0  0
   14.7275    5.9205   -0.6501 H   0  0  0  0  0
   16.8098    4.0759    0.5922 H   0  0  0  0  0
   16.6977    4.0651   -1.9436 H   0  0  0  0  0
   15.0228    3.3782   -1.7258 H   0  0  0  0  0
   14.6844    4.1858    1.7928 H   0  0  0  0  0
   13.8009    3.8375    0.2864 H   0  0  0  0  0
   14.8774    2.6070    0.9921 H   0  0  0  0  0
   17.6092    2.1679   -0.7394 H   0  0  0  0  0
   15.9734    1.4971   -0.5266 H   0  0  0  0  0
   16.6748    1.6327   -2.1577 H   0  0  0  0  0
   15.9198    8.6316    2.8301 H   0  0  0  0  0
   14.2426   10.2025    2.1152 H   0  0  0  0  0
   13.3041    9.4512    3.3573 H   0  0  0  0  0
   12.4157    9.4327    0.8407 H   0  0  0  0  0
   12.1632    8.0386    1.8511 H   0  0  0  0  0
   13.3035    6.9920    0.0518 H   0  0  0  0  0
   14.1705    8.4039   -0.3717 H   0  0  0  0  0
   13.0874    6.4535    2.8526 H   0  0  0  0  0
   13.6951    6.0029    5.7317 H   0  0  0  0  0
   13.5895    4.6051    4.5799 H   0  0  0  0  0
   11.5650    7.4863    4.4555 H   0  0  0  0  0
    9.3942    6.3126    5.9303 H   0  0  0  0  0
    8.0483    8.1802    5.1363 H   0  0  0  0  0
    8.9617    9.6049    3.5291 H   0  0  0  0  0
    9.6932    8.6717    6.8851 H   0  0  0  0  0
   10.9160    9.0438    5.6453 H   0  0  0  0  0
    9.4744   10.0758    5.8119 H   0  0  0  0  0
    7.6736    3.6795    2.7797 H   0  0  0  0  0
    6.3063    2.6811    4.4870 H   0  0  0  0  0
    5.0455    3.5781    3.7150 H   0  0  0  0  0
    5.5764    4.0032    6.2956 H   0  0  0  0  0
    5.1393    5.3440    5.2755 H   0  0  0  0  0
    7.2179    6.1530    6.0873 H   0  0  0  0  0
    7.8706    4.5896    6.3118 H   0  0  0  0  0
    5.7940    5.9096   -0.4384 H   0  0  0  0  0
    4.5546    4.3504   -1.7936 H   0  0  0  0  0
    3.5005    3.9197   -0.4936 H   0  0  0  0  0
    6.2752    2.8975   -1.0804 H   0  0  0  0  0
    4.8727    2.0016   -0.5737 H   0  0  0  0  0
    5.1616    2.5775    1.7052 H   0  0  0  0  0
    6.7993    2.6596    1.2223 H   0  0  0  0  0
    2.4715    8.4817    0.6896 H   0  0  0  0  0
    1.4021    9.2411   -1.3131 H   0  0  0  0  0
    0.7018    7.6853   -1.6174 H   0  0  0  0  0
    3.4294    8.7024   -2.3765 H   0  0  0  0  0
    2.3400    7.7125   -3.3028 H   0  0  0  0  0
    2.9682    5.7187   -2.1629 H   0  0  0  0  0
    4.4458    6.5619   -2.0809 H   0  0  0  0  0
    1.1514    8.3372    2.2820 H   0  0  0  0  0
   -0.1167    5.8965    3.0050 H   0  0  0  0  0
   -1.1121    8.6211    3.8404 H   0  0  0  0  0
    0.4384    7.9182    4.4604 H   0  0  0  0  0
   -1.2764    5.2173    6.2121 H   0  0  0  0  0
    0.0737    5.4565    5.0980 H   0  0  0  0  0
   -2.3245    5.2874    3.0587 H   0  0  0  0  0
   -3.6880    5.7417    0.5901 H   0  0  0  0  0
   -4.8264    4.7248    3.2073 H   0  0  0  0  0
   -3.9467    3.7231    1.9623 H   0  0  0  0  0
   -4.9936    4.0185   -0.4848 H   0  0  0  0  0
   -7.1156    4.5650    3.1908 H   0  0  0  0  0
   -7.1239    3.5975   -1.6529 H   0  0  0  0  0
   -9.2448    4.1406    2.0243 H   0  0  0  0  0
  -10.2204    3.6735    0.0950 H   0  0  0  0  0
   -3.9392    7.2478    3.7744 H   0  0  0  0  0
   -6.4182    8.6058    3.3160 H   0  0  0  0  0
   -5.1523   10.2716    5.0213 H   0  0  0  0  0
   -4.1567    8.7724    5.2241 H   0  0  0  0  0
   -5.5832    6.9541    5.4061 H   0  0  0  0  0
   -3.1109    9.2652    2.3571 H   0  0  0  0  0
   -3.8277   11.9955    1.4778 H   0  0  0  0  0
   -1.2076   10.9450    0.6561 H   0  0  0  0  0
   -1.4952   10.8753    2.4296 H   0  0  0  0  0
   -0.5724   12.8734    1.7463 H   0  0  0  0  0
   -3.6705    8.7842    0.2272 H   0  0  0  0  0
   -3.1658    9.5071   -2.5336 H   0  0  0  0  0
   -4.5264   10.8128   -3.2562 H   0  0  0  0  0
   -4.4806    7.1594   -2.7159 H   0  0  0  0  0
   -3.8745    7.1147   -0.9805 H   0  0  0  0  0
   -1.6304    7.3070   -1.7363 H   0  0  0  0  0
   -2.5777    5.0547   -1.6686 H   0  0  0  0  0
   -3.1241    5.2202   -3.3553 H   0  0  0  0  0
   -1.3832    5.1985   -2.9814 H   0  0  0  0  0
   -2.7740    7.4575   -4.5442 H   0  0  0  0  0
   -1.9915    8.7851   -3.6520 H   0  0  0  0  0
   -1.0456    7.3536   -4.1285 H   0  0  0  0  0
  1  2  1  0  0  0
  2  3  1  0  0  0
  3  4  2  0  0  0
  3  5  1  0  0  0
  5  6  1  0  0  0
  6  7  1  0  0  0
  6  9  1  0  0  0
  7  8  2  0  0  0
  7 11  1  0  0  0
  9 10  1  0  0  0
 11 12  1  0  0  0
 12 13  1  0  0  0
 12 15  1  0  0  0
 13 14  2  0  0  0
 13 18  1  0  0  0
 15 16  1  0  0  0
 15 17  1  0  0  0
 18 19  1  0  0  0
 19 20  1  0  0  0
 19 22  1  0  0  0
 20 21  2  0  0  0
 20 26  1  0  0  0
 22 23  1  0  0  0
 23 24  1  0  0  0
 23 25  1  0  0  0
 26 27  1  0  0  0
 26 32  1  0  0  0
 27 28  1  0  0  0
 27 30  1  0  0  0
 28 29  2  0  0  0
 28 33  1  0  0  0
 30 31  1  0  0  0
 31 32  1  0  0  0
 33 34  1  0  0  0
 34 35  1  0  0  0
 34 37  1  0  0  0
 35 36  2  0  0  0
 35 41  1  0  0  0
 37 38  1  0  0  0
 37 39  1  0  0  0
 38 40  1  0  0  0
 41 42  1  0  0  0
 41 47  1  0  0  0
 42 43  1  0  0  0
 42 45  1  0  0  0
 43 44  2  0  0  0
 43 48  1  0  0  0
 45 46  1  0  0  0
 46 47  1  0  0  0
 48 49  1  0  0  0
 49 50  1  0  0  0
 50 51  2  0  0  0
 50 52  1  0  0  0
 52 53  1  0  0  0
 53 54  1  0  0  0
 53 56  1  0  0  0
 54 55  2  0  0  0
 54 59  1  0  0  0
 56 57  1  0  0  0
 56 58  1  0  0  0
 59 60  1  0  0  0
 59 65  1  0  0  0
 60 61  1  0  0  0
 60 63  1  0  0  0
 61 62  2  0  0  0
 61 66  1  0  0  0
 63 64  1  0  0  0
 64 65  1  0  0  0
 66 67  1  0  0  0
 66 72  1  0  0  0
 67 68  1  0  0  0
 67 70  1  0  0  0
 68 69  2  0  0  0
 68 73  1  0  0  0
 70 71  1  0  0  0
 71 72  1  0  0  0
 73 74  1  0  0  0
 73 79  1  0  0  0
 74 75  1  0  0  0
 74 77  1  0  0  0
 75 76  2  0  0  0
 75 80  1  0  0  0
 77 78  1  0  0  0
 78 79  1  0  0  0
 80 81  1  0  0  0
 81 82  1  0  0  0
 81 84  1  0  0  0
 82 83  2  0  0  0
 82 88  1  0  0  0
 84 85  1  0  0  0
 85 86  2  0  0  0
 85 87  1  0  0  0
 88 89  1  0  0  0
 89 90  1  0  0  0
 89 92  1  0  0  0
 90 91  2  0  0  0
 90100  1  0  0  0
 92 93  1  0  0  0
 93 94  4  0  0  0
 93 95  4  0  0  0
 94 96  4  0  0  0
 95 97  4  0  0  0
 96 98  4  0  0  0
 97 98  4  0  0  0
 98 99  1  0  0  0
100101  1  0  0  0
101102  1  0  0  0
101104  1  0  0  0
102103  2  0  0  0
102108  1  0  0  0
104105  1  0  0  0
105106  1  0  0  0
105107  2  0  0  0
108109  1  0  0  0
109110  1  0  0  0
109112  1  0  0  0
110111  2  0  0  0
110114  1  0  0  0
112113  1  0  0  0
114115  1  0  0  0
115116  1  0  0  0
115118  1  0  0  0
116117  1  0  0  0
116122  2  0  0  0
118119  1  0  0  0
119120  1  0  0  0
119121  1  0  0  0
  1123  1  0  0  0
  1124  1  0  0  0
  1125  1  0  0  0
  2126  1  0  0  0
  2127  1  0  0  0
  5128  1  0  0  0
  6129  1  0  0  0
  9130  1  0  0  0
  9131  1  0  0  0
 10132  1  0  0  0
 11133  1  0  0  0
 12134  1  0  0  0
 15135  1  0  0  0
 16136  1  0  0  0
 17137  1  0  0  0
 17138  1  0  0  0
 17139  1  0  0  0
 18140  1  0  0  0
 19141  1  0  0  0
 22142  1  0  0  0
 22143  1  0  0  0
 23144  1  0  0  0
 24145  1  0  0  0
 24146  1  0  0  0
 24147  1  0  0  0
 25148  1  0  0  0
 25149  1  0  0  0
 25150  1  0  0  0
 27151  1  0  0  0
 30152  1  0  0  0
 30153  1  0  0  0
 31154  1  0  0  0
 31155  1  0  0  0
 32156  1  0  0  0
 32157  1  0  0  0
 33158  1  0  0  0
 34159  1  0  0  0
 37160  1  0  0  0
 38161  1  0  0  0
 38162  1  0  0  0
 39163  1  0  0  0
 39164  1  0  0  0
 39165  1  0  0  0
 40166  1  0  0  0
 40167  1  0  0  0
 40168  1  0  0  0
 42169  1  0  0  0
 45170  1  0  0  0
 45171  1  0  0  0
 46172  1  0  0  0
 46173  1  0  0  0
 47174  1  0  0  0
 47175  1  0  0  0
 48176  1  0  0  0
 49177  1  0  0  0
 49178  1  0  0  0
 52179  1  0  0  0
 53180  1  0  0  0
 56181  1  0  0  0
 57182  1  0  0  0
 58183  1  0  0  0
 58184  1  0  0  0
 58185  1  0  0  0
 60186  1  0  0  0
 63187  1  0  0  0
 63188  1  0  0  0
 64189  1  0  0  0
 64190  1  0  0  0
 65191  1  0  0  0
 65192  1  0  0  0
 67193  1  0  0  0
 70194  1  0  0  0
 70195  1  0  0  0
 71196  1  0  0  0
 71197  1  0  0  0
 72198  1  0  0  0
 72199  1  0  0  0
 74200  1  0  0  0
 77201  1  0  0  0
 77202  1  0  0  0
 78203  1  0  0  0
 78204  1  0  0  0
 79205  1  0  0  0
 79206  1  0  0  0
 80207  1  0  0  0
 81208  1  0  0  0
 84209  1  0  0  0
 84210  1  0  0  0
 87211  1  0  0  0
 87212  1  0  0  0
 88213  1  0  0  0
 89214  1  0  0  0
 92215  1  0  0  0
 92216  1  0  0  0
 94217  1  0  0  0
 95218  1  0  0  0
 96219  1  0  0  0
 97220  1  0  0  0
 99221  1  0  0  0
100222  1  0  0  0
101223  1  0  0  0
104224  1  0  0  0
104225  1  0  0  0
106226  1  0  0  0
108227  1  0  0  0
109228  1  0  0  0
112229  1  0  0  0
112230  1  0  0  0
113231  1  0  0  0
114232  1  0  0  0
115233  1  0  0  0
117234  1  0  0  0
118235  1  0  0  0
118236  1  0  0  0
119237  1  0  0  0
120238  1  0  0  0
120239  1  0  0  0
120240  1  0  0  0
121241  1  0  0  0
121242  1  0  0  0
121243  1  0  0  0
M  END
$$$$
