### 
### Created by X-TOOL on Mon Sep 10 21:13:19 2018
### 

@<TRIPOS>MOLECULE
4jit_ligand
   36    38     1     0     0
SMALL
GAST_HUCK


@<TRIPOS>ATOM
      1 N1        -40.6980   22.5210  -11.7260 N.am      1 3ZF        -0.1839
      2 C2        -40.0660   23.0760  -12.7750 C.2       1 3ZF         0.2340
      3 N2        -38.9580   23.9710  -12.5480 N.pl3     1 3ZF        -0.2807
      4 N3        -40.4450   22.8180  -14.0590 N.2       1 3ZF        -0.2765
      5 C4        -41.5030   21.9680  -14.3040 C.2       1 3ZF         0.1138
      6 C5        -42.1730   21.3760  -13.2460 C.2       1 3ZF         0.0925
      7 C6        -41.7500   21.6680  -11.9000 C.2       1 3ZF         0.2135
      8 O6        -42.3900   21.1030  -10.8220 O.2       1 3ZF        -0.4091
      9 N7        -43.1790   20.5770  -13.7920 N.2       1 3ZF        -0.3236
     10 C8        -43.1200   20.6770  -15.1530 C.2       1 3ZF         0.0936
     11 N9        -42.1160   21.5160  -15.4820 N.pl3     1 3ZF        -0.2340
     12 OAB       -41.6290   17.7150  -18.8410 O.2       1 3ZF        -0.3953
     13 OAD       -43.9010   16.0750  -18.7520 O.co2     1 3ZF        -0.5606
     14 OAE       -46.0830   17.2600  -19.0230 O.co2     1 3ZF        -0.5606
     15 OAF       -44.5260   16.9070  -21.0400 O.co2     1 3ZF        -0.5606
     16 CAH       -40.3150   21.4950  -17.0870 C.3       1 3ZF         0.0000
     17 CAI       -40.3970   20.0910  -17.5640 C.3       1 3ZF         0.0369
     18 CAJ       -43.7870   18.7670  -19.1350 C.3       1 3ZF         0.1085
     19 CAK       -42.5130   21.1770  -17.8360 C.3       1 3ZF         0.0644
     20 CAO       -42.3170   18.7240  -18.6820 C.2       1 3ZF         0.1951
     21 CAT       -41.6950   21.9090  -16.8400 C.3       1 3ZF         0.0913
     22 NAU       -41.7610   19.9210  -18.0610 N.am      1 3ZF        -0.2690
     23 PAW       -44.5950   17.1730  -19.4900 P.3       1 3ZF         0.0776
     24 H1        -40.3913   22.7374  -10.7991 H         1 3ZF         0.2515
     25 H2        -38.4698   24.3993  -13.3474 H         1 3ZF         0.1897
     26 H3        -38.6549   24.1818  -11.5864 H         1 3ZF         0.1897
     27 H4        -43.7749   20.1644  -15.8560 H         1 3ZF         0.1178
     28 H5        -39.8540   22.1346  -17.8541 H         1 3ZF         0.0315
     29 H6        -39.7257   21.5515  -16.1599 H         1 3ZF         0.0315
     30 H7        -40.2004   19.3929  -16.7370 H         1 3ZF         0.0523
     31 H8        -39.6703   19.9171  -18.3712 H         1 3ZF         0.0523
     32 H9        -43.8333   19.3730  -20.0518 H         1 3ZF         0.0692
     33 H10       -44.3643   19.2608  -18.3395 H         1 3ZF         0.0692
     34 H11       -42.6012   21.7528  -18.7691 H         1 3ZF         0.0553
     35 H12       -43.5169   20.9662  -17.4389 H         1 3ZF         0.0553
     36 H13       -41.8027   22.9964  -16.9661 H         1 3ZF         0.0673
@<TRIPOS>BOND
     1    2    1 am 
     2    7    1 am 
     3    2    3 1  
     4    4    2 2  
     5    5    4 1  
     6    5    6 2  
     7   11    5 1  
     8    6    7 1  
     9    9    6 1  
    10    7    8 2  
    11   10    9 2  
    12   11   10 1  
    13   21   11 1  
    14   20   12 2  
    15   23   13 ar 
    16   23   14 ar 
    17   23   15 ar 
    18   17   16 1  
    19   21   16 1  
    20   22   17 1  
    21   20   18 1  
    22   18   23 1  
    23   19   21 1  
    24   22   19 1  
    25   20   22 am 
    26    1   24 1  
    27    3   25 1  
    28    3   26 1  
    29   10   27 1  
    30   16   28 1  
    31   16   29 1  
    32   17   30 1  
    33   17   31 1  
    34   18   32 1  
    35   18   33 1  
    36   19   34 1  
    37   19   35 1  
    38   21   36 1  
@<TRIPOS>SUBSTRUCTURE
     1 3ZF         1

