4jit_ligand
  -I-interpret- 

 38 40  0  0  0  0  0  0  0  0999 V2000
  -40.6980   22.5210  -11.7260 N   0  0  0  0  0
  -40.0660   23.0760  -12.7750 C   0  0  0  0  0
  -38.9580   23.9710  -12.5480 N   0  0  0  0  0
  -40.4450   22.8180  -14.0590 N   0  0  0  0  0
  -41.5030   21.9680  -14.3040 C   0  0  0  0  0
  -42.1730   21.3760  -13.2460 C   0  0  0  0  0
  -41.7500   21.6680  -11.9000 C   0  0  0  0  0
  -42.3900   21.1030  -10.8220 O   0  0  0  0  0
  -43.1790   20.5770  -13.7920 N   0  0  0  0  0
  -43.1200   20.6770  -15.1530 C   0  0  0  0  0
  -42.1160   21.5160  -15.4820 N   0  0  0  0  0
  -41.6290   17.7150  -18.8410 O   0  0  0  0  0
  -43.9010   16.0750  -18.7520 O   0  0  0  0  0
  -46.0830   17.2600  -19.0230 O   0  0  0  0  0
  -44.5260   16.9070  -21.0400 O   0  0  0  0  0
  -40.3150   21.4950  -17.0870 C   0  0  0  0  0
  -40.3970   20.0910  -17.5640 C   0  0  0  0  0
  -43.7870   18.7670  -19.1350 C   0  0  0  0  0
  -42.5130   21.1770  -17.8360 C   0  0  0  0  0
  -42.3170   18.7240  -18.6820 C   0  0  0  0  0
  -41.6950   21.9090  -16.8400 C   0  0  0  0  0
  -41.7610   19.9210  -18.0610 N   0  0  0  0  0
  -44.5950   17.1730  -19.4900 P   0  0  0  0  0
  -40.3851   22.7417  -10.7806 H   0  0  0  0  0
  -38.4755   24.3963  -13.3396 H   0  0  0  0  0
  -38.6569   24.1787  -11.5958 H   0  0  0  0  0
  -43.7755   20.1639  -15.8567 H   0  0  0  0  0
  -46.5258   17.9663  -19.4990 H   0  0  0  0  0
  -44.9741   17.6169  -21.5056 H   0  0  0  0  0
  -39.8324   22.1378  -17.8232 H   0  0  0  0  0
  -39.7084   21.5740  -16.1849 H   0  0  0  0  0
  -40.1749   19.3856  -16.7633 H   0  0  0  0  0
  -39.6621   19.8927  -18.3442 H   0  0  0  0  0
  -43.7910   19.3171  -20.0760 H   0  0  0  0  0
  -44.3409   19.2009  -18.3025 H   0  0  0  0  0
  -42.6528   21.7459  -18.7552 H   0  0  0  0  0
  -43.5281   20.9941  -17.4837 H   0  0  0  0  0
  -41.8056   22.9902  -16.9226 H   0  0  0  0  0
  2  1  1  0  0  0
  7  1  1  0  0  0
  2  3  1  0  0  0
  4  2  2  0  0  0
  5  4  1  0  0  0
  5  6  4  0  0  0
 11  5  4  0  0  0
  6  7  1  0  0  0
  9  6  4  0  0  0
  7  8  2  0  0  0
 10  9  4  0  0  0
 11 10  4  0  0  0
 21 11  1  0  0  0
 20 12  2  0  0  0
 23 13  2  0  0  0
 23 14  1  0  0  0
 23 15  1  0  0  0
 17 16  1  0  0  0
 21 16  1  0  0  0
 22 17  1  0  0  0
 20 18  1  0  0  0
 18 23  1  0  0  0
 19 21  1  0  0  0
 22 19  1  0  0  0
 20 22  1  0  0  0
  1 24  1  0  0  0
  3 25  1  0  0  0
  3 26  1  0  0  0
 10 27  1  0  0  0
 14 28  1  0  0  0
 15 29  1  0  0  0
 16 30  1  0  0  0
 16 31  1  0  0  0
 17 32  1  0  0  0
 17 33  1  0  0  0
 18 34  1  0  0  0
 18 35  1  0  0  0
 19 36  1  0  0  0
 19 37  1  0  0  0
 21 38  1  0  0  0
M  END
$$$$
