### 
### Created by X-TOOL on Mon Aug  2 16:10:41 2021
### 

@<TRIPOS>MOLECULE
6eh2_ligand
  264   265     1     0     0
SMALL
GAST_HUCK


@<TRIPOS>ATOM
      1 N          18.3610  -35.6270   25.2060 N.4       1 THR         0.2398
      2 CA         17.7040  -35.1980   23.9670 C.3       1 THR         0.0910
      3 C          16.7450  -34.0820   24.2880 C.2       1 THR         0.2293
      4 O          16.3710  -33.9170   25.4370 O.2       1 THR        -0.3906
      5 CB         16.9170  -36.3160   23.2840 C.3       1 THR         0.1120
      6 OG1        15.7730  -36.6560   24.0810 O.3       1 THR        -0.3840
      7 CG2        17.7940  -37.5540   23.0520 C.3       1 THR        -0.0314
      8 N          16.3190  -33.3260   23.2730 N.am      1 THR        -0.2585
      9 CA         15.3840  -32.2320   23.5400 C.3       1 THR         0.1566
     10 C          14.0700  -32.7430   24.1390 C.2       1 THR         0.2066
     11 O          13.5220  -32.1390   25.0780 O.2       1 THR        -0.3943
     12 CB         15.1190  -31.4600   22.2510 C.3       1 THR         0.0924
     13 OG1        16.3780  -31.1480   21.6400 O.3       1 THR        -0.3874
     14 CG2        14.3790  -30.1680   22.5610 C.3       1 THR        -0.0346
     15 N          13.5420  -33.8380   23.5960 N.am      1 THR        -0.2621
     16 CA         12.3030  -34.3970   24.1360 C.3       1 THR         0.1390
     17 C          12.4640  -34.7470   25.6070 C.2       1 THR         0.2057
     18 O          11.5920  -34.4320   26.4310 O.2       1 THR        -0.3942
     19 CB         11.8910  -35.6250   23.3460 C.3       1 THR         0.0163
     20 CG         10.6490  -36.2900   23.9030 C.ar      1 THR        -0.0493
     21 CD1        10.7140  -37.5320   24.5290 C.ar      1 THR        -0.0685
     22 CD2         9.4080  -35.6660   23.8170 C.ar      1 THR        -0.0685
     23 CE1         9.5690  -38.1380   25.0220 C.ar      1 THR        -0.0398
     24 CE2         8.2640  -36.2610   24.3150 C.ar      1 THR        -0.0398
     25 CZ          8.3490  -37.4990   24.9220 C.ar      1 THR         0.0805
     26 OH          7.2060  -38.1110   25.4090 O.3       1 THR        -0.3376
     27 N          13.5830  -35.3840   25.9620 N.am      1 THR        -0.2639
     28 CA         13.8200  -35.6850   27.3760 C.3       1 THR         0.1282
     29 C          13.8690  -34.4150   28.2060 C.2       1 THR         0.2037
     30 O          13.3360  -34.3750   29.3250 O.2       1 THR        -0.3944
     31 CB         15.1180  -36.4770   27.5500 C.3       1 THR        -0.0244
     32 N          14.5100  -33.3580   27.6740 N.am      1 THR        -0.2622
     33 CA         14.5730  -32.0910   28.3950 C.3       1 THR         0.1423
     34 C          13.1710  -31.5320   28.6280 C.2       1 THR         0.2057
     35 O          12.8860  -30.9560   29.6850 O.2       1 THR        -0.3943
     36 CB         15.4280  -31.0680   27.6300 C.3       1 THR         0.0406
     37 CG         16.9040  -31.4520   27.5510 C.2       1 THR         0.0393
     38 OD1        17.3300  -32.3260   28.3370 O.co2     1 THR        -0.5688
     39 OD2        17.6270  -30.8690   26.6930 O.co2     1 THR        -0.5688
     40 N          12.2890  -31.6980   27.6420 N.am      1 THR        -0.2618
     41 CA         10.9140  -31.2220   27.7650 C.3       1 THR         0.1404
     42 C          10.1940  -31.9710   28.8760 C.2       1 THR         0.2060
     43 O           9.5160  -31.3700   29.6990 O.2       1 THR        -0.3942
     44 CB         10.2010  -31.4140   26.4360 C.3       1 THR         0.0214
     45 CG          8.7500  -31.0160   26.4380 C.ar      1 THR        -0.0386
     46 CD1         8.3460  -29.7760   26.8570 C.ar      1 THR        -0.0601
     47 CD2         7.7920  -31.9030   25.9930 C.ar      1 THR        -0.0601
     48 CE1         6.9880  -29.4190   26.8270 C.ar      1 THR        -0.0686
     49 CE2         6.4410  -31.5520   25.9710 C.ar      1 THR        -0.0686
     50 CZ          6.0490  -30.3170   26.3880 C.ar      1 THR        -0.0687
     51 N          10.3290  -33.3010   28.8990 N.am      1 THR        -0.2633
     52 CA          9.7470  -34.0720   29.9980 C.3       1 THR         0.1335
     53 C          10.3020  -33.5790   31.3260 C.2       1 THR         0.2041
     54 O           9.5590  -33.3750   32.2910 O.2       1 THR        -0.3944
     55 CB         10.0150  -35.5770   29.7800 C.3       1 THR        -0.0037
     56 CG1         9.4100  -36.0570   28.4670 C.3       1 THR        -0.0491
     57 CG2         9.4940  -36.4230   30.9840 C.3       1 THR        -0.0582
     58 CD1         7.9780  -35.6040   28.2090 C.3       1 THR        -0.0648
     59 N          11.6170  -33.3320   31.3840 N.am      1 THR        -0.2640
     60 CA         12.2590  -32.9470   32.6370 C.3       1 THR         0.1282
     61 C          11.8130  -31.5850   33.1210 C.2       1 THR         0.2037
     62 O          11.9120  -31.3030   34.3180 O.2       1 THR        -0.3944
     63 CB         13.7840  -32.9440   32.4730 C.3       1 THR        -0.0244
     64 N          11.3490  -30.7130   32.2140 N.am      1 THR        -0.2616
     65 CA         10.9320  -29.3680   32.6030 C.3       1 THR         0.1539
     66 C           9.7500  -29.3580   33.5400 C.2       1 THR         0.2060
     67 O           9.5230  -28.3540   34.2260 O.2       1 THR        -0.3943
     68 CB         10.5080  -28.5460   31.3800 C.3       1 THR         0.0843
     69 OG          9.2450  -29.0130   30.9030 O.3       1 THR        -0.3903
     70 N           8.9520  -30.4220   33.5430 N.am      1 THR        -0.2663
     71 CA          7.7330  -30.4370   34.3160 C.3       1 THR         0.1201
     72 C           6.6100  -29.6080   33.7550 C.2       1 THR         0.2007
     73 O           5.5980  -29.4270   34.4370 O.2       1 THR        -0.3947
     74 N           6.7600  -29.0880   32.5320 N.am      1 THR        -0.2640
     75 CA          5.7540  -28.2370   31.9010 C.3       1 THR         0.1311
     76 C           5.1320  -28.9100   30.6810 C.2       1 THR         0.2040
     77 O           4.9110  -28.2660   29.6550 O.2       1 THR        -0.3944
     78 CB          6.3720  -26.8880   31.5290 C.3       1 THR        -0.0092
     79 CG          6.8100  -26.1130   32.8150 C.3       1 THR        -0.0156
     80 CD          7.3230  -24.6940   32.5100 C.3       1 THR         0.0627
     81 NE          6.2780  -23.8490   31.9230 N.pl3     1 THR        -0.2723
     82 CZ          5.3890  -23.1160   32.5970 C.cat     1 THR         0.2882
     83 NH1         5.3820  -23.0940   33.9350 N.pl3     1 THR        -0.2849
     84 NH2         4.4840  -22.4060   31.9340 N.pl3     1 THR        -0.2849
     85 N           4.8300  -30.2250   30.7920 N.am      1 THR        -0.2613
     86 CA          4.1730  -30.9690   29.7240 C.3       1 THR         0.1565
     87 C           2.6540  -30.9320   29.8190 C.2       1 THR         0.2063
     88 O           1.9930  -31.3180   28.8550 O.2       1 THR        -0.3943
     89 CB          4.6190  -32.4440   29.7050 C.3       1 THR         0.0924
     90 OG1         4.1990  -33.0720   30.9160 O.3       1 THR        -0.3874
     91 CG2         6.1350  -32.5880   29.5600 C.3       1 THR        -0.0346
     92 N           2.0850  -30.4980   30.9630 N.am      1 THR        -0.2663
     93 CA          0.6480  -30.4080   31.1280 C.3       1 THR         0.1201
     94 C           0.0950  -29.0580   30.7170 C.2       1 THR         0.2008
     95 O           0.8050  -28.1890   30.2260 O.2       1 THR        -0.3947
     96 N          -1.2160  -28.9280   30.8510 N.am      1 THR        -0.2618
     97 CA         -1.8570  -27.6760   30.5190 C.3       1 THR         0.1539
     98 C          -1.1400  -26.5430   31.2300 C.2       1 THR         0.2062
     99 O          -0.6940  -26.6870   32.3740 O.2       1 THR        -0.3943
    100 CB         -3.3340  -27.7040   30.9090 C.3       1 THR         0.0843
    101 OG         -4.1000  -28.3390   29.8970 O.3       1 THR        -0.3903
    102 N          -0.9880  -25.4310   30.5140 N.am      1 THR        -0.2637
    103 CA         -0.2220  -24.2850   30.9820 C.3       1 THR         0.1311
    104 C          -1.1660  -23.1320   31.2630 C.2       1 THR         0.2040
    105 O          -2.0100  -22.7930   30.4200 O.2       1 THR        -0.3944
    106 CB          0.8310  -23.8770   29.9440 C.3       1 THR        -0.0092
    107 CG          1.9090  -24.9260   29.7470 C.3       1 THR        -0.0156
    108 CD          2.6130  -24.8020   28.4270 C.3       1 THR         0.0627
    109 NE          1.6920  -25.1260   27.3350 N.pl3     1 THR        -0.2723
    110 CZ          2.0630  -25.5170   26.1290 C.cat     1 THR         0.2882
    111 NH1         3.3320  -25.6810   25.8330 N.pl3     1 THR        -0.2849
    112 NH2         1.1230  -25.7470   25.2150 N.pl3     1 THR        -0.2849
    113 N          -1.0370  -22.5500   32.4570 N.am      1 THR        -0.2616
    114 CA         -1.8680  -21.4250   32.8420 C.3       1 THR         0.1476
    115 C          -1.2720  -20.1310   32.3010 C.2       1 THR         0.2062
    116 O          -0.0630  -20.0280   32.0980 O.2       1 THR        -0.3942
    117 CB         -1.9600  -21.2980   34.3600 C.3       1 THR         0.0773
    118 CG         -2.7890  -22.3990   34.9830 C.2       1 THR         0.1780
    119 OD1        -3.7730  -22.8580   34.3960 O.2       1 THR        -0.3970
    120 ND2        -2.4050  -22.8140   36.1780 N.am      1 THR        -0.3007
    121 N          -2.1400  -19.1610   32.0610 N.am      1 THR        -0.2639
    122 CA         -1.6850  -17.8030   31.7830 C.3       1 THR         0.1282
    123 C          -1.0100  -17.2030   33.0170 C.2       1 THR         0.2031
    124 O          -1.2300  -17.6400   34.1450 O.2       1 THR        -0.3944
    125 CB         -2.8620  -16.9330   31.3440 C.3       1 THR        -0.0244
    126 N          -0.1720  -16.1900   32.7940 N.am      1 THR        -0.2692
    127 CA          0.5500  -15.5490   33.8990 C.3       1 THR         0.0969
    128 C          -0.3770  -14.6000   34.6610 C.2       1 THR         0.0604
    129 O          -1.4780  -14.2630   34.2070 O.co2     1 THR        -0.5666
    130 CB          1.7950  -14.8010   33.4090 C.3       1 THR        -0.0092
    131 CG1         1.4160  -13.6840   32.4500 C.3       1 THR        -0.0497
    132 CG2         2.7960  -15.7790   32.7890 C.3       1 THR        -0.0588
    133 CD1         2.6280  -12.8920   31.9300 C.3       1 THR        -0.0649
    134 OXT        -0.0260  -14.1450   35.7560 O.co2     1 THR        -0.5666
    135 H1         18.8614  -34.8495   25.6075 H         1 THR         0.2016
    136 H2         19.0072  -36.3734   25.0027 H         1 THR         0.2016
    137 H3         17.6661  -35.9528   25.8594 H         1 THR         0.2016
    138 H4         18.4740  -34.8335   23.2711 H         1 THR         0.1125
    139 H5         16.5690  -35.9506   22.3066 H         1 THR         0.0674
    140 H6         15.2861  -37.3510   23.6538 H         1 THR         0.2102
    141 H7         17.1991  -38.3378   22.5602 H         1 THR         0.0258
    142 H8         18.1648  -37.9270   24.0181 H         1 THR         0.0258
    143 H9         18.6466  -37.2846   22.4113 H         1 THR         0.0258
    144 H10        16.6351  -33.5052   22.3414 H         1 THR         0.1885
    145 H11        15.8490  -31.5499   24.2670 H         1 THR         0.0826
    146 H12        14.5148  -32.0753   21.5681 H         1 THR         0.0639
    147 H13        16.8429  -31.9535   21.4462 H         1 THR         0.2101
    148 H14        14.1927  -29.6189   21.6263 H         1 THR         0.0257
    149 H15        14.9892  -29.5485   23.2347 H         1 THR         0.0257
    150 H16        13.4199  -30.4021   23.0461 H         1 THR         0.0257
    151 H17        13.9924  -34.2781   22.8192 H         1 THR         0.1885
    152 H18        11.5106  -33.6397   24.0434 H         1 THR         0.0821
    153 H19        12.7177  -36.3503   23.3668 H         1 THR         0.0453
    154 H20        11.6929  -35.3245   22.3066 H         1 THR         0.0453
    155 H21        11.6709  -38.0307   24.6320 H         1 THR         0.0530
    156 H22         9.3369  -34.6910   23.3487 H         1 THR         0.0530
    157 H23         9.6314  -39.1153   25.4869 H         1 THR         0.0525
    158 H24         7.3067  -35.7596   24.2298 H         1 THR         0.0525
    159 H25         7.4359  -38.9491   25.7927 H         1 THR         0.2458
    160 H26        14.2524  -35.6528   25.2694 H         1 THR         0.1883
    161 H27        12.9856  -36.3027   27.7395 H         1 THR         0.0797
    162 H28        15.2762  -36.6918   28.6172 H         1 THR         0.0277
    163 H29        15.9625  -35.8860   27.1659 H         1 THR         0.0277
    164 H30        15.0483  -37.4224   26.9921 H         1 THR         0.0277
    165 H31        14.9463  -33.4415   26.7781 H         1 THR         0.1884
    166 H32        15.0419  -32.2734   29.3732 H         1 THR         0.0819
    167 H33        15.3471  -30.0958   28.1383 H         1 THR         0.0478
    168 H34        15.0349  -30.9805   26.6064 H         1 THR         0.0478
    169 H35        12.5749  -32.1578   26.8012 H         1 THR         0.1885
    170 H36        10.9260  -30.1502   28.0123 H         1 THR         0.0823
    171 H37        10.2641  -32.4779   26.1638 H         1 THR         0.0474
    172 H38        10.7209  -30.8100   25.6778 H         1 THR         0.0474
    173 H39         9.0809  -29.0640   27.2149 H         1 THR         0.0557
    174 H40         8.0929  -32.8881   25.6551 H         1 THR         0.0557
    175 H41         6.6813  -28.4313   27.1516 H         1 THR         0.0599
    176 H42         5.7027  -32.2644   25.6211 H         1 THR         0.0599
    177 H43         4.9999  -30.0446   26.3732 H         1 THR         0.0559
    178 H44        10.8262  -33.7674   28.1674 H         1 THR         0.1883
    179 H45         8.6585  -33.9137   30.0008 H         1 THR         0.0803
    180 H46        11.1042  -35.7179   29.7184 H         1 THR         0.0345
    181 H47         9.4241  -37.1569   28.4677 H         1 THR         0.0267
    182 H48        10.0386  -35.6827   27.6456 H         1 THR         0.0267
    183 H49         9.9476  -36.0533   31.9154 H         1 THR         0.0235
    184 H50         9.7678  -37.4781   30.8365 H         1 THR         0.0235
    185 H51         8.3995  -36.3337   31.0486 H         1 THR         0.0235
    186 H52         7.6365  -36.0011   27.2417 H         1 THR         0.0230
    187 H53         7.9392  -34.5049   28.1885 H         1 THR         0.0230
    188 H54         7.3247  -35.9791   29.0105 H         1 THR         0.0230
    189 H55        12.1689  -33.4128   30.5540 H         1 THR         0.1883
    190 H56        11.9876  -33.6904   33.4010 H         1 THR         0.0797
    191 H57        14.2544  -32.6525   33.4236 H         1 THR         0.0277
    192 H58        14.0671  -32.2266   31.6887 H         1 THR         0.0277
    193 H59        14.1243  -33.9508   32.1892 H         1 THR         0.0277
    194 H60        11.2874  -30.9882   31.2546 H         1 THR         0.1884
    195 H61        11.7840  -28.8774   33.0963 H         1 THR         0.0823
    196 H62        11.2619  -28.6549   30.5865 H         1 THR         0.0606
    197 H63        10.4234  -27.4863   31.6626 H         1 THR         0.0606
    198 H64         9.3187  -29.9282   30.6588 H         1 THR         0.2097
    199 H65         9.2005  -31.2247   33.0009 H         1 THR         0.1881
    200 H66         7.9639  -30.0604   35.3234 H         1 THR         0.0763
    201 H67         7.3860  -31.4786   34.3845 H         1 THR         0.0763
    202 H68         7.5987  -29.2909   32.0266 H         1 THR         0.1883
    203 H69         4.9521  -28.0572   32.6322 H         1 THR         0.0800
    204 H70         5.6303  -26.2890   30.9804 H         1 THR         0.0313
    205 H71         7.2518  -27.0566   30.8907 H         1 THR         0.0313
    206 H72         7.6134  -26.6784   33.3097 H         1 THR         0.0301
    207 H73         5.9456  -26.0365   33.4909 H         1 THR         0.0301
    208 H74         8.1627  -24.7638   31.8029 H         1 THR         0.0689
    209 H75         7.6694  -24.2322   33.4463 H         1 THR         0.0689
    210 H76         6.2251  -23.8182   30.8948 H         1 THR         0.2642
    211 H77         4.6879  -22.5220   34.4370 H         1 THR         0.2615
    212 H78         6.0707  -23.6490   34.4628 H         1 THR         0.2615
    213 H79         4.4773  -22.4133   30.9040 H         1 THR         0.2615
    214 H80         3.7886  -21.8479   32.4496 H         1 THR         0.2615
    215 H81         5.0662  -30.7037   31.6376 H         1 THR         0.1884
    216 H82         4.4667  -30.5056   28.7706 H         1 THR         0.0826
    217 H83         4.1373  -32.9450   28.8524 H         1 THR         0.0639
    218 H84         4.5945  -32.6266   31.6561 H         1 THR         0.2101
    219 H85         6.4028  -33.6549   29.5516 H         1 THR         0.0257
    220 H86         6.6331  -32.0916   30.4059 H         1 THR         0.0257
    221 H87         6.4593  -32.1212   28.6183 H         1 THR         0.0257
    222 H88         2.6757  -30.2290   31.7237 H         1 THR         0.1881
    223 H89         0.4039  -30.5807   32.1866 H         1 THR         0.0763
    224 H90         0.1736  -31.1852   30.5108 H         1 THR         0.0763
    225 H91        -1.7630  -29.6968   31.1822 H         1 THR         0.1884
    226 H92        -1.7844  -27.5170   29.4330 H         1 THR         0.0823
    227 H93        -3.6934  -26.6730   31.0426 H         1 THR         0.0606
    228 H94        -3.4495  -28.2578   31.8524 H         1 THR         0.0606
    229 H95        -5.0147  -28.3489   30.1531 H         1 THR         0.2097
    230 H96        -1.4198  -25.3807   29.6134 H         1 THR         0.1883
    231 H97         0.2927  -24.5588   31.9148 H         1 THR         0.0800
    232 H98         1.3077  -22.9433   30.2770 H         1 THR         0.0313
    233 H99         0.3266  -23.7081   28.9812 H         1 THR         0.0313
    234 H100        1.4444  -25.9214   29.8044 H         1 THR         0.0301
    235 H101        2.6516  -24.8210   30.5516 H         1 THR         0.0301
    236 H102        3.4657  -25.4965   28.4023 H         1 THR         0.0689
    237 H103        2.9761  -23.7711   28.3033 H         1 THR         0.0689
    238 H104        0.6823  -25.0430   27.5209 H         1 THR         0.2642
    239 H105        3.6051  -25.9864   24.8880 H         1 THR         0.2615
    240 H106        4.0541  -25.5042   26.5459 H         1 THR         0.2615
    241 H107        0.1296  -25.6164   25.4538 H         1 THR         0.2615
    242 H108        1.3890  -26.0555   24.2690 H         1 THR         0.2615
    243 H109       -0.3535  -22.8965   33.0995 H         1 THR         0.1885
    244 H110       -2.8766  -21.5684   32.4271 H         1 THR         0.0826
    245 H111       -2.4184  -20.3288   34.6060 H         1 THR         0.0551
    246 H112       -0.9442  -21.3404   34.7800 H         1 THR         0.0551
    247 H113       -2.9127  -23.5398   36.6422 H         1 THR         0.1814
    248 H114       -1.6069  -22.4021   36.6177 H         1 THR         0.1814
    249 H115       -3.1197  -19.3614   32.0703 H         1 THR         0.1883
    250 H116       -0.9506  -17.8393   30.9648 H         1 THR         0.0797
    251 H117       -2.5067  -15.9126   31.1375 H         1 THR         0.0277
    252 H118       -3.6153  -16.9038   32.1450 H         1 THR         0.0277
    253 H119       -3.3112  -17.3561   30.4334 H         1 THR         0.0277
    254 H120       -0.0335  -15.8622   31.8595 H         1 THR         0.1875
    255 H121        0.8794  -16.3378   34.5913 H         1 THR         0.0729
    256 H122        2.2775  -14.3388   34.2828 H         1 THR         0.0338
    257 H123        0.7425  -12.9887   32.9724 H         1 THR         0.0267
    258 H124        0.8919  -14.1253   31.5894 H         1 THR         0.0267
    259 H125        3.0389  -16.5663   33.5178 H         1 THR         0.0234
    260 H126        3.7137  -15.2388   32.5133 H         1 THR         0.0234
    261 H127        2.3548  -16.2348   31.8904 H         1 THR         0.0234
    262 H128        2.2840  -12.1034   31.2447 H         1 THR         0.0230
    263 H129        3.3080  -13.5714   31.3953 H         1 THR         0.0230
    264 H130        3.1586  -12.4348   32.7782 H         1 THR         0.0230
@<TRIPOS>BOND
     1    1    2 1  
     2    2    3 1  
     3    2    5 1  
     4    3    4 2  
     5    3    8 am 
     6    5    6 1  
     7    5    7 1  
     8    8    9 1  
     9    9   10 1  
    10    9   12 1  
    11   10   11 2  
    12   10   15 am 
    13   12   13 1  
    14   12   14 1  
    15   15   16 1  
    16   16   17 1  
    17   16   19 1  
    18   17   18 2  
    19   17   27 am 
    20   19   20 1  
    21   20   21 ar 
    22   20   22 ar 
    23   21   23 ar 
    24   22   24 ar 
    25   23   25 ar 
    26   24   25 ar 
    27   25   26 1  
    28   27   28 1  
    29   28   29 1  
    30   28   31 1  
    31   29   30 2  
    32   29   32 am 
    33   32   33 1  
    34   33   34 1  
    35   33   36 1  
    36   34   35 2  
    37   34   40 am 
    38   36   37 1  
    39   37   38 ar 
    40   37   39 ar 
    41   40   41 1  
    42   41   42 1  
    43   41   44 1  
    44   42   43 2  
    45   42   51 am 
    46   44   45 1  
    47   45   46 ar 
    48   45   47 ar 
    49   46   48 ar 
    50   47   49 ar 
    51   48   50 ar 
    52   49   50 ar 
    53   51   52 1  
    54   52   53 1  
    55   52   55 1  
    56   53   54 2  
    57   53   59 am 
    58   55   56 1  
    59   55   57 1  
    60   56   58 1  
    61   59   60 1  
    62   60   61 1  
    63   60   63 1  
    64   61   62 2  
    65   61   64 am 
    66   64   65 1  
    67   65   66 1  
    68   65   68 1  
    69   66   67 2  
    70   66   70 am 
    71   68   69 1  
    72   70   71 1  
    73   71   72 1  
    74   72   73 2  
    75   72   74 am 
    76   74   75 1  
    77   75   76 1  
    78   75   78 1  
    79   76   77 2  
    80   76   85 am 
    81   78   79 1  
    82   79   80 1  
    83   80   81 1  
    84   81   82 ar 
    85   82   83 ar 
    86   82   84 ar 
    87   85   86 1  
    88   86   87 1  
    89   86   89 1  
    90   87   88 2  
    91   87   92 am 
    92   89   90 1  
    93   89   91 1  
    94   92   93 1  
    95   93   94 1  
    96   94   95 2  
    97   94   96 am 
    98   96   97 1  
    99   97   98 1  
   100   97  100 1  
   101   98   99 2  
   102   98  102 am 
   103  100  101 1  
   104  102  103 1  
   105  103  104 1  
   106  103  106 1  
   107  104  105 2  
   108  104  113 am 
   109  106  107 1  
   110  107  108 1  
   111  108  109 1  
   112  109  110 ar 
   113  110  111 ar 
   114  110  112 ar 
   115  113  114 1  
   116  114  115 1  
   117  114  117 1  
   118  115  116 2  
   119  115  121 am 
   120  117  118 1  
   121  118  119 2  
   122  118  120 am 
   123  121  122 1  
   124  122  123 1  
   125  122  125 1  
   126  123  124 2  
   127  123  126 am 
   128  126  127 1  
   129  127  128 1  
   130  127  130 1  
   131  128  129 ar 
   132  128  134 ar 
   133  130  131 1  
   134  130  132 1  
   135  131  133 1  
   136    1  135 1  
   137    1  136 1  
   138    1  137 1  
   139    2  138 1  
   140    5  139 1  
   141    6  140 1  
   142    7  141 1  
   143    7  142 1  
   144    7  143 1  
   145    8  144 1  
   146    9  145 1  
   147   12  146 1  
   148   13  147 1  
   149   14  148 1  
   150   14  149 1  
   151   14  150 1  
   152   15  151 1  
   153   16  152 1  
   154   19  153 1  
   155   19  154 1  
   156   21  155 1  
   157   22  156 1  
   158   23  157 1  
   159   24  158 1  
   160   26  159 1  
   161   27  160 1  
   162   28  161 1  
   163   31  162 1  
   164   31  163 1  
   165   31  164 1  
   166   32  165 1  
   167   33  166 1  
   168   36  167 1  
   169   36  168 1  
   170   40  169 1  
   171   41  170 1  
   172   44  171 1  
   173   44  172 1  
   174   46  173 1  
   175   47  174 1  
   176   48  175 1  
   177   49  176 1  
   178   50  177 1  
   179   51  178 1  
   180   52  179 1  
   181   55  180 1  
   182   56  181 1  
   183   56  182 1  
   184   57  183 1  
   185   57  184 1  
   186   57  185 1  
   187   58  186 1  
   188   58  187 1  
   189   58  188 1  
   190   59  189 1  
   191   60  190 1  
   192   63  191 1  
   193   63  192 1  
   194   63  193 1  
   195   64  194 1  
   196   65  195 1  
   197   68  196 1  
   198   68  197 1  
   199   69  198 1  
   200   70  199 1  
   201   71  200 1  
   202   71  201 1  
   203   74  202 1  
   204   75  203 1  
   205   78  204 1  
   206   78  205 1  
   207   79  206 1  
   208   79  207 1  
   209   80  208 1  
   210   80  209 1  
   211   81  210 1  
   212   83  211 1  
   213   83  212 1  
   214   84  213 1  
   215   84  214 1  
   216   85  215 1  
   217   86  216 1  
   218   89  217 1  
   219   90  218 1  
   220   91  219 1  
   221   91  220 1  
   222   91  221 1  
   223   92  222 1  
   224   93  223 1  
   225   93  224 1  
   226   96  225 1  
   227   97  226 1  
   228  100  227 1  
   229  100  228 1  
   230  101  229 1  
   231  102  230 1  
   232  103  231 1  
   233  106  232 1  
   234  106  233 1  
   235  107  234 1  
   236  107  235 1  
   237  108  236 1  
   238  108  237 1  
   239  109  238 1  
   240  111  239 1  
   241  111  240 1  
   242  112  241 1  
   243  112  242 1  
   244  113  243 1  
   245  114  244 1  
   246  117  245 1  
   247  117  246 1  
   248  120  247 1  
   249  120  248 1  
   250  121  249 1  
   251  122  250 1  
   252  125  251 1  
   253  125  252 1  
   254  125  253 1  
   255  126  254 1  
   256  127  255 1  
   257  130  256 1  
   258  131  257 1  
   259  131  258 1  
   260  132  259 1  
   261  132  260 1  
   262  132  261 1  
   263  133  262 1  
   264  133  263 1  
   265  133  264 1  
@<TRIPOS>SUBSTRUCTURE
     1 THR         1

