6eh2_ligand
  -I-interpret- 

264265  0  0  0  0  0  0  0  0999 V2000
   18.3610  -35.6270   25.2060 N   0  3  0  0  0
   17.7040  -35.1980   23.9670 C   0  0  0  0  0
   16.7450  -34.0820   24.2880 C   0  0  0  0  0
   16.3710  -33.9170   25.4370 O   0  0  0  0  0
   16.9170  -36.3160   23.2840 C   0  0  0  0  0
   15.7730  -36.6560   24.0810 O   0  0  0  0  0
   17.7940  -37.5540   23.0520 C   0  0  0  0  0
   16.3190  -33.3260   23.2730 N   0  0  0  0  0
   15.3840  -32.2320   23.5400 C   0  0  0  0  0
   14.0700  -32.7430   24.1390 C   0  0  0  0  0
   13.5220  -32.1390   25.0780 O   0  0  0  0  0
   15.1190  -31.4600   22.2510 C   0  0  0  0  0
   16.3780  -31.1480   21.6400 O   0  0  0  0  0
   14.3790  -30.1680   22.5610 C   0  0  0  0  0
   13.5420  -33.8380   23.5960 N   0  0  0  0  0
   12.3030  -34.3970   24.1360 C   0  0  0  0  0
   12.4640  -34.7470   25.6070 C   0  0  0  0  0
   11.5920  -34.4320   26.4310 O   0  0  0  0  0
   11.8910  -35.6250   23.3460 C   0  0  0  0  0
   10.6490  -36.2900   23.9030 C   0  0  0  0  0
   10.7140  -37.5320   24.5290 C   0  0  0  0  0
    9.4080  -35.6660   23.8170 C   0  0  0  0  0
    9.5690  -38.1380   25.0220 C   0  0  0  0  0
    8.2640  -36.2610   24.3150 C   0  0  0  0  0
    8.3490  -37.4990   24.9220 C   0  0  0  0  0
    7.2060  -38.1110   25.4090 O   0  0  0  0  0
   13.5830  -35.3840   25.9620 N   0  0  0  0  0
   13.8200  -35.6850   27.3760 C   0  0  0  0  0
   13.8690  -34.4150   28.2060 C   0  0  0  0  0
   13.3360  -34.3750   29.3250 O   0  0  0  0  0
   15.1180  -36.4770   27.5500 C   0  0  0  0  0
   14.5100  -33.3580   27.6740 N   0  0  0  0  0
   14.5730  -32.0910   28.3950 C   0  0  0  0  0
   13.1710  -31.5320   28.6280 C   0  0  0  0  0
   12.8860  -30.9560   29.6850 O   0  0  0  0  0
   15.4280  -31.0680   27.6300 C   0  0  0  0  0
   16.9040  -31.4520   27.5510 C   0  0  0  0  0
   17.3300  -32.3260   28.3370 O   0  0  0  0  0
   17.6270  -30.8690   26.6930 O   0  0  0  0  0
   12.2890  -31.6980   27.6420 N   0  0  0  0  0
   10.9140  -31.2220   27.7650 C   0  0  0  0  0
   10.1940  -31.9710   28.8760 C   0  0  0  0  0
    9.5160  -31.3700   29.6990 O   0  0  0  0  0
   10.2010  -31.4140   26.4360 C   0  0  0  0  0
    8.7500  -31.0160   26.4380 C   0  0  0  0  0
    8.3460  -29.7760   26.8570 C   0  0  0  0  0
    7.7920  -31.9030   25.9930 C   0  0  0  0  0
    6.9880  -29.4190   26.8270 C   0  0  0  0  0
    6.4410  -31.5520   25.9710 C   0  0  0  0  0
    6.0490  -30.3170   26.3880 C   0  0  0  0  0
   10.3290  -33.3010   28.8990 N   0  0  0  0  0
    9.7470  -34.0720   29.9980 C   0  0  0  0  0
   10.3020  -33.5790   31.3260 C   0  0  0  0  0
    9.5590  -33.3750   32.2910 O   0  0  0  0  0
   10.0150  -35.5770   29.7800 C   0  0  0  0  0
    9.4100  -36.0570   28.4670 C   0  0  0  0  0
    9.4940  -36.4230   30.9840 C   0  0  0  0  0
    7.9780  -35.6040   28.2090 C   0  0  0  0  0
   11.6170  -33.3320   31.3840 N   0  0  0  0  0
   12.2590  -32.9470   32.6370 C   0  0  0  0  0
   11.8130  -31.5850   33.1210 C   0  0  0  0  0
   11.9120  -31.3030   34.3180 O   0  0  0  0  0
   13.7840  -32.9440   32.4730 C   0  0  0  0  0
   11.3490  -30.7130   32.2140 N   0  0  0  0  0
   10.9320  -29.3680   32.6030 C   0  0  0  0  0
    9.7500  -29.3580   33.5400 C   0  0  0  0  0
    9.5230  -28.3540   34.2260 O   0  0  0  0  0
   10.5080  -28.5460   31.3800 C   0  0  0  0  0
    9.2450  -29.0130   30.9030 O   0  0  0  0  0
    8.9520  -30.4220   33.5430 N   0  0  0  0  0
    7.7330  -30.4370   34.3160 C   0  0  0  0  0
    6.6100  -29.6080   33.7550 C   0  0  0  0  0
    5.5980  -29.4270   34.4370 O   0  0  0  0  0
    6.7600  -29.0880   32.5320 N   0  0  0  0  0
    5.7540  -28.2370   31.9010 C   0  0  0  0  0
    5.1320  -28.9100   30.6810 C   0  0  0  0  0
    4.9110  -28.2660   29.6550 O   0  0  0  0  0
    6.3720  -26.8880   31.5290 C   0  0  0  0  0
    6.8100  -26.1130   32.8150 C   0  0  0  0  0
    7.3230  -24.6940   32.5100 C   0  0  0  0  0
    6.2780  -23.8490   31.9230 N   0  0  0  0  0
    5.3890  -23.1160   32.5970 C   0  0  0  0  0
    5.3820  -23.0940   33.9350 N   0  0  0  0  0
    4.4840  -22.4060   31.9340 N   0  0  0  0  0
    4.8300  -30.2250   30.7920 N   0  0  0  0  0
    4.1730  -30.9690   29.7240 C   0  0  0  0  0
    2.6540  -30.9320   29.8190 C   0  0  0  0  0
    1.9930  -31.3180   28.8550 O   0  0  0  0  0
    4.6190  -32.4440   29.7050 C   0  0  0  0  0
    4.1990  -33.0720   30.9160 O   0  0  0  0  0
    6.1350  -32.5880   29.5600 C   0  0  0  0  0
    2.0850  -30.4980   30.9630 N   0  0  0  0  0
    0.6480  -30.4080   31.1280 C   0  0  0  0  0
    0.0950  -29.0580   30.7170 C   0  0  0  0  0
    0.8050  -28.1890   30.2260 O   0  0  0  0  0
   -1.2160  -28.9280   30.8510 N   0  0  0  0  0
   -1.8570  -27.6760   30.5190 C   0  0  0  0  0
   -1.1400  -26.5430   31.2300 C   0  0  0  0  0
   -0.6940  -26.6870   32.3740 O   0  0  0  0  0
   -3.3340  -27.7040   30.9090 C   0  0  0  0  0
   -4.1000  -28.3390   29.8970 O   0  0  0  0  0
   -0.9880  -25.4310   30.5140 N   0  0  0  0  0
   -0.2220  -24.2850   30.9820 C   0  0  0  0  0
   -1.1660  -23.1320   31.2630 C   0  0  0  0  0
   -2.0100  -22.7930   30.4200 O   0  0  0  0  0
    0.8310  -23.8770   29.9440 C   0  0  0  0  0
    1.9090  -24.9260   29.7470 C   0  0  0  0  0
    2.6130  -24.8020   28.4270 C   0  0  0  0  0
    1.6920  -25.1260   27.3350 N   0  0  0  0  0
    2.0630  -25.5170   26.1290 C   0  0  0  0  0
    3.3320  -25.6810   25.8330 N   0  0  0  0  0
    1.1230  -25.7470   25.2150 N   0  0  0  0  0
   -1.0370  -22.5500   32.4570 N   0  0  0  0  0
   -1.8680  -21.4250   32.8420 C   0  0  0  0  0
   -1.2720  -20.1310   32.3010 C   0  0  0  0  0
   -0.0630  -20.0280   32.0980 O   0  0  0  0  0
   -1.9600  -21.2980   34.3600 C   0  0  0  0  0
   -2.7890  -22.3990   34.9830 C   0  0  0  0  0
   -3.7730  -22.8580   34.3960 O   0  0  0  0  0
   -2.4050  -22.8140   36.1780 N   0  0  0  0  0
   -2.1400  -19.1610   32.0610 N   0  0  0  0  0
   -1.6850  -17.8030   31.7830 C   0  0  0  0  0
   -1.0100  -17.2030   33.0170 C   0  0  0  0  0
   -1.2300  -17.6400   34.1450 O   0  0  0  0  0
   -2.8620  -16.9330   31.3440 C   0  0  0  0  0
   -0.1720  -16.1900   32.7940 N   0  0  0  0  0
    0.5500  -15.5490   33.8990 C   0  0  0  0  0
   -0.3770  -14.6000   34.6610 C   0  0  0  0  0
   -1.4780  -14.2630   34.2070 O   0  0  0  0  0
    1.7950  -14.8010   33.4090 C   0  0  0  0  0
    1.4160  -13.6840   32.4500 C   0  0  0  0  0
    2.7960  -15.7790   32.7890 C   0  0  0  0  0
    2.6280  -12.8920   31.9300 C   0  0  0  0  0
   -0.0260  -14.1450   35.7560 O   0  0  0  0  0
   18.8670  -34.8396   25.6114 H   0  0  0  0  0
   17.6569  -35.9565   25.8663 H   0  0  0  0  0
   19.0145  -36.3823   24.9990 H   0  0  0  0  0
   18.4915  -34.8813   23.2832 H   0  0  0  0  0
   16.5857  -35.9586   22.3090 H   0  0  0  0  0
   15.2351  -35.8726   24.2172 H   0  0  0  0  0
   18.1324  -37.9431   24.0123 H   0  0  0  0  0
   17.2134  -38.3170   22.5336 H   0  0  0  0  0
   18.6569  -37.2780   22.4459 H   0  0  0  0  0
   16.6414  -33.5088   22.3227 H   0  0  0  0  0
   15.8378  -31.5675   24.2753 H   0  0  0  0  0
   14.5096  -32.0650   21.5797 H   0  0  0  0  0
   16.2258  -30.6614   20.8266 H   0  0  0  0  0
   13.4289  -30.4013   23.0417 H   0  0  0  0  0
   14.9846  -29.5551   23.2286 H   0  0  0  0  0
   14.1950  -29.6248   21.6341 H   0  0  0  0  0
   14.0014  -34.2869   22.8037 H   0  0  0  0  0
   11.5211  -33.6428   24.0471 H   0  0  0  0  0
   12.7076  -36.3452   23.3975 H   0  0  0  0  0
   11.6721  -35.3086   22.3262 H   0  0  0  0  0
   11.6762  -38.0335   24.6326 H   0  0  0  0  0
    9.3365  -34.6856   23.3461 H   0  0  0  0  0
    9.6318  -39.1207   25.4894 H   0  0  0  0  0
    7.3014  -35.7568   24.2293 H   0  0  0  0  0
    6.4501  -37.5378   25.2620 H   0  0  0  0  0
   14.2658  -35.6582   25.2556 H   0  0  0  0  0
   12.9871  -36.2930   27.7292 H   0  0  0  0  0
   15.0477  -37.4135   26.9967 H   0  0  0  0  0
   15.9539  -35.8903   27.1690 H   0  0  0  0  0
   15.2736  -36.6893   28.6078 H   0  0  0  0  0
   14.9550  -33.4432   26.7602 H   0  0  0  0  0
   15.0396  -32.2791   29.3620 H   0  0  0  0  0
   15.3627  -30.1198   28.1636 H   0  0  0  0  0
   15.0462  -31.0167   26.6104 H   0  0  0  0  0
   17.0941  -30.2395   26.2018 H   0  0  0  0  0
   12.5806  -32.1670   26.7844 H   0  0  0  0  0
   10.9148  -30.1624   28.0207 H   0  0  0  0  0
   10.2376  -32.4791   26.2072 H   0  0  0  0  0
   10.7044  -30.7749   25.7106 H   0  0  0  0  0
    9.0850  -29.0601   27.2169 H   0  0  0  0  0
    8.0945  -32.8935   25.6532 H   0  0  0  0  0
    6.6796  -28.4258   27.1534 H   0  0  0  0  0
    5.6986  -32.2683   25.6192 H   0  0  0  0  0
    4.9941  -30.0431   26.3731 H   0  0  0  0  0
   10.8361  -33.7767   28.1527 H   0  0  0  0  0
    8.6666  -33.9293   30.0204 H   0  0  0  0  0
   11.0942  -35.7173   29.7197 H   0  0  0  0  0
    9.3909  -37.1460   28.5106 H   0  0  0  0  0
   10.0204  -35.6355   27.6684 H   0  0  0  0  0
   10.0019  -36.1070   31.8952 H   0  0  0  0  0
    8.4201  -36.2727   31.0943 H   0  0  0  0  0
    9.6975  -37.4779   30.8002 H   0  0  0  0  0
    7.3317  -35.9763   29.0039 H   0  0  0  0  0
    7.9409  -34.5148   28.1889 H   0  0  0  0  0
    7.6408  -35.9980   27.2503 H   0  0  0  0  0
   12.1799  -33.4144   30.5374 H   0  0  0  0  0
   11.9594  -33.6841   33.3820 H   0  0  0  0  0
   14.1199  -33.9421   32.1917 H   0  0  0  0  0
   14.0631  -32.2328   31.6956 H   0  0  0  0  0
   14.2489  -32.6550   33.4156 H   0  0  0  0  0
   11.2861  -30.9937   31.2354 H   0  0  0  0  0
   11.8034  -28.9429   33.1009 H   0  0  0  0  0
   11.2549  -28.6551   30.5937 H   0  0  0  0  0
   10.4234  -27.4962   31.6609 H   0  0  0  0  0
    8.9824  -28.4965   30.1376 H   0  0  0  0  0
    9.2055  -31.2408   32.9901 H   0  0  0  0  0
    7.9756  -30.0166   35.2920 H   0  0  0  0  0
    7.3836  -31.4694   34.3302 H   0  0  0  0  0
    7.6155  -29.2949   32.0165 H   0  0  0  0  0
    4.9500  -28.0707   32.6180 H   0  0  0  0  0
    5.6311  -26.2947   30.9931 H   0  0  0  0  0
    7.2480  -27.0601   30.9036 H   0  0  0  0  0
    7.6239  -26.6697   33.2795 H   0  0  0  0  0
    5.9381  -26.0209   33.4627 H   0  0  0  0  0
    8.1410  -24.7729   31.7939 H   0  0  0  0  0
    7.6450  -24.2384   33.4464 H   0  0  0  0  0
    6.2256  -23.8185   30.9048 H   0  0  0  0  0
    4.6874  -22.5367   34.4323 H   0  0  0  0  0
    6.0713  -23.6346   34.4576 H   0  0  0  0  0
    4.4702  -22.4222   30.9142 H   0  0  0  0  0
    5.0710  -30.7133   31.6545 H   0  0  0  0  0
    4.4764  -30.4716   28.8028 H   0  0  0  0  0
    4.1590  -32.9217   28.8400 H   0  0  0  0  0
    4.4740  -33.9917   30.9103 H   0  0  0  0  0
    6.4550  -32.1250   28.6266 H   0  0  0  0  0
    6.6273  -32.0957   30.3987 H   0  0  0  0  0
    6.3991  -33.6455   29.5518 H   0  0  0  0  0
    2.6875  -30.2236   31.7390 H   0  0  0  0  0
    0.4228  -30.5542   32.1844 H   0  0  0  0  0
    0.1901  -31.1650   30.4913 H   0  0  0  0  0
   -1.7739  -29.7122   31.1888 H   0  0  0  0  0
   -1.7997  -27.5200   29.4417 H   0  0  0  0  0
   -3.6882  -26.6807   31.0333 H   0  0  0  0  0
   -3.4452  -28.2596   31.8402 H   0  0  0  0  0
   -5.0244  -28.3490   30.1558 H   0  0  0  0  0
   -1.4284  -25.3796   29.5954 H   0  0  0  0  0
    0.3000  -24.5550   31.9000 H   0  0  0  0  0
    1.3145  -22.9680   30.3019 H   0  0  0  0  0
    0.3213  -23.7423   28.9900 H   0  0  0  0  0
    1.4299  -25.9046   29.7774 H   0  0  0  0  0
    2.6515  -24.7912   30.5335 H   0  0  0  0  0
    3.4547  -25.4942   28.4033 H   0  0  0  0  0
    2.9679  -23.7787   28.3048 H   0  0  0  0  0
    0.6921  -25.0438   27.5191 H   0  0  0  0  0
    4.0471  -25.5060   26.5390 H   0  0  0  0  0
    1.3865  -26.0525   24.2782 H   0  0  0  0  0
    0.1392  -25.6177   25.4514 H   0  0  0  0  0
   -0.3398  -22.9034   33.1123 H   0  0  0  0  0
   -2.8623  -21.5976   32.4301 H   0  0  0  0  0
   -2.4378  -20.3456   34.5899 H   0  0  0  0  0
   -0.9505  -21.3662   34.7654 H   0  0  0  0  0
   -2.9299  -23.5459   36.6567 H   0  0  0  0  0
   -1.5838  -22.4023   36.6213 H   0  0  0  0  0
   -3.1393  -19.3654   32.0705 H   0  0  0  0  0
   -0.9553  -17.8382   30.9741 H   0  0  0  0  0
   -3.3062  -17.3533   30.4417 H   0  0  0  0  0
   -3.6077  -16.9050   32.1385 H   0  0  0  0  0
   -2.5087  -15.9223   31.1397 H   0  0  0  0  0
   -0.0307  -15.8556   31.8408 H   0  0  0  0  0
    0.8853  -16.3370   34.5734 H   0  0  0  0  0
   -1.6168  -14.6891   33.3580 H   0  0  0  0  0
    2.2818  -14.3326   34.2644 H   0  0  0  0  0
    0.7750  -12.9881   32.9913 H   0  0  0  0  0
    0.9265  -14.1402   31.5896 H   0  0  0  0  0
    3.0942  -16.5142   33.5364 H   0  0  0  0  0
    2.3306  -16.2863   31.9440 H   0  0  0  0  0
    3.6735  -15.2305   32.4467 H   0  0  0  0  0
    3.1529  -12.4396   32.7714 H   0  0  0  0  0
    3.3010  -13.5663   31.4004 H   0  0  0  0  0
    2.2859  -12.1109   31.2511 H   0  0  0  0  0
  1  2  1  0  0  0
  2  3  1  0  0  0
  2  5  1  0  0  0
  3  4  2  0  0  0
  3  8  1  0  0  0
  5  6  1  0  0  0
  5  7  1  0  0  0
  8  9  1  0  0  0
  9 10  1  0  0  0
  9 12  1  0  0  0
 10 11  2  0  0  0
 10 15  1  0  0  0
 12 13  1  0  0  0
 12 14  1  0  0  0
 15 16  1  0  0  0
 16 17  1  0  0  0
 16 19  1  0  0  0
 17 18  2  0  0  0
 17 27  1  0  0  0
 19 20  1  0  0  0
 20 21  4  0  0  0
 20 22  4  0  0  0
 21 23  4  0  0  0
 22 24  4  0  0  0
 23 25  4  0  0  0
 24 25  4  0  0  0
 25 26  1  0  0  0
 27 28  1  0  0  0
 28 29  1  0  0  0
 28 31  1  0  0  0
 29 30  2  0  0  0
 29 32  1  0  0  0
 32 33  1  0  0  0
 33 34  1  0  0  0
 33 36  1  0  0  0
 34 35  2  0  0  0
 34 40  1  0  0  0
 36 37  1  0  0  0
 37 38  2  0  0  0
 37 39  1  0  0  0
 40 41  1  0  0  0
 41 42  1  0  0  0
 41 44  1  0  0  0
 42 43  2  0  0  0
 42 51  1  0  0  0
 44 45  1  0  0  0
 45 46  4  0  0  0
 45 47  4  0  0  0
 46 48  4  0  0  0
 47 49  4  0  0  0
 48 50  4  0  0  0
 49 50  4  0  0  0
 51 52  1  0  0  0
 52 53  1  0  0  0
 52 55  1  0  0  0
 53 54  2  0  0  0
 53 59  1  0  0  0
 55 56  1  0  0  0
 55 57  1  0  0  0
 56 58  1  0  0  0
 59 60  1  0  0  0
 60 61  1  0  0  0
 60 63  1  0  0  0
 61 62  2  0  0  0
 61 64  1  0  0  0
 64 65  1  0  0  0
 65 66  1  0  0  0
 65 68  1  0  0  0
 66 67  2  0  0  0
 66 70  1  0  0  0
 68 69  1  0  0  0
 70 71  1  0  0  0
 71 72  1  0  0  0
 72 73  2  0  0  0
 72 74  1  0  0  0
 74 75  1  0  0  0
 75 76  1  0  0  0
 75 78  1  0  0  0
 76 77  2  0  0  0
 76 85  1  0  0  0
 78 79  1  0  0  0
 79 80  1  0  0  0
 80 81  1  0  0  0
 81 82  1  0  0  0
 82 83  1  0  0  0
 82 84  2  0  0  0
 85 86  1  0  0  0
 86 87  1  0  0  0
 86 89  1  0  0  0
 87 88  2  0  0  0
 87 92  1  0  0  0
 89 90  1  0  0  0
 89 91  1  0  0  0
 92 93  1  0  0  0
 93 94  1  0  0  0
 94 95  2  0  0  0
 94 96  1  0  0  0
 96 97  1  0  0  0
 97 98  1  0  0  0
 97100  1  0  0  0
 98 99  2  0  0  0
 98102  1  0  0  0
100101  1  0  0  0
102103  1  0  0  0
103104  1  0  0  0
103106  1  0  0  0
104105  2  0  0  0
104113  1  0  0  0
106107  1  0  0  0
107108  1  0  0  0
108109  1  0  0  0
109110  1  0  0  0
110111  2  0  0  0
110112  1  0  0  0
113114  1  0  0  0
114115  1  0  0  0
114117  1  0  0  0
115116  2  0  0  0
115121  1  0  0  0
117118  1  0  0  0
118119  2  0  0  0
118120  1  0  0  0
121122  1  0  0  0
122123  1  0  0  0
122125  1  0  0  0
123124  2  0  0  0
123126  1  0  0  0
126127  1  0  0  0
127128  1  0  0  0
127130  1  0  0  0
128129  1  0  0  0
128134  2  0  0  0
130131  1  0  0  0
130132  1  0  0  0
131133  1  0  0  0
  1135  1  0  0  0
  1136  1  0  0  0
  1137  1  0  0  0
  2138  1  0  0  0
  5139  1  0  0  0
  6140  1  0  0  0
  7141  1  0  0  0
  7142  1  0  0  0
  7143  1  0  0  0
  8144  1  0  0  0
  9145  1  0  0  0
 12146  1  0  0  0
 13147  1  0  0  0
 14148  1  0  0  0
 14149  1  0  0  0
 14150  1  0  0  0
 15151  1  0  0  0
 16152  1  0  0  0
 19153  1  0  0  0
 19154  1  0  0  0
 21155  1  0  0  0
 22156  1  0  0  0
 23157  1  0  0  0
 24158  1  0  0  0
 26159  1  0  0  0
 27160  1  0  0  0
 28161  1  0  0  0
 31162  1  0  0  0
 31163  1  0  0  0
 31164  1  0  0  0
 32165  1  0  0  0
 33166  1  0  0  0
 36167  1  0  0  0
 36168  1  0  0  0
 39169  1  0  0  0
 40170  1  0  0  0
 41171  1  0  0  0
 44172  1  0  0  0
 44173  1  0  0  0
 46174  1  0  0  0
 47175  1  0  0  0
 48176  1  0  0  0
 49177  1  0  0  0
 50178  1  0  0  0
 51179  1  0  0  0
 52180  1  0  0  0
 55181  1  0  0  0
 56182  1  0  0  0
 56183  1  0  0  0
 57184  1  0  0  0
 57185  1  0  0  0
 57186  1  0  0  0
 58187  1  0  0  0
 58188  1  0  0  0
 58189  1  0  0  0
 59190  1  0  0  0
 60191  1  0  0  0
 63192  1  0  0  0
 63193  1  0  0  0
 63194  1  0  0  0
 64195  1  0  0  0
 65196  1  0  0  0
 68197  1  0  0  0
 68198  1  0  0  0
 69199  1  0  0  0
 70200  1  0  0  0
 71201  1  0  0  0
 71202  1  0  0  0
 74203  1  0  0  0
 75204  1  0  0  0
 78205  1  0  0  0
 78206  1  0  0  0
 79207  1  0  0  0
 79208  1  0  0  0
 80209  1  0  0  0
 80210  1  0  0  0
 81211  1  0  0  0
 83212  1  0  0  0
 83213  1  0  0  0
 84214  1  0  0  0
 85215  1  0  0  0
 86216  1  0  0  0
 89217  1  0  0  0
 90218  1  0  0  0
 91219  1  0  0  0
 91220  1  0  0  0
 91221  1  0  0  0
 92222  1  0  0  0
 93223  1  0  0  0
 93224  1  0  0  0
 96225  1  0  0  0
 97226  1  0  0  0
100227  1  0  0  0
100228  1  0  0  0
101229  1  0  0  0
102230  1  0  0  0
103231  1  0  0  0
106232  1  0  0  0
106233  1  0  0  0
107234  1  0  0  0
107235  1  0  0  0
108236  1  0  0  0
108237  1  0  0  0
109238  1  0  0  0
111239  1  0  0  0
112240  1  0  0  0
112241  1  0  0  0
113242  1  0  0  0
114243  1  0  0  0
117244  1  0  0  0
117245  1  0  0  0
120246  1  0  0  0
120247  1  0  0  0
121248  1  0  0  0
122249  1  0  0  0
125250  1  0  0  0
125251  1  0  0  0
125252  1  0  0  0
126253  1  0  0  0
127254  1  0  0  0
129255  1  0  0  0
130256  1  0  0  0
131257  1  0  0  0
131258  1  0  0  0
132259  1  0  0  0
132260  1  0  0  0
132261  1  0  0  0
133262  1  0  0  0
133263  1  0  0  0
133264  1  0  0  0
M  END
$$$$
