5wzv_ligand
  -I-interpret- 

 55 58  0  0  0  0  0  0  0  0999 V2000
   19.2430   16.2260   12.3260 O   0  0  0  0  0
   18.4960   15.3410   11.8180 C   0  0  0  0  0
   18.8450   14.1690   11.4650 O   0  0  0  0  0
   17.0000   15.7090   11.6090 C   0  0  0  0  0
   16.5770   16.7310   12.5390 O   0  0  0  0  0
   16.2680   18.0090   12.1290 C   0  0  0  0  0
   17.0370   18.6300   11.1240 C   0  0  0  0  0
   16.7160   19.9150   10.7280 C   0  0  0  0  0
   15.6510   20.5380   11.3730 C   0  0  0  0  0
   14.9330   19.9250   12.3410 C   0  0  0  0  0
   15.2230   18.6570   12.7360 C   0  0  0  0  0
   14.3260   18.3620   13.7250 C   0  0  0  0  0
   14.2170   17.2080   14.4340 C   0  0  0  0  0
   13.1640   16.5690   14.5250 O   0  0  0  0  0
   15.4650   16.6880   15.1770 C   0  0  0  0  0
   16.5400   17.2860   15.1660 O   0  0  0  0  0
   15.3090   15.5190   15.7590 N   0  0  0  0  0
   13.5240   19.4090   13.8870 C   0  0  0  0  0
   12.3620   19.4880   14.8970 C   0  0  0  0  0
   13.8760   20.3890   13.0350 N   0  0  0  0  0
   13.2720   21.7800   12.8670 C   0  0  0  0  0
   12.4190   21.8690   11.7030 C   0  0  0  0  0
   11.6050   20.7670   11.3680 C   0  0  0  0  0
   10.7570   20.7800   10.2620 C   0  0  0  0  0
   10.6760   21.9010    9.4600 C   0  0  0  0  0
   11.4490   23.0100    9.7560 C   0  0  0  0  0
   12.3110   23.0270   10.8620 C   0  0  0  0  0
   13.0120   24.2390   10.9730 C   0  0  0  0  0
   14.3160   24.3470   10.4690 C   0  0  0  0  0
   15.0100   25.5590   10.5450 C   0  0  0  0  0
   14.3990   26.6830   11.1060 C   0  0  0  0  0
   13.0910   26.5860   11.5960 C   0  0  0  0  0
   12.3940   25.3710   11.5180 C   0  0  0  0  0
   18.0844   13.7032   11.1098 H   0  0  0  0  0
   16.3963   14.8168   11.7750 H   0  0  0  0  0
   16.8739   16.0884   10.5949 H   0  0  0  0  0
   17.8740   18.1038   10.6650 H   0  0  0  0  0
   17.2752   20.4210    9.9410 H   0  0  0  0  0
   15.3866   21.5562   11.0875 H   0  0  0  0  0
   16.0983   15.0724   16.2259 H   0  0  0  0  0
   14.3988   15.0590   15.7435 H   0  0  0  0  0
   11.6409   18.6995   14.6816 H   0  0  0  0  0
   12.7510   19.3603   15.9072 H   0  0  0  0  0
   11.8754   20.4598   14.8138 H   0  0  0  0  0
   14.0886   22.4914   12.7438 H   0  0  0  0  0
   12.6669   21.9953   13.7477 H   0  0  0  0  0
   11.6403   19.8759   11.9947 H   0  0  0  0  0
   10.1552   19.9015   10.0292 H   0  0  0  0  0
   10.0074   21.9124    8.5992 H   0  0  0  0  0
   11.3865   23.8897    9.1154 H   0  0  0  0  0
   14.7930   23.4789   10.0140 H   0  0  0  0  0
   16.0296   25.6266   10.1657 H   0  0  0  0  0
   14.9370   27.6293   11.1619 H   0  0  0  0  0
   12.6120   27.4586   12.0401 H   0  0  0  0  0
   11.3687   25.3081   11.8826 H   0  0  0  0  0
  1  2  2  0  0  0
  2  3  1  0  0  0
  2  4  1  0  0  0
  4  5  1  0  0  0
  5  6  1  0  0  0
  6  7  4  0  0  0
  6 11  4  0  0  0
  7  8  4  0  0  0
  8  9  4  0  0  0
  9 10  4  0  0  0
 10 11  4  0  0  0
 10 20  4  0  0  0
 11 12  4  0  0  0
 12 13  1  0  0  0
 12 18  4  0  0  0
 13 14  2  0  0  0
 13 15  1  0  0  0
 15 16  2  0  0  0
 15 17  1  0  0  0
 18 19  1  0  0  0
 18 20  4  0  0  0
 20 21  1  0  0  0
 21 22  1  0  0  0
 22 23  4  0  0  0
 22 27  4  0  0  0
 23 24  4  0  0  0
 24 25  4  0  0  0
 25 26  4  0  0  0
 26 27  4  0  0  0
 27 28  1  0  0  0
 28 29  4  0  0  0
 28 33  4  0  0  0
 29 30  4  0  0  0
 30 31  4  0  0  0
 31 32  4  0  0  0
 32 33  4  0  0  0
  3 34  1  0  0  0
  4 35  1  0  0  0
  4 36  1  0  0  0
  7 37  1  0  0  0
  8 38  1  0  0  0
  9 39  1  0  0  0
 17 40  1  0  0  0
 17 41  1  0  0  0
 19 42  1  0  0  0
 19 43  1  0  0  0
 19 44  1  0  0  0
 21 45  1  0  0  0
 21 46  1  0  0  0
 23 47  1  0  0  0
 24 48  1  0  0  0
 25 49  1  0  0  0
 26 50  1  0  0  0
 29 51  1  0  0  0
 30 52  1  0  0  0
 31 53  1  0  0  0
 32 54  1  0  0  0
 33 55  1  0  0  0
M  END
$$$$
