6uhv_ligand
  -I-interpret- 

 37 36  0  0  0  0  0  0  0  0999 V2000
   30.2410   37.9230   31.3190 C   0  0  0  0  0
   29.1850   37.5370   32.3990 C   0  0  0  0  0
   28.8420   38.7030   33.3800 C   0  0  0  0  0
   26.9950   39.8680   34.5850 C   0  0  0  0  0
   25.7100   39.6130   35.4490 C   0  0  0  0  0
   24.5390   40.6020   35.1540 C   0  0  0  0  0
   23.1300   39.9290   35.0130 C   0  0  0  0  0
   22.0510   40.7980   34.2770 C   0  0  0  0  0
   20.8140   40.0710   33.7270 C   0  0  0  0  0
   29.6270   38.1260   29.9820 N   0  3  0  0  0
   27.4090   38.6360   33.8290 N   0  3  0  0  0
   19.9580   39.2990   34.5350 N   0  0  0  0  0
   20.5840   40.1840   32.4820 O   0  0  0  0  0
   18.8470   38.6750   33.8890 O   0  0  0  0  0
   30.9607   37.1080   31.2417 H   0  0  0  0  0
   30.7102   38.8588   31.6225 H   0  0  0  0  0
   29.6043   36.7235   32.9910 H   0  0  0  0  0
   28.2668   37.2669   31.8775 H   0  0  0  0  0
   28.9994   39.6493   32.8624 H   0  0  0  0  0
   29.4844   38.6190   34.2566 H   0  0  0  0  0
   27.8082   40.1507   35.2534 H   0  0  0  0  0
   26.7742   40.6555   33.8645 H   0  0  0  0  0
   25.9911   39.7476   36.4935 H   0  0  0  0  0
   25.3541   38.6107   35.2106 H   0  0  0  0  0
   24.7596   41.0777   34.1984 H   0  0  0  0  0
   24.4802   41.2848   36.0016 H   0  0  0  0  0
   22.7603   39.7581   36.0240 H   0  0  0  0  0
   23.2698   39.0283   34.4153 H   0  0  0  0  0
   22.5555   41.2199   33.4077 H   0  0  0  0  0
   21.6743   41.4956   35.0250 H   0  0  0  0  0
   30.3528   38.3759   29.3103 H   0  0  0  0  0
   29.1694   37.2642   29.6850 H   0  0  0  0  0
   28.9387   38.8768   30.0357 H   0  0  0  0  0
   27.3072   37.8328   34.4494 H   0  0  0  0  0
   26.8193   38.5580   33.0004 H   0  0  0  0  0
   20.1233   39.1901   35.5356 H   0  0  0  0  0
   18.3391   38.1796   34.5357 H   0  0  0  0  0
  2  1  1  0  0  0
  1 10  1  0  0  0
  3  2  1  0  0  0
 11  3  1  0  0  0
  4  5  1  0  0  0
  4 11  1  0  0  0
  5  6  1  0  0  0
  6  7  1  0  0  0
  7  8  1  0  0  0
  8  9  1  0  0  0
  9 12  1  0  0  0
  9 13  2  0  0  0
 12 14  1  0  0  0
  1 15  1  0  0  0
  1 16  1  0  0  0
  2 17  1  0  0  0
  2 18  1  0  0  0
  3 19  1  0  0  0
  3 20  1  0  0  0
  4 21  1  0  0  0
  4 22  1  0  0  0
  5 23  1  0  0  0
  5 24  1  0  0  0
  6 25  1  0  0  0
  6 26  1  0  0  0
  7 27  1  0  0  0
  7 28  1  0  0  0
  8 29  1  0  0  0
  8 30  1  0  0  0
 10 31  1  0  0  0
 10 32  1  0  0  0
 10 33  1  0  0  0
 11 34  1  0  0  0
 11 35  1  0  0  0
 12 36  1  0  0  0
 14 37  1  0  0  0
M  END
$$$$
