4y16_ligand
  -I-interpret- 

179181  0  0  0  0  0  0  0  0999 V2000
   20.6380   26.7820  -20.2140 C   0  0  0  0  0
   21.8990   26.9290  -21.0450 C   0  0  0  0  0
   21.6950   26.3900  -22.4630 C   0  0  0  0  0
   20.8570   27.4510  -18.8440 C   0  0  0  0  0
   31.7720   15.3450  -19.1950 C   0  0  0  0  0
   31.4370   15.6180  -20.6560 C   0  0  0  0  0
   31.6200   14.3270  -21.4690 C   0  0  0  0  0
   31.0720   14.5640  -22.8870 C   0  0  0  0  0
   32.0110   13.9370  -23.9190 C   0  0  0  0  0
   32.2770   14.8870  -25.0880 C   0  0  0  0  0
   33.7900   14.9770  -25.2700 C   0  0  0  0  0
   34.1190   15.8910  -26.4440 C   0  0  0  0  0
   35.4360   16.6150  -26.1780 C   0  0  0  0  0
   35.1370   18.0840  -25.8330 C   0  0  0  0  0
   35.6640   18.4170  -24.4250 C   0  0  0  0  0
   36.3800   19.7690  -24.4100 C   0  0  0  0  0
   35.6830   20.7030  -23.4120 C   0  0  0  0  0
   36.4000   20.6600  -22.0600 C   0  0  0  0  0
   35.5130   21.3120  -20.9940 C   0  0  0  0  0
   35.2200   20.2600  -19.9310 C   0  0  0  0  0
   34.4800   20.8840  -18.7610 C   0  0  0  0  0
   33.1240   20.1910  -18.5410 C   0  0  0  0  0
   31.9940   21.2290  -18.6770 C   0  0  0  0  0
   30.6380   20.6800  -18.2030 C   0  0  0  0  0
   29.7060   21.8430  -17.8070 C   0  0  0  0  0
   28.7210   22.1310  -18.9410 C   0  0  0  0  0
   27.5940   23.0390  -18.4230 C   0  0  0  0  0
   26.4650   23.0290  -19.4570 C   0  0  0  0  0
   25.4210   24.1180  -19.1590 C   0  0  0  0  0
   25.8740   25.5240  -19.5930 C   0  0  0  0  0
   26.4490   25.7150  -20.6630 O   0  0  0  0  0
   25.5680   26.5020  -18.7230 N   0  0  0  0  0
   25.9690   27.8970  -18.9420 C   0  0  0  0  0
   26.0500   28.5680  -17.5690 C   0  0  0  0  0
   26.4220   29.9400  -17.6980 O   0  0  0  0  0
   27.0410   27.8550  -16.6470 C   0  0  0  0  0
   27.0260   28.5490  -15.3960 O   0  0  0  0  0
   28.4610   27.7910  -17.2800 C   0  0  0  0  0
   29.5610   27.2980  -16.3040 C   0  0  0  0  0
   29.1910   26.0040  -15.5610 C   0  0  0  0  0
   30.4260   25.4560  -14.8170 C   0  0  0  0  0
   30.4380   25.9980  -13.3780 C   0  0  0  0  0
   31.7420   25.6470  -12.6390 C   0  0  0  0  0
   31.5830   26.0200  -11.1590 C   0  0  0  0  0
   32.8130   26.7670  -10.6710 C   0  0  0  0  0
   32.5340   27.5690   -9.3880 C   0  0  0  0  0
   33.2660   28.9310   -9.5230 C   0  0  0  0  0
   33.6170   29.5560   -8.1630 C   0  0  0  0  0
   33.4300   31.0850   -8.2640 C   0  0  0  0  0
   34.7770   31.8330   -8.2340 C   0  0  0  0  0
   34.6080   33.2050   -7.5520 C   0  0  0  0  0
   24.9350   28.6210  -19.8020 C   0  0  0  0  0
   23.6530   28.4310  -19.1920 O   0  0  0  0  0
   22.5380   28.9960  -19.8910 C   0  0  0  0  0
   22.2940   28.3180  -21.1550 O   0  0  0  0  0
   21.2850   28.9100  -19.0120 C   0  0  0  0  0
   21.5430   29.4760  -17.7340 O   0  0  0  0  0
   19.6400   27.4230  -18.0810 O   0  0  0  0  0
   19.5400   27.4260  -20.8790 O   0  0  0  0  0
   22.9650   25.9620  -22.9660 O   0  0  0  0  0
   23.1490   24.5950  -22.9200 C   0  0  0  0  0
   22.5710   23.8880  -22.0740 O   0  0  0  0  0
   24.0050   24.0430  -23.8150 N   0  0  0  0  0
   24.1650   22.6970  -23.9350 C   0  0  0  0  0
   25.4470   22.1470  -23.7220 C   0  0  0  0  0
   26.5240   22.9620  -23.3420 C   0  0  0  0  0
   27.7760   22.3840  -23.1250 C   0  0  0  0  0
   27.9480   21.0100  -23.2920 C   0  0  0  0  0
   26.8870   20.1950  -23.6770 C   0  0  0  0  0
   25.6380   20.7580  -23.8960 C   0  0  0  0  0
   24.5730   19.9320  -24.2840 C   0  0  0  0  0
   23.3020   20.4820  -24.5080 C   0  0  0  0  0
   23.1030   21.8610  -24.3500 C   0  0  0  0  0
   20.4125   25.7237  -20.0830 H   0  0  0  0  0
   22.6744   26.3571  -20.5352 H   0  0  0  0  0
   21.2813   27.1686  -23.1039 H   0  0  0  0  0
   20.9964   25.5534  -22.4489 H   0  0  0  0  0
   21.6412   26.8984  -18.3265 H   0  0  0  0  0
   31.1065   14.5727  -18.8092 H   0  0  0  0  0
   32.8056   15.0077  -19.1175 H   0  0  0  0  0
   31.6427   16.2599  -18.6168 H   0  0  0  0  0
   32.1006   16.3907  -21.0442 H   0  0  0  0  0
   30.4040   15.9564  -20.7363 H   0  0  0  0  0
   31.0816   13.5073  -20.9933 H   0  0  0  0  0
   32.6765   14.0630  -21.5168 H   0  0  0  0  0
   31.0003   15.6361  -23.0704 H   0  0  0  0  0
   30.0863   14.1066  -22.9728 H   0  0  0  0  0
   31.5410   13.0341  -24.3088 H   0  0  0  0  0
   32.9606   13.7162  -23.4315 H   0  0  0  0  0
   31.8583   15.8721  -24.8819 H   0  0  0  0  0
   31.8049   14.5146  -25.9972 H   0  0  0  0  0
   34.1877   13.9816  -25.4675 H   0  0  0  0  0
   34.2373   15.3829  -24.3626 H   0  0  0  0  0
   33.3216   16.6241  -26.5660 H   0  0  0  0  0
   34.2111   15.2947  -27.3517 H   0  0  0  0  0
   36.0685   16.5663  -27.0644 H   0  0  0  0  0
   35.9559   16.1399  -25.3461 H   0  0  0  0  0
   34.0591   18.2442  -25.8578 H   0  0  0  0  0
   35.6300   18.7290  -26.5604 H   0  0  0  0  0
   36.3720   17.6441  -24.1259 H   0  0  0  0  0
   34.8189   18.4624  -23.7381 H   0  0  0  0  0
   36.3463   20.2100  -25.4062 H   0  0  0  0  0
   37.4189   19.6277  -24.1121 H   0  0  0  0  0
   34.6510   20.3781  -23.2795 H   0  0  0  0  0
   35.7094   21.7220  -23.7981 H   0  0  0  0  0
   37.3433   21.2017  -22.1303 H   0  0  0  0  0
   36.5981   19.6239  -21.7853 H   0  0  0  0  0
   34.5851   21.6709  -21.4394 H   0  0  0  0  0
   36.0195   22.1693  -20.5507 H   0  0  0  0  0
   36.1618   19.8428  -19.5744 H   0  0  0  0  0
   34.5999   19.4769  -20.3671 H   0  0  0  0  0
   34.3054   21.9380  -18.9770 H   0  0  0  0  0
   35.0840   20.7688  -17.8610 H   0  0  0  0  0
   33.0968   19.7504  -17.5444 H   0  0  0  0  0
   32.9902   19.4062  -19.2855 H   0  0  0  0  0
   31.9024   21.4935  -19.7304 H   0  0  0  0  0
   32.2471   22.0881  -18.0558 H   0  0  0  0  0
   30.7950   20.0362  -17.3375 H   0  0  0  0  0
   30.1786   20.1126  -19.0124 H   0  0  0  0  0
   30.3044   22.7338  -17.6160 H   0  0  0  0  0
   29.1508   21.5690  -16.9099 H   0  0  0  0  0
   28.2962   21.1936  -19.2999 H   0  0  0  0  0
   29.2430   22.6298  -19.7576 H   0  0  0  0  0
   27.9642   24.0541  -18.2796 H   0  0  0  0  0
   27.2284   22.6749  -17.4629 H   0  0  0  0  0
   25.9717   22.0577  -19.4212 H   0  0  0  0  0
   26.8946   23.2213  -20.4402 H   0  0  0  0  0
   25.2630   24.1391  -18.0807 H   0  0  0  0  0
   24.5183   23.8734  -19.7188 H   0  0  0  0  0
   25.0396   26.2670  -17.8828 H   0  0  0  0  0
   26.9280   27.9375  -19.4586 H   0  0  0  0  0
   25.0578   28.5023  -17.1226 H   0  0  0  0  0
   26.4670   30.3414  -16.8271 H   0  0  0  0  0
   26.7505   26.8158  -16.4928 H   0  0  0  0  0
   27.6393   28.1270  -14.7899 H   0  0  0  0  0
   28.7268   28.8034  -17.5841 H   0  0  0  0  0
   28.4169   27.0802  -18.1052 H   0  0  0  0  0
   29.7042   28.0757  -15.5538 H   0  0  0  0  0
   30.4532   27.0913  -16.8951 H   0  0  0  0  0
   28.8457   25.2618  -16.2807 H   0  0  0  0  0
   28.4013   26.2160  -14.8403 H   0  0  0  0  0
   31.3321   25.7735  -15.3330 H   0  0  0  0  0
   30.3841   24.3670  -14.7953 H   0  0  0  0  0
   29.6075   25.5449  -12.8367 H   0  0  0  0  0
   30.3537   27.0838  -13.4226 H   0  0  0  0  0
   32.5747   26.2002  -13.0733 H   0  0  0  0  0
   31.9456   24.5803  -12.7327 H   0  0  0  0  0
   31.4627   25.1092  -10.5724 H   0  0  0  0  0
   30.7081   26.6599  -11.0443 H   0  0  0  0  0
   33.1161   27.4670  -11.4496 H   0  0  0  0  0
   33.5899   26.0347  -10.4513 H   0  0  0  0  0
   32.8937   27.0272   -8.5132 H   0  0  0  0  0
   31.4626   27.7225   -9.2590 H   0  0  0  0  0
   32.5993   29.6181  -10.0440 H   0  0  0  0  0
   34.1979   28.7572  -10.0610 H   0  0  0  0  0
   34.6495   29.3238   -7.9021 H   0  0  0  0  0
   32.9654   29.1517   -7.3884 H   0  0  0  0  0
   32.8379   31.4137   -7.4099 H   0  0  0  0  0
   32.9373   31.3069   -9.2106 H   0  0  0  0  0
   35.1251   31.9827   -9.2560 H   0  0  0  0  0
   35.5011   31.2422   -7.6730 H   0  0  0  0  0
   33.8816   33.7984   -8.1074 H   0  0  0  0  0
   34.2562   33.0607   -6.5305 H   0  0  0  0  0
   35.5671   33.7227   -7.5376 H   0  0  0  0  0
   24.9364   28.2201  -20.8156 H   0  0  0  0  0
   25.1713   29.6831  -19.8663 H   0  0  0  0  0
   22.7727   30.0377  -20.1100 H   0  0  0  0  0
   20.4835   29.4667  -19.4975 H   0  0  0  0  0
   20.7520   29.4164  -17.1933 H   0  0  0  0  0
   19.3567   26.5130  -17.9659 H   0  0  0  0  0
   19.3986   27.0131  -21.7340 H   0  0  0  0  0
   24.5484   24.6587  -24.4200 H   0  0  0  0  0
   26.3845   24.0358  -23.2175 H   0  0  0  0  0
   28.6191   23.0064  -22.8251 H   0  0  0  0  0
   28.9288   20.5673  -23.1183 H   0  0  0  0  0
   27.0364   19.1229  -23.8054 H   0  0  0  0  0
   24.7330   18.8614  -24.4117 H   0  0  0  0  0
   22.4724   19.8399  -24.8037 H   0  0  0  0  0
   22.1217   22.2919  -24.5487 H   0  0  0  0  0
  2  1  1  0  0  0
  1  4  1  0  0  0
  1 59  1  0  0  0
  2  3  1  0  0  0
 55  2  1  0  0  0
  3 60  1  0  0  0
  4 56  1  0  0  0
  4 58  1  0  0  0
  6  5  1  0  0  0
  7  6  1  0  0  0
  8  7  1  0  0  0
  9  8  1  0  0  0
 10  9  1  0  0  0
 11 10  1  0  0  0
 12 11  1  0  0  0
 13 12  1  0  0  0
 14 13  1  0  0  0
 15 14  1  0  0  0
 16 15  1  0  0  0
 17 16  1  0  0  0
 18 17  1  0  0  0
 19 18  1  0  0  0
 20 19  1  0  0  0
 21 20  1  0  0  0
 22 21  1  0  0  0
 23 22  1  0  0  0
 24 23  1  0  0  0
 25 24  1  0  0  0
 26 25  1  0  0  0
 27 26  1  0  0  0
 28 27  1  0  0  0
 29 28  1  0  0  0
 30 29  1  0  0  0
 30 31  2  0  0  0
 32 30  1  0  0  0
 33 32  1  0  0  0
 33 34  1  0  0  0
 52 33  1  0  0  0
 34 35  1  0  0  0
 34 36  1  0  0  0
 36 37  1  0  0  0
 36 38  1  0  0  0
 38 39  1  0  0  0
 39 40  1  0  0  0
 40 41  1  0  0  0
 41 42  1  0  0  0
 42 43  1  0  0  0
 43 44  1  0  0  0
 44 45  1  0  0  0
 45 46  1  0  0  0
 46 47  1  0  0  0
 47 48  1  0  0  0
 48 49  1  0  0  0
 49 50  1  0  0  0
 50 51  1  0  0  0
 53 52  1  0  0  0
 54 53  1  0  0  0
 54 55  1  0  0  0
 54 56  1  0  0  0
 56 57  1  0  0  0
 60 61  1  0  0  0
 61 62  2  0  0  0
 61 63  1  0  0  0
 63 64  1  0  0  0
 64 65  4  0  0  0
 64 73  4  0  0  0
 65 66  4  0  0  0
 65 70  4  0  0  0
 66 67  4  0  0  0
 67 68  4  0  0  0
 68 69  4  0  0  0
 69 70  4  0  0  0
 70 71  4  0  0  0
 71 72  4  0  0  0
 72 73  4  0  0  0
  1 74  1  0  0  0
  2 75  1  0  0  0
  3 76  1  0  0  0
  3 77  1  0  0  0
  4 78  1  0  0  0
  5 79  1  0  0  0
  5 80  1  0  0  0
  5 81  1  0  0  0
  6 82  1  0  0  0
  6 83  1  0  0  0
  7 84  1  0  0  0
  7 85  1  0  0  0
  8 86  1  0  0  0
  8 87  1  0  0  0
  9 88  1  0  0  0
  9 89  1  0  0  0
 10 90  1  0  0  0
 10 91  1  0  0  0
 11 92  1  0  0  0
 11 93  1  0  0  0
 12 94  1  0  0  0
 12 95  1  0  0  0
 13 96  1  0  0  0
 13 97  1  0  0  0
 14 98  1  0  0  0
 14 99  1  0  0  0
 15100  1  0  0  0
 15101  1  0  0  0
 16102  1  0  0  0
 16103  1  0  0  0
 17104  1  0  0  0
 17105  1  0  0  0
 18106  1  0  0  0
 18107  1  0  0  0
 19108  1  0  0  0
 19109  1  0  0  0
 20110  1  0  0  0
 20111  1  0  0  0
 21112  1  0  0  0
 21113  1  0  0  0
 22114  1  0  0  0
 22115  1  0  0  0
 23116  1  0  0  0
 23117  1  0  0  0
 24118  1  0  0  0
 24119  1  0  0  0
 25120  1  0  0  0
 25121  1  0  0  0
 26122  1  0  0  0
 26123  1  0  0  0
 27124  1  0  0  0
 27125  1  0  0  0
 28126  1  0  0  0
 28127  1  0  0  0
 29128  1  0  0  0
 29129  1  0  0  0
 32130  1  0  0  0
 33131  1  0  0  0
 34132  1  0  0  0
 35133  1  0  0  0
 36134  1  0  0  0
 37135  1  0  0  0
 38136  1  0  0  0
 38137  1  0  0  0
 39138  1  0  0  0
 39139  1  0  0  0
 40140  1  0  0  0
 40141  1  0  0  0
 41142  1  0  0  0
 41143  1  0  0  0
 42144  1  0  0  0
 42145  1  0  0  0
 43146  1  0  0  0
 43147  1  0  0  0
 44148  1  0  0  0
 44149  1  0  0  0
 45150  1  0  0  0
 45151  1  0  0  0
 46152  1  0  0  0
 46153  1  0  0  0
 47154  1  0  0  0
 47155  1  0  0  0
 48156  1  0  0  0
 48157  1  0  0  0
 49158  1  0  0  0
 49159  1  0  0  0
 50160  1  0  0  0
 50161  1  0  0  0
 51162  1  0  0  0
 51163  1  0  0  0
 51164  1  0  0  0
 52165  1  0  0  0
 52166  1  0  0  0
 54167  1  0  0  0
 56168  1  0  0  0
 57169  1  0  0  0
 58170  1  0  0  0
 59171  1  0  0  0
 63172  1  0  0  0
 66173  1  0  0  0
 67174  1  0  0  0
 68175  1  0  0  0
 69176  1  0  0  0
 71177  1  0  0  0
 72178  1  0  0  0
 73179  1  0  0  0
M  END
$$$$
