### 
### Created by X-TOOL on Mon Sep 10 21:13:25 2018
### 

@<TRIPOS>MOLECULE
4y16_ligand
  179   181     1     0     0
SMALL
GAST_HUCK


@<TRIPOS>ATOM
      1 C4         20.6380   26.7820  -20.2140 C.3       1 48G         0.1122
      2 C5         21.8990   26.9290  -21.0450 C.3       1 48G         0.1175
      3 C6         21.6950   26.3900  -22.4630 C.3       1 48G         0.1066
      4 C3         20.8570   27.4510  -18.8440 C.3       1 48G         0.1141
      5 CAZ        31.7720   15.3450  -19.1950 C.3       1 48G        -0.0653
      6 CAY        31.4370   15.6180  -20.6560 C.3       1 48G        -0.0559
      7 CAX        31.6200   14.3270  -21.4690 C.3       1 48G        -0.0533
      8 CAW        31.0720   14.5640  -22.8870 C.3       1 48G        -0.0531
      9 CAV        32.0110   13.9370  -23.9190 C.3       1 48G        -0.0531
     10 CAU        32.2770   14.8870  -25.0880 C.3       1 48G        -0.0531
     11 CAT        33.7900   14.9770  -25.2700 C.3       1 48G        -0.0531
     12 CAS        34.1190   15.8910  -26.4440 C.3       1 48G        -0.0531
     13 CAR        35.4360   16.6150  -26.1780 C.3       1 48G        -0.0531
     14 CAQ        35.1370   18.0840  -25.8330 C.3       1 48G        -0.0531
     15 CAP        35.6640   18.4170  -24.4250 C.3       1 48G        -0.0531
     16 CAO        36.3800   19.7690  -24.4100 C.3       1 48G        -0.0531
     17 CAN        35.6830   20.7030  -23.4120 C.3       1 48G        -0.0531
     18 CAM        36.4000   20.6600  -22.0600 C.3       1 48G        -0.0531
     19 CAL        35.5130   21.3120  -20.9940 C.3       1 48G        -0.0531
     20 CAK        35.2200   20.2600  -19.9310 C.3       1 48G        -0.0531
     21 CAJ        34.4800   20.8840  -18.7610 C.3       1 48G        -0.0531
     22 CAI        33.1240   20.1910  -18.5410 C.3       1 48G        -0.0531
     23 CAH        31.9940   21.2290  -18.6770 C.3       1 48G        -0.0531
     24 CAG        30.6380   20.6800  -18.2030 C.3       1 48G        -0.0531
     25 CAF        29.7060   21.8430  -17.8070 C.3       1 48G        -0.0531
     26 CAE        28.7210   22.1310  -18.9410 C.3       1 48G        -0.0529
     27 CAD        27.5940   23.0390  -18.4230 C.3       1 48G        -0.0510
     28 CAC        26.4650   23.0290  -19.4570 C.3       1 48G        -0.0361
     29 CAB        25.4210   24.1180  -19.1590 C.3       1 48G         0.0372
     30 CAA        25.8740   25.5240  -19.5930 C.2       1 48G         0.1764
     31 OBA        26.4490   25.7150  -20.6630 O.2       1 48G        -0.3971
     32 NBG        25.5680   26.5020  -18.7230 N.am      1 48G        -0.2791
     33 CBE        25.9690   27.8970  -18.9420 C.3       1 48G         0.0936
     34 CBI        26.0500   28.5680  -17.5690 C.3       1 48G         0.1059
     35 OBK        26.4220   29.9400  -17.6980 O.3       1 48G        -0.3869
     36 CBM        27.0410   27.8550  -16.6470 C.3       1 48G         0.0833
     37 OBO        27.0260   28.5490  -15.3960 O.3       1 48G        -0.3892
     38 CBQ        28.4610   27.7910  -17.2800 C.3       1 48G        -0.0243
     39 CBS        29.5610   27.2980  -16.3040 C.3       1 48G        -0.0506
     40 CBV        29.1910   26.0040  -15.5610 C.3       1 48G        -0.0530
     41 CBW        30.4260   25.4560  -14.8170 C.3       1 48G        -0.0531
     42 CBX        30.4380   25.9980  -13.3780 C.3       1 48G        -0.0531
     43 CBY        31.7420   25.6470  -12.6390 C.3       1 48G        -0.0531
     44 CBZ        31.5830   26.0200  -11.1590 C.3       1 48G        -0.0531
     45 CCA        32.8130   26.7670  -10.6710 C.3       1 48G        -0.0531
     46 CCB        32.5340   27.5690   -9.3880 C.3       1 48G        -0.0531
     47 CCC        33.2660   28.9310   -9.5230 C.3       1 48G        -0.0531
     48 CCD        33.6170   29.5560   -8.1630 C.3       1 48G        -0.0531
     49 CCE        33.4300   31.0850   -8.2640 C.3       1 48G        -0.0533
     50 CCF        34.7770   31.8330   -8.2340 C.3       1 48G        -0.0559
     51 CCG        34.6080   33.2050   -7.5520 C.3       1 48G        -0.0653
     52 CBB        24.9350   28.6210  -19.8020 C.3       1 48G         0.0762
     53 O1         23.6530   28.4310  -19.1920 O.3       1 48G        -0.3463
     54 C1         22.5380   28.9960  -19.8910 C.3       1 48G         0.1880
     55 O5         22.2940   28.3180  -21.1550 O.3       1 48G        -0.3402
     56 C2         21.2850   28.9100  -19.0120 C.3       1 48G         0.1341
     57 O2         21.5430   29.4760  -17.7340 O.3       1 48G        -0.3841
     58 O3         19.6400   27.4230  -18.0810 O.3       1 48G        -0.3864
     59 O4         19.5400   27.4260  -20.8790 O.3       1 48G        -0.3865
     60 O6         22.9650   25.9620  -22.9660 O.3       1 48G        -0.2555
     61 CCH        23.1490   24.5950  -22.9200 C.2       1 48G         0.3546
     62 OCT        22.5710   23.8880  -22.0740 O.2       1 48G        -0.3649
     63 NCS        24.0050   24.0430  -23.8150 N.am      1 48G        -0.2031
     64 CCR        24.1650   22.6970  -23.9350 C.ar      1 48G         0.0829
     65 CCI        25.4470   22.1470  -23.7220 C.ar      1 48G         0.0115
     66 CCJ        26.5240   22.9620  -23.3420 C.ar      1 48G        -0.0551
     67 CCK        27.7760   22.3840  -23.1250 C.ar      1 48G        -0.0647
     68 CCL        27.9480   21.0100  -23.2920 C.ar      1 48G        -0.0655
     69 CCM        26.8870   20.1950  -23.6770 C.ar      1 48G        -0.0608
     70 CCN        25.6380   20.7580  -23.8960 C.ar      1 48G        -0.0314
     71 CCO        24.5730   19.9320  -24.2840 C.ar      1 48G        -0.0746
     72 CCP        23.3020   20.4820  -24.5080 C.ar      1 48G        -0.0814
     73 CCQ        23.1030   21.8610  -24.3500 C.ar      1 48G        -0.0433
     74 H1         20.4104   25.7149  -20.0744 H         1 48G         0.0647
     75 H2         22.7055   26.3624  -20.5566 H         1 48G         0.0650
     76 H3         21.2872   27.1826  -23.1076 H         1 48G         0.0639
     77 H4         20.9974   25.5398  -22.4414 H         1 48G         0.0639
     78 H5         21.6414   26.9031  -18.3013 H         1 48G         0.0648
     79 H6         31.6419   16.2677  -18.6104 H         1 48G         0.0230
     80 H7         32.8149   15.0046  -19.1154 H         1 48G         0.0230
     81 H8         31.1010   14.5658  -18.8044 H         1 48G         0.0230
     82 H9         32.1079   16.3969  -21.0475 H         1 48G         0.0263
     83 H10        30.3940   15.9581  -20.7365 H         1 48G         0.0263
     84 H11        31.0679   13.5050  -20.9900 H         1 48G         0.0265
     85 H12        32.6881   14.0695  -21.5218 H         1 48G         0.0265
     86 H13        30.9959   15.6455  -23.0727 H         1 48G         0.0265
     87 H14        30.0758   14.1059  -22.9744 H         1 48G         0.0265
     88 H15        31.5523   13.0150  -24.3055 H         1 48G         0.0265
     89 H16        32.9667   13.6946  -23.4314 H         1 48G         0.0265
     90 H17        31.8657   15.8824  -24.8643 H         1 48G         0.0265
     91 H18        31.8111   14.4951  -26.0041 H         1 48G         0.0265
     92 H19        34.1940   13.9728  -25.4656 H         1 48G         0.0265
     93 H20        34.2438   15.3828  -24.3539 H         1 48G         0.0265
     94 H21        33.3140   16.6302  -26.5689 H         1 48G         0.0265
     95 H22        34.2106   15.2902  -27.3609 H         1 48G         0.0265
     96 H23        36.0706   16.5684  -27.0752 H         1 48G         0.0265
     97 H24        35.9566   16.1366  -25.3354 H         1 48G         0.0265
     98 H25        34.0501   18.2504  -25.8629 H         1 48G         0.0265
     99 H26        35.6284   18.7374  -26.5689 H         1 48G         0.0265
    100 H27        36.3693   17.6336  -24.1109 H         1 48G         0.0265
    101 H28        34.8175   18.4511  -23.7234 H         1 48G         0.0265
    102 H29        36.3451   20.2141  -25.4153 H         1 48G         0.0265
    103 H30        37.4282   19.6260  -24.1085 H         1 48G         0.0265
    104 H31        34.6395   20.3810  -23.2805 H         1 48G         0.0265
    105 H32        35.7031   21.7315  -23.8016 H         1 48G         0.0265
    106 H33        37.3513   21.2077  -22.1312 H         1 48G         0.0265
    107 H34        36.5988   19.6142  -21.7828 H         1 48G         0.0265
    108 H35        34.5729   21.6576  -21.4486 H         1 48G         0.0265
    109 H36        36.0373   22.1665  -20.5413 H         1 48G         0.0265
    110 H37        36.1680   19.8315  -19.5736 H         1 48G         0.0265
    111 H38        34.6000   19.4641  -20.3694 H         1 48G         0.0265
    112 H39        34.3104   21.9508  -18.9689 H         1 48G         0.0265
    113 H40        35.0900   20.7801  -17.8515 H         1 48G         0.0265
    114 H41        33.0967   19.7479  -17.5346 H         1 48G         0.0265
    115 H42        32.9890   19.4002  -19.2936 H         1 48G         0.0265
    116 H43        31.9074   21.5214  -19.7339 H         1 48G         0.0265
    117 H44        32.2494   22.1115  -18.0721 H         1 48G         0.0265
    118 H45        30.7942   20.0261  -17.3324 H         1 48G         0.0265
    119 H46        30.1744   20.1029  -19.0166 H         1 48G         0.0265
    120 H47        30.3083   22.7421  -17.6102 H         1 48G         0.0265
    121 H48        29.1475   21.5699  -16.8996 H         1 48G         0.0265
    122 H49        28.2923   21.1850  -19.3033 H         1 48G         0.0265
    123 H50        29.2477   22.6343  -19.7651 H         1 48G         0.0265
    124 H51        27.9710   24.0640  -18.2920 H         1 48G         0.0267
    125 H52        27.2216   22.6593  -17.4601 H         1 48G         0.0267
    126 H53        25.9718   22.0460  -19.4388 H         1 48G         0.0290
    127 H54        26.8922   23.2065  -20.4550 H         1 48G         0.0290
    128 H55        25.2281   24.1311  -18.0761 H         1 48G         0.0502
    129 H56        24.4927   23.8687  -19.6938 H         1 48G         0.0502
    130 H57        25.0500   26.2716  -17.8992 H         1 48G         0.1856
    131 H58        26.9496   27.9319  -19.4392 H         1 48G         0.0605
    132 H59        25.0529   28.5192  -17.1070 H         1 48G         0.0643
    133 H60        26.4665   30.3373  -16.8362 H         1 48G         0.2100
    134 H61        26.6977   26.8230  -16.4825 H         1 48G         0.0620
    135 H62        27.2858   29.4524  -15.5332 H         1 48G         0.2099
    136 H63        28.7318   28.7992  -17.6266 H         1 48G         0.0291
    137 H64        28.4270   27.1048  -18.1390 H         1 48G         0.0291
    138 H65        29.7435   28.0865  -15.5590 H         1 48G         0.0266
    139 H66        30.4808   27.1174  -16.8796 H         1 48G         0.0266
    140 H67        28.8394   25.2548  -16.2856 H         1 48G         0.0265
    141 H68        28.3919   26.2156  -14.8353 H         1 48G         0.0265
    142 H69        31.3403   25.7770  -15.3376 H         1 48G         0.0265
    143 H70        30.3833   24.3571  -14.7948 H         1 48G         0.0265
    144 H71        29.5904   25.5633  -12.8279 H         1 48G         0.0265
    145 H72        30.3319   27.0924  -13.4101 H         1 48G         0.0265
    146 H73        32.5787   26.2121  -13.0755 H         1 48G         0.0265
    147 H74        31.9406   24.5689  -12.7299 H         1 48G         0.0265
    148 H75        31.4553   25.1031  -10.5649 H         1 48G         0.0265
    149 H76        30.6972   26.6611  -11.0390 H         1 48G         0.0265
    150 H77        33.1416   27.4612  -11.4584 H         1 48G         0.0265
    151 H78        33.6120   26.0390  -10.4671 H         1 48G         0.0265
    152 H79        32.9152   27.0226   -8.5127 H         1 48G         0.0265
    153 H80        31.4522   27.7333   -9.2751 H         1 48G         0.0265
    154 H81        32.6149   29.6271  -10.0721 H         1 48G         0.0265
    155 H82        34.1964   28.7754  -10.0889 H         1 48G         0.0265
    156 H83        34.6619   29.3261   -7.9075 H         1 48G         0.0265
    157 H84        32.9519   29.1514   -7.3859 H         1 48G         0.0265
    158 H85        32.8159   31.4247   -7.4170 H         1 48G         0.0265
    159 H86        32.9148   31.3185   -9.2074 H         1 48G         0.0265
    160 H87        35.1339   31.9806   -9.2640 H         1 48G         0.0263
    161 H88        35.5117   31.2365   -7.6733 H         1 48G         0.0263
    162 H89        35.5753   33.7285   -7.5368 H         1 48G         0.0230
    163 H90        34.2530   33.0607   -6.5209 H         1 48G         0.0230
    164 H91        33.8752   33.8049   -8.1116 H         1 48G         0.0230
    165 H92        24.9324   28.2007  -20.8185 H         1 48G         0.0585
    166 H93        25.1721   29.6941  -19.8495 H         1 48G         0.0585
    167 H94        22.7562   30.0539  -20.0990 H         1 48G         0.0937
    168 H95        20.4710   29.4701  -19.4955 H         1 48G         0.0671
    169 H96        22.2508   29.0003  -17.3153 H         1 48G         0.2101
    170 H97        19.7915   27.8186  -17.2307 H         1 48G         0.2100
    171 H98        18.7557   27.3384  -20.3502 H         1 48G         0.2100
    172 H99        24.5378   24.6466  -24.4081 H         1 48G         0.2330
    173 H100       26.3852   24.0299  -23.2181 H         1 48G         0.0629
    174 H101       28.6144   23.0030  -22.8267 H         1 48G         0.0578
    175 H102       28.9234   20.5697  -23.1193 H         1 48G         0.0611
    176 H103       27.0356   19.1288  -23.8047 H         1 48G         0.0587
    177 H104       24.7321   18.8673  -24.4110 H         1 48G         0.0440
    178 H105       22.4769   19.8434  -24.8021 H         1 48G         0.0565
    179 H106       22.1271   22.2895  -24.5476 H         1 48G         0.0441
@<TRIPOS>BOND
     1    2    1 1  
     2    1    4 1  
     3    1   59 1  
     4    2    3 1  
     5   55    2 1  
     6    3   60 1  
     7    4   56 1  
     8    4   58 1  
     9    6    5 1  
    10    7    6 1  
    11    8    7 1  
    12    9    8 1  
    13   10    9 1  
    14   11   10 1  
    15   12   11 1  
    16   13   12 1  
    17   14   13 1  
    18   15   14 1  
    19   16   15 1  
    20   17   16 1  
    21   18   17 1  
    22   19   18 1  
    23   20   19 1  
    24   21   20 1  
    25   22   21 1  
    26   23   22 1  
    27   24   23 1  
    28   25   24 1  
    29   26   25 1  
    30   27   26 1  
    31   28   27 1  
    32   29   28 1  
    33   30   29 1  
    34   30   31 2  
    35   32   30 am 
    36   33   32 1  
    37   33   34 1  
    38   52   33 1  
    39   34   35 1  
    40   34   36 1  
    41   36   37 1  
    42   36   38 1  
    43   38   39 1  
    44   39   40 1  
    45   40   41 1  
    46   41   42 1  
    47   42   43 1  
    48   43   44 1  
    49   44   45 1  
    50   45   46 1  
    51   46   47 1  
    52   47   48 1  
    53   48   49 1  
    54   49   50 1  
    55   50   51 1  
    56   53   52 1  
    57   54   53 1  
    58   54   55 1  
    59   54   56 1  
    60   56   57 1  
    61   60   61 1  
    62   61   62 2  
    63   61   63 am 
    64   63   64 1  
    65   64   65 ar 
    66   64   73 ar 
    67   65   66 ar 
    68   65   70 ar 
    69   66   67 ar 
    70   67   68 ar 
    71   68   69 ar 
    72   69   70 ar 
    73   70   71 ar 
    74   71   72 ar 
    75   72   73 ar 
    76    1   74 1  
    77    2   75 1  
    78    3   76 1  
    79    3   77 1  
    80    4   78 1  
    81    5   79 1  
    82    5   80 1  
    83    5   81 1  
    84    6   82 1  
    85    6   83 1  
    86    7   84 1  
    87    7   85 1  
    88    8   86 1  
    89    8   87 1  
    90    9   88 1  
    91    9   89 1  
    92   10   90 1  
    93   10   91 1  
    94   11   92 1  
    95   11   93 1  
    96   12   94 1  
    97   12   95 1  
    98   13   96 1  
    99   13   97 1  
   100   14   98 1  
   101   14   99 1  
   102   15  100 1  
   103   15  101 1  
   104   16  102 1  
   105   16  103 1  
   106   17  104 1  
   107   17  105 1  
   108   18  106 1  
   109   18  107 1  
   110   19  108 1  
   111   19  109 1  
   112   20  110 1  
   113   20  111 1  
   114   21  112 1  
   115   21  113 1  
   116   22  114 1  
   117   22  115 1  
   118   23  116 1  
   119   23  117 1  
   120   24  118 1  
   121   24  119 1  
   122   25  120 1  
   123   25  121 1  
   124   26  122 1  
   125   26  123 1  
   126   27  124 1  
   127   27  125 1  
   128   28  126 1  
   129   28  127 1  
   130   29  128 1  
   131   29  129 1  
   132   32  130 1  
   133   33  131 1  
   134   34  132 1  
   135   35  133 1  
   136   36  134 1  
   137   37  135 1  
   138   38  136 1  
   139   38  137 1  
   140   39  138 1  
   141   39  139 1  
   142   40  140 1  
   143   40  141 1  
   144   41  142 1  
   145   41  143 1  
   146   42  144 1  
   147   42  145 1  
   148   43  146 1  
   149   43  147 1  
   150   44  148 1  
   151   44  149 1  
   152   45  150 1  
   153   45  151 1  
   154   46  152 1  
   155   46  153 1  
   156   47  154 1  
   157   47  155 1  
   158   48  156 1  
   159   48  157 1  
   160   49  158 1  
   161   49  159 1  
   162   50  160 1  
   163   50  161 1  
   164   51  162 1  
   165   51  163 1  
   166   51  164 1  
   167   52  165 1  
   168   52  166 1  
   169   54  167 1  
   170   56  168 1  
   171   57  169 1  
   172   58  170 1  
   173   59  171 1  
   174   63  172 1  
   175   66  173 1  
   176   67  174 1  
   177   68  175 1  
   178   69  176 1  
   179   71  177 1  
   180   72  178 1  
   181   73  179 1  
@<TRIPOS>SUBSTRUCTURE
     1 48G         1

