4l7d_ligand
  -I-interpret- 

 63 67  0  0  0  0  0  0  0  0999 V2000
  -27.8800   41.0790  -37.1010 C   0  0  0  0  0
  -26.8640   40.1620  -37.2160 C   0  0  0  0  0
  -25.5660   40.5180  -36.9270 C   0  0  0  0  0
  -24.5150   39.4700  -37.0710 C   0  0  0  0  0
  -25.2750   41.8060  -36.5170 C   0  0  0  0  0
  -23.8700   42.2090  -36.1970 C   0  0  0  0  0
  -22.8720   41.2360  -36.7720 C   0  0  0  0  0
  -24.3330   39.1600  -38.5440 C   0  0  0  0  0
  -27.5950   42.3600  -36.6950 C   0  0  0  0  0
  -26.0750   44.1330  -35.9690 C   0  0  0  0  0
  -26.3010   42.7260  -36.4050 C   0  0  0  0  0
  -23.2740   39.8840  -36.4570 N   0  0  0  0  0
  -23.2960   38.1880  -38.7700 N   0  0  0  0  0
  -23.5570   36.7700  -38.6730 C   0  0  0  0  0
  -22.1920   36.2280  -38.8750 C   0  0  0  0  0
  -21.7670   34.9220  -38.8520 C   0  0  0  0  0
  -20.4270   34.6710  -39.0710 C   0  0  0  0  0
  -19.5340   35.7000  -39.3060 C   0  0  0  0  0
  -19.9630   37.0100  -39.3280 C   0  0  0  0  0
  -21.2990   37.2300  -39.1080 C   0  0  0  0  0
  -21.9900   38.5090  -39.0800 C   0  0  0  0  0
  -21.4500   39.5820  -39.3010 O   0  0  0  0  0
  -22.5440   38.9650  -35.7100 C   0  0  0  0  0
  -22.8190   37.7740  -35.6860 O   0  0  0  0  0
  -21.3760   39.5070  -34.9260 C   0  0  0  0  0
  -20.1410   39.4380  -35.8020 C   0  0  0  0  0
  -19.6220   38.0240  -35.9300 C   0  0  0  0  0
  -19.2630   37.5110  -34.5620 C   0  0  0  0  0
  -20.5320   37.4040  -33.7570 C   0  0  0  0  0
  -21.1460   38.7830  -33.6050 C   0  0  0  0  0
  -22.4420   38.7170  -32.8530 C   0  0  0  0  0
  -22.7820   37.4530  -32.5010 O   0  0  0  0  0
  -23.1210   39.6950  -32.5830 O   0  0  0  0  0
  -28.9062   40.7920  -37.3305 H   0  0  0  0  0
  -27.0871   39.1450  -37.5384 H   0  0  0  0  0
  -24.8309   38.5650  -36.5520 H   0  0  0  0  0
  -23.7532   42.2238  -35.1134 H   0  0  0  0  0
  -23.6848   43.1912  -36.6318 H   0  0  0  0  0
  -21.8890   41.4303  -36.3429 H   0  0  0  0  0
  -22.8303   41.3580  -37.8543 H   0  0  0  0  0
  -24.0509   40.0819  -39.0526 H   0  0  0  0  0
  -25.2697   38.7514  -38.9232 H   0  0  0  0  0
  -28.3986   43.0905  -36.6021 H   0  0  0  0  0
  -25.6421   44.1370  -34.9687 H   0  0  0  0  0
  -25.3922   44.6221  -36.6637 H   0  0  0  0  0
  -27.0260   44.6655  -35.9569 H   0  0  0  0  0
  -24.2922   36.4027  -39.3890 H   0  0  0  0  0
  -24.0223   36.4662  -37.7353 H   0  0  0  0  0
  -22.4672   34.1075  -38.6663 H   0  0  0  0  0
  -20.0665   33.6424  -39.0584 H   0  0  0  0  0
  -18.4813   35.4735  -39.4754 H   0  0  0  0  0
  -19.2724   37.8330  -39.5117 H   0  0  0  0  0
  -21.5999   40.5388  -34.6551 H   0  0  0  0  0
  -19.3623   40.0488  -35.3452 H   0  0  0  0  0
  -20.4058   39.7972  -36.7965 H   0  0  0  0  0
  -18.7406   38.0116  -36.5712 H   0  0  0  0  0
  -20.3892   37.3885  -36.3722 H   0  0  0  0  0
  -18.5648   38.1923  -34.0756 H   0  0  0  0  0
  -18.7830   36.5355  -34.6397 H   0  0  0  0  0
  -20.3065   36.9941  -32.7725 H   0  0  0  0  0
  -21.2344   36.7458  -34.2683 H   0  0  0  0  0
  -20.4103   39.3590  -33.0437 H   0  0  0  0  0
  -22.1093   36.8433  -32.8129 H   0  0  0  0  0
  1  2  4  0  0  0
  1  9  4  0  0  0
  2  3  4  0  0  0
  3  4  1  0  0  0
  3  5  4  0  0  0
  4  8  1  0  0  0
  4 12  1  0  0  0
  5  6  1  0  0  0
  5 11  4  0  0  0
  6  7  1  0  0  0
  7 12  1  0  0  0
  8 13  1  0  0  0
  9 11  4  0  0  0
 11 10  1  0  0  0
 12 23  1  0  0  0
 13 14  1  0  0  0
 13 21  1  0  0  0
 14 15  1  0  0  0
 15 16  4  0  0  0
 15 20  4  0  0  0
 16 17  4  0  0  0
 17 18  4  0  0  0
 18 19  4  0  0  0
 19 20  4  0  0  0
 20 21  1  0  0  0
 21 22  2  0  0  0
 23 24  2  0  0  0
 23 25  1  0  0  0
 25 26  1  0  0  0
 25 30  1  0  0  0
 26 27  1  0  0  0
 27 28  1  0  0  0
 28 29  1  0  0  0
 29 30  1  0  0  0
 30 31  1  0  0  0
 31 32  1  0  0  0
 31 33  2  0  0  0
  1 34  1  0  0  0
  2 35  1  0  0  0
  4 36  1  0  0  0
  6 37  1  0  0  0
  6 38  1  0  0  0
  7 39  1  0  0  0
  7 40  1  0  0  0
  8 41  1  0  0  0
  8 42  1  0  0  0
  9 43  1  0  0  0
 10 44  1  0  0  0
 10 45  1  0  0  0
 10 46  1  0  0  0
 14 47  1  0  0  0
 14 48  1  0  0  0
 16 49  1  0  0  0
 17 50  1  0  0  0
 18 51  1  0  0  0
 19 52  1  0  0  0
 25 53  1  0  0  0
 26 54  1  0  0  0
 26 55  1  0  0  0
 27 56  1  0  0  0
 27 57  1  0  0  0
 28 58  1  0  0  0
 28 59  1  0  0  0
 29 60  1  0  0  0
 29 61  1  0  0  0
 30 62  1  0  0  0
 32 63  1  0  0  0
M  END
$$$$
