4jrg_ligand
  -I-interpret- 

 69 71  0  0  0  0  0  0  0  0999 V2000
   11.7810   10.7380   -1.0430 C   0  0  0  0  0
   12.4140   11.9570   -0.4310 C   0  0  0  0  0
   11.5560   12.8170    0.2200 N   0  0  0  0  0
   12.0330   14.0230    0.8900 C   0  0  0  0  0
   12.2410   15.1490   -0.1230 C   0  0  0  0  0
   12.6460   16.4230    0.6160 C   0  0  0  0  0
   11.5000   17.0540    1.1820 O   0  0  0  0  0
   13.4030   17.3850   -0.3100 C   0  0  0  0  0
   12.5640   17.8250   -1.3690 O   0  0  0  0  0
   13.6340   12.1920   -0.4790 O   0  0  0  0  0
   10.3500   10.6320   -0.5890 N   0  3  0  0  0
   12.4670    9.4660   -0.5490 C   0  0  0  0  0
   13.5950    9.0070   -1.4350 C   0  0  0  0  0
   13.6010    9.2920   -2.8020 C   0  0  0  0  0
   14.6410    8.8170   -3.6130 C   0  0  0  0  0
   14.6300    8.2690   -0.8770 C   0  0  0  0  0
   15.6690    7.8010   -1.6850 C   0  0  0  0  0
   16.9850    6.8940   -0.9550 Cl  0  0  0  0  0
   15.6780    8.0630   -3.0630 C   0  0  0  0  0
   11.3300    8.4560   -0.4380 C   0  0  0  0  0
   10.9650    7.9770   -1.7800 C   0  0  0  0  0
   10.6890    7.6040   -2.8200 N   0  0  0  0  0
   11.6620    7.2930    0.4690 C   0  0  0  0  0
   12.2180    7.5160    1.7450 C   0  0  0  0  0
   12.5380    6.4290    2.5610 C   0  0  0  0  0
   11.4260    5.9880    0.0240 C   0  0  0  0  0
   11.7420    4.9010    0.8410 C   0  0  0  0  0
   12.2990    5.1220    2.1040 C   0  0  0  0  0
   12.7180    3.7450    3.1190 Cl  0  0  0  0  0
   10.1870    9.3030    0.0950 C   0  0  0  0  0
    8.8160    8.6700   -0.2080 C   0  0  0  0  0
    7.7200    9.1860    0.7580 C   0  0  0  0  0
    7.8030   10.7240    0.8970 C   0  0  0  0  0
    7.9010    8.5440    2.1420 C   0  0  0  0  0
    6.3360    8.7960    0.2100 C   0  0  0  0  0
   11.8656   10.8351   -2.1254 H   0  0  0  0  0
   10.5585   12.6045    0.2340 H   0  0  0  0  0
   12.9827   13.8054    1.3788 H   0  0  0  0  0
   11.2912   14.3383    1.6238 H   0  0  0  0  0
   11.3149   15.3232   -0.6708 H   0  0  0  0  0
   13.0264   14.8685   -0.8248 H   0  0  0  0  0
   13.3217   16.1469    1.4255 H   0  0  0  0  0
   11.0449   16.4332    1.7557 H   0  0  0  0  0
   14.2621   16.8645   -0.7334 H   0  0  0  0  0
   13.7251   18.2511    0.2681 H   0  0  0  0  0
   13.0543   18.4246   -1.9362 H   0  0  0  0  0
    9.7178   10.7016   -1.3864 H   0  0  0  0  0
   10.1230   11.3922    0.0521 H   0  0  0  0  0
   12.9734    9.6186    0.4041 H   0  0  0  0  0
   12.7967    9.8841   -3.2386 H   0  0  0  0  0
   14.6395    9.0382   -4.6803 H   0  0  0  0  0
   14.6319    8.0547    0.1917 H   0  0  0  0  0
   16.4820    7.6837   -3.6937 H   0  0  0  0  0
   12.3975    8.5331    2.0934 H   0  0  0  0  0
   12.9711    6.5936    3.5476 H   0  0  0  0  0
   10.9945    5.8195   -0.9627 H   0  0  0  0  0
   11.5552    3.8842    0.4956 H   0  0  0  0  0
   10.2188    9.3946    1.1807 H   0  0  0  0  0
    8.9016    7.5904   -0.0848 H   0  0  0  0  0
    8.5312    8.9386   -1.2253 H   0  0  0  0  0
    8.7815   10.9997    1.2902 H   0  0  0  0  0
    7.6601   11.1841   -0.0807 H   0  0  0  0  0
    7.0257   11.0683    1.5792 H   0  0  0  0  0
    7.8215    7.4607    2.0518 H   0  0  0  0  0
    8.8826    8.8059    2.5370 H   0  0  0  0  0
    7.1269    8.9116    2.8156 H   0  0  0  0  0
    6.1969    9.2438   -0.7740 H   0  0  0  0  0
    6.2712    7.7109    0.1292 H   0  0  0  0  0
    5.5630    9.1579    0.8879 H   0  0  0  0  0
  1  2  1  0  0  0
  1 11  1  0  0  0
  1 12  1  0  0  0
  2  3  1  0  0  0
  2 10  2  0  0  0
  3  4  1  0  0  0
  4  5  1  0  0  0
  5  6  1  0  0  0
  6  7  1  0  0  0
  6  8  1  0  0  0
  8  9  1  0  0  0
 11 30  1  0  0  0
 12 13  1  0  0  0
 12 20  1  0  0  0
 13 14  4  0  0  0
 13 16  4  0  0  0
 14 15  4  0  0  0
 15 19  4  0  0  0
 16 17  4  0  0  0
 17 18  1  0  0  0
 17 19  4  0  0  0
 20 21  1  0  0  0
 20 23  1  0  0  0
 20 30  1  0  0  0
 21 22  3  0  0  0
 23 24  4  0  0  0
 23 26  4  0  0  0
 24 25  4  0  0  0
 25 28  4  0  0  0
 26 27  4  0  0  0
 27 28  4  0  0  0
 28 29  1  0  0  0
 30 31  1  0  0  0
 31 32  1  0  0  0
 32 33  1  0  0  0
 32 34  1  0  0  0
 32 35  1  0  0  0
  1 36  1  0  0  0
  3 37  1  0  0  0
  4 38  1  0  0  0
  4 39  1  0  0  0
  5 40  1  0  0  0
  5 41  1  0  0  0
  6 42  1  0  0  0
  7 43  1  0  0  0
  8 44  1  0  0  0
  8 45  1  0  0  0
  9 46  1  0  0  0
 11 47  1  0  0  0
 11 48  1  0  0  0
 12 49  1  0  0  0
 14 50  1  0  0  0
 15 51  1  0  0  0
 16 52  1  0  0  0
 19 53  1  0  0  0
 24 54  1  0  0  0
 25 55  1  0  0  0
 26 56  1  0  0  0
 27 57  1  0  0  0
 30 58  1  0  0  0
 31 59  1  0  0  0
 31 60  1  0  0  0
 33 61  1  0  0  0
 33 62  1  0  0  0
 33 63  1  0  0  0
 34 64  1  0  0  0
 34 65  1  0  0  0
 34 66  1  0  0  0
 35 67  1  0  0  0
 35 68  1  0  0  0
 35 69  1  0  0  0
M  END
$$$$
