2w87_ligand
  -I-interpret- 

 23 23  0  0  0  0  0  0  0  0999 V2000
  -14.5540   -4.7660   23.4790 C   0  0  0  0  0
  -15.3610   -3.6540   22.8090 C   0  0  0  0  0
  -14.4040   -2.6940   22.1090 C   0  0  0  0  0
  -13.4940   -2.0880   23.1580 C   0  0  0  0  0
  -12.7620   -3.2300   23.8800 C   0  0  0  0  0
  -11.8610   -2.7260   24.9990 C   0  0  0  0  0
  -13.8200   -5.4160   22.4420 O   0  0  0  0  0
  -16.2360   -4.2190   21.8470 O   0  0  0  0  0
  -15.1160   -1.6610   21.4250 O   0  0  0  0  0
  -12.5030   -1.2070   22.5700 O   0  0  0  0  0
  -13.7070   -4.1210   24.4710 O   0  0  0  0  0
  -11.0970   -1.7940   24.7080 O   0  0  0  0  0
  -11.9200   -3.2660   26.1300 O   0  0  0  0  0
  -15.1535   -5.5203   23.9886 H   0  0  0  0  0
  -15.9404   -3.1192   23.5616 H   0  0  0  0  0
  -13.8234   -3.2399   21.3653 H   0  0  0  0  0
  -14.1052   -1.5022   23.8445 H   0  0  0  0  0
  -12.1546   -3.7297   23.1254 H   0  0  0  0  0
  -14.4325   -5.8199   21.8228 H   0  0  0  0  0
  -16.8407   -4.8242   22.2825 H   0  0  0  0  0
  -15.6896   -2.0537   20.7629 H   0  0  0  0  0
  -12.9462   -0.4874   22.1147 H   0  0  0  0  0
  -12.5817   -3.9614   26.1172 H   0  0  0  0  0
  1  2  1  0  0  0
  1  7  1  0  0  0
  1 11  1  0  0  0
  2  3  1  0  0  0
  2  8  1  0  0  0
  3  4  1  0  0  0
  3  9  1  0  0  0
  4  5  1  0  0  0
  4 10  1  0  0  0
  5  6  1  0  0  0
  5 11  1  0  0  0
  6 12  2  0  0  0
  6 13  1  0  0  0
  1 14  1  0  0  0
  2 15  1  0  0  0
  3 16  1  0  0  0
  4 17  1  0  0  0
  5 18  1  0  0  0
  7 19  1  0  0  0
  8 20  1  0  0  0
  9 21  1  0  0  0
 10 22  1  0  0  0
 13 23  1  0  0  0
M  END
$$$$
