3ig1_ligand
  -I-interpret- 

 25 25  0  0  0  0  0  0  0  0999 V2000
   11.3800   19.4830   12.6820 C   0  0  0  0  0
   10.8000   18.8820   11.7170 O   0  0  0  0  0
   10.8460   20.8520   13.0200 C   0  0  0  0  0
    9.8560   21.1600   12.2170 O   0  0  0  0  0
   11.1990   21.7520   13.9610 C   0  0  0  0  0
   12.2270   21.7600   14.9990 C   0  0  0  0  0
   13.1180   20.7280   15.2360 C   0  0  0  0  0
   13.2390   19.4250   14.5280 C   0  0  0  0  0
   12.5440   18.8570   13.4610 C   0  0  0  0  0
   12.8780   17.6110   12.9990 O   0  0  0  0  0
   12.3090   24.4030   15.0000 C   0  0  0  0  0
   12.2300   23.0630   15.8470 C   0  0  0  0  0
   10.9470   23.1410   16.7770 C   0  0  0  0  0
   10.5936   22.6582   13.9432 H   0  0  0  0  0
   13.8250   20.8914   16.0493 H   0  0  0  0  0
   14.0294   18.7865   14.9225 H   0  0  0  0  0
   12.6889   19.6808   14.1599 H   0  0  0  0  0
   12.3023   17.3774   12.2672 H   0  0  0  0  0
   11.4096   24.5005   14.3920 H   0  0  0  0  0
   12.3862   25.2546   15.6760 H   0  0  0  0  0
   13.1852   24.3709   14.3524 H   0  0  0  0  0
   13.1431   22.9967   16.4386 H   0  0  0  0  0
   11.0331   24.0008   17.4414 H   0  0  0  0  0
   10.0565   23.2468   16.1573 H   0  0  0  0  0
   10.8730   22.2288   17.3690 H   0  0  0  0  0
  1  2  2  0  0  0
  1  3  1  0  0  0
  1  9  1  0  0  0
  3  4  2  0  0  0
  3  5  1  0  0  0
  5  6  2  0  0  0
  6  7  1  0  0  0
  6 12  1  0  0  0
  7  8  2  0  0  0
  8  9  1  0  0  0
  9 10  1  0  0  0
 12 11  1  0  0  0
 12 13  1  0  0  0
  5 14  1  0  0  0
  7 15  1  0  0  0
  8 16  1  0  0  0
  9 17  1  0  0  0
 10 18  1  0  0  0
 11 19  1  0  0  0
 11 20  1  0  0  0
 11 21  1  0  0  0
 12 22  1  0  0  0
 13 23  1  0  0  0
 13 24  1  0  0  0
 13 25  1  0  0  0
M  END
$$$$
