4xar_ligand
  -I-interpret- 

 25 26  0  0  0  0  0  0  0  0999 V2000
   52.5050  -27.2410    7.2000 O   0  0  0  0  0
   52.1510  -24.7280    8.7850 C   0  0  0  0  0
   47.6410  -25.2330   11.1520 O   0  0  0  0  0
   52.3050  -25.5810   10.0520 C   0  0  0  0  0
   51.0090  -25.3680    7.9280 C   0  0  0  0  0
   51.0250  -26.3770   10.1620 C   0  0  0  0  0
   48.5540  -26.1310   10.8260 C   0  0  0  0  0
   49.7320  -25.5570   10.1540 C   0  0  0  0  0
   50.2220  -26.2460    8.8800 C   0  0  0  0  0
   48.3570  -27.2720   11.0890 O   0  0  0  0  0
   50.1790  -24.3460    7.2360 N   0  3  0  0  0
   51.6130  -26.2890    6.8840 C   0  0  0  0  0
   51.3370  -26.1830    5.7210 O   0  0  0  0  0
   52.6514  -27.2385    8.1488 H   0  0  0  0  0
   53.0846  -24.7058    8.2229 H   0  0  0  0  0
   51.9036  -23.6987    9.0445 H   0  0  0  0  0
   47.9381  -24.3622   10.8780 H   0  0  0  0  0
   52.4661  -24.9606   10.9336 H   0  0  0  0  0
   53.1764  -26.2330    9.9907 H   0  0  0  0  0
   51.3918  -27.1773   10.8047 H   0  0  0  0  0
   49.4616  -24.5376   10.4294 H   0  0  0  0  0
   49.7225  -26.8938    8.1597 H   0  0  0  0  0
   50.7699  -23.7939    6.6144 H   0  0  0  0  0
   49.4525  -24.8114    6.6919 H   0  0  0  0  0
   49.7473  -23.7344    7.9288 H   0  0  0  0  0
 12  1  1  0  0  0
  4  2  1  0  0  0
  5  2  1  0  0  0
  7  3  1  0  0  0
  6  4  1  0  0  0
  9  5  1  0  0  0
  5 11  1  0  0  0
  5 12  1  0  0  0
  8  6  1  0  0  0
  6  9  1  0  0  0
  7  8  1  0  0  0
  7 10  2  0  0  0
  8  9  1  0  0  0
 12 13  2  0  0  0
  1 14  1  0  0  0
  2 15  1  0  0  0
  2 16  1  0  0  0
  3 17  1  0  0  0
  4 18  1  0  0  0
  4 19  1  0  0  0
  6 20  1  0  0  0
  8 21  1  0  0  0
  9 22  1  0  0  0
 11 23  1  0  0  0
 11 24  1  0  0  0
 11 25  1  0  0  0
M  END
$$$$
