### 
### Created by X-TOOL on Mon Sep 10 21:12:59 2018
### 

@<TRIPOS>MOLECULE
2wuu_ligand
  124   126     1     0     0
SMALL
GAST_HUCK


@<TRIPOS>ATOM
      1 S1         -0.4560  -19.1690   15.0070 S.3       1 NHW        -0.1381
      2 C2         -0.6320  -18.4570   13.3360 C.3       1 NHW         0.0162
      3 C3          0.2580  -17.1250   13.2320 C.3       1 NHW         0.0400
      4 N4          0.1020  -16.5540   11.8620 N.am      1 NHW        -0.2861
      5 C5          0.7530  -17.0210   10.8110 C.2       1 NHW         0.1779
      6 O5          1.6700  -17.8520   10.8620 O.2       1 NHW        -0.3970
      7 C6          0.3950  -16.2930    9.4980 C.3       1 NHW         0.0574
      8 C7          1.5760  -16.1370    8.5250 C.3       1 NHW         0.0477
      9 N8          2.7030  -15.3970    9.1120 N.am      1 NHW        -0.2826
     10 C9          2.6060  -14.0770    9.2890 C.2       1 NHW         0.2057
     11 O9          1.5530  -13.4560    9.1130 O.2       1 NHW        -0.3942
     12 CP         -2.1700  -18.7660   15.7230 C.3       1 NHW         0.0672
     13 C10         3.8390  -13.4650    9.9820 C.3       1 NHW         0.1510
     14 O10         4.9650  -14.2340    9.6830 O.3       1 NHW        -0.3708
     15 C11         3.6600  -13.3170   11.5170 C.3       1 NHW         0.0367
     16 C12         4.9760  -12.7810   12.1430 C.3       1 NHW         0.0936
     17 C13         3.3370  -14.6700   12.1820 C.3       1 NHW        -0.0528
     18 C14         2.4750  -12.4020   11.8010 C.3       1 NHW        -0.0528
     19 N1A         2.8450  -16.0940   17.5000 N.ar      1 NHW        -0.2698
     20 O1A         6.5420   -8.7200   12.7370 O.co2     1 NHW        -0.6127
     21 P1A         7.8010   -9.6410   12.9280 P.3       1 NHW         0.2972
     22 C1M        -2.1690  -17.3020   16.2800 C.2       1 NHW         0.1148
     23 O1M        -2.5790  -16.4430   15.5240 O.2       1 NHW        -0.3907
     24 C1X         7.1600  -13.4590   16.7780 C.3       1 NHW         0.2013
     25 C2A         3.4490  -15.1910   18.3560 C.ar      1 NHW         0.0533
     26 O2A         9.1630   -9.0770   12.4620 O.co2     1 NHW        -0.6127
     27 P2A         6.7080  -11.2760   10.8320 P.3       1 NHW         0.2971
     28 C2M        -1.4560  -17.0180   17.5960 C.3       1 NHW         0.0219
     29 C2X         8.5980  -13.9140   16.5620 C.3       1 NHW         0.1432
     30 O2X         8.9970  -14.8900   17.5440 O.3       1 NHW        -0.3832
     31 N3A         4.5670  -14.5820   18.0000 N.ar      1 NHW        -0.2714
     32 O3A         7.5850  -11.0380   12.1020 O.3       1 NHW        -0.1319
     33 C3M        -0.9580  -15.5780   17.7260 C.3       1 NHW        -0.0371
     34 C3X         9.3100  -12.6010   16.7870 C.3       1 NHW         0.1487
     35 O3X         9.4640  -12.2980   18.1840 O.3       1 NHW        -0.2674
     36 P3X        10.9100  -12.4620   18.8390 P.3       1 NHW         0.2013
     37 C4A         5.1200  -14.8960   16.7870 C.ar      1 NHW         0.1613
     38 O4A         7.1970  -12.5490   10.2480 O.co2     1 NHW        -0.6127
     39 C4M        -0.4860  -15.3580   19.1240 C.3       1 NHW        -0.0509
     40 C4X         8.3380  -11.5840   16.1980 C.3       1 NHW         0.1235
     41 O4X         7.0990  -12.2440   16.0280 O.3       1 NHW        -0.3360
     42 C5A         4.5280  -15.8200   15.9440 C.ar      1 NHW         0.1045
     43 O5A         6.6730  -10.0710   10.0380 O.co2     1 NHW        -0.6127
     44 C5M         0.2200  -13.9470   19.3140 C.3       1 NHW        -0.0529
     45 C5X         8.7380  -11.1870   14.7670 C.3       1 NHW         0.1131
     46 O5X         7.8340  -10.1470   14.4070 O.3       1 NHW        -0.2476
     47 C6A         3.3700  -16.4720   16.3210 C.ar      1 NHW         0.1298
     48 N6A         2.7620  -17.4500   15.5490 N.pl3     1 NHW        -0.3152
     49 O6A         5.2900  -11.5230   11.4980 O.3       1 NHW        -0.2496
     50 C6M         0.5510  -13.6750   20.7980 C.3       1 NHW        -0.0531
     51 N7A         5.3090  -15.9250   14.8300 N.2       1 NHW        -0.2958
     52 O7A        11.3260  -14.0110   18.7150 O.co2     1 NHW        -0.5537
     53 C7M        -0.6700  -13.2930   21.6280 C.3       1 NHW        -0.0531
     54 C8A         6.3350  -15.0870   14.9660 C.2       1 NHW         0.1123
     55 O8A        10.8190  -12.1670   20.3810 O.co2     1 NHW        -0.5537
     56 C8M        -0.2720  -12.9420   23.0660 C.3       1 NHW        -0.0531
     57 N9A         6.2350  -14.4490   16.1790 N.pl3     1 NHW        -0.1919
     58 O9A        11.8780  -11.5480   18.1380 O.co2     1 NHW        -0.5537
     59 C9M        -1.4760  -12.5660   23.9580 C.3       1 NHW        -0.0531
     60 CAM        -2.0400  -11.1500   23.5780 C.3       1 NHW        -0.0531
     61 CBM        -3.2860  -10.7540   24.4510 C.3       1 NHW        -0.0531
     62 CCM        -2.9300  -10.6930   25.9570 C.3       1 NHW        -0.0533
     63 CDM        -4.2060  -10.2370   26.7080 C.3       1 NHW        -0.0559
     64 CEM        -3.9330  -10.1400   28.2120 C.3       1 NHW        -0.0653
     65 H          -1.6781  -18.2128   13.1512 H         1 NHW         0.0398
     66 H          -0.2953  -19.1803   12.5933 H         1 NHW         0.0398
     67 H           1.3053  -17.3630   13.4179 H         1 NHW         0.0528
     68 H          -0.0711  -16.3997   13.9761 H         1 NHW         0.0528
     69 H          -0.5353  -15.7685   11.7310 H         1 NHW         0.1851
     70 H           0.0626  -15.2900    9.7654 H         1 NHW         0.0522
     71 H          -0.3623  -16.8924    8.9928 H         1 NHW         0.0522
     72 H           1.2235  -15.5770    7.6588 H         1 NHW         0.0545
     73 H           1.9300  -17.1350    8.2665 H         1 NHW         0.0545
     74 H           3.5543  -15.8894    9.3825 H         1 NHW         0.1853
     75 H          -2.4010  -19.4623   16.5291 H         1 NHW         0.0607
     76 H          -2.9226  -18.8573   14.9399 H         1 NHW         0.0607
     77 H           3.9680  -12.4536    9.5966 H         1 NHW         0.0844
     78 H           5.7342  -13.8542   10.1139 H         1 NHW         0.2133
     79 H           5.7853  -13.4958   11.9944 H         1 NHW         0.0628
     80 H           4.8541  -12.6368   13.2165 H         1 NHW         0.0628
     81 H           2.4125  -15.0677   11.7633 H         1 NHW         0.0238
     82 H           4.1522  -15.3690   11.9952 H         1 NHW         0.0238
     83 H           3.2187  -14.5265   13.2560 H         1 NHW         0.0238
     84 H           2.6594  -11.4229   11.3588 H         1 NHW         0.0238
     85 H           1.5725  -12.8335   11.3681 H         1 NHW         0.0238
     86 H           2.3484  -12.2974   12.8786 H         1 NHW         0.0238
     87 H           6.8888  -13.3446   17.8275 H         1 NHW         0.0996
     88 H           3.0016  -14.9808   19.3275 H         1 NHW         0.0996
     89 H          -0.5839  -17.6702   17.6419 H         1 NHW         0.0494
     90 H          -2.1730  -17.1890   18.3990 H         1 NHW         0.0494
     91 H           8.7906  -14.3972   15.6041 H         1 NHW         0.0680
     92 H           9.9051  -15.1547   17.3798 H         1 NHW         0.2101
     93 H          -1.7669  -14.8848   17.4955 H         1 NHW         0.0290
     94 H          -0.1390  -15.4056   17.0278 H         1 NHW         0.0290
     95 H          10.3092  -12.6093   16.3515 H         1 NHW         0.0704
     96 H           0.2438  -16.1331   19.3581 H         1 NHW         0.0267
     97 H          -1.3551  -15.3900   19.7810 H         1 NHW         0.0267
     98 H           8.3170  -10.7159   16.8569 H         1 NHW         0.0654
     99 H          -0.4603  -13.1706   18.9640 H         1 NHW         0.0265
    100 H           1.1510  -13.9476   18.7471 H         1 NHW         0.0265
    101 H           8.6759  -12.0318   14.0810 H         1 NHW         0.0648
    102 H           9.7754  -10.8568   14.7143 H         1 NHW         0.0648
    103 H           3.1698  -17.7200   14.6539 H         1 NHW         0.1820
    104 H           1.9068  -17.8996   15.8761 H         1 NHW         0.1820
    105 H           1.2477  -12.8374   20.8320 H         1 NHW         0.0265
    106 H           0.9606  -14.5937   21.2180 H         1 NHW         0.0265
    107 H          -1.3542  -14.1412   21.6526 H         1 NHW         0.0265
    108 H          -1.1415  -12.4214   21.1740 H         1 NHW         0.0265
    109 H           7.1268  -14.9321   14.2331 H         1 NHW         0.1349
    110 H           0.3895  -12.0767   23.0231 H         1 NHW         0.0265
    111 H           0.1990  -13.8229   23.5021 H         1 NHW         0.0265
    112 H          -1.1471  -12.5434   24.9969 H         1 NHW         0.0265
    113 H          -2.2630  -13.3059   23.8121 H         1 NHW         0.0265
    114 H          -2.3522  -11.1780   22.5340 H         1 NHW         0.0265
    115 H          -1.2553  -10.4140   23.7530 H         1 NHW         0.0265
    116 H          -4.0595  -11.5090   24.3101 H         1 NHW         0.0265
    117 H          -3.6270   -9.7674   24.1373 H         1 NHW         0.0265
    118 H          -2.1109   -9.9953   26.1310 H         1 NHW         0.0265
    119 H          -2.6008  -11.6686   26.3146 H         1 NHW         0.0265
    120 H          -4.9986  -10.9655   26.5369 H         1 NHW         0.0263
    121 H          -4.5055   -9.2567   26.3372 H         1 NHW         0.0263
    122 H          -3.6282  -11.1165   28.5884 H         1 NHW         0.0230
    123 H          -3.1376   -9.4163   28.3896 H         1 NHW         0.0230
    124 H          -4.8396   -9.8185   28.7245 H         1 NHW         0.0230
@<TRIPOS>BOND
     1    2    1 1  
     2    1   12 1  
     3    3    2 1  
     4    4    3 1  
     5    5    4 am 
     6    5    6 2  
     7    7    5 1  
     8    8    7 1  
     9    9    8 1  
    10   10    9 am 
    11   10   11 2  
    12   13   10 1  
    13   12   22 1  
    14   13   14 1  
    15   15   13 1  
    16   16   15 1  
    17   15   17 1  
    18   15   18 1  
    19   49   16 1  
    20   25   19 ar 
    21   47   19 ar 
    22   21   20 ar 
    23   21   26 ar 
    24   21   32 1  
    25   46   21 1  
    26   22   23 2  
    27   22   28 1  
    28   24   29 1  
    29   41   24 1  
    30   24   57 1  
    31   31   25 ar 
    32   32   27 1  
    33   27   38 ar 
    34   27   43 ar 
    35   27   49 1  
    36   28   33 1  
    37   29   30 1  
    38   34   29 1  
    39   37   31 ar 
    40   33   39 1  
    41   34   35 1  
    42   40   34 1  
    43   35   36 1  
    44   36   52 ar 
    45   36   55 ar 
    46   36   58 ar 
    47   37   42 ar 
    48   57   37 1  
    49   39   44 1  
    50   40   41 1  
    51   45   40 1  
    52   42   47 ar 
    53   42   51 1  
    54   44   50 1  
    55   45   46 1  
    56   47   48 1  
    57   50   53 1  
    58   51   54 2  
    59   53   56 1  
    60   54   57 1  
    61   56   59 1  
    62   59   60 1  
    63   60   61 1  
    64   61   62 1  
    65   62   63 1  
    66   63   64 1  
    67    2   65 1  
    68    2   66 1  
    69    3   67 1  
    70    3   68 1  
    71    4   69 1  
    72    7   70 1  
    73    7   71 1  
    74    8   72 1  
    75    8   73 1  
    76    9   74 1  
    77   12   75 1  
    78   12   76 1  
    79   13   77 1  
    80   14   78 1  
    81   16   79 1  
    82   16   80 1  
    83   17   81 1  
    84   17   82 1  
    85   17   83 1  
    86   18   84 1  
    87   18   85 1  
    88   18   86 1  
    89   24   87 1  
    90   25   88 1  
    91   28   89 1  
    92   28   90 1  
    93   29   91 1  
    94   30   92 1  
    95   33   93 1  
    96   33   94 1  
    97   34   95 1  
    98   39   96 1  
    99   39   97 1  
   100   40   98 1  
   101   44   99 1  
   102   44  100 1  
   103   45  101 1  
   104   45  102 1  
   105   48  103 1  
   106   48  104 1  
   107   50  105 1  
   108   50  106 1  
   109   53  107 1  
   110   53  108 1  
   111   54  109 1  
   112   56  110 1  
   113   56  111 1  
   114   59  112 1  
   115   59  113 1  
   116   60  114 1  
   117   60  115 1  
   118   61  116 1  
   119   61  117 1  
   120   62  118 1  
   121   62  119 1  
   122   63  120 1  
   123   63  121 1  
   124   64  122 1  
   125   64  123 1  
   126   64  124 1  
@<TRIPOS>SUBSTRUCTURE
     1 NHW         1

