2wuu_ligand
  -I-interpret- 

128130  0  0  0  0  0  0  0  0999 V2000
   -0.4560  -19.1690   15.0070 S   0  0  0  0  0
   -0.6320  -18.4570   13.3360 C   0  0  0  0  0
    0.2580  -17.1250   13.2320 C   0  0  0  0  0
    0.1020  -16.5540   11.8620 N   0  0  0  0  0
    0.7530  -17.0210   10.8110 C   0  0  0  0  0
    1.6700  -17.8520   10.8620 O   0  0  0  0  0
    0.3950  -16.2930    9.4980 C   0  0  0  0  0
    1.5760  -16.1370    8.5250 C   0  0  0  0  0
    2.7030  -15.3970    9.1120 N   0  0  0  0  0
    2.6060  -14.0770    9.2890 C   0  0  0  0  0
    1.5530  -13.4560    9.1130 O   0  0  0  0  0
   -2.1700  -18.7660   15.7230 C   0  0  0  0  0
    3.8390  -13.4650    9.9820 C   0  0  0  0  0
    4.9650  -14.2340    9.6830 O   0  0  0  0  0
    3.6600  -13.3170   11.5170 C   0  0  0  0  0
    4.9760  -12.7810   12.1430 C   0  0  0  0  0
    3.3370  -14.6700   12.1820 C   0  0  0  0  0
    2.4750  -12.4020   11.8010 C   0  0  0  0  0
    2.8450  -16.0940   17.5000 N   0  0  0  0  0
    6.5420   -8.7200   12.7370 O   0  0  0  0  0
    7.8010   -9.6410   12.9280 P   0  0  0  0  0
   -2.1690  -17.3020   16.2800 C   0  0  0  0  0
   -2.5790  -16.4430   15.5240 O   0  0  0  0  0
    7.1600  -13.4590   16.7780 C   0  0  0  0  0
    3.4490  -15.1910   18.3560 C   0  0  0  0  0
    9.1630   -9.0770   12.4620 O   0  0  0  0  0
    6.7080  -11.2760   10.8320 P   0  0  0  0  0
   -1.4560  -17.0180   17.5960 C   0  0  0  0  0
    8.5980  -13.9140   16.5620 C   0  0  0  0  0
    8.9970  -14.8900   17.5440 O   0  0  0  0  0
    4.5670  -14.5820   18.0000 N   0  0  0  0  0
    7.5850  -11.0380   12.1020 O   0  0  0  0  0
   -0.9580  -15.5780   17.7260 C   0  0  0  0  0
    9.3100  -12.6010   16.7870 C   0  0  0  0  0
    9.4640  -12.2980   18.1840 O   0  0  0  0  0
   10.9100  -12.4620   18.8390 P   0  0  0  0  0
    5.1200  -14.8960   16.7870 C   0  0  0  0  0
    7.1970  -12.5490   10.2480 O   0  0  0  0  0
   -0.4860  -15.3580   19.1240 C   0  0  0  0  0
    8.3380  -11.5840   16.1980 C   0  0  0  0  0
    7.0990  -12.2440   16.0280 O   0  0  0  0  0
    4.5280  -15.8200   15.9440 C   0  0  0  0  0
    6.6730  -10.0710   10.0380 O   0  0  0  0  0
    0.2200  -13.9470   19.3140 C   0  0  0  0  0
    8.7380  -11.1870   14.7670 C   0  0  0  0  0
    7.8340  -10.1470   14.4070 O   0  0  0  0  0
    3.3700  -16.4720   16.3210 C   0  0  0  0  0
    2.7620  -17.4500   15.5490 N   0  0  0  0  0
    5.2900  -11.5230   11.4980 O   0  0  0  0  0
    0.5510  -13.6750   20.7980 C   0  0  0  0  0
    5.3090  -15.9250   14.8300 N   0  0  0  0  0
   11.3260  -14.0110   18.7150 O   0  0  0  0  0
   -0.6700  -13.2930   21.6280 C   0  0  0  0  0
    6.3350  -15.0870   14.9660 C   0  0  0  0  0
   10.8190  -12.1670   20.3810 O   0  0  0  0  0
   -0.2720  -12.9420   23.0660 C   0  0  0  0  0
    6.2350  -14.4490   16.1790 N   0  0  0  0  0
   11.8780  -11.5480   18.1380 O   0  0  0  0  0
   -1.4760  -12.5660   23.9580 C   0  0  0  0  0
   -2.0400  -11.1500   23.5780 C   0  0  0  0  0
   -3.2860  -10.7540   24.4510 C   0  0  0  0  0
   -2.9300  -10.6930   25.9570 C   0  0  0  0  0
   -4.2060  -10.2370   26.7080 C   0  0  0  0  0
   -3.9330  -10.1400   28.2120 C   0  0  0  0  0
   -1.6781  -18.2128   13.1512 H   0  0  0  0  0
   -0.2953  -19.1803   12.5933 H   0  0  0  0  0
    1.3053  -17.3630   13.4179 H   0  0  0  0  0
   -0.0711  -16.3997   13.9761 H   0  0  0  0  0
   -0.5353  -15.7685   11.7310 H   0  0  0  0  0
    0.0626  -15.2900    9.7654 H   0  0  0  0  0
   -0.3623  -16.8924    8.9928 H   0  0  0  0  0
    1.2235  -15.5770    7.6588 H   0  0  0  0  0
    1.9300  -17.1350    8.2665 H   0  0  0  0  0
    3.5543  -15.8894    9.3825 H   0  0  0  0  0
   -2.4010  -19.4623   16.5291 H   0  0  0  0  0
   -2.9226  -18.8573   14.9399 H   0  0  0  0  0
    3.9680  -12.4536    9.5966 H   0  0  0  0  0
    5.7342  -13.8542   10.1139 H   0  0  0  0  0
    5.7853  -13.4958   11.9944 H   0  0  0  0  0
    4.8541  -12.6368   13.2165 H   0  0  0  0  0
    2.4125  -15.0677   11.7633 H   0  0  0  0  0
    4.1522  -15.3690   11.9952 H   0  0  0  0  0
    3.2187  -14.5265   13.2560 H   0  0  0  0  0
    2.6594  -11.4229   11.3588 H   0  0  0  0  0
    1.5725  -12.8335   11.3681 H   0  0  0  0  0
    2.3484  -12.2974   12.8786 H   0  0  0  0  0
    5.7616   -9.1755   13.0611 H   0  0  0  0  0
    6.8888  -13.3446   17.8275 H   0  0  0  0  0
    3.0016  -14.9808   19.3275 H   0  0  0  0  0
   -0.5839  -17.6702   17.6419 H   0  0  0  0  0
   -2.1730  -17.1890   18.3990 H   0  0  0  0  0
    8.7906  -14.3972   15.6041 H   0  0  0  0  0
    9.9051  -15.1547   17.3798 H   0  0  0  0  0
   -1.7669  -14.8848   17.4955 H   0  0  0  0  0
   -0.1390  -15.4056   17.0278 H   0  0  0  0  0
   10.3092  -12.6093   16.3515 H   0  0  0  0  0
    7.1517  -13.2421   10.9107 H   0  0  0  0  0
    0.2438  -16.1331   19.3581 H   0  0  0  0  0
   -1.3551  -15.3900   19.7810 H   0  0  0  0  0
    8.3170  -10.7159   16.8569 H   0  0  0  0  0
   -0.4603  -13.1706   18.9640 H   0  0  0  0  0
    1.1510  -13.9476   18.7471 H   0  0  0  0  0
    8.6759  -12.0318   14.0810 H   0  0  0  0  0
    9.7754  -10.8568   14.7143 H   0  0  0  0  0
    1.9031  -17.8947   15.8729 H   0  0  0  0  0
    3.1736  -17.7248   14.6571 H   0  0  0  0  0
    1.2477  -12.8374   20.8320 H   0  0  0  0  0
    0.9606  -14.5937   21.2180 H   0  0  0  0  0
   10.6809  -14.5523   19.1760 H   0  0  0  0  0
   -1.3542  -14.1412   21.6526 H   0  0  0  0  0
   -1.1415  -12.4214   21.1740 H   0  0  0  0  0
    7.1268  -14.9321   14.2331 H   0  0  0  0  0
   10.1922  -12.7717   20.7849 H   0  0  0  0  0
    0.3895  -12.0767   23.0231 H   0  0  0  0  0
    0.1990  -13.8229   23.5021 H   0  0  0  0  0
   -1.1471  -12.5434   24.9969 H   0  0  0  0  0
   -2.2630  -13.3059   23.8121 H   0  0  0  0  0
   -2.3522  -11.1780   22.5340 H   0  0  0  0  0
   -1.2553  -10.4140   23.7530 H   0  0  0  0  0
   -4.0595  -11.5090   24.3101 H   0  0  0  0  0
   -3.6270   -9.7674   24.1373 H   0  0  0  0  0
   -2.1109   -9.9953   26.1310 H   0  0  0  0  0
   -2.6008  -11.6686   26.3146 H   0  0  0  0  0
   -4.9986  -10.9655   26.5369 H   0  0  0  0  0
   -4.5055   -9.2567   26.3372 H   0  0  0  0  0
   -3.6282  -11.1165   28.5884 H   0  0  0  0  0
   -3.1376   -9.4163   28.3896 H   0  0  0  0  0
   -4.8396   -9.8185   28.7245 H   0  0  0  0  0
  2  1  1  0  0  0
  1 12  1  0  0  0
  3  2  1  0  0  0
  4  3  1  0  0  0
  5  4  1  0  0  0
  5  6  2  0  0  0
  7  5  1  0  0  0
  8  7  1  0  0  0
  9  8  1  0  0  0
 10  9  1  0  0  0
 10 11  2  0  0  0
 13 10  1  0  0  0
 12 22  1  0  0  0
 13 14  1  0  0  0
 15 13  1  0  0  0
 16 15  1  0  0  0
 15 17  1  0  0  0
 15 18  1  0  0  0
 49 16  1  0  0  0
 25 19  4  0  0  0
 47 19  4  0  0  0
 21 20  1  0  0  0
 21 26  2  0  0  0
 21 32  1  0  0  0
 46 21  1  0  0  0
 22 23  2  0  0  0
 22 28  1  0  0  0
 24 29  1  0  0  0
 41 24  1  0  0  0
 24 57  1  0  0  0
 31 25  4  0  0  0
 32 27  1  0  0  0
 27 38  1  0  0  0
 27 43  2  0  0  0
 27 49  1  0  0  0
 28 33  1  0  0  0
 29 30  1  0  0  0
 34 29  1  0  0  0
 37 31  4  0  0  0
 33 39  1  0  0  0
 34 35  1  0  0  0
 40 34  1  0  0  0
 35 36  1  0  0  0
 36 52  1  0  0  0
 36 55  1  0  0  0
 36 58  2  0  0  0
 37 42  4  0  0  0
 57 37  4  0  0  0
 39 44  1  0  0  0
 40 41  1  0  0  0
 45 40  1  0  0  0
 42 47  4  0  0  0
 42 51  4  0  0  0
 44 50  1  0  0  0
 45 46  1  0  0  0
 47 48  1  0  0  0
 50 53  1  0  0  0
 51 54  4  0  0  0
 53 56  1  0  0  0
 54 57  4  0  0  0
 56 59  1  0  0  0
 59 60  1  0  0  0
 60 61  1  0  0  0
 61 62  1  0  0  0
 62 63  1  0  0  0
 63 64  1  0  0  0
  2 65  1  0  0  0
  2 66  1  0  0  0
  3 67  1  0  0  0
  3 68  1  0  0  0
  4 69  1  0  0  0
  7 70  1  0  0  0
  7 71  1  0  0  0
  8 72  1  0  0  0
  8 73  1  0  0  0
  9 74  1  0  0  0
 12 75  1  0  0  0
 12 76  1  0  0  0
 13 77  1  0  0  0
 14 78  1  0  0  0
 16 79  1  0  0  0
 16 80  1  0  0  0
 17 81  1  0  0  0
 17 82  1  0  0  0
 17 83  1  0  0  0
 18 84  1  0  0  0
 18 85  1  0  0  0
 18 86  1  0  0  0
 20 87  1  0  0  0
 24 88  1  0  0  0
 25 89  1  0  0  0
 28 90  1  0  0  0
 28 91  1  0  0  0
 29 92  1  0  0  0
 30 93  1  0  0  0
 33 94  1  0  0  0
 33 95  1  0  0  0
 34 96  1  0  0  0
 38 97  1  0  0  0
 39 98  1  0  0  0
 39 99  1  0  0  0
 40100  1  0  0  0
 44101  1  0  0  0
 44102  1  0  0  0
 45103  1  0  0  0
 45104  1  0  0  0
 48105  1  0  0  0
 48106  1  0  0  0
 50107  1  0  0  0
 50108  1  0  0  0
 52109  1  0  0  0
 53110  1  0  0  0
 53111  1  0  0  0
 54112  1  0  0  0
 55113  1  0  0  0
 56114  1  0  0  0
 56115  1  0  0  0
 59116  1  0  0  0
 59117  1  0  0  0
 60118  1  0  0  0
 60119  1  0  0  0
 61120  1  0  0  0
 61121  1  0  0  0
 62122  1  0  0  0
 62123  1  0  0  0
 63124  1  0  0  0
 63125  1  0  0  0
 64126  1  0  0  0
 64127  1  0  0  0
 64128  1  0  0  0
M  END
$$$$
