### 
### Created by X-TOOL on Mon Sep 10 21:13:31 2018
### 

@<TRIPOS>MOLECULE
5mek_ligand
   38    40     1     0     0
SMALL
GAST_HUCK


@<TRIPOS>ATOM
      1 P1         35.5350   31.2920   21.9140 P.3       1 A3P         0.2013
      2 O1P        35.2050   31.8010   20.5620 O.co2     1 A3P        -0.5537
      3 O2P        35.5400   29.7400   22.0580 O.co2     1 A3P        -0.5537
      4 O3P        36.7900   31.9220   22.5490 O.co2     1 A3P        -0.5537
      5 P2         29.8480   30.1310   26.7750 P.3       1 A3P         0.2008
      6 O4P        28.2800   30.2700   26.3280 O.co2     1 A3P        -0.5537
      7 O5P        30.2380   28.6820   27.0400 O.co2     1 A3P        -0.5537
      8 O6P        30.1620   30.9720   27.9980 O.co2     1 A3P        -0.5537
      9 O5'        30.5380   30.8160   25.5900 O.3       1 A3P        -0.2734
     10 C5'        31.9410   30.5840   25.5210 C.3       1 A3P         0.1075
     11 C4'        32.5420   31.6030   24.5410 C.3       1 A3P         0.1229
     12 O4'        32.5780   32.9860   25.0340 O.3       1 A3P        -0.3361
     13 C3'        34.0240   31.2760   24.1330 C.3       1 A3P         0.1487
     14 O3'        34.2560   31.8070   22.8330 O.3       1 A3P        -0.2674
     15 C2'        34.7140   32.1090   25.2470 C.3       1 A3P         0.1432
     16 O2'        36.1340   32.3320   25.0530 O.3       1 A3P        -0.3832
     17 C1'        33.9360   33.4430   25.1690 C.3       1 A3P         0.2013
     18 N9         33.9870   34.2830   26.3880 N.pl3     1 A3P        -0.1919
     19 C8         34.1480   33.8430   27.6460 C.2       1 A3P         0.1123
     20 N7         34.1830   34.8320   28.5540 N.2       1 A3P        -0.2958
     21 C5         33.9630   35.9230   27.8040 C.ar      1 A3P         0.1045
     22 C6         33.8430   37.3380   28.0980 C.ar      1 A3P         0.1298
     23 N6         33.9140   37.7030   29.3680 N.pl3     1 A3P        -0.3152
     24 N1         33.6210   38.1730   27.1010 N.ar      1 A3P        -0.2698
     25 C2         33.5300   37.7890   25.8230 C.ar      1 A3P         0.0533
     26 N3         33.6390   36.5400   25.4380 N.ar      1 A3P        -0.2714
     27 C4         33.8480   35.6000   26.3940 C.ar      1 A3P         0.1613
     28 H1         32.1334   29.5622   25.1619 H         1 A3P         0.0639
     29 H2         32.3904   30.7135   26.5166 H         1 A3P         0.0639
     30 H3         31.9166   31.5764   23.6365 H         1 A3P         0.0654
     31 H4         34.2761   30.2060   24.1728 H         1 A3P         0.0704
     32 H5         34.5696   31.6255   26.2244 H         1 A3P         0.0680
     33 H6         36.2715   32.7994   24.2374 H         1 A3P         0.2101
     34 H7         34.2673   34.0324   24.3013 H         1 A3P         0.0996
     35 H8         34.2410   32.7892   27.9045 H         1 A3P         0.1349
     36 H9         33.8338   38.6976   29.6232 H         1 A3P         0.1820
     37 H10        34.0495   36.9924   30.1013 H         1 A3P         0.1820
     38 H11        33.3576   38.5476   25.0681 H         1 A3P         0.0996
@<TRIPOS>BOND
     1    1    2 ar 
     2    1    3 ar 
     3    1    4 ar 
     4   14    1 1  
     5    5    6 ar 
     6    5    7 ar 
     7    5    8 ar 
     8    9    5 1  
     9   10    9 1  
    10   11   10 1  
    11   11   12 1  
    12   13   11 1  
    13   12   17 1  
    14   13   14 1  
    15   13   15 1  
    16   15   16 1  
    17   15   17 1  
    18   17   18 1  
    19   18   19 1  
    20   18   27 1  
    21   19   20 2  
    22   20   21 1  
    23   21   22 ar 
    24   21   27 ar 
    25   22   23 1  
    26   22   24 ar 
    27   24   25 ar 
    28   25   26 ar 
    29   26   27 ar 
    30   10   28 1  
    31   10   29 1  
    32   11   30 1  
    33   13   31 1  
    34   15   32 1  
    35   16   33 1  
    36   17   34 1  
    37   19   35 1  
    38   23   36 1  
    39   23   37 1  
    40   25   38 1  
@<TRIPOS>SUBSTRUCTURE
     1 A3P         1

