5mek_ligand
  -I-interpret- 

 42 44  0  0  0  0  0  0  0  0999 V2000
   35.5350   31.2920   21.9140 P   0  0  0  0  0
   35.2050   31.8010   20.5620 O   0  0  0  0  0
   35.5400   29.7400   22.0580 O   0  0  0  0  0
   36.7900   31.9220   22.5490 O   0  0  0  0  0
   29.8480   30.1310   26.7750 P   0  0  0  0  0
   28.2800   30.2700   26.3280 O   0  0  0  0  0
   30.2380   28.6820   27.0400 O   0  0  0  0  0
   30.1620   30.9720   27.9980 O   0  0  0  0  0
   30.5380   30.8160   25.5900 O   0  0  0  0  0
   31.9410   30.5840   25.5210 C   0  0  0  0  0
   32.5420   31.6030   24.5410 C   0  0  0  0  0
   32.5780   32.9860   25.0340 O   0  0  0  0  0
   34.0240   31.2760   24.1330 C   0  0  0  0  0
   34.2560   31.8070   22.8330 O   0  0  0  0  0
   34.7140   32.1090   25.2470 C   0  0  0  0  0
   36.1340   32.3320   25.0530 O   0  0  0  0  0
   33.9360   33.4430   25.1690 C   0  0  0  0  0
   33.9870   34.2830   26.3880 N   0  0  0  0  0
   34.1480   33.8430   27.6460 C   0  0  0  0  0
   34.1830   34.8320   28.5540 N   0  0  0  0  0
   33.9630   35.9230   27.8040 C   0  0  0  0  0
   33.8430   37.3380   28.0980 C   0  0  0  0  0
   33.9140   37.7030   29.3680 N   0  0  0  0  0
   33.6210   38.1730   27.1010 N   0  0  0  0  0
   33.5300   37.7890   25.8230 C   0  0  0  0  0
   33.6390   36.5400   25.4380 N   0  0  0  0  0
   33.8480   35.6000   26.3940 C   0  0  0  0  0
   35.7627   29.5043   22.9616 H   0  0  0  0  0
   36.9334   31.5404   23.4182 H   0  0  0  0  0
   28.1197   29.7257   25.5536 H   0  0  0  0  0
   30.0387   28.1513   26.2652 H   0  0  0  0  0
   32.1387   29.5686   25.1774 H   0  0  0  0  0
   32.3910   30.6987   26.5071 H   0  0  0  0  0
   31.8594   31.5198   23.6953 H   0  0  0  0  0
   34.3371   30.2336   24.0736 H   0  0  0  0  0
   34.6804   31.5970   26.2087 H   0  0  0  0  0
   36.4778   32.8520   25.7831 H   0  0  0  0  0
   34.3489   34.0666   24.3761 H   0  0  0  0  0
   34.2410   32.7883   27.9047 H   0  0  0  0  0
   34.0482   36.9994   30.0941 H   0  0  0  0  0
   33.8346   38.6880   29.6208 H   0  0  0  0  0
   33.3567   38.5518   25.0640 H   0  0  0  0  0
  1  2  2  0  0  0
  1  3  1  0  0  0
  1  4  1  0  0  0
 14  1  1  0  0  0
  5  6  1  0  0  0
  5  7  1  0  0  0
  5  8  2  0  0  0
  9  5  1  0  0  0
 10  9  1  0  0  0
 11 10  1  0  0  0
 11 12  1  0  0  0
 13 11  1  0  0  0
 12 17  1  0  0  0
 13 14  1  0  0  0
 13 15  1  0  0  0
 15 16  1  0  0  0
 15 17  1  0  0  0
 17 18  1  0  0  0
 18 19  4  0  0  0
 18 27  4  0  0  0
 19 20  4  0  0  0
 20 21  4  0  0  0
 21 22  4  0  0  0
 21 27  4  0  0  0
 22 23  1  0  0  0
 22 24  4  0  0  0
 24 25  4  0  0  0
 25 26  4  0  0  0
 26 27  4  0  0  0
  3 28  1  0  0  0
  4 29  1  0  0  0
  6 30  1  0  0  0
  7 31  1  0  0  0
 10 32  1  0  0  0
 10 33  1  0  0  0
 11 34  1  0  0  0
 13 35  1  0  0  0
 15 36  1  0  0  0
 16 37  1  0  0  0
 17 38  1  0  0  0
 19 39  1  0  0  0
 23 40  1  0  0  0
 23 41  1  0  0  0
 25 42  1  0  0  0
M  END
$$$$
