1f4f_ligand
  -I-interpret- 

 49 50  0  0  0  0  0  0  0  0999 V2000
   16.0830   13.5170   30.2510 C   0  0  0  0  0
   17.4530   13.8730   30.8970 C   0  0  0  0  0
   17.2220   15.2930   31.1590 N   0  0  0  0  0
   16.2910   15.9270   30.2340 C   0  0  0  0  0
   15.8950   14.7310   29.3170 C   0  0  0  0  0
   16.6250   17.1980   29.4520 C   0  0  0  0  0
   17.6970   17.4750   28.8890 O   0  0  0  0  0
   15.6600   18.0300   29.3840 O   0  0  0  0  0
   17.7180   15.9660   32.6620 S   0  0  0  0  0
   16.5540   15.4030   33.8730 C   0  0  0  0  0
   19.1170   15.4630   33.1360 O   0  0  0  0  0
   17.6380   17.5550   32.6130 O   0  0  0  0  0
   15.2840   15.9350   33.8350 C   0  0  0  0  0
   14.3640   15.5090   34.7770 C   0  0  0  0  0
   14.7610   14.5440   35.7220 C   0  0  0  0  0
   16.0700   14.0180   35.7260 C   0  0  0  0  0
   16.9890   14.4540   34.7790 C   0  0  0  0  0
   13.6990   14.1060   36.7070 C   0  0  0  0  0
   14.0410   13.3750   37.7830 N   0  0  0  0  0
   12.9540   12.8270   38.6390 C   0  0  0  0  0
   12.6190   11.3410   38.4960 C   0  0  0  0  0
   13.4520   10.5780   37.4660 C   0  0  0  0  0
   13.4310    9.0670   37.6610 C   0  0  0  0  0
   12.4990   14.1670   36.4090 O   0  0  0  0  0
   13.4980   13.2360   40.0520 C   0  0  0  0  0
   12.6340   13.4320   40.9230 O   0  0  0  0  0
   14.7340   13.3430   40.1930 O   0  0  0  0  0
   14.0100    8.6230   38.6770 O   0  0  0  0  0
   12.8710    8.3290   36.8300 O   0  0  0  0  0
   16.0650   12.5534   29.7418 H   0  0  0  0  0
   15.2740   13.3737   30.9673 H   0  0  0  0  0
   18.3231   13.6560   30.2773 H   0  0  0  0  0
   17.7148   13.2809   31.7739 H   0  0  0  0  0
   15.5153   16.4047   30.8324 H   0  0  0  0  0
   14.8824   14.8129   28.9219 H   0  0  0  0  0
   16.4978   14.6699   28.4109 H   0  0  0  0  0
   14.9042   17.6815   29.8624 H   0  0  0  0  0
   15.0103   16.6735   33.0814 H   0  0  0  0  0
   13.3516   15.9128   34.7871 H   0  0  0  0  0
   16.3591   13.2736   36.4679 H   0  0  0  0  0
   18.0069   14.0651   34.7519 H   0  0  0  0  0
   15.0208   13.2006   38.0067 H   0  0  0  0  0
   11.9721   13.2185   38.3733 H   0  0  0  0  0
   11.5831   11.2860   38.1613 H   0  0  0  0  0
   12.8223   10.8814   39.4632 H   0  0  0  0  0
   14.4856   10.9067   37.5741 H   0  0  0  0  0
   13.0273   10.7862   36.4840 H   0  0  0  0  0
   15.1688   13.1349   39.3628 H   0  0  0  0  0
   14.3727    9.3542   39.1824 H   0  0  0  0  0
  5  1  1  0  0  0
  1  2  1  0  0  0
  2  3  1  0  0  0
  3  9  1  0  0  0
  3  4  1  0  0  0
  4  6  1  0  0  0
  4  5  1  0  0  0
  6  8  1  0  0  0
  6  7  2  0  0  0
  9 12  2  0  0  0
  9 11  2  0  0  0
  9 10  1  0  0  0
 10 17  4  0  0  0
 10 13  4  0  0  0
 13 14  4  0  0  0
 14 15  4  0  0  0
 15 18  1  0  0  0
 15 16  4  0  0  0
 16 17  4  0  0  0
 18 24  2  0  0  0
 18 19  1  0  0  0
 19 20  1  0  0  0
 20 25  1  0  0  0
 20 21  1  0  0  0
 21 22  1  0  0  0
 22 23  1  0  0  0
 23 29  2  0  0  0
 23 28  1  0  0  0
 25 27  1  0  0  0
 25 26  2  0  0  0
  1 30  1  0  0  0
  1 31  1  0  0  0
  2 32  1  0  0  0
  2 33  1  0  0  0
  4 34  1  0  0  0
  5 35  1  0  0  0
  5 36  1  0  0  0
  8 37  1  0  0  0
 13 38  1  0  0  0
 14 39  1  0  0  0
 16 40  1  0  0  0
 17 41  1  0  0  0
 19 42  1  0  0  0
 20 43  1  0  0  0
 21 44  1  0  0  0
 21 45  1  0  0  0
 22 46  1  0  0  0
 22 47  1  0  0  0
 27 48  1  0  0  0
 28 49  1  0  0  0
M  END
$$$$
