6fyi_ligand
  -I-interpret- 

 33 34  0  0  0  0  0  0  0  0999 V2000
   13.4830   92.1270   35.9650 C   0  0  0  0  0
   12.2470   91.5590   35.2230 C   0  0  0  0  0
   13.3070   86.7860   37.2280 C   0  0  0  0  0
   11.6120   89.1000   36.8960 C   0  0  0  0  0
   10.8330   90.2660   36.8030 C   0  0  0  0  0
   10.1860   93.6330   35.8860 C   0  0  0  0  0
    9.1930   94.7270   36.0500 C   0  0  0  0  0
    9.5340   96.1160   35.5690 C   0  0  0  0  0
   11.0860   91.4220   36.1290 N   0  3  0  0  0
   10.1560   92.3550   36.3260 C   0  0  0  0  0
    8.7500   91.8010   37.2420 S   0  0  0  0  0
    9.6060   90.3030   37.4450 C   0  0  0  0  0
    9.1120   89.2270   38.1910 C   0  0  0  0  0
    9.8970   88.0700   38.2780 C   0  0  0  0  0
   11.1480   88.0000   37.6370 C   0  0  0  0  0
   11.9540   86.8490   37.7130 O   0  0  0  0  0
    8.0950   94.5490   36.5560 O   0  0  0  0  0
   13.2424   93.1103   36.3692 H   0  0  0  0  0
   13.7571   91.4554   36.7786 H   0  0  0  0  0
   14.3160   92.2135   35.2673 H   0  0  0  0  0
   12.5005   90.5723   34.8353 H   0  0  0  0  0
   11.9796   92.2471   34.4210 H   0  0  0  0  0
   13.3188   86.9997   36.1592 H   0  0  0  0  0
   13.9148   87.5224   37.7538 H   0  0  0  0  0
   13.7089   85.7883   37.4048 H   0  0  0  0  0
   12.5775   89.0489   36.3926 H   0  0  0  0  0
   11.0069   94.0251   36.4864 H   0  0  0  0  0
   10.1174   93.4691   34.8106 H   0  0  0  0  0
    8.8171   96.4214   34.8069 H   0  0  0  0  0
    9.4920   96.8103   36.4082 H   0  0  0  0  0
   10.5384   96.1161   35.1456 H   0  0  0  0  0
    8.1447   89.2874   38.6898 H   0  0  0  0  0
    9.5350   87.2146   38.8484 H   0  0  0  0  0
  2  1  1  0  0  0
  9  2  1  0  0  0
 16  3  1  0  0  0
  4  5  4  0  0  0
 15  4  4  0  0  0
  5  9  4  0  0  0
  5 12  4  0  0  0
  6  7  1  0  0  0
 10  6  1  0  0  0
  7  8  1  0  0  0
  7 17  2  0  0  0
  9 10  4  0  0  0
 11 10  4  0  0  0
 12 11  4  0  0  0
 13 12  4  0  0  0
 14 13  4  0  0  0
 15 14  4  0  0  0
 15 16  1  0  0  0
  1 18  1  0  0  0
  1 19  1  0  0  0
  1 20  1  0  0  0
  2 21  1  0  0  0
  2 22  1  0  0  0
  3 23  1  0  0  0
  3 24  1  0  0  0
  3 25  1  0  0  0
  4 26  1  0  0  0
  6 27  1  0  0  0
  6 28  1  0  0  0
  8 29  1  0  0  0
  8 30  1  0  0  0
  8 31  1  0  0  0
 13 32  1  0  0  0
 14 33  1  0  0  0
M  END
$$$$
