4cws_ligand
  -I-interpret- 

 46 50  0  0  0  0  0  0  0  0999 V2000
    4.7180    6.4990   32.0390 O   0  0  0  0  0
    5.0940    6.3110   30.6750 C   0  0  0  0  0
    4.4670    7.4370   29.8640 C   0  0  0  0  0
    3.0140    7.3220   29.7380 N   0  0  0  0  0
    2.3370    8.1010   28.8330 C   0  0  0  0  0
    0.9770    8.3970   29.0140 C   0  0  0  0  0
    0.2740    9.2130   28.1100 C   0  0  0  0  0
    3.0080    8.5920   27.7050 C   0  0  0  0  0
    2.3090    9.3840   26.7830 C   0  0  0  0  0
    0.9440    9.7080   26.9930 C   0  0  0  0  0
    2.9570    9.8410   25.6740 N   0  0  0  0  0
    2.3220   10.6130   24.7790 C   0  0  0  0  0
    1.0270   10.9330   24.9670 N   0  0  0  0  0
    0.2740   11.7240   24.1080 N   0  0  0  0  0
    0.3510   10.4940   26.0180 C   0  0  0  0  0
   -0.9020   10.9620   25.9200 N   0  0  0  0  0
   -0.8900   11.6640   24.7580 C   0  0  0  0  0
   -1.9930   12.3280   24.2760 N   0  0  0  0  0
    3.1210   11.0990   23.5940 C   0  0  0  0  0
    4.0340   12.2550   23.9750 C   0  0  0  0  0
    3.4830   13.4080   24.5070 C   0  0  0  0  0
    4.3470   14.4430   24.8140 C   0  0  0  0  0
    4.0490   15.6660   25.3420 O   0  0  0  0  0
    5.2570   16.3770   25.5900 C   0  0  0  0  0
    6.2520   15.5220   25.0000 O   0  0  0  0  0
    5.6780   14.3510   24.6040 C   0  0  0  0  0
    6.2870   13.2030   24.0750 C   0  0  0  0  0
    5.4190   12.1590   23.7690 C   0  0  0  0  0
    5.1011    5.8004   32.5746 H   0  0  0  0  0
    4.7448    5.3434   30.3147 H   0  0  0  0  0
    6.1792    6.3290   30.5742 H   0  0  0  0  0
    4.8886    7.3931   28.8598 H   0  0  0  0  0
    4.6791    8.3725   30.3816 H   0  0  0  0  0
    2.5030    6.6616   30.3238 H   0  0  0  0  0
    0.4531    7.9844   29.8762 H   0  0  0  0  0
   -0.7754    9.4538   28.2798 H   0  0  0  0  0
    4.0613    8.3609   27.5462 H   0  0  0  0  0
   -1.9254   12.8716   23.4156 H   0  0  0  0  0
   -2.8790   12.2771   24.7788 H   0  0  0  0  0
    2.4273   11.4445   22.8275 H   0  0  0  0  0
    3.7376   10.2763   23.2319 H   0  0  0  0  0
    2.4100   13.4966   24.6773 H   0  0  0  0  0
    5.4309   16.5646   26.6496 H   0  0  0  0  0
    5.2542   17.3817   25.1674 H   0  0  0  0  0
    7.3630   13.1338   23.9151 H   0  0  0  0  0
    5.8281   11.2369   23.3560 H   0  0  0  0  0
  1  2  1  0  0  0
  2  3  1  0  0  0
  3  4  1  0  0  0
  4  5  1  0  0  0
  5  6  4  0  0  0
  5  8  4  0  0  0
  6  7  4  0  0  0
  7 10  4  0  0  0
  8  9  4  0  0  0
  9 10  4  0  0  0
  9 11  4  0  0  0
 10 15  4  0  0  0
 11 12  4  0  0  0
 12 13  4  0  0  0
 12 19  1  0  0  0
 13 14  4  0  0  0
 13 15  4  0  0  0
 14 17  4  0  0  0
 15 16  4  0  0  0
 16 17  4  0  0  0
 17 18  1  0  0  0
 19 20  1  0  0  0
 20 21  4  0  0  0
 20 28  4  0  0  0
 21 22  4  0  0  0
 22 23  1  0  0  0
 22 26  4  0  0  0
 23 24  1  0  0  0
 24 25  1  0  0  0
 25 26  1  0  0  0
 26 27  4  0  0  0
 27 28  4  0  0  0
  1 29  1  0  0  0
  2 30  1  0  0  0
  2 31  1  0  0  0
  3 32  1  0  0  0
  3 33  1  0  0  0
  4 34  1  0  0  0
  6 35  1  0  0  0
  7 36  1  0  0  0
  8 37  1  0  0  0
 18 38  1  0  0  0
 18 39  1  0  0  0
 19 40  1  0  0  0
 19 41  1  0  0  0
 21 42  1  0  0  0
 24 43  1  0  0  0
 24 44  1  0  0  0
 27 45  1  0  0  0
 28 46  1  0  0  0
M  END
$$$$
