1wbv_ligand
  -I-interpret- 

 42 45  0  0  0  0  0  0  0  0999 V2000
    8.4050   18.4910   36.4830 F   0  0  0  0  0
    7.6350   17.4410   36.8400 C   0  0  0  0  0
    7.4030   17.1950   38.1810 C   0  0  0  0  0
    6.5850   16.1280   38.5840 C   0  0  0  0  0
    6.0370   15.2960   37.6020 C   0  0  0  0  0
    6.2710   15.5390   36.2440 C   0  0  0  0  0
    7.0810   16.6180   35.8690 C   0  0  0  0  0
    5.6700   14.6100   35.2400 C   0  0  0  0  0
    4.7170   13.9150   35.5760 O   0  0  0  0  0
    6.2310   14.5220   34.0000 N   0  0  0  0  0
    5.7770   13.6530   32.9750 C   0  0  0  0  0
    4.4250   13.5690   32.6220 C   0  0  0  0  0
    3.9950   12.7190   31.6210 C   0  0  0  0  0
    4.9240   11.9350   30.9260 C   0  0  0  0  0
    4.8220   11.0180   29.8940 N   0  0  0  0  0
    6.0630   10.5350   29.5840 C   0  0  0  0  0
    6.9810   11.1110   30.3670 C   0  0  0  0  0
    6.2880   12.0290   31.2620 C   0  0  0  0  0
    6.7100   12.8890   32.2890 C   0  0  0  0  0
    6.3750   15.8820   39.9590 N   0  0  0  0  0
    5.4610   14.7780   40.3130 C   0  0  0  0  0
    5.5990   14.4920   41.8040 C   0  0  0  0  0
    5.3600   15.6820   42.5740 O   0  0  0  0  0
    6.3440   16.6720   42.2460 C   0  0  0  0  0
    6.1450   17.0800   40.7890 C   0  0  0  0  0
    7.8606   17.8371   38.9336 H   0  0  0  0  0
    5.4200   14.4478   37.8984 H   0  0  0  0  0
    7.2766   16.8117   34.8143 H   0  0  0  0  0
    7.0307   15.1213   33.7960 H   0  0  0  0  0
    3.6966   14.1867   33.1474 H   0  0  0  0  0
    2.9353   12.6589   31.3730 H   0  0  0  0  0
    6.2724    9.7921   28.8143 H   0  0  0  0  0
    8.0550   10.9270   30.3407 H   0  0  0  0  0
    7.7671   12.9560   32.5463 H   0  0  0  0  0
    5.7152   13.8870   39.7390 H   0  0  0  0  0
    4.4333   15.0584   40.0823 H   0  0  0  0  0
    6.6115   14.1409   42.0032 H   0  0  0  0  0
    4.8664   13.7362   42.0870 H   0  0  0  0  0
    7.3454   16.2654   42.3872 H   0  0  0  0  0
    6.2328   17.5398   42.8961 H   0  0  0  0  0
    5.1365   17.4636   40.6344 H   0  0  0  0  0
    6.8414   17.8728   40.5161 H   0  0  0  0  0
  1  2  1  0  0  0
  2  3  4  0  0  0
  2  7  4  0  0  0
  3  4  4  0  0  0
  4  5  4  0  0  0
  4 20  1  0  0  0
  5  6  4  0  0  0
  6  7  4  0  0  0
  6  8  1  0  0  0
  8  9  2  0  0  0
  8 10  1  0  0  0
 10 11  1  0  0  0
 11 12  4  0  0  0
 11 19  4  0  0  0
 12 13  4  0  0  0
 13 14  4  0  0  0
 14 15  4  0  0  0
 14 18  4  0  0  0
 15 16  4  0  0  0
 16 17  4  0  0  0
 17 18  4  0  0  0
 18 19  4  0  0  0
 20 21  1  0  0  0
 20 25  1  0  0  0
 21 22  1  0  0  0
 22 23  1  0  0  0
 23 24  1  0  0  0
 24 25  1  0  0  0
  3 26  1  0  0  0
  5 27  1  0  0  0
  7 28  1  0  0  0
 10 29  1  0  0  0
 12 30  1  0  0  0
 13 31  1  0  0  0
 16 32  1  0  0  0
 17 33  1  0  0  0
 19 34  1  0  0  0
 21 35  1  0  0  0
 21 36  1  0  0  0
 22 37  1  0  0  0
 22 38  1  0  0  0
 24 39  1  0  0  0
 24 40  1  0  0  0
 25 41  1  0  0  0
 25 42  1  0  0  0
M  END
$$$$
