4awo_ligand
  -I-interpret- 

 74 78  0  0  0  0  0  0  0  0999 V2000
  -12.4130  -18.4330  -13.4730 C   0  0  0  0  0
  -11.8470  -19.8200  -13.4220 N   0  0  0  0  0
   -9.2640  -18.9960  -18.0480 O   0  0  0  0  0
  -13.8250  -18.3280  -14.0950 C   0  0  0  0  0
  -10.9820  -20.1240  -19.0090 N   0  0  0  0  0
   -9.5380  -16.1540  -27.7600 O   0  0  0  0  0
  -14.7960  -19.3820  -13.6050 C   0  0  0  0  0
  -10.6780  -20.1420  -23.0280 N   0  0  0  0  0
  -13.1150  -22.2690  -12.8600 O   0  0  0  0  0
  -12.5220  -17.8390  -12.0620 C   0  0  0  0  0
   -9.6050  -18.6750  -24.5420 N   0  0  0  0  0
  -11.4180  -20.5080  -14.5390 C   0  0  0  0  0
  -11.4510  -23.7850  -12.8800 N   0  0  0  0  0
  -10.9510  -19.8110  -15.6440 C   0  0  0  0  0
  -10.5460  -20.5750  -16.7440 C   0  0  0  0  0
  -10.1240  -19.8460  -17.9970 C   0  0  0  0  0
  -10.8570  -19.6320  -20.4000 C   0  0  0  0  0
   -9.5150  -19.2600  -21.0810 C   0  0  0  0  0
   -9.4940  -20.4210  -22.1590 C   0  0  0  0  0
  -11.8660  -20.5680  -22.3070 C   0  0  0  0  0
  -12.1250  -19.4110  -21.2160 C   0  0  0  0  0
  -11.4730  -21.9460  -21.6780 C   0  0  0  0  0
   -9.8800  -21.8430  -21.5870 C   0  0  0  0  0
  -10.7270  -19.3150  -24.1740 C   0  0  0  0  0
   -9.5460  -17.8530  -25.5800 C   0  0  0  0  0
  -10.7370  -17.6000  -26.2570 C   0  0  0  0  0
  -10.6490  -16.6160  -27.4190 C   0  0  0  0  0
  -12.0090  -16.1600  -28.0020 C   0  0  0  0  0
  -12.1400  -14.6500  -28.0650 C   0  0  0  0  0
  -12.0110  -15.4470  -29.3820 C   0  0  0  0  0
  -11.9970  -19.0850  -24.7850 C   0  0  0  0  0
  -11.9580  -18.1910  -25.8750 C   0  0  0  0  0
  -11.4420  -21.9060  -14.5090 C   0  0  0  0  0
  -12.0220  -22.6580  -13.3060 C   0  0  0  0  0
  -11.0590  -22.6670  -15.6160 C   0  0  0  0  0
  -10.6380  -21.9860  -16.7350 C   0  0  0  0  0
  -10.2260  -22.8490  -17.9450 C   0  0  0  0  0
  -11.7134  -17.8903  -14.1088 H   0  0  0  0  0
  -11.7751  -20.2795  -12.5142 H   0  0  0  0  0
  -13.7148  -18.4659  -15.1706 H   0  0  0  0  0
  -14.2316  -17.3575  -13.8104 H   0  0  0  0  0
  -11.7801  -20.7218  -18.7944 H   0  0  0  0  0
  -14.4098  -20.3716  -13.8492 H   0  0  0  0  0
  -14.9129  -19.2925  -12.5250 H   0  0  0  0  0
  -15.7617  -19.2378  -14.0894 H   0  0  0  0  0
  -12.8448  -16.8002  -12.1304 H   0  0  0  0  0
  -13.2492  -18.4095  -11.4842 H   0  0  0  0  0
  -11.5491  -17.8870  -11.5728 H   0  0  0  0  0
  -11.9120  -24.3533  -12.1694 H   0  0  0  0  0
  -10.5532  -24.0789  -13.2647 H   0  0  0  0  0
  -10.9020  -18.7222  -15.6547 H   0  0  0  0  0
  -10.1763  -20.3391  -19.9260 H   0  0  0  0  0
   -8.6485  -19.2130  -20.4214 H   0  0  0  0  0
   -9.4524  -18.2467  -21.4778 H   0  0  0  0  0
   -8.4962  -20.4397  -22.5973 H   0  0  0  0  0
  -12.7765  -20.6990  -22.8918 H   0  0  0  0  0
  -12.2684  -18.4056  -21.6118 H   0  0  0  0  0
  -13.0637  -19.4756  -20.6658 H   0  0  0  0  0
  -11.8129  -22.7972  -22.2679 H   0  0  0  0  0
  -11.9453  -22.1248  -20.7120 H   0  0  0  0  0
   -9.5378  -21.9579  -20.5585 H   0  0  0  0  0
   -9.4024  -22.6385  -22.1590 H   0  0  0  0  0
   -8.6068  -17.3950  -25.8904 H   0  0  0  0  0
  -12.5802  -16.9979  -27.6022 H   0  0  0  0  0
  -11.6823  -13.7776  -27.5986 H   0  0  0  0  0
  -12.7828  -13.8751  -27.6474 H   0  0  0  0  0
  -12.4973  -15.5251  -30.3544 H   0  0  0  0  0
  -11.4351  -15.4310  -30.3073 H   0  0  0  0  0
  -12.9158  -19.5588  -24.4393 H   0  0  0  0  0
  -12.8716  -17.9573  -26.4216 H   0  0  0  0  0
  -11.0923  -23.7563  -15.5942 H   0  0  0  0  0
  -10.8319  -22.5746  -18.8085 H   0  0  0  0  0
   -9.1730  -22.6787  -18.1694 H   0  0  0  0  0
  -10.3829  -23.9016  -17.7092 H   0  0  0  0  0
  2  1  1  0  0  0
  1  4  1  0  0  0
  1 10  1  0  0  0
 12  2  1  0  0  0
 16  3  2  0  0  0
  4  7  1  0  0  0
 16  5  1  0  0  0
  5 17  1  0  0  0
 27  6  2  0  0  0
 19  8  1  0  0  0
 20  8  1  0  0  0
  8 24  1  0  0  0
 34  9  2  0  0  0
 24 11  4  0  0  0
 11 25  4  0  0  0
 12 14  4  0  0  0
 33 12  4  0  0  0
 34 13  1  0  0  0
 14 15  4  0  0  0
 15 16  1  0  0  0
 15 36  4  0  0  0
 17 18  1  0  0  0
 17 21  1  0  0  0
 18 19  1  0  0  0
 19 23  1  0  0  0
 21 20  1  0  0  0
 20 22  1  0  0  0
 22 23  1  0  0  0
 24 31  4  0  0  0
 25 26  4  0  0  0
 26 27  1  0  0  0
 32 26  4  0  0  0
 27 28  1  0  0  0
 28 29  1  0  0  0
 28 30  1  0  0  0
 30 29  1  0  0  0
 31 32  4  0  0  0
 33 34  1  0  0  0
 33 35  4  0  0  0
 35 36  4  0  0  0
 36 37  1  0  0  0
  1 38  1  0  0  0
  2 39  1  0  0  0
  4 40  1  0  0  0
  4 41  1  0  0  0
  5 42  1  0  0  0
  7 43  1  0  0  0
  7 44  1  0  0  0
  7 45  1  0  0  0
 10 46  1  0  0  0
 10 47  1  0  0  0
 10 48  1  0  0  0
 13 49  1  0  0  0
 13 50  1  0  0  0
 14 51  1  0  0  0
 17 52  1  0  0  0
 18 53  1  0  0  0
 18 54  1  0  0  0
 19 55  1  0  0  0
 20 56  1  0  0  0
 21 57  1  0  0  0
 21 58  1  0  0  0
 22 59  1  0  0  0
 22 60  1  0  0  0
 23 61  1  0  0  0
 23 62  1  0  0  0
 25 63  1  0  0  0
 28 64  1  0  0  0
 29 65  1  0  0  0
 29 66  1  0  0  0
 30 67  1  0  0  0
 30 68  1  0  0  0
 31 69  1  0  0  0
 32 70  1  0  0  0
 35 71  1  0  0  0
 37 72  1  0  0  0
 37 73  1  0  0  0
 37 74  1  0  0  0
M  END
$$$$
