4i1c_ligand
  -I-interpret- 

 58 61  0  0  0  0  0  0  0  0999 V2000
    9.8200  -11.2420    4.3270 Cl  0  0  0  0  0
   10.1090  -12.7120    5.2590 C   0  0  0  0  0
    9.4430  -13.9080    4.9480 C   0  0  0  0  0
    9.7060  -15.0280    5.7700 C   0  0  0  0  0
   10.5780  -14.9050    6.8570 C   0  0  0  0  0
   10.8830  -16.0650    7.7680 C   0  0  0  0  0
   11.3660  -15.8300    8.9300 N   0  0  0  0  0
   11.6200  -14.5080    9.4450 C   0  0  0  0  0
   12.7100  -14.5800   10.5360 C   0  0  0  0  0
   10.3130  -13.9170   10.0460 C   0  0  0  0  0
   12.1100  -13.5980    8.3250 C   0  0  0  0  0
   11.1970  -13.6880    7.1480 C   0  0  0  0  0
   10.9790  -12.5760    6.3580 C   0  0  0  0  0
   10.6010  -17.2930    7.3600 N   0  0  0  0  0
   10.5220  -18.5440    8.1600 C   0  0  0  0  0
    9.0690  -19.0050    8.3950 C   0  0  0  0  0
   11.1850  -19.6560    7.3920 C   0  0  0  0  0
   11.2640  -20.8200    7.8450 O   0  0  0  0  0
   11.5920  -19.3290    6.2630 O   0  0  0  0  0
    8.5330  -18.0350    9.4230 C   0  0  0  0  0
    7.6860  -16.8050    9.2610 C   0  0  0  0  0
    7.3120  -16.0770   10.3660 C   0  0  0  0  0
    8.0380  -16.8850   11.6980 S   0  0  0  0  0
    8.8150  -18.2080   10.8600 C   0  0  0  0  0
    9.6620  -19.2920   11.5260 C   0  0  0  0  0
    9.8760  -19.1650   13.0140 C   0  0  0  0  0
   10.4760  -20.4440   13.5950 C   0  0  0  0  0
    7.1970  -16.2870    7.9560 C   0  0  0  0  0
    7.0030  -17.0570    6.8560 C   0  0  0  0  0
    6.6360  -16.1810    5.9090 N   0  0  0  0  0
    6.6340  -14.8870    6.4350 N   0  0  0  0  0
    7.0080  -14.9510    7.7310 C   0  0  0  0  0
    8.7517  -13.9707    4.1076 H   0  0  0  0  0
    9.2303  -15.9853    5.5572 H   0  0  0  0  0
   12.3701  -15.2263   11.3453 H   0  0  0  0  0
   13.6262  -14.9850   10.1063 H   0  0  0  0  0
   12.9005  -13.5794   10.9240 H   0  0  0  0  0
    9.5501  -13.8616    9.2694 H   0  0  0  0  0
    9.9639  -14.5588   10.8549 H   0  0  0  0  0
   10.5121  -12.9178   10.4334 H   0  0  0  0  0
   13.1101  -13.9104    8.0244 H   0  0  0  0  0
   12.1272  -12.5690    8.6842 H   0  0  0  0  0
   11.4642  -11.6250    6.5779 H   0  0  0  0  0
   10.4126  -17.3943    6.3627 H   0  0  0  0  0
   11.0008  -18.3344    9.1165 H   0  0  0  0  0
    9.0160  -20.0383    8.7380 H   0  0  0  0  0
    8.4817  -18.9970    7.4768 H   0  0  0  0  0
   10.8908  -20.8441    8.7292 H   0  0  0  0  0
    6.6903  -15.1821   10.3916 H   0  0  0  0  0
   10.6509  -19.2212   11.0731 H   0  0  0  0  0
    9.1225  -20.2276   11.3788 H   0  0  0  0  0
    8.9125  -18.9842   13.4906 H   0  0  0  0  0
   10.5659  -18.3414   13.1979 H   0  0  0  0  0
    9.7992  -21.2781   13.4096 H   0  0  0  0  0
   11.4369  -20.6415   13.1198 H   0  0  0  0  0
   10.6185  -20.3218   14.6687 H   0  0  0  0  0
    7.1186  -18.1369    6.7633 H   0  0  0  0  0
    7.1309  -14.1281    8.4352 H   0  0  0  0  0
  1  2  1  0  0  0
  2  3  4  0  0  0
  2 13  4  0  0  0
  3  4  4  0  0  0
  4  5  4  0  0  0
  5  6  1  0  0  0
  5 12  4  0  0  0
  6  7  2  0  0  0
  6 14  1  0  0  0
  7  8  1  0  0  0
  8  9  1  0  0  0
  8 10  1  0  0  0
  8 11  1  0  0  0
 11 12  1  0  0  0
 12 13  4  0  0  0
 14 15  1  0  0  0
 15 16  1  0  0  0
 15 17  1  0  0  0
 16 20  1  0  0  0
 17 18  1  0  0  0
 17 19  2  0  0  0
 20 21  4  0  0  0
 20 24  4  0  0  0
 21 22  4  0  0  0
 21 28  1  0  0  0
 22 23  4  0  0  0
 23 24  4  0  0  0
 24 25  1  0  0  0
 25 26  1  0  0  0
 26 27  1  0  0  0
 28 29  4  0  0  0
 28 32  4  0  0  0
 29 30  4  0  0  0
 30 31  4  0  0  0
 31 32  4  0  0  0
  3 33  1  0  0  0
  4 34  1  0  0  0
  9 35  1  0  0  0
  9 36  1  0  0  0
  9 37  1  0  0  0
 10 38  1  0  0  0
 10 39  1  0  0  0
 10 40  1  0  0  0
 11 41  1  0  0  0
 11 42  1  0  0  0
 13 43  1  0  0  0
 14 44  1  0  0  0
 15 45  1  0  0  0
 16 46  1  0  0  0
 16 47  1  0  0  0
 18 48  1  0  0  0
 22 49  1  0  0  0
 25 50  1  0  0  0
 25 51  1  0  0  0
 26 52  1  0  0  0
 26 53  1  0  0  0
 27 54  1  0  0  0
 27 55  1  0  0  0
 27 56  1  0  0  0
 29 57  1  0  0  0
 32 58  1  0  0  0
M  END
$$$$
