5ngb_ligand
  -I-interpret- 

 54 58  0  0  0  0  0  0  0  0999 V2000
   18.0520   -3.8160   18.1570 O   0  0  0  0  0
   16.9450   -3.3390   17.8530 C   0  0  0  0  0
   16.8090   -2.8780   16.7160 O   0  0  0  0  0
   15.8810   -3.3070   18.7520 C   0  0  0  0  0
   16.0060   -3.8200   20.0530 C   0  0  0  0  0
   14.6720   -2.7440   18.3360 C   0  0  0  0  0
   13.5950   -2.7070   19.2050 C   0  0  0  0  0
   13.7300   -3.2060   20.4920 C   0  0  0  0  0
   14.9180   -3.7890   20.9270 C   0  0  0  0  0
   15.0150   -4.2670   22.2570 C   0  0  0  0  0
   14.0910   -5.4290   22.6770 N   0  0  0  0  0
   14.0130   -6.6570   22.1540 C   0  0  0  0  0
   13.2950   -5.3560   23.6510 N   0  0  0  0  0
   12.7200   -6.3520   23.7920 N   0  0  0  0  0
   13.0960   -7.2410   22.8740 C   0  0  0  0  0
   12.6480   -8.4870   22.7850 C   0  0  0  0  0
   11.5060   -8.9120   23.4840 C   0  0  0  0  0
   10.7750   -8.0260   24.2710 N   0  0  0  0  0
   13.3320   -9.4240   22.0150 C   0  0  0  0  0
   12.8940  -10.7430   21.9310 C   0  0  0  0  0
   11.7720  -11.1520   22.6190 C   0  0  0  0  0
   11.0770  -10.2380   23.3960 C   0  0  0  0  0
    9.9510  -10.6370   24.0980 C   0  0  0  0  0
    9.5330  -11.7890   24.0560 O   0  0  0  0  0
    9.2450   -9.7460   24.8700 C   0  0  0  0  0
    9.6410   -8.4220   24.9840 C   0  0  0  0  0
    8.9920   -7.5400   25.7370 N   0  3  0  0  0
    9.4550   -6.1420   25.7640 C   0  0  0  0  0
    9.1920   -5.5790   27.0940 C   0  0  0  0  0
    7.7570   -5.7080   27.2920 O   0  0  0  0  0
    7.3710   -7.0410   27.6040 C   0  0  0  0  0
    7.8140   -7.9240   26.5120 C   0  0  0  0  0
   18.0233   -4.1374   19.0612 H   0  0  0  0  0
   16.9551   -4.2436   20.3814 H   0  0  0  0  0
   14.5770   -2.3350   17.3301 H   0  0  0  0  0
   12.6436   -2.2869   18.8787 H   0  0  0  0  0
   12.8866   -3.1404   21.1793 H   0  0  0  0  0
   14.7281   -3.4262   22.8885 H   0  0  0  0  0
   16.0293   -4.6547   22.3521 H   0  0  0  0  0
   14.5818   -7.0721   21.3220 H   0  0  0  0  0
   11.0782   -7.0538   24.3289 H   0  0  0  0  0
   14.2250   -9.1199   21.4690 H   0  0  0  0  0
   13.4424  -11.4572   21.3167 H   0  0  0  0  0
   11.4337  -12.1860   22.5528 H   0  0  0  0  0
    9.3460  -10.1381   25.8820 H   0  0  0  0  0
    8.2727   -9.6879   24.3808 H   0  0  0  0  0
    8.9243   -5.5636   25.0078 H   0  0  0  0  0
   10.5236   -6.1038   25.5527 H   0  0  0  0  0
    9.5128   -4.5393   27.1588 H   0  0  0  0  0
    9.7514   -6.1040   27.8683 H   0  0  0  0  0
    6.2880   -7.0987   27.7128 H   0  0  0  0  0
    7.8303   -7.3511   28.5426 H   0  0  0  0  0
    8.0858   -8.8616   26.9969 H   0  0  0  0  0
    6.9915   -7.9264   25.7968 H   0  0  0  0  0
  1  2  1  0  0  0
  2  3  2  0  0  0
  2  4  1  0  0  0
  4  5  4  0  0  0
  4  6  4  0  0  0
  5  9  4  0  0  0
  6  7  4  0  0  0
  7  8  4  0  0  0
  8  9  4  0  0  0
  9 10  1  0  0  0
 10 11  1  0  0  0
 11 12  4  0  0  0
 11 13  4  0  0  0
 12 15  4  0  0  0
 13 14  4  0  0  0
 14 15  4  0  0  0
 15 16  1  0  0  0
 16 17  4  0  0  0
 16 19  4  0  0  0
 17 18  1  0  0  0
 17 22  4  0  0  0
 18 26  1  0  0  0
 19 20  4  0  0  0
 20 21  4  0  0  0
 21 22  4  0  0  0
 22 23  1  0  0  0
 23 24  2  0  0  0
 23 25  1  0  0  0
 25 26  1  0  0  0
 26 27  2  0  0  0
 27 28  1  0  0  0
 27 32  1  0  0  0
 28 29  1  0  0  0
 29 30  1  0  0  0
 30 31  1  0  0  0
 31 32  1  0  0  0
  1 33  1  0  0  0
  5 34  1  0  0  0
  6 35  1  0  0  0
  7 36  1  0  0  0
  8 37  1  0  0  0
 10 38  1  0  0  0
 10 39  1  0  0  0
 12 40  1  0  0  0
 18 41  1  0  0  0
 19 42  1  0  0  0
 20 43  1  0  0  0
 21 44  1  0  0  0
 25 45  1  0  0  0
 25 46  1  0  0  0
 28 47  1  0  0  0
 28 48  1  0  0  0
 29 49  1  0  0  0
 29 50  1  0  0  0
 31 51  1  0  0  0
 31 52  1  0  0  0
 32 53  1  0  0  0
 32 54  1  0  0  0
M  END
$$$$
