5itf_ligand
  -I-interpret- 

194196  0  0  0  0  0  0  0  0999 V2000
  -15.5540  -32.2770  -28.7520 N   0  0  0  0  0
  -15.7260  -32.7350  -27.3860 C   0  0  0  0  0
  -15.0310  -34.0520  -27.1080 C   0  0  0  0  0
  -14.7370  -34.3810  -25.9580 O   0  0  0  0  0
  -14.7430  -34.7990  -28.1720 N   0  0  0  0  0
  -14.0410  -36.0750  -28.0550 C   0  0  0  0  0
  -12.5550  -35.9330  -28.3580 C   0  0  0  0  0
  -12.1270  -34.9910  -29.0380 O   0  0  0  0  0
  -14.6410  -37.1170  -28.9950 C   0  0  0  0  0
  -15.9340  -37.7350  -28.5060 C   0  0  0  0  0
  -16.1910  -39.0770  -29.1560 C   0  0  0  0  0
  -15.3200  -39.6290  -29.8390 O   0  0  0  0  0
  -17.3860  -39.6170  -28.9440 N   0  0  0  0  0
  -10.0410  -37.5910  -29.3710 C   0  0  0  0  0
  -10.3630  -36.9190  -28.0720 C   0  0  0  0  0
  -11.7810  -36.8920  -27.8630 N   0  0  0  0  0
   -9.6380  -37.6780  -26.9740 C   0  0  0  0  0
   -8.1900  -38.0680  -27.2050 C   0  0  0  0  0
   -7.2100  -37.1040  -27.0890 C   0  0  0  0  0
   -7.8510  -39.3500  -27.5120 C   0  0  0  0  0
   -7.7390  -35.2360  -26.6370 Br  0  0  0  0  0
   -5.8830  -37.4490  -27.2860 C   0  0  0  0  0
   -6.5280  -39.6900  -27.7100 C   0  0  0  0  0
   -5.5480  -38.7340  -27.5990 C   0  0  0  0  0
  -10.5380  -38.7550  -29.6380 O   0  0  0  0  0
   -9.2340  -36.9400  -30.2010 N   0  0  0  0  0
   -8.8510  -37.5250  -31.4750 C   0  0  0  0  0
   -7.4530  -38.1190  -31.3840 C   0  0  0  0  0
   -6.5000  -37.4450  -31.0140 O   0  0  0  0  0
   -8.9280  -36.4810  -32.5880 C   0  0  0  0  0
   -8.4600  -37.0180  -33.9210 C   0  0  0  0  0
   -9.1020  -37.9520  -34.4420 O   0  0  0  0  0
   -7.4560  -36.4990  -34.4530 O   0  0  0  0  0
   -7.3470  -39.3950  -31.7360 N   0  0  0  0  0
   -6.0750  -40.1050  -31.6580 C   0  0  0  0  0
   -5.0710  -39.5830  -32.6760 C   0  0  0  0  0
   -3.8600  -39.6770  -32.4530 O   0  0  0  0  0
   -6.2960  -41.6030  -31.8670 C   0  0  0  0  0
   -7.0180  -42.3700  -30.7600 C   0  0  0  0  0
   -7.5630  -43.6800  -31.2930 C   0  0  0  0  0
   -6.0770  -42.6210  -29.5930 C   0  0  0  0  0
   -5.5510  -39.0320  -33.7890 N   0  0  0  0  0
   -4.6790  -38.5870  -34.8660 C   0  0  0  0  0
   -3.9530  -37.2780  -34.5620 C   0  0  0  0  0
   -3.0540  -36.9050  -35.3240 O   0  0  0  0  0
   -5.4920  -38.4400  -36.1560 C   0  0  0  0  0
   -6.0820  -39.6750  -36.5340 O   0  0  0  0  0
   -4.3060  -36.5770  -33.4780 N   0  0  0  0  0
   -3.6680  -35.3050  -33.1400 C   0  0  0  0  0
   -3.4290  -35.0940  -31.6510 C   0  0  0  0  0
   -2.7850  -34.1060  -31.2960 O   0  0  0  0  0
   -4.4990  -34.1190  -33.6520 C   0  0  0  0  0
   -5.8910  -34.4020  -33.4980 O   0  0  0  0  0
   -4.2030  -33.8270  -35.1190 C   0  0  0  0  0
   -3.9010  -35.9750  -30.7710 N   0  0  0  0  0
   -3.8680  -35.7440  -29.3260 C   0  0  0  0  0
   -4.5700  -34.4450  -28.9440 C   0  0  0  0  0
   -4.2070  -33.7970  -27.9630 O   0  0  0  0  0
   -2.4370  -35.7720  -28.7760 C   0  0  0  0  0
   -1.7580  -37.1180  -28.9380 C   0  0  0  0  0
   -0.5950  -37.2920  -27.9820 C   0  0  0  0  0
    0.1430  -38.5250  -28.2470 N   0  0  0  0  0
    1.2130  -38.9100  -27.5610 C   0  0  0  0  0
    1.6630  -38.1560  -26.5710 N   0  0  0  0  0
    1.8330  -40.0440  -27.8620 N   0  0  0  0  0
   -5.5770  -34.0590  -29.7230 N   0  0  0  0  0
   -6.3460  -32.8480  -29.4900 C   0  0  0  0  0
   -7.8340  -33.1700  -29.4500 C   0  0  0  0  0
   -8.2920  -34.1680  -30.0120 O   0  0  0  0  0
   -6.0770  -31.7930  -30.5710 C   0  0  0  0  0
   -4.6470  -31.2950  -30.5950 C   0  0  0  0  0
   -4.2620  -30.6770  -29.2600 C   0  0  0  0  0
   -5.1520  -29.5840  -28.8800 N   0  0  0  0  0
   -5.0580  -28.3450  -29.3510 C   0  0  0  0  0
   -4.1150  -28.0370  -30.2310 N   0  0  0  0  0
   -5.9110  -27.4150  -28.9460 N   0  0  0  0  0
   -8.5860  -32.3050  -28.7740 N   0  0  0  0  0
  -10.0320  -32.4570  -28.6820 C   0  0  0  0  0
  -10.6870  -31.9860  -29.9740 C   0  0  0  0  0
  -10.3850  -30.8970  -30.4730 O   0  0  0  0  0
  -10.5750  -31.6700  -27.4900 C   0  0  0  0  0
  -10.1660  -32.1580  -26.0980 C   0  0  0  0  0
  -10.5100  -31.1240  -25.0360 C   0  0  0  0  0
  -10.8280  -33.4950  -25.7810 C   0  0  0  0  0
  -11.5800  -32.8110  -30.5170 N   0  0  0  0  0
  -12.3100  -32.4780  -31.7380 C   0  0  0  0  0
  -13.7630  -32.8840  -31.5410 C   0  0  0  0  0
  -14.0860  -34.0760  -31.5660 O   0  0  0  0  0
  -11.7050  -33.1750  -32.9580 C   0  0  0  0  0
  -12.1900  -32.6190  -34.2880 C   0  0  0  0  0
  -11.4320  -33.2340  -35.4520 C   0  0  0  0  0
  -11.8260  -32.5900  -36.7700 C   0  0  0  0  0
  -11.0880  -33.1870  -37.9170 N   0  3  0  0  0
  -14.6320  -31.8990  -31.3400 N   0  0  0  0  0
  -16.0420  -32.1570  -31.1170 C   0  0  0  0  0
  -16.3330  -32.7110  -29.7370 C   0  0  0  0  0
  -17.2430  -33.5220  -29.5630 O   0  0  0  0  0
  -15.6650  -32.3600  -28.7640 O   0  0  0  0  0
  -16.0907  -32.5636  -26.3732 H   0  0  0  0  0
  -15.0209  -34.4704  -29.0968 H   0  0  0  0  0
  -14.1587  -36.4026  -27.0221 H   0  0  0  0  0
  -13.9142  -37.9248  -29.0807 H   0  0  0  0  0
  -14.8655  -36.6085  -29.9326 H   0  0  0  0  0
  -16.7546  -37.0652  -28.7631 H   0  0  0  0  0
  -15.8590  -37.8830  -27.4287 H   0  0  0  0  0
  -17.6157  -40.5233  -29.3517 H   0  0  0  0  0
  -18.0739  -39.1253  -28.3735 H   0  0  0  0  0
  -10.0314  -35.8807  -28.0734 H   0  0  0  0  0
  -12.2111  -37.6364  -27.3141 H   0  0  0  0  0
  -10.1763  -38.6205  -26.8734 H   0  0  0  0  0
   -9.6197  -37.0000  -26.1207 H   0  0  0  0  0
   -8.6267  -40.1105  -27.6018 H   0  0  0  0  0
   -5.1045  -36.6920  -27.1907 H   0  0  0  0  0
   -6.2607  -40.7180  -27.9547 H   0  0  0  0  0
   -4.5038  -39.0017  -27.7608 H   0  0  0  0  0
   -8.8792  -36.0196  -29.9415 H   0  0  0  0  0
   -9.5487  -38.3273  -31.7150 H   0  0  0  0  0
   -8.2782  -35.6498  -32.3141 H   0  0  0  0  0
   -9.9702  -36.1801  -32.6945 H   0  0  0  0  0
   -7.1185  -35.8024  -33.8852 H   0  0  0  0  0
   -8.1743  -39.8903  -32.0687 H   0  0  0  0  0
   -5.6621  -39.9311  -30.6643 H   0  0  0  0  0
   -5.2998  -42.0414  -31.9264 H   0  0  0  0  0
   -6.9348  -41.6857  -32.7463 H   0  0  0  0  0
   -7.8548  -41.7670  -30.4075 H   0  0  0  0  0
   -8.2654  -43.4777  -32.1015 H   0  0  0  0  0
   -6.7402  -44.2884  -31.6685 H   0  0  0  0  0
   -8.0739  -44.2127  -30.4909 H   0  0  0  0  0
   -5.2241  -43.2071  -29.9352 H   0  0  0  0  0
   -5.7286  -41.6670  -29.1972 H   0  0  0  0  0
   -6.6059  -43.1682  -28.8127 H   0  0  0  0  0
   -6.5596  -38.9184  -33.8898 H   0  0  0  0  0
   -3.9082  -39.3492  -34.9801 H   0  0  0  0  0
   -4.8238  -38.1149  -36.9535 H   0  0  0  0  0
   -6.2857  -37.7125  -35.9863 H   0  0  0  0  0
   -6.5841  -39.5541  -37.3432 H   0  0  0  0  0
   -5.0406  -36.9400  -32.8705 H   0  0  0  0  0
   -2.6956  -35.3536  -33.6301 H   0  0  0  0  0
   -4.2295  -33.2412  -33.0647 H   0  0  0  0  0
   -6.4052  -33.6578  -33.8194 H   0  0  0  0  0
   -3.1462  -33.5860  -35.2341 H   0  0  0  0  0
   -4.4442  -34.7047  -35.7187 H   0  0  0  0  0
   -4.8077  -32.9824  -35.4492 H   0  0  0  0  0
   -4.3019  -36.8463  -31.1181 H   0  0  0  0  0
   -4.4162  -36.5662  -28.8660 H   0  0  0  0  0
   -2.4901  -35.5563  -27.7089 H   0  0  0  0  0
   -1.8547  -35.0400  -29.3357 H   0  0  0  0  0
   -1.3728  -37.1830  -29.9556 H   0  0  0  0  0
   -2.4915  -37.8955  -28.7244 H   0  0  0  0  0
   -0.9891  -37.3392  -26.9669 H   0  0  0  0  0
    0.0851  -36.4502  -28.1119 H   0  0  0  0  0
   -0.1831  -39.1258  -29.0040 H   0  0  0  0  0
    1.1884  -37.2837  -26.3379 H   0  0  0  0  0
    2.6545  -40.3327  -27.3307 H   0  0  0  0  0
    1.4881  -40.6269  -28.6246 H   0  0  0  0  0
   -5.8215  -34.6419  -30.5235 H   0  0  0  0  0
   -6.0337  -32.4389  -28.5292 H   0  0  0  0  0
   -6.7163  -30.9367  -30.3563 H   0  0  0  0  0
   -6.2758  -32.2583  -31.5365 H   0  0  0  0  0
   -4.5544  -30.5355  -31.3713 H   0  0  0  0  0
   -3.9863  -32.1390  -30.7929 H   0  0  0  0  0
   -3.2526  -30.2759  -29.3509 H   0  0  0  0  0
   -4.3309  -31.4512  -28.4959 H   0  0  0  0  0
   -5.8941  -29.7843  -28.2095 H   0  0  0  0  0
   -4.0475  -27.0863  -30.5944 H   0  0  0  0  0
   -3.4572  -28.7508  -30.5444 H   0  0  0  0  0
   -6.6400  -27.6502  -28.2725 H   0  0  0  0  0
   -8.1386  -31.5154  -28.3084 H   0  0  0  0  0
  -10.2671  -33.5109  -28.5330 H   0  0  0  0  0
  -11.6596  -31.7681  -27.5352 H   0  0  0  0  0
  -10.1689  -30.6630  -27.5858 H   0  0  0  0  0
   -9.0853  -32.2999  -26.0938 H   0  0  0  0  0
   -9.9821  -30.1949  -25.2509 H   0  0  0  0  0
  -11.5848  -30.9425  -25.0421 H   0  0  0  0  0
  -10.2087  -31.4965  -24.0570 H   0  0  0  0  0
  -11.9114  -33.3786  -25.8105 H   0  0  0  0  0
  -10.5206  -34.2354  -26.5195 H   0  0  0  0  0
  -10.5235  -33.8232  -24.7872 H   0  0  0  0  0
  -11.7608  -33.7071  -30.0646 H   0  0  0  0  0
  -12.2425  -31.4066  -31.9270 H   0  0  0  0  0
  -12.0049  -34.2221  -32.9153 H   0  0  0  0  0
  -10.6264  -33.0230  -32.9168 H   0  0  0  0  0
  -12.0234  -31.5418  -34.2955 H   0  0  0  0  0
  -13.2481  -32.8564  -34.3985 H   0  0  0  0  0
  -11.6721  -34.2962  -35.4996 H   0  0  0  0  0
  -10.3653  -33.0753  -35.2937 H   0  0  0  0  0
  -11.5825  -31.5287  -36.7200 H   0  0  0  0  0
  -12.8925  -32.7521  -36.9261 H   0  0  0  0  0
  -11.3785  -32.7302  -38.7815 H   0  0  0  0  0
  -10.0859  -33.0542  -37.7811 H   0  0  0  0  0
  -11.2958  -34.1841  -37.9715 H   0  0  0  0  0
  -14.2985  -30.9351  -31.3426 H   0  0  0  0  0
  -16.3625  -32.9003  -31.8470 H   0  0  0  0  0
  -16.5716  -31.2091  -31.2121 H   0  0  0  0  0
  2  1  1  0  0  0
  1 96  1  0  0  0
 98  1  1  0  0  0
  3  2  1  0  0  0
  2 98  1  0  0  0
  3  4  2  0  0  0
  5  3  1  0  0  0
  6  5  1  0  0  0
  7  6  1  0  0  0
  6  9  1  0  0  0
  7  8  2  0  0  0
 16  7  1  0  0  0
  9 10  1  0  0  0
 10 11  1  0  0  0
 11 12  2  0  0  0
 11 13  1  0  0  0
 15 14  1  0  0  0
 14 25  2  0  0  0
 14 26  1  0  0  0
 15 16  1  0  0  0
 15 17  1  0  0  0
 17 18  1  0  0  0
 18 19  4  0  0  0
 18 20  4  0  0  0
 19 21  1  0  0  0
 19 22  4  0  0  0
 20 23  4  0  0  0
 22 24  4  0  0  0
 23 24  4  0  0  0
 26 27  1  0  0  0
 27 28  1  0  0  0
 27 30  1  0  0  0
 28 29  2  0  0  0
 28 34  1  0  0  0
 30 31  1  0  0  0
 31 32  2  0  0  0
 31 33  1  0  0  0
 34 35  1  0  0  0
 35 36  1  0  0  0
 35 38  1  0  0  0
 36 37  2  0  0  0
 36 42  1  0  0  0
 38 39  1  0  0  0
 39 40  1  0  0  0
 39 41  1  0  0  0
 42 43  1  0  0  0
 43 44  1  0  0  0
 43 46  1  0  0  0
 44 45  2  0  0  0
 44 48  1  0  0  0
 46 47  1  0  0  0
 48 49  1  0  0  0
 49 50  1  0  0  0
 49 52  1  0  0  0
 50 51  2  0  0  0
 50 55  1  0  0  0
 52 53  1  0  0  0
 52 54  1  0  0  0
 55 56  1  0  0  0
 56 57  1  0  0  0
 56 59  1  0  0  0
 57 58  2  0  0  0
 57 66  1  0  0  0
 59 60  1  0  0  0
 60 61  1  0  0  0
 61 62  1  0  0  0
 62 63  1  0  0  0
 63 64  2  0  0  0
 63 65  1  0  0  0
 66 67  1  0  0  0
 67 68  1  0  0  0
 67 70  1  0  0  0
 68 69  2  0  0  0
 68 77  1  0  0  0
 70 71  1  0  0  0
 71 72  1  0  0  0
 72 73  1  0  0  0
 73 74  1  0  0  0
 74 75  1  0  0  0
 74 76  2  0  0  0
 77 78  1  0  0  0
 78 79  1  0  0  0
 78 81  1  0  0  0
 79 80  2  0  0  0
 79 85  1  0  0  0
 81 82  1  0  0  0
 82 83  1  0  0  0
 82 84  1  0  0  0
 85 86  1  0  0  0
 86 87  1  0  0  0
 86 89  1  0  0  0
 87 88  2  0  0  0
 87 94  1  0  0  0
 89 90  1  0  0  0
 90 91  1  0  0  0
 91 92  1  0  0  0
 92 93  1  0  0  0
 94 95  1  0  0  0
 95 96  1  0  0  0
 96 97  2  0  0  0
  2 99  1  0  0  0
  5100  1  0  0  0
  6101  1  0  0  0
  9102  1  0  0  0
  9103  1  0  0  0
 10104  1  0  0  0
 10105  1  0  0  0
 13106  1  0  0  0
 13107  1  0  0  0
 15108  1  0  0  0
 16109  1  0  0  0
 17110  1  0  0  0
 17111  1  0  0  0
 20112  1  0  0  0
 22113  1  0  0  0
 23114  1  0  0  0
 24115  1  0  0  0
 26116  1  0  0  0
 27117  1  0  0  0
 30118  1  0  0  0
 30119  1  0  0  0
 33120  1  0  0  0
 34121  1  0  0  0
 35122  1  0  0  0
 38123  1  0  0  0
 38124  1  0  0  0
 39125  1  0  0  0
 40126  1  0  0  0
 40127  1  0  0  0
 40128  1  0  0  0
 41129  1  0  0  0
 41130  1  0  0  0
 41131  1  0  0  0
 42132  1  0  0  0
 43133  1  0  0  0
 46134  1  0  0  0
 46135  1  0  0  0
 47136  1  0  0  0
 48137  1  0  0  0
 49138  1  0  0  0
 52139  1  0  0  0
 53140  1  0  0  0
 54141  1  0  0  0
 54142  1  0  0  0
 54143  1  0  0  0
 55144  1  0  0  0
 56145  1  0  0  0
 59146  1  0  0  0
 59147  1  0  0  0
 60148  1  0  0  0
 60149  1  0  0  0
 61150  1  0  0  0
 61151  1  0  0  0
 62152  1  0  0  0
 64153  1  0  0  0
 65154  1  0  0  0
 65155  1  0  0  0
 66156  1  0  0  0
 67157  1  0  0  0
 70158  1  0  0  0
 70159  1  0  0  0
 71160  1  0  0  0
 71161  1  0  0  0
 72162  1  0  0  0
 72163  1  0  0  0
 73164  1  0  0  0
 75165  1  0  0  0
 75166  1  0  0  0
 76167  1  0  0  0
 77168  1  0  0  0
 78169  1  0  0  0
 81170  1  0  0  0
 81171  1  0  0  0
 82172  1  0  0  0
 83173  1  0  0  0
 83174  1  0  0  0
 83175  1  0  0  0
 84176  1  0  0  0
 84177  1  0  0  0
 84178  1  0  0  0
 85179  1  0  0  0
 86180  1  0  0  0
 89181  1  0  0  0
 89182  1  0  0  0
 90183  1  0  0  0
 90184  1  0  0  0
 91185  1  0  0  0
 91186  1  0  0  0
 92187  1  0  0  0
 92188  1  0  0  0
 93189  1  0  0  0
 93190  1  0  0  0
 93191  1  0  0  0
 94192  1  0  0  0
 95193  1  0  0  0
 95194  1  0  0  0
M  END
$$$$
