### 
### Created by X-TOOL on Mon Sep 10 21:13:28 2018
### 

@<TRIPOS>MOLECULE
5itf_ligand
  195   197     1     0     0
SMALL
GAST_HUCK


@<TRIPOS>ATOM
      1 N         -15.5540  -32.2770  -28.7520 N.am      1 GLY        -0.0895
      2 CA        -15.7260  -32.7350  -27.3860 C.3       1 GLY         0.2896
      3 C         -15.0310  -34.0520  -27.1080 C.2       1 GLY         0.2370
      4 O         -14.7370  -34.3810  -25.9580 O.2       1 GLY        -0.3915
      5 N         -14.7430  -34.7990  -28.1720 N.am      1 GLN        -0.2614
      6 CA        -14.0410  -36.0750  -28.0550 C.3       1 GLN         0.1331
      7 C         -12.5550  -35.9330  -28.3580 C.2       1 GLN         0.2042
      8 O         -12.1270  -34.9910  -29.0380 O.2       1 GLN        -0.3944
      9 CB        -14.6410  -37.1170  -28.9950 C.3       1 GLN         0.0045
     10 CG        -15.9340  -37.7350  -28.5060 C.3       1 GLN         0.0412
     11 CD        -16.1910  -39.0770  -29.1560 C.2       1 GLN         0.1737
     12 OE1       -15.3200  -39.6290  -29.8390 O.2       1 GLN        -0.3973
     13 NE2       -17.3860  -39.6170  -28.9440 N.am      1 GLN        -0.3009
     14 C         -10.0410  -37.5910  -29.3710 C.2       1 6DU         0.2061
     15 CA        -10.3630  -36.9190  -28.0720 C.3       1 6DU         0.1409
     16 N         -11.7810  -36.8920  -27.8630 N.am      1 6DU        -0.2618
     17 CB         -9.6380  -37.6780  -26.9740 C.3       1 6DU         0.0227
     18 CG         -8.1900  -38.0680  -27.2050 C.ar      1 6DU        -0.0289
     19 CD1        -7.2100  -37.1040  -27.0890 C.ar      1 6DU         0.0140
     20 CD2        -7.8510  -39.3500  -27.5120 C.ar      1 6DU        -0.0573
     21 BR         -7.7390  -35.2360  -26.6370 Br        1 6DU        -0.0563
     22 CE1        -5.8830  -37.4490  -27.2860 C.ar      1 6DU        -0.0590
     23 CE2        -6.5280  -39.6900  -27.7100 C.ar      1 6DU        -0.0657
     24 CZ         -5.5480  -38.7340  -27.5990 C.ar      1 6DU        -0.0659
     25 OXT       -10.5380  -38.7550  -29.6380 O.2       1 6DU        -0.3942
     26 N          -9.2340  -36.9400  -30.2010 N.am      1 ASP        -0.2620
     27 CA         -8.8510  -37.5250  -31.4750 C.3       1 ASP         0.1423
     28 C          -7.4530  -38.1190  -31.3840 C.2       1 ASP         0.2056
     29 O          -6.5000  -37.4450  -31.0140 O.2       1 ASP        -0.3943
     30 CB         -8.9280  -36.4810  -32.5880 C.3       1 ASP         0.0406
     31 CG         -8.4600  -37.0180  -33.9210 C.2       1 ASP         0.0393
     32 OD1        -9.1020  -37.9520  -34.4420 O.co2     1 ASP        -0.5688
     33 OD2        -7.4560  -36.4990  -34.4530 O.co2     1 ASP        -0.5688
     34 N          -7.3470  -39.3950  -31.7360 N.am      1 LEU        -0.2636
     35 CA         -6.0750  -40.1050  -31.6580 C.3       1 LEU         0.1312
     36 C          -5.0710  -39.5830  -32.6760 C.2       1 LEU         0.2040
     37 O          -3.8600  -39.6770  -32.4530 O.2       1 LEU        -0.3944
     38 CB         -6.2960  -41.6030  -31.8670 C.3       1 LEU        -0.0101
     39 CG         -7.0180  -42.3700  -30.7600 C.3       1 LEU        -0.0425
     40 CD1        -7.5630  -43.6800  -31.2930 C.3       1 LEU        -0.0625
     41 CD2        -6.0770  -42.6210  -29.5930 C.3       1 LEU        -0.0625
     42 N          -5.5510  -39.0320  -33.7890 N.am      1 SER        -0.2616
     43 CA         -4.6790  -38.5870  -34.8660 C.3       1 SER         0.1539
     44 C          -3.9530  -37.2780  -34.5620 C.2       1 SER         0.2063
     45 O          -3.0540  -36.9050  -35.3240 O.2       1 SER        -0.3943
     46 CB         -5.4920  -38.4400  -36.1560 C.3       1 SER         0.0843
     47 OG         -6.0820  -39.6750  -36.5340 O.3       1 SER        -0.3903
     48 N          -4.3060  -36.5770  -33.4780 N.am      1 THR        -0.2613
     49 CA         -3.6680  -35.3050  -33.1400 C.3       1 THR         0.1565
     50 C          -3.4290  -35.0940  -31.6510 C.2       1 THR         0.2065
     51 O          -2.7850  -34.1060  -31.2960 O.2       1 THR        -0.3943
     52 CB         -4.4990  -34.1190  -33.6520 C.3       1 THR         0.0924
     53 OG1        -5.8910  -34.4020  -33.4980 O.3       1 THR        -0.3874
     54 CG2        -4.2030  -33.8270  -35.1190 C.3       1 THR        -0.0346
     55 N          -3.9010  -35.9750  -30.7710 N.am      1 ARG        -0.2636
     56 CA         -3.8680  -35.7440  -29.3260 C.3       1 ARG         0.1311
     57 C          -4.5700  -34.4450  -28.9440 C.2       1 ARG         0.2039
     58 O          -4.2070  -33.7970  -27.9630 O.2       1 ARG        -0.3944
     59 CB         -2.4370  -35.7720  -28.7760 C.3       1 ARG        -0.0092
     60 CG         -1.7580  -37.1180  -28.9380 C.3       1 ARG        -0.0156
     61 CD         -0.5950  -37.2920  -27.9820 C.3       1 ARG         0.0627
     62 NE          0.1430  -38.5250  -28.2470 N.pl3     1 ARG        -0.2723
     63 CZ          1.2130  -38.9100  -27.5610 C.cat     1 ARG         0.2882
     64 NH1         1.6630  -38.1560  -26.5710 N.pl3     1 ARG        -0.2849
     65 NH2         1.8330  -40.0440  -27.8620 N.pl3     1 ARG        -0.2849
     66 N          -5.5770  -34.0590  -29.7230 N.am      1 ARG        -0.2637
     67 CA         -6.3460  -32.8480  -29.4900 C.3       1 ARG         0.1311
     68 C          -7.8340  -33.1700  -29.4500 C.2       1 ARG         0.2039
     69 O          -8.2920  -34.1680  -30.0120 O.2       1 ARG        -0.3944
     70 CB         -6.0770  -31.7930  -30.5710 C.3       1 ARG        -0.0092
     71 CG         -4.6470  -31.2950  -30.5950 C.3       1 ARG        -0.0156
     72 CD         -4.2620  -30.6770  -29.2600 C.3       1 ARG         0.0627
     73 NE         -5.1520  -29.5840  -28.8800 N.pl3     1 ARG        -0.2723
     74 CZ         -5.0580  -28.3450  -29.3510 C.cat     1 ARG         0.2882
     75 NH1        -4.1150  -28.0370  -30.2310 N.pl3     1 ARG        -0.2849
     76 NH2        -5.9110  -27.4150  -28.9460 N.pl3     1 ARG        -0.2849
     77 N          -8.5860  -32.3050  -28.7740 N.am      1 LEU        -0.2637
     78 CA        -10.0320  -32.4570  -28.6820 C.3       1 LEU         0.1312
     79 C         -10.6870  -31.9860  -29.9740 C.2       1 LEU         0.2039
     80 O         -10.3850  -30.8970  -30.4730 O.2       1 LEU        -0.3944
     81 CB        -10.5750  -31.6700  -27.4900 C.3       1 LEU        -0.0101
     82 CG        -10.1660  -32.1580  -26.0980 C.3       1 LEU        -0.0425
     83 CD1       -10.5100  -31.1240  -25.0360 C.3       1 LEU        -0.0625
     84 CD2       -10.8280  -33.4950  -25.7810 C.3       1 LEU        -0.0625
     85 N         -11.5800  -32.8110  -30.5170 N.am      1 LYS        -0.2637
     86 CA        -12.3100  -32.4780  -31.7380 C.3       1 LYS         0.1310
     87 C         -13.7630  -32.8840  -31.5410 C.2       1 LYS         0.2037
     88 O         -14.0860  -34.0760  -31.5660 O.2       1 LYS        -0.3944
     89 CB        -11.7050  -33.1750  -32.9580 C.3       1 LYS        -0.0122
     90 CG        -12.1900  -32.6190  -34.2880 C.3       1 LYS        -0.0440
     91 CD        -11.4320  -33.2340  -35.4520 C.3       1 LYS        -0.0124
     92 CE        -11.8260  -32.5900  -36.7700 C.3       1 LYS        -0.0354
     93 NZ        -11.0880  -33.1870  -37.9170 N.4       1 LYS         0.2185
     94 N         -14.6320  -31.8990  -31.3400 N.am      1 GLY        -0.2664
     95 CA        -16.0420  -32.1570  -31.1170 C.3       1 GLY         0.1222
     96 C         -16.3330  -32.7110  -29.7370 C.2       1 GLY         0.2295
     97 O         -17.2430  -33.5220  -29.5630 O.2       1 GLY        -0.3942
     98 OXT       -15.6650  -32.3600  -28.7640 O.3       1 GLY        -0.1970
     99 H1        -16.2342  -32.2664  -26.5304 H         1 GLY         0.1177
    100 H2        -15.0155  -34.4769  -29.0787 H         1 GLN         0.1884
    101 H3        -14.1523  -36.4310  -27.0202 H         1 GLN         0.0801
    102 H4        -13.9045  -37.9229  -29.1292 H         1 GLN         0.0337
    103 H5        -14.8363  -36.6337  -29.9636 H         1 GLN         0.0337
    104 H6        -16.7666  -37.0572  -28.7455 H         1 GLN         0.0504
    105 H7        -15.8744  -37.8719  -27.4162 H         1 GLN         0.0504
    106 H8        -17.6131  -40.5030  -29.3482 H         1 GLN         0.1814
    107 H9        -18.0585  -39.1375  -28.3802 H         1 GLN         0.1814
    108 H10        -9.9943  -35.8829  -28.0955 H         1 6DU         0.0824
    109 H11       -12.2027  -37.6218  -27.3249 H         1 6DU         0.1885
    110 H12       -10.2004  -38.6060  -26.7935 H         1 6DU         0.0482
    111 H13        -9.6662  -37.0505  -26.0710 H         1 6DU         0.0482
    112 H14        -8.6224  -40.1063  -27.6013 H         1 6DU         0.0564
    113 H15        -5.1088  -36.6962  -27.1912 H         1 6DU         0.0626
    114 H16        -6.2622  -40.7123  -27.9533 H         1 6DU         0.0623
    115 H17        -4.5096  -39.0002  -27.7599 H         1 6DU         0.0566
    116 H18        -8.8862  -36.0376  -29.9466 H         1 ASP         0.1884
    117 H19        -9.5566  -38.3350  -31.7118 H         1 ASP         0.0819
    118 H20        -8.2960  -35.6241  -32.3118 H         1 ASP         0.0478
    119 H21        -9.9720  -36.1494  -32.6886 H         1 ASP         0.0478
    120 H22        -8.1581  -39.8806  -32.0622 H         1 LEU         0.1883
    121 H23        -5.6569  -39.9499  -30.6524 H         1 LEU         0.0800
    122 H24        -5.3073  -42.0669  -31.9986 H         1 LEU         0.0315
    123 H25        -6.8835  -41.7241  -32.7890 H         1 LEU         0.0315
    124 H26        -7.8613  -41.7599  -30.4042 H         1 LEU         0.0298
    125 H27        -8.0789  -44.2186  -30.4844 H         1 LEU         0.0232
    126 H28        -6.7336  -44.2950  -31.6723 H         1 LEU         0.0232
    127 H29        -8.2721  -43.4772  -32.1091 H         1 LEU         0.0232
    128 H30        -5.6917  -41.6607  -29.2196 H         1 LEU         0.0232
    129 H31        -5.2372  -43.2479  -29.9274 H         1 LEU         0.0232
    130 H32        -6.6210  -43.1359  -28.7875 H         1 LEU         0.0232
    131 H33        -6.5399  -38.9206  -33.8879 H         1 SER         0.1884
    132 H34        -3.9159  -39.3639  -35.0215 H         1 SER         0.0823
    133 H35        -4.8267  -38.0984  -36.9626 H         1 SER         0.0606
    134 H36        -6.2868  -37.6965  -35.9966 H         1 SER         0.0606
    135 H37        -5.3994  -40.3202  -36.6769 H         1 SER         0.2097
    136 H38        -5.0262  -36.9329  -32.8824 H         1 THR         0.1884
    137 H39        -2.6899  -35.2889  -33.6430 H         1 THR         0.0826
    138 H40        -4.2457  -33.2293  -33.0568 H         1 THR         0.0639
    139 H41        -6.1119  -35.1799  -33.9966 H         1 THR         0.2101
    140 H42        -4.8127  -32.9747  -35.4534 H         1 THR         0.0257
    141 H43        -4.4461  -34.7120  -35.7253 H         1 THR         0.0257
    142 H44        -3.1367  -33.5836  -35.2365 H         1 THR         0.0257
    143 H45        -4.2940  -36.8293  -31.1113 H         1 ARG         0.1883
    144 H46        -4.4196  -36.5689  -28.8513 H         1 ARG         0.0800
    145 H47        -2.4698  -35.5243  -27.7048 H         1 ARG         0.0313
    146 H48        -1.8432  -35.0151  -29.3093 H         1 ARG         0.0313
    147 H49        -1.3848  -37.2046  -29.9691 H         1 ARG         0.0301
    148 H50        -2.4952  -37.9118  -28.7470 H         1 ARG         0.0301
    149 H51        -0.9813  -37.3221  -26.9525 H         1 ARG         0.0689
    150 H52         0.0882  -36.4370  -28.0925 H         1 ARG         0.0689
    151 H53        -0.1863  -39.1317  -29.0114 H         1 ARG         0.2642
    152 H54         2.4925  -38.4500  -26.0358 H         1 ARG         0.2615
    153 H55         1.1838  -37.2752  -26.3357 H         1 ARG         0.2615
    154 H56         1.4847  -40.6327  -28.6321 H         1 ARG         0.2615
    155 H57         2.6625  -40.3355  -27.3255 H         1 ARG         0.2615
    156 H58        -5.8167  -34.6305  -30.5078 H         1 ARG         0.1883
    157 H59        -6.0488  -32.4317  -28.5162 H         1 ARG         0.0800
    158 H60        -6.7405  -30.9344  -30.3907 H         1 ARG         0.0313
    159 H61        -6.3071  -32.2346  -31.5518 H         1 ARG         0.0313
    160 H62        -4.5434  -30.5370  -31.3853 H         1 ARG         0.0301
    161 H63        -3.9754  -32.1400  -30.8071 H         1 ARG         0.0301
    162 H64        -3.2354  -30.2887  -29.3325 H         1 ARG         0.0689
    163 H65        -4.3057  -31.4552  -28.4838 H         1 ARG         0.0689
    164 H66        -5.9014  -29.7863  -28.2029 H         1 ARG         0.2642
    165 H67        -4.0441  -27.0760  -30.5947 H         1 ARG         0.2615
    166 H68        -3.4535  -28.7588  -30.5508 H         1 ARG         0.2615
    167 H69        -6.6444  -27.6514  -28.2626 H         1 ARG         0.2615
    168 H70        -5.8405  -26.4558  -29.3147 H         1 ARG         0.2615
    169 H71        -8.1474  -31.5309  -28.3175 H         1 LEU         0.1883
    170 H72       -10.2663  -33.5217  -28.5357 H         1 LEU         0.0800
    171 H73       -11.6733  -31.6997  -27.5438 H         1 LEU         0.0315
    172 H74       -10.2308  -30.6303  -27.5927 H         1 LEU         0.0315
    173 H75        -9.0758  -32.3046  -26.0930 H         1 LEU         0.0298
    174 H76       -10.2064  -31.4988  -24.0474 H         1 LEU         0.0232
    175 H77       -11.5945  -30.9400  -25.0411 H         1 LEU         0.0232
    176 H78        -9.9778  -30.1858  -25.2517 H         1 LEU         0.0232
    177 H79       -10.5670  -34.2270  -26.5595 H         1 LEU         0.0232
    178 H80       -11.9199  -33.3655  -25.7508 H         1 LEU         0.0232
    179 H81       -10.4744  -33.8568  -24.8042 H         1 LEU         0.0232
    180 H82       -11.7573  -33.6895  -30.0734 H         1 LYS         0.1883
    181 H83       -12.2597  -31.3911  -31.8996 H         1 LYS         0.0800
    182 H84       -11.9669  -34.2424  -32.9126 H         1 LYS         0.0312
    183 H85       -10.6116  -33.0635  -32.9140 H         1 LYS         0.0312
    184 H86       -12.0389  -31.5295  -34.2975 H         1 LYS         0.0269
    185 H87       -13.2613  -32.8416  -34.4003 H         1 LYS         0.0269
    186 H88       -11.6570  -34.3098  -35.4976 H         1 LYS         0.0317
    187 H89       -10.3531  -33.0915  -35.2922 H         1 LYS         0.0317
    188 H90       -11.6010  -31.5143  -36.7225 H         1 LYS         0.0813
    189 H91       -12.9053  -32.7323  -36.9277 H         1 LYS         0.0813
    190 H92       -11.3744  -32.7363  -38.7719 H         1 LYS         0.1994
    191 H93       -11.2926  -34.1725  -37.9719 H         1 LYS         0.1994
    192 H94       -10.0974  -33.0564  -37.7838 H         1 LYS         0.1994
    193 H95       -14.3050  -30.9540  -31.3425 H         1 GLY         0.1880
    194 H96       -16.3878  -32.8842  -31.8664 H         1 GLY         0.0763
    195 H97       -16.5943  -31.2136  -31.2393 H         1 GLY         0.0763
@<TRIPOS>BOND
     1    2    1 1  
     2    1   96 am 
     3   98    1 1  
     4    3    2 1  
     5    2   98 1  
     6    3    4 2  
     7    5    3 am 
     8    6    5 1  
     9    7    6 1  
    10    6    9 1  
    11    7    8 2  
    12   16    7 am 
    13    9   10 1  
    14   10   11 1  
    15   11   12 2  
    16   11   13 am 
    17   15   14 1  
    18   14   25 2  
    19   14   26 am 
    20   15   16 1  
    21   15   17 1  
    22   17   18 1  
    23   18   19 ar 
    24   18   20 ar 
    25   19   21 1  
    26   19   22 ar 
    27   20   23 ar 
    28   22   24 ar 
    29   23   24 ar 
    30   26   27 1  
    31   27   28 1  
    32   27   30 1  
    33   28   29 2  
    34   28   34 am 
    35   30   31 1  
    36   31   32 ar 
    37   31   33 ar 
    38   34   35 1  
    39   35   36 1  
    40   35   38 1  
    41   36   37 2  
    42   36   42 am 
    43   38   39 1  
    44   39   40 1  
    45   39   41 1  
    46   42   43 1  
    47   43   44 1  
    48   43   46 1  
    49   44   45 2  
    50   44   48 am 
    51   46   47 1  
    52   48   49 1  
    53   49   50 1  
    54   49   52 1  
    55   50   51 2  
    56   50   55 am 
    57   52   53 1  
    58   52   54 1  
    59   55   56 1  
    60   56   57 1  
    61   56   59 1  
    62   57   58 2  
    63   57   66 am 
    64   59   60 1  
    65   60   61 1  
    66   61   62 1  
    67   62   63 ar 
    68   63   64 ar 
    69   63   65 ar 
    70   66   67 1  
    71   67   68 1  
    72   67   70 1  
    73   68   69 2  
    74   68   77 am 
    75   70   71 1  
    76   71   72 1  
    77   72   73 1  
    78   73   74 ar 
    79   74   75 ar 
    80   74   76 ar 
    81   77   78 1  
    82   78   79 1  
    83   78   81 1  
    84   79   80 2  
    85   79   85 am 
    86   81   82 1  
    87   82   83 1  
    88   82   84 1  
    89   85   86 1  
    90   86   87 1  
    91   86   89 1  
    92   87   88 2  
    93   87   94 am 
    94   89   90 1  
    95   90   91 1  
    96   91   92 1  
    97   92   93 1  
    98   94   95 1  
    99   95   96 1  
   100   96   97 2  
   101    2   99 1  
   102    5  100 1  
   103    6  101 1  
   104    9  102 1  
   105    9  103 1  
   106   10  104 1  
   107   10  105 1  
   108   13  106 1  
   109   13  107 1  
   110   15  108 1  
   111   16  109 1  
   112   17  110 1  
   113   17  111 1  
   114   20  112 1  
   115   22  113 1  
   116   23  114 1  
   117   24  115 1  
   118   26  116 1  
   119   27  117 1  
   120   30  118 1  
   121   30  119 1  
   122   34  120 1  
   123   35  121 1  
   124   38  122 1  
   125   38  123 1  
   126   39  124 1  
   127   40  125 1  
   128   40  126 1  
   129   40  127 1  
   130   41  128 1  
   131   41  129 1  
   132   41  130 1  
   133   42  131 1  
   134   43  132 1  
   135   46  133 1  
   136   46  134 1  
   137   47  135 1  
   138   48  136 1  
   139   49  137 1  
   140   52  138 1  
   141   53  139 1  
   142   54  140 1  
   143   54  141 1  
   144   54  142 1  
   145   55  143 1  
   146   56  144 1  
   147   59  145 1  
   148   59  146 1  
   149   60  147 1  
   150   60  148 1  
   151   61  149 1  
   152   61  150 1  
   153   62  151 1  
   154   64  152 1  
   155   64  153 1  
   156   65  154 1  
   157   65  155 1  
   158   66  156 1  
   159   67  157 1  
   160   70  158 1  
   161   70  159 1  
   162   71  160 1  
   163   71  161 1  
   164   72  162 1  
   165   72  163 1  
   166   73  164 1  
   167   75  165 1  
   168   75  166 1  
   169   76  167 1  
   170   76  168 1  
   171   77  169 1  
   172   78  170 1  
   173   81  171 1  
   174   81  172 1  
   175   82  173 1  
   176   83  174 1  
   177   83  175 1  
   178   83  176 1  
   179   84  177 1  
   180   84  178 1  
   181   84  179 1  
   182   85  180 1  
   183   86  181 1  
   184   89  182 1  
   185   89  183 1  
   186   90  184 1  
   187   90  185 1  
   188   91  186 1  
   189   91  187 1  
   190   92  188 1  
   191   92  189 1  
   192   93  190 1  
   193   93  191 1  
   194   93  192 1  
   195   94  193 1  
   196   95  194 1  
   197   95  195 1  
@<TRIPOS>SUBSTRUCTURE
     1 GLY         1

