5khx_ligand
  -I-interpret- 

 36 38  0  0  0  0  0  0  0  0999 V2000
   13.9570   16.3090  -13.2340 N   0  0  0  0  0
    9.9450   13.7110  -16.4030 C   0  0  0  0  0
   10.1770   13.3210  -17.7770 N   0  0  0  0  0
   12.7450   15.6610  -13.2900 C   0  0  0  0  0
    8.5740   14.8430  -19.1480 C   0  0  0  0  0
   12.6530   15.8100  -10.8840 C   0  0  0  0  0
   14.4220   16.6560  -11.9960 C   0  0  0  0  0
   11.8450   15.4400   -9.8190 N   0  0  0  0  0
   13.2740   15.4420  -15.6850 C   0  0  0  0  0
   12.3330   15.2960  -14.5630 N   0  0  0  0  0
   11.0280   14.7260  -14.8110 C   0  0  0  0  0
   10.2660   15.2010  -16.0760 C   0  0  0  0  0
   10.9840   13.2600  -15.3400 C   0  0  0  0  0
    8.9690   13.2440  -18.8790 S   0  0  0  0  0
    7.8390   12.6250  -18.2870 O   0  0  0  0  0
    9.5440   12.7050  -20.0590 O   0  0  0  0  0
   13.8650   16.4540  -10.7850 N   0  0  0  0  0
   12.0250   15.3860  -12.0980 C   0  0  0  0  0
   10.8090   14.7360  -11.7130 C   0  0  0  0  0
   10.7200   14.7770  -10.3380 C   0  0  0  0  0
    8.9282   13.3221  -16.3485 H   0  0  0  0  0
   11.1257   13.0860  -18.0689 H   0  0  0  0  0
    7.7141   14.8961  -19.8157 H   0  0  0  0  0
    8.3288   15.3200  -18.1991 H   0  0  0  0  0
    9.4220   15.3536  -19.6043 H   0  0  0  0  0
   15.3827   17.1708  -11.9868 H   0  0  0  0  0
   13.4808   14.4616  -16.1141 H   0  0  0  0  0
   12.8337   16.0872  -16.4452 H   0  0  0  0  0
   14.2021   15.8850  -15.3238 H   0  0  0  0  0
   10.6418   14.9675  -13.8207 H   0  0  0  0  0
    9.4668   15.9383  -15.9998 H   0  0  0  0  0
   10.7542   15.8393  -16.8124 H   0  0  0  0  0
   11.8988   12.7476  -15.6377 H   0  0  0  0  0
   10.7675   12.4310  -14.6662 H   0  0  0  0  0
   10.0810   14.2872  -12.3888 H   0  0  0  0  0
    9.9049   14.3605   -9.7462 H   0  0  0  0  0
  4  1  4  0  0  0
  1  7  4  0  0  0
  2  3  1  0  0  0
 12  2  1  0  0  0
  2 13  1  0  0  0
  3 14  1  0  0  0
 10  4  1  0  0  0
  4 18  4  0  0  0
 14  5  1  0  0  0
  6  8  4  0  0  0
  6 17  4  0  0  0
 18  6  4  0  0  0
  7 17  4  0  0  0
  8 20  4  0  0  0
 10  9  1  0  0  0
 11 10  1  0  0  0
 11 12  1  0  0  0
 11 13  1  0  0  0
 14 15  2  0  0  0
 14 16  2  0  0  0
 18 19  4  0  0  0
 19 20  4  0  0  0
  2 21  1  0  0  0
  3 22  1  0  0  0
  5 23  1  0  0  0
  5 24  1  0  0  0
  5 25  1  0  0  0
  7 26  1  0  0  0
  9 27  1  0  0  0
  9 28  1  0  0  0
  9 29  1  0  0  0
 11 30  1  0  0  0
 12 31  1  0  0  0
 12 32  1  0  0  0
 13 33  1  0  0  0
 13 34  1  0  0  0
 19 35  1  0  0  0
 20 36  1  0  0  0
M  END
$$$$
