3d7z_ligand
  -I-interpret- 

 46 49  0  0  0  0  0  0  0  0999 V2000
   39.6300   32.3090   30.1810 C   0  0  0  0  0
   36.9710   26.7190   36.5160 C   0  0  0  0  0
   38.0580   27.4050   37.2550 C   0  0  0  0  0
   38.3730   26.6660   35.9900 C   0  0  0  0  0
   49.0270   33.9270   30.3930 C   0  0  0  0  0
   50.1850   34.2140   31.2830 C   0  0  0  0  0
   48.8110   34.5300   31.7230 C   0  0  0  0  0
   39.5470   31.3350   31.3530 C   0  0  0  0  0
   38.4080   30.5250   31.5890 C   0  0  0  0  0
   38.3120   29.6390   32.6650 C   0  0  0  0  0
   39.3810   29.5090   33.5710 C   0  0  0  0  0
   39.4050   28.5850   34.7640 C   0  0  0  0  0
   40.2860   28.7210   35.6310 O   0  0  0  0  0
   38.4170   27.6230   34.9050 N   0  0  0  0  0
   40.5060   30.3250   33.3110 C   0  0  0  0  0
   40.6100   31.2270   32.2260 C   0  0  0  0  0
   41.9110   31.9770   32.1760 C   0  0  0  0  0
   42.9870   31.5060   31.4480 C   0  0  0  0  0
   44.2120   32.1920   31.4660 C   0  0  0  0  0
   44.4000   33.3460   32.2420 C   0  0  0  0  0
   43.3170   33.7730   33.0100 C   0  0  0  0  0
   42.0990   33.0920   32.9560 C   0  0  0  0  0
   45.6910   34.0920   32.3920 C   0  0  0  0  0
   45.7880   35.2700   32.7450 O   0  0  0  0  0
   46.7910   33.2990   32.2650 N   0  0  0  0  0
   48.1440   33.6290   32.7420 C   0  0  0  0  0
   39.5289   31.7591   29.2453 H   0  0  0  0  0
   38.8272   33.0419   30.2618 H   0  0  0  0  0
   40.5930   32.8193   30.2018 H   0  0  0  0  0
   35.9189   26.4496   36.4231 H   0  0  0  0  0
   38.3877   28.0076   38.1014 H   0  0  0  0  0
   39.0922   25.8990   35.7027 H   0  0  0  0  0
   48.6300   33.5491   29.4509 H   0  0  0  0  0
   51.2585   34.2007   31.4715 H   0  0  0  0  0
   48.3394   35.4320   32.1130 H   0  0  0  0  0
   37.5676   30.5967   30.8986 H   0  0  0  0  0
   37.4071   29.0472   32.8030 H   0  0  0  0  0
   37.6778   27.5874   34.2031 H   0  0  0  0  0
   41.3523   30.2542   33.9942 H   0  0  0  0  0
   42.8841   30.5964   30.8562 H   0  0  0  0  0
   45.0385   31.8184   30.8615 H   0  0  0  0  0
   43.4220   34.6441   33.6567 H   0  0  0  0  0
   41.2660   33.4591   33.5555 H   0  0  0  0  0
   46.6667   32.3998   31.7997 H   0  0  0  0  0
   48.0839   34.1382   33.7039 H   0  0  0  0  0
   48.7260   32.7158   32.8665 H   0  0  0  0  0
  8  1  1  0  0  0
  3  2  2  0  0  0
  4  2  1  0  0  0
  4  3  1  0  0  0
 14  4  1  0  0  0
  6  5  2  0  0  0
  7  5  1  0  0  0
  7  6  1  0  0  0
 26  7  1  0  0  0
  8  9  4  0  0  0
 16  8  4  0  0  0
  9 10  4  0  0  0
 11 10  4  0  0  0
 11 12  1  0  0  0
 15 11  4  0  0  0
 12 13  2  0  0  0
 12 14  1  0  0  0
 16 15  4  0  0  0
 17 16  1  0  0  0
 18 17  4  0  0  0
 22 17  4  0  0  0
 19 18  4  0  0  0
 20 19  4  0  0  0
 20 21  4  0  0  0
 23 20  1  0  0  0
 21 22  4  0  0  0
 23 24  2  0  0  0
 25 23  1  0  0  0
 25 26  1  0  0  0
  1 27  1  0  0  0
  1 28  1  0  0  0
  1 29  1  0  0  0
  2 30  1  0  0  0
  3 31  1  0  0  0
  4 32  1  0  0  0
  5 33  1  0  0  0
  6 34  1  0  0  0
  7 35  1  0  0  0
  9 36  1  0  0  0
 10 37  1  0  0  0
 14 38  1  0  0  0
 15 39  1  0  0  0
 18 40  1  0  0  0
 19 41  1  0  0  0
 21 42  1  0  0  0
 22 43  1  0  0  0
 25 44  1  0  0  0
 26 45  1  0  0  0
 26 46  1  0  0  0
M  END
$$$$
