1wum_ligand
  -I-interpret- 

 28 28  0  0  0  0  0  0  0  0999 V2000
  -14.7480   -3.9980    7.0370 N   0  3  0  0  0
  -14.7000   -4.5690    5.6620 C   0  0  0  0  0
  -13.6160   -3.7600    4.9410 C   0  0  0  0  0
  -13.9040   -2.2520    5.0530 C   0  0  0  0  0
  -15.3610   -2.0670    4.7570 N   0  0  0  0  0
  -15.7280   -1.4380    3.6440 C   0  0  0  0  0
  -16.2620   -2.1840    2.5700 C   0  0  0  0  0
  -15.5740   -0.0300    3.5200 C   0  0  0  0  0
  -15.0710    0.6940    4.5210 N   0  0  0  0  0
  -14.6830    0.0730    5.7370 O   0  0  0  0  0
  -14.9290    2.1000    4.3710 O   0  0  0  0  0
  -16.6480   -1.5370    1.3770 C   0  0  0  0  0
  -15.9590    0.6160    2.3200 C   0  0  0  0  0
  -16.4930   -0.1360    1.2500 C   0  0  0  0  0
  -15.4544   -4.4904    7.5839 H   0  0  0  0  0
  -13.8361   -4.1064    7.4809 H   0  0  0  0  0
  -14.9863   -3.0076    6.9845 H   0  0  0  0  0
  -15.6638   -4.4963    5.1581 H   0  0  0  0  0
  -14.4720   -5.6348    5.6725 H   0  0  0  0  0
  -13.6060   -4.0412    3.8879 H   0  0  0  0  0
  -12.6512   -3.9713    5.4020 H   0  0  0  0  0
  -13.2909   -1.6870    4.3509 H   0  0  0  0  0
  -13.6610   -1.8838    6.0497 H   0  0  0  0  0
  -16.0659   -2.4206    5.4039 H   0  0  0  0  0
  -16.3764   -3.2640    2.6632 H   0  0  0  0  0
  -17.0655   -2.1161    0.5533 H   0  0  0  0  0
  -15.8431    1.6954    2.2218 H   0  0  0  0  0
  -16.7858    0.3630    0.3262 H   0  0  0  0  0
  1  2  1  0  0  0
  2  3  1  0  0  0
  3  4  1  0  0  0
  4  5  1  0  0  0
  5  6  1  0  0  0
  6  7  4  0  0  0
  6  8  4  0  0  0
  7 12  4  0  0  0
  8  9  1  0  0  0
  8 13  4  0  0  0
  9 10  2  0  0  0
  9 11  2  0  0  0
 12 14  4  0  0  0
 13 14  4  0  0  0
  1 15  1  0  0  0
  1 16  1  0  0  0
  1 17  1  0  0  0
  2 18  1  0  0  0
  2 19  1  0  0  0
  3 20  1  0  0  0
  3 21  1  0  0  0
  4 22  1  0  0  0
  4 23  1  0  0  0
  5 24  1  0  0  0
  7 25  1  0  0  0
 12 26  1  0  0  0
 13 27  1  0  0  0
 14 28  1  0  0  0
M  END
$$$$
