5kmh_ligand
  -I-interpret- 

 66 67  0  0  0  0  0  0  0  0999 V2000
   -3.1670   23.2660   24.2750 C   0  0  0  0  0
   -4.3360   24.1040   24.3390 O   0  0  0  0  0
   -4.2200   25.5310   24.3180 C   0  0  0  0  0
   -3.1780   26.2480   24.9270 C   0  0  0  0  0
   -2.1180   25.6610   25.6340 O   0  0  0  0  0
   -1.3440   26.6210   26.3290 C   0  0  0  0  0
   -3.1730   27.6560   24.8630 C   0  0  0  0  0
   -4.1330   28.4130   24.2090 C   0  0  0  0  0
   -3.9560   29.9440   24.1570 C   0  0  0  0  0
   -2.7740   30.2590   23.1640 C   0  0  0  0  0
   -2.3330   31.6710   23.0440 N   0  3  0  0  0
   -3.4230   32.4960   22.4790 C   0  0  0  0  0
   -1.0580   31.7970   22.2870 C   0  0  0  0  0
   -0.1000   32.8620   22.8880 C   0  0  0  0  0
   -0.7890   33.9230   23.7920 C   0  0  0  0  0
   -0.2540   34.4090   25.1750 C   0  0  0  0  0
   -1.1460   35.6070   25.5780 C   0  0  0  0  0
   -1.8450   36.1860   24.8330 N   0  0  0  0  0
   -0.4490   33.4020   26.3640 C   0  0  0  0  0
   -0.4950   31.8830   26.1190 C   0  0  0  0  0
   -1.5190   33.8010   27.4010 C   0  0  0  0  0
    1.2510   34.7930   25.0410 C   0  0  0  0  0
    2.1510   33.7380   25.2430 C   0  0  0  0  0
    3.5180   33.9190   25.1680 C   0  0  0  0  0
    4.0460   35.1690   24.8900 C   0  0  0  0  0
    3.1760   36.2450   24.6840 C   0  0  0  0  0
    1.7850   36.0890   24.7450 C   0  0  0  0  0
    0.7780   37.7480   24.4200 Br  0  0  0  0  0
   -5.1590   27.7310   23.5860 C   0  0  0  0  0
   -5.1970   26.3080   23.6560 C   0  0  0  0  0
   -2.6295   23.4646   23.3478 H   0  0  0  0  0
   -2.5198   23.4819   25.1251 H   0  0  0  0  0
   -3.4698   22.2193   24.3038 H   0  0  0  0  0
   -0.9250   27.3323   25.6173 H   0  0  0  0  0
   -1.9770   27.1489   27.0423 H   0  0  0  0  0
   -0.5361   26.1185   26.8608 H   0  0  0  0  0
   -2.3603   28.1850   25.3608 H   0  0  0  0  0
   -3.7297   30.3326   25.1499 H   0  0  0  0  0
   -4.8749   30.4196   23.8143 H   0  0  0  0  0
   -3.1414   29.9828   22.1757 H   0  0  0  0  0
   -1.9128   29.7161   23.5535 H   0  0  0  0  0
   -2.1286   32.0272   23.9777 H   0  0  0  0  0
   -3.6888   32.1179   21.4919 H   0  0  0  0  0
   -4.2922   32.4459   23.1348 H   0  0  0  0  0
   -3.0884   33.5300   22.3954 H   0  0  0  0  0
   -1.3035   32.1060   21.2710 H   0  0  0  0  0
   -0.5508   30.8330   22.3269 H   0  0  0  0  0
    0.3414   33.3999   22.0490 H   0  0  0  0  0
    0.6138   32.3276   23.5150 H   0  0  0  0  0
   -1.7188   33.4245   24.0660 H   0  0  0  0  0
   -0.7159   34.8258   23.1857 H   0  0  0  0  0
   -1.1243   35.9338   26.6176 H   0  0  0  0  0
   -1.8892   35.9062   23.8531 H   0  0  0  0  0
    0.5515   33.5470   26.7715 H   0  0  0  0  0
   -1.3233   31.6491   25.4502 H   0  0  0  0  0
    0.4422   31.5609   25.6651 H   0  0  0  0  0
   -0.6364   31.3672   27.0688 H   0  0  0  0  0
   -1.2509   34.7583   27.8479 H   0  0  0  0  0
   -2.4870   33.8874   26.9075 H   0  0  0  0  0
   -1.5725   33.0382   28.1778 H   0  0  0  0  0
    1.7605   32.7451   25.4659 H   0  0  0  0  0
    4.1858   33.0727   25.3286 H   0  0  0  0  0
    5.1250   35.3124   24.8325 H   0  0  0  0  0
    3.5910   37.2300   24.4706 H   0  0  0  0  0
   -5.9330   28.2759   23.0455 H   0  0  0  0  0
   -6.0254   25.7906   23.1722 H   0  0  0  0  0
  1  2  1  0  0  0
  2  3  1  0  0  0
  3  4  4  0  0  0
  3 30  4  0  0  0
  4  5  1  0  0  0
  4  7  4  0  0  0
  5  6  1  0  0  0
  7  8  4  0  0  0
  8  9  1  0  0  0
  8 29  4  0  0  0
  9 10  1  0  0  0
 10 11  1  0  0  0
 11 12  1  0  0  0
 11 13  1  0  0  0
 13 14  1  0  0  0
 14 15  1  0  0  0
 15 16  1  0  0  0
 16 17  1  0  0  0
 16 19  1  0  0  0
 16 22  1  0  0  0
 17 18  2  0  0  0
 19 20  1  0  0  0
 19 21  1  0  0  0
 22 23  4  0  0  0
 22 27  4  0  0  0
 23 24  4  0  0  0
 24 25  4  0  0  0
 25 26  4  0  0  0
 26 27  4  0  0  0
 27 28  1  0  0  0
 29 30  4  0  0  0
  1 31  1  0  0  0
  1 32  1  0  0  0
  1 33  1  0  0  0
  6 34  1  0  0  0
  6 35  1  0  0  0
  6 36  1  0  0  0
  7 37  1  0  0  0
  9 38  1  0  0  0
  9 39  1  0  0  0
 10 40  1  0  0  0
 10 41  1  0  0  0
 11 42  1  0  0  0
 12 43  1  0  0  0
 12 44  1  0  0  0
 12 45  1  0  0  0
 13 46  1  0  0  0
 13 47  1  0  0  0
 14 48  1  0  0  0
 14 49  1  0  0  0
 15 50  1  0  0  0
 15 51  1  0  0  0
 17 52  1  0  0  0
 18 53  1  0  0  0
 19 54  1  0  0  0
 20 55  1  0  0  0
 20 56  1  0  0  0
 20 57  1  0  0  0
 21 58  1  0  0  0
 21 59  1  0  0  0
 21 60  1  0  0  0
 23 61  1  0  0  0
 24 62  1  0  0  0
 25 63  1  0  0  0
 26 64  1  0  0  0
 29 65  1  0  0  0
 30 66  1  0  0  0
M  END
$$$$
