### 
### Created by X-TOOL on Mon Sep 10 21:13:30 2018
### 

@<TRIPOS>MOLECULE
5kmh_ligand
   66    67     1     0     0
SMALL
GAST_HUCK


@<TRIPOS>ATOM
      1 C01        -3.1670   23.2660   24.2750 C.3       1 6U8         0.0554
      2 O02        -4.3360   24.1040   24.3390 O.3       1 6U8        -0.3294
      3 C03        -4.2200   25.5310   24.3180 C.ar      1 6U8         0.1122
      4 C04        -3.1780   26.2480   24.9270 C.ar      1 6U8         0.1132
      5 O05        -2.1180   25.6610   25.6340 O.3       1 6U8        -0.3266
      6 C06        -1.3440   26.6210   26.3290 C.3       1 6U8         0.0568
      7 C07        -3.1730   27.6560   24.8630 C.ar      1 6U8        -0.0396
      8 C08        -4.1330   28.4130   24.2090 C.ar      1 6U8        -0.0576
      9 C09        -3.9560   29.9440   24.1570 C.3       1 6U8         0.0138
     10 C10        -2.7740   30.2590   23.1640 C.3       1 6U8        -0.0242
     11 N11        -2.3330   31.6710   23.0440 N.4       1 6U8         0.2343
     12 C12        -3.4230   32.4960   22.4790 C.3       1 6U8        -0.0430
     13 C13        -1.0580   31.7970   22.2870 C.3       1 6U8        -0.0330
     14 C14        -0.1000   32.8620   22.8880 C.3       1 6U8        -0.0218
     15 C15        -0.7890   33.9230   23.7920 C.3       1 6U8        -0.0691
     16 C16        -0.2540   34.4090   25.1750 C.3       1 6U8        -0.0014
     17 C17        -1.1460   35.6070   25.5780 C.2       1 6U8        -0.0098
     18 N18        -1.8450   36.1860   24.8330 N.2       1 6U8        -0.2964
     19 C19        -0.4490   33.4020   26.3640 C.3       1 6U8        -0.0676
     20 C20        -0.4950   31.8830   26.1190 C.3       1 6U8        -0.0721
     21 C21        -1.5190   33.8010   27.4010 C.3       1 6U8        -0.0721
     22 C22         1.2510   34.7930   25.0410 C.ar      1 6U8        -0.0460
     23 C23         2.1510   33.7380   25.2430 C.ar      1 6U8        -0.0421
     24 C24         3.5180   33.9190   25.1680 C.ar      1 6U8        -0.0326
     25 C27         4.0460   35.1690   24.8900 C.ar      1 6U8        -0.0336
     26 C30         3.1760   36.2450   24.6840 C.ar      1 6U8        -0.0259
     27 C31         1.7850   36.0890   24.7450 C.ar      1 6U8         0.0311
     28 BR32        0.7780   37.7480   24.4200 Br        1 6U8        -0.0272
     29 C32        -5.1590   27.7310   23.5860 C.ar      1 6U8        -0.0799
     30 C33        -5.1970   26.3080   23.6560 C.ar      1 6U8        -0.0479
     31 H1         -3.4713   22.2093   24.3040 H         1 6U8         0.0570
     32 H2         -2.5130   23.4828   25.1324 H         1 6U8         0.0570
     33 H3         -2.6236   23.4655   23.3396 H         1 6U8         0.0570
     34 H4         -0.5282   26.1150   26.8661 H         1 6U8         0.0573
     35 H5         -1.9817   27.1544   27.0492 H         1 6U8         0.0573
     36 H6         -0.9205   27.3395   25.6118 H         1 6U8         0.0573
     37 H7         -2.3648   28.1821   25.3581 H         1 6U8         0.0450
     38 H8         -3.7145   30.3270   25.1595 H         1 6U8         0.0456
     39 H9         -4.8824   30.4158   23.7975 H         1 6U8         0.0456
     40 H10        -3.0877   29.9264   22.1635 H         1 6U8         0.0836
     41 H11        -1.9045   29.6697   23.4904 H         1 6U8         0.0836
     42 H12        -2.1537   32.0109   23.9759 H         1 6U8         0.2032
     43 H13        -3.0865   33.5398   22.3941 H         1 6U8         0.0778
     44 H14        -4.3008   32.4464   23.1400 H         1 6U8         0.0778
     45 H15        -3.6922   32.1154   21.4827 H         1 6U8         0.0778
     46 H16        -1.2920   32.0808   21.2503 H         1 6U8         0.0814
     47 H17        -0.5479   30.8225   22.2941 H         1 6U8         0.0814
     48 H18         0.3915   33.3883   22.0565 H         1 6U8         0.0306
     49 H19         0.6578   32.3396   23.4903 H         1 6U8         0.0306
     50 H20        -1.7964   33.5284   23.9904 H         1 6U8         0.0143
     51 H21        -0.8655   34.8292   23.1732 H         1 6U8         0.0143
     52 H22        -1.1243   35.9335   26.6167 H         1 6U8         0.0986
     53 H23        -2.4014   36.9595   25.1618 H         1 6U8         0.1944
     54 H24         0.4977   33.5249   26.9105 H         1 6U8         0.0172
     55 H25        -0.6376   31.3613   27.0768 H         1 6U8         0.0222
     56 H26         0.4504   31.5566   25.6610 H         1 6U8         0.0222
     57 H27        -1.3306   31.6455   25.4442 H         1 6U8         0.0222
     58 H28        -1.4789   34.8872   27.5698 H         1 6U8         0.0222
     59 H29        -1.3259   33.2755   28.3479 H         1 6U8         0.0222
     60 H30        -2.5151   33.5249   27.0249 H         1 6U8         0.0222
     61 H31         1.7626   32.7505   25.4647 H         1 6U8         0.0833
     62 H32         4.1822   33.0773   25.3277 H         1 6U8         0.0713
     63 H33         5.1191   35.3116   24.8328 H         1 6U8         0.0842
     64 H34         3.5887   37.2246   24.4717 H         1 6U8         0.0720
     65 H35        -5.9287   28.2729   23.0485 H         1 6U8         0.0436
     66 H36        -6.0209   25.7934   23.1748 H         1 6U8         0.0493
@<TRIPOS>BOND
     1    1    2 1  
     2    2    3 1  
     3    3    4 ar 
     4    3   30 ar 
     5    4    5 1  
     6    4    7 ar 
     7    5    6 1  
     8    7    8 ar 
     9    8    9 1  
    10    8   29 ar 
    11    9   10 1  
    12   10   11 1  
    13   11   12 1  
    14   11   13 1  
    15   13   14 1  
    16   14   15 1  
    17   15   16 1  
    18   16   17 1  
    19   16   19 1  
    20   16   22 1  
    21   17   18 2  
    22   19   20 1  
    23   19   21 1  
    24   22   23 ar 
    25   22   27 ar 
    26   23   24 ar 
    27   24   25 ar 
    28   25   26 ar 
    29   26   27 ar 
    30   27   28 1  
    31   29   30 ar 
    32    1   31 1  
    33    1   32 1  
    34    1   33 1  
    35    6   34 1  
    36    6   35 1  
    37    6   36 1  
    38    7   37 1  
    39    9   38 1  
    40    9   39 1  
    41   10   40 1  
    42   10   41 1  
    43   11   42 1  
    44   12   43 1  
    45   12   44 1  
    46   12   45 1  
    47   13   46 1  
    48   13   47 1  
    49   14   48 1  
    50   14   49 1  
    51   15   50 1  
    52   15   51 1  
    53   17   52 1  
    54   18   53 1  
    55   19   54 1  
    56   20   55 1  
    57   20   56 1  
    58   20   57 1  
    59   21   58 1  
    60   21   59 1  
    61   21   60 1  
    62   23   61 1  
    63   24   62 1  
    64   25   63 1  
    65   26   64 1  
    66   29   65 1  
    67   30   66 1  
@<TRIPOS>SUBSTRUCTURE
     1 6U8         1

