3p3s_ligand
  -I-interpret- 

 26 27  0  0  0  0  0  0  0  0999 V2000
   -0.4820    2.1060   -7.9920 C   0  0  0  0  0
   -0.4760    2.6010  -10.8100 N   0  0  0  0  0
    0.3300   -1.9800  -10.2550 O   0  0  0  0  0
    0.0650    0.1860   -2.2540 O   0  0  0  0  0
   -1.9390    2.0000   -3.4480 Br  0  0  0  0  0
    2.0060   -2.0010   -3.2830 Br  0  0  0  0  0
    0.0640   -0.8590   -7.6860 C   0  0  0  0  0
   -0.8860    0.5230   -5.7780 C   0  0  0  0  0
    0.7810   -1.1490   -5.5450 C   0  0  0  0  0
   -0.0500    0.1890  -11.0050 N   0  0  0  0  0
    0.0010    0.0030   -3.5950 C   0  0  0  0  0
   -0.0390   -0.4380   -6.3650 C   0  0  0  0  0
   -0.8480    0.7420   -4.3810 C   0  0  0  0  0
    0.7970   -0.9210   -4.2060 C   0  0  0  0  0
   -0.2770    1.3470  -10.3450 C   0  0  0  0  0
    0.1070   -0.7600  -10.0740 C   0  0  0  0  0
   -0.0420   -0.1460   -8.8370 C   0  0  0  0  0
   -0.2670    1.1140   -9.0480 N   0  0  0  0  0
    0.2797    2.8824   -8.0640 H   0  0  0  0  0
   -1.4695    2.5520   -8.1099 H   0  0  0  0  0
   -0.4156    1.6192   -7.0190 H   0  0  0  0  0
   -0.4672    2.7800  -11.8141 H   0  0  0  0  0
    0.7109   -0.4179   -1.8802 H   0  0  0  0  0
    0.2596   -1.9232   -7.8180 H   0  0  0  0  0
   -1.5711    1.0981   -6.4009 H   0  0  0  0  0
    1.4342   -1.9121   -5.9682 H   0  0  0  0  0
 18  1  1  0  0  0
 15  2  2  0  0  0
 16  3  2  0  0  0
 11  4  1  0  0  0
 13  5  1  0  0  0
 14  6  1  0  0  0
  7 12  1  0  0  0
 17  7  2  0  0  0
 12  8  4  0  0  0
  8 13  4  0  0  0
 12  9  4  0  0  0
  9 14  4  0  0  0
 10 15  4  0  0  0
 16 10  1  0  0  0
 13 11  4  0  0  0
 14 11  4  0  0  0
 15 18  1  0  0  0
 16 17  1  0  0  0
 17 18  1  0  0  0
  1 19  1  0  0  0
  1 20  1  0  0  0
  1 21  1  0  0  0
  2 22  1  0  0  0
  4 23  1  0  0  0
  7 24  1  0  0  0
  8 25  1  0  0  0
  9 26  1  0  0  0
M  END
$$$$
