5etl_ligand
  -I-interpret- 

 30 32  0  0  0  0  0  0  0  0999 V2000
   -8.7540    9.7130  -11.0310 C   0  0  0  0  0
  -10.2920    6.4100  -11.3630 C   0  0  0  0  0
  -11.6320    6.7360  -11.4040 C   0  0  0  0  0
   -9.3640    7.4230  -11.2380 C   0  0  0  0  0
  -12.0420    8.0540  -11.3210 C   0  0  0  0  0
   -9.7830    8.7390  -11.1590 C   0  0  0  0  0
  -11.1330    9.0890  -11.1900 C   0  0  0  0  0
  -13.8550    8.9580   -7.3930 C   0  0  0  0  0
  -12.5680    8.5360   -7.1580 C   0  0  0  0  0
  -14.8860    8.2930   -6.7870 C   0  0  0  0  0
  -13.3370    6.9140   -5.8020 C   0  0  0  0  0
  -12.4200   10.1950   -8.4730 C   0  0  0  0  0
  -11.6610   10.5210  -11.1080 C   0  0  0  0  0
   -7.8880   10.4830  -10.9530 N   0  0  0  0  0
  -12.2660    7.5070   -6.3470 N   0  0  0  0  0
  -11.6780    9.3090   -7.8450 N   0  0  0  0  0
  -14.6210    7.2570   -5.9830 N   0  0  0  0  0
  -13.7560   10.0380   -8.2410 N   0  0  0  0  0
  -13.1330    5.8150   -4.9580 N   0  0  0  0  0
  -16.1860    8.6470   -6.9550 O   0  0  0  0  0
  -11.7980   11.4450   -9.5070 S   0  0  0  0  0
   -9.9722    5.3700  -11.4282 H   0  0  0  0  0
  -12.3760    5.9456  -11.5030 H   0  0  0  0  0
   -8.3006    7.1865  -11.2015 H   0  0  0  0  0
  -13.1069    8.2832  -11.3597 H   0  0  0  0  0
  -12.6972   10.4258  -11.4326 H   0  0  0  0  0
  -10.9208   11.0941  -11.6664 H   0  0  0  0  0
  -15.3723    6.7438   -5.5219 H   0  0  0  0  0
  -12.1864    5.4842   -4.7711 H   0  0  0  0  0
  -13.9311    5.3454   -4.5302 H   0  0  0  0  0
  6  1  1  0  0  0
  1 14  3  0  0  0
  3  2  4  0  0  0
  4  2  4  0  0  0
  5  3  4  0  0  0
  6  4  4  0  0  0
  7  5  4  0  0  0
  7  6  4  0  0  0
 13  7  1  0  0  0
  8  9  4  0  0  0
  8 10  1  0  0  0
 18  8  4  0  0  0
  9 15  1  0  0  0
 16  9  4  0  0  0
 10 17  1  0  0  0
 10 20  2  0  0  0
 15 11  2  0  0  0
 17 11  1  0  0  0
 11 19  1  0  0  0
 12 16  4  0  0  0
 12 18  4  0  0  0
 21 12  1  0  0  0
 13 21  1  0  0  0
  2 22  1  0  0  0
  3 23  1  0  0  0
  4 24  1  0  0  0
  5 25  1  0  0  0
 13 26  1  0  0  0
 13 27  1  0  0  0
 17 28  1  0  0  0
 19 29  1  0  0  0
 19 30  1  0  0  0
M  END
$$$$
