4ppb_ligand
  -I-interpret- 

 59 63  0  0  0  0  0  0  0  0999 V2000
   -7.8430  -24.0640   59.9670 C   0  0  0  0  0
   -8.3840  -23.5740   58.6880 N   0  3  0  0  0
   -7.6970  -22.3510   58.2450 C   0  0  0  0  0
   -8.3610  -24.5910   57.6270 C   0  0  0  0  0
   -9.7440  -25.2390   57.5290 C   0  0  0  0  0
  -10.3320  -25.2240   56.1060 C   0  0  0  0  0
  -10.2860  -26.6040   55.4650 C   0  0  0  0  0
   -9.8300  -26.7310   54.1540 C   0  0  0  0  0
   -9.8340  -27.9770   53.5220 C   0  0  0  0  0
  -10.3020  -29.1030   54.1930 C   0  0  0  0  0
  -10.7790  -28.9840   55.4970 C   0  0  0  0  0
  -10.7860  -27.7400   56.1200 C   0  0  0  0  0
  -11.7580  -24.8920   56.2200 N   0  0  0  0  0
  -12.5870  -24.4800   55.2280 C   0  0  0  0  0
  -13.8280  -24.3470   55.7660 C   0  0  0  0  0
  -13.7570  -24.7680   57.1010 C   0  0  0  0  0
  -12.5340  -25.0990   57.3680 N   0  0  0  0  0
  -14.9970  -23.9050   55.0960 N   0  0  0  0  0
  -16.2050  -23.7990   55.7110 C   0  0  0  0  0
  -16.3440  -24.1070   56.8910 O   0  0  0  0  0
  -17.3960  -23.3820   54.9440 C   0  0  0  0  0
  -18.7460  -23.1740   55.4950 C   0  0  0  0  0
  -19.3090  -23.2160   56.7760 C   0  0  0  0  0
  -20.6390  -22.9680   56.9500 C   0  0  0  0  0
  -21.4550  -22.6660   55.8440 C   0  0  0  0  0
  -20.8980  -22.5710   54.5570 C   0  0  0  0  0
  -19.5370  -22.8420   54.3700 C   0  0  0  0  0
  -18.6860  -22.8700   53.2900 N   0  0  0  0  0
  -17.4860  -23.1840   53.6430 N   0  0  0  0  0
  -22.8870  -22.3210   56.0770 C   0  0  0  0  0
  -23.6650  -22.7180   57.1240 C   0  0  0  0  0
  -24.8700  -22.1360   56.9790 N   0  0  0  0  0
  -24.8580  -21.3570   55.8220 N   0  0  0  0  0
  -23.6740  -21.4570   55.2830 C   0  0  0  0  0
   -8.4347  -24.9132   60.3088 H   0  0  0  0  0
   -6.8074  -24.3739   59.8271 H   0  0  0  0  0
   -7.8879  -23.2663   60.7085 H   0  0  0  0  0
   -9.3634  -23.3514   58.8660 H   0  0  0  0  0
   -6.6608  -22.5858   58.0014 H   0  0  0  0  0
   -8.1981  -21.9538   57.3623 H   0  0  0  0  0
   -7.7248  -21.6104   59.0443 H   0  0  0  0  0
   -7.6148  -25.3502   57.8613 H   0  0  0  0  0
   -8.1051  -24.1244   56.6757 H   0  0  0  0  0
  -10.4184  -24.6683   58.1674 H   0  0  0  0  0
   -9.6384  -26.2818   57.8281 H   0  0  0  0  0
   -9.7579  -24.5150   55.5095 H   0  0  0  0  0
   -9.4682  -25.8531   53.6187 H   0  0  0  0  0
   -9.4690  -28.0677   52.4989 H   0  0  0  0  0
  -10.2954  -30.0751   53.7000 H   0  0  0  0  0
  -11.1455  -29.8629   56.0273 H   0  0  0  0  0
  -11.1850  -27.6465   57.1300 H   0  0  0  0  0
  -12.3090  -24.2907   54.1912 H   0  0  0  0  0
  -14.5931  -24.8098   57.7990 H   0  0  0  0  0
  -14.9286  -23.6556   54.1093 H   0  0  0  0  0
  -18.6825  -23.4477   57.6373 H   0  0  0  0  0
  -21.0715  -23.0039   57.9499 H   0  0  0  0  0
  -21.5220  -22.2880   53.7093 H   0  0  0  0  0
  -23.3655  -23.3856   57.9319 H   0  0  0  0  0
  -23.3464  -20.9570   54.3715 H   0  0  0  0  0
  1  2  1  0  0  0
  2  3  1  0  0  0
  2  4  1  0  0  0
  4  5  1  0  0  0
  5  6  1  0  0  0
  6  7  1  0  0  0
  6 13  1  0  0  0
  7  8  4  0  0  0
  7 12  4  0  0  0
  8  9  4  0  0  0
  9 10  4  0  0  0
 10 11  4  0  0  0
 11 12  4  0  0  0
 13 14  4  0  0  0
 13 17  4  0  0  0
 14 15  4  0  0  0
 15 16  4  0  0  0
 15 18  1  0  0  0
 16 17  4  0  0  0
 18 19  1  0  0  0
 19 20  2  0  0  0
 19 21  1  0  0  0
 21 22  4  0  0  0
 21 29  4  0  0  0
 22 23  4  0  0  0
 22 27  4  0  0  0
 23 24  4  0  0  0
 24 25  4  0  0  0
 25 26  4  0  0  0
 25 30  1  0  0  0
 26 27  4  0  0  0
 27 28  4  0  0  0
 28 29  4  0  0  0
 30 31  4  0  0  0
 30 34  4  0  0  0
 31 32  4  0  0  0
 32 33  4  0  0  0
 33 34  4  0  0  0
  1 35  1  0  0  0
  1 36  1  0  0  0
  1 37  1  0  0  0
  2 38  1  0  0  0
  3 39  1  0  0  0
  3 40  1  0  0  0
  3 41  1  0  0  0
  4 42  1  0  0  0
  4 43  1  0  0  0
  5 44  1  0  0  0
  5 45  1  0  0  0
  6 46  1  0  0  0
  8 47  1  0  0  0
  9 48  1  0  0  0
 10 49  1  0  0  0
 11 50  1  0  0  0
 12 51  1  0  0  0
 14 52  1  0  0  0
 16 53  1  0  0  0
 18 54  1  0  0  0
 23 55  1  0  0  0
 24 56  1  0  0  0
 26 57  1  0  0  0
 31 58  1  0  0  0
 34 59  1  0  0  0
M  END
$$$$
