1nwl_ligand
  -I-interpret- 

 58 59  0  0  0  0  0  0  0  0999 V2000
   49.0630   34.6970   40.0850 O   0  0  0  0  0
   64.6830   31.1400   31.4810 C   0  0  0  0  0
   64.0760   30.2340   32.5470 C   0  0  0  0  0
   62.7840   30.3600   32.8530 N   0  0  0  0  0
   64.7920   29.4170   33.1020 O   0  0  0  0  0
   49.3350   33.4820   40.1650 C   0  0  0  0  0
   49.5920   32.9380   41.2570 O   0  0  0  0  0
   49.6870   32.7420   38.9110 C   0  0  0  0  0
   48.8090   31.8350   38.4190 N   0  0  0  0  0
   49.0880   31.1520   37.2990 C   0  0  0  0  0
   50.2930   31.3780   36.6360 C   0  0  0  0  0
   51.1660   32.2750   37.1210 N   0  0  0  0  0
   50.8940   32.9710   38.2530 C   0  0  0  0  0
   51.9830   33.8610   38.8560 C   0  0  0  0  0
   52.1610   33.8640   40.0630 O   0  0  0  0  0
   52.9390   34.4840   37.9610 N   0  0  0  0  0
   54.3650   34.1790   38.0290 C   0  0  0  0  0
   55.1120   35.4000   37.4790 C   0  0  0  0  0
   54.9140   35.6230   35.9770 C   0  0  0  0  0
   54.6070   32.9360   37.1670 C   0  0  0  0  0
   54.4090   33.1840   35.6690 C   0  0  0  0  0
   55.2330   34.3690   35.1610 C   0  0  0  0  0
   54.9470   34.6260   33.6830 C   0  0  0  0  0
   53.8030   34.6500   33.2500 O   0  0  0  0  0
   56.1040   34.8420   32.8380 N   0  0  0  0  0
   56.5060   33.8630   31.8480 C   0  0  0  0  0
   57.6630   33.0370   32.3930 C   0  0  0  0  0
   60.5830   32.4370   32.7560 S   0  0  0  0  0
   61.7380   30.1680   31.8640 C   0  0  0  0  0
   60.4070   30.7290   32.3560 C   0  0  0  0  0
   59.1630   33.5190   31.8580 S   0  0  0  0  0
   48.8961   34.9267   39.1679 H   0  0  0  0  0
   65.4853   31.7313   31.9224 H   0  0  0  0  0
   65.0831   30.5292   30.6717 H   0  0  0  0  0
   63.9130   31.8048   31.0896 H   0  0  0  0  0
   62.5229   30.5982   33.8098 H   0  0  0  0  0
   48.3763   30.4242   36.9094 H   0  0  0  0  0
   50.5262   30.8271   35.7248 H   0  0  0  0  0
   52.6065   35.1525   37.2661 H   0  0  0  0  0
   54.7122   33.9762   39.0421 H   0  0  0  0  0
   56.1760   35.2309   37.6444 H   0  0  0  0  0
   54.7199   36.2783   37.9918 H   0  0  0  0  0
   55.5908   36.4162   35.6593 H   0  0  0  0  0
   53.8690   35.8821   35.8070 H   0  0  0  0  0
   53.8840   32.1796   37.4723 H   0  0  0  0  0
   55.6431   32.6314   37.3146 H   0  0  0  0  0
   53.3557   33.4082   35.5003 H   0  0  0  0  0
   54.7343   32.2922   35.1333 H   0  0  0  0  0
   56.2896   34.1275   35.2768 H   0  0  0  0  0
   56.6461   35.6998   32.9420 H   0  0  0  0  0
   56.8209   34.3741   30.9382 H   0  0  0  0  0
   55.6651   33.2070   31.6230 H   0  0  0  0  0
   57.5147   32.0131   32.0500 H   0  0  0  0  0
   57.6570   33.1538   33.4767 H   0  0  0  0  0
   62.0210   30.6917   30.9509 H   0  0  0  0  0
   61.6207   29.0995   31.6834 H   0  0  0  0  0
   59.6596   30.6200   31.5701 H   0  0  0  0  0
   60.0948   30.1827   33.2461 H   0  0  0  0  0
  6  1  1  0  0  0
  3  2  1  0  0  0
  4  3  1  0  0  0
  3  5  2  0  0  0
  6  7  2  0  0  0
  8  6  1  0  0  0
  8  9  4  0  0  0
 13  8  4  0  0  0
  9 10  4  0  0  0
 11 10  4  0  0  0
 12 11  4  0  0  0
 13 12  4  0  0  0
 14 13  1  0  0  0
 14 15  2  0  0  0
 16 14  1  0  0  0
 17 16  1  0  0  0
 18 17  1  0  0  0
 20 17  1  0  0  0
 19 18  1  0  0  0
 22 19  1  0  0  0
 21 20  1  0  0  0
 22 21  1  0  0  0
 23 22  1  0  0  0
 23 24  2  0  0  0
 25 23  1  0  0  0
 26 25  1  0  0  0
 27 26  1  0  0  0
 31 27  1  0  0  0
 30 28  1  0  0  0
 28 31  1  0  0  0
 29 30  1  0  0  0
 29  4  1  0  0  0
  1 32  1  0  0  0
  2 33  1  0  0  0
  2 34  1  0  0  0
  2 35  1  0  0  0
  4 36  1  0  0  0
 10 37  1  0  0  0
 11 38  1  0  0  0
 16 39  1  0  0  0
 17 40  1  0  0  0
 18 41  1  0  0  0
 18 42  1  0  0  0
 19 43  1  0  0  0
 19 44  1  0  0  0
 20 45  1  0  0  0
 20 46  1  0  0  0
 21 47  1  0  0  0
 21 48  1  0  0  0
 22 49  1  0  0  0
 25 50  1  0  0  0
 26 51  1  0  0  0
 26 52  1  0  0  0
 27 53  1  0  0  0
 27 54  1  0  0  0
 29 55  1  0  0  0
 29 56  1  0  0  0
 30 57  1  0  0  0
 30 58  1  0  0  0
M  END
$$$$
