3qcf_ligand
  -I-interpret- 

 26 27  0  0  0  0  0  0  0  0999 V2000
   34.0070   54.7180   78.7580 C   0  0  0  0  0
   34.5100   53.4320   78.2500 C   0  0  0  0  0
   33.4780   56.0930   77.8450 S   0  0  0  0  0
   34.1360   54.5030   80.0520 C   0  0  0  0  0
   34.9070   52.3200   79.6580 S   0  0  0  0  0
   34.6590   53.1560   76.7950 C   0  0  0  0  0
   32.7230   57.0810   79.1360 C   0  0  0  0  0
   34.5380   53.5680   80.8870 C   0  0  0  0  0
   34.8770   51.9930   76.3930 O   0  0  0  0  0
   34.5700   54.1210   76.0120 O   0  0  0  0  0
   31.8910   58.1520   78.4670 C   0  0  0  0  0
   30.5020   57.8810   78.3540 C   0  0  0  0  0
   32.5140   59.3860   78.0260 C   0  0  0  0  0
   29.7400   58.9370   77.8230 C   0  0  0  0  0
   31.7530   60.4390   77.4570 C   0  0  0  0  0
   30.3560   60.1660   77.3920 C   0  0  0  0  0
   28.0490   58.7760   77.8350 Cl  0  0  0  0  0
   29.3240   61.4280   76.8200 Cl  0  0  0  0  0
   33.8037   55.3793   80.6085 H   0  0  0  0  0
   33.4896   57.5335   79.7651 H   0  0  0  0  0
   32.0970   56.4574   79.7742 H   0  0  0  0  0
   34.6196   53.5573   81.9739 H   0  0  0  0  0
   34.9100   51.3967   77.1446 H   0  0  0  0  0
   30.0614   56.9305   78.6548 H   0  0  0  0  0
   33.5919   59.5066   78.1345 H   0  0  0  0  0
   32.1954   61.3700   77.1026 H   0  0  0  0  0
  1  2  4  0  0  0
  1  3  1  0  0  0
  1  4  4  0  0  0
  2  5  4  0  0  0
  2  6  1  0  0  0
  3  7  1  0  0  0
  4  8  4  0  0  0
  5  8  4  0  0  0
  6  9  1  0  0  0
  6 10  2  0  0  0
  7 11  1  0  0  0
 11 12  4  0  0  0
 11 13  4  0  0  0
 12 14  4  0  0  0
 13 15  4  0  0  0
 14 16  4  0  0  0
 14 17  1  0  0  0
 15 16  4  0  0  0
 16 18  1  0  0  0
  4 19  1  0  0  0
  7 20  1  0  0  0
  7 21  1  0  0  0
  8 22  1  0  0  0
  9 23  1  0  0  0
 12 24  1  0  0  0
 13 25  1  0  0  0
 15 26  1  0  0  0
M  END
$$$$
