### 
### Created by X-TOOL on Mon Sep 10 21:13:09 2018
### 

@<TRIPOS>MOLECULE
2y8o_ligand
  122   123     1     0     0
SMALL
GAST_HUCK


@<TRIPOS>ATOM
      1 N         -31.4450   51.3640   -1.1860 N.4       1 ASN         0.2396
      2 CA        -31.4660   50.0100   -0.6380 C.3       1 ASN         0.0820
      3 C         -31.4170   50.0110    0.8860 C.2       1 ASN         0.2316
      4 O         -30.5670   50.6670    1.4830 O.2       1 ASN        -0.3903
      5 CB        -30.2690   49.2050   -1.1510 C.3       1 ASN         0.0972
      6 CG        -30.5520   48.4810   -2.4610 C.2       1 ASN         0.1813
      7 OD1       -31.4380   48.8700   -3.2370 O.2       1 ASN        -0.3969
      8 ND2       -29.7820   47.4170   -2.7180 N.am      1 ASN        -0.3006
      9 N         -32.3240   49.2660    1.5270 N.am      1 PRO        -0.2470
     10 CA        -32.1610   49.0900    2.9790 C.3       1 PRO         0.1339
     11 C         -30.8950   48.2830    3.3280 C.2       1 PRO         0.2039
     12 O         -30.4400   47.5020    2.4940 O.2       1 PRO        -0.3944
     13 CB        -33.4390   48.3500    3.3980 C.3       1 PRO        -0.0104
     14 CG        -34.0670   47.8460    2.1230 C.3       1 PRO        -0.0281
     15 CD        -33.6030   48.7340    1.0210 C.3       1 PRO         0.0371
     16 N         -30.3310   48.4810    4.5210 N.am      1 GLY        -0.2664
     17 CA        -29.1010   47.8010    4.9200 C.3       1 GLY         0.1201
     18 C         -29.3400   46.6800    5.9250 C.2       1 GLY         0.2007
     19 O         -30.3660   46.6770    6.6040 O.2       1 GLY        -0.3947
     20 N         -28.4040   45.7330    6.0290 N.am      1 LEU        -0.2640
     21 CA        -28.5650   44.5910    6.9370 C.3       1 LEU         0.1312
     22 C         -27.2590   44.1920    7.6070 C.2       1 LEU         0.2039
     23 O         -26.1820   44.3160    7.0130 O.2       1 LEU        -0.3944
     24 CB        -29.1190   43.3760    6.1850 C.3       1 LEU        -0.0101
     25 CG        -30.5610   43.4850    5.6850 C.3       1 LEU        -0.0425
     26 CD1       -30.8980   42.2870    4.8270 C.3       1 LEU        -0.0625
     27 CD2       -31.5340   43.5840    6.8650 C.3       1 LEU        -0.0625
     28 N         -27.3670   43.7180    8.8510 N.am      1 LYS        -0.2637
     29 CA        -26.2550   43.0920    9.5510 C.3       1 LYS         0.1310
     30 C         -26.1460   41.6610    9.0570 C.2       1 LYS         0.2039
     31 O         -27.1550   40.9520    8.9820 O.2       1 LYS        -0.3944
     32 CB        -26.5070   43.0510   11.0620 C.3       1 LYS        -0.0122
     33 CG        -26.5660   44.4050   11.7450 C.3       1 LYS        -0.0440
     34 CD        -27.3580   44.3320   13.0530 C.3       1 LYS        -0.0124
     35 CE        -27.3350   45.6690   13.7760 C.3       1 LYS        -0.0354
     36 NZ        -27.8910   45.5660   15.1390 N.4       1 LYS         0.2185
     37 N         -24.9280   41.2410    8.7280 N.am      1 ILE        -0.2635
     38 CA        -24.6640   39.8770    8.2950 C.3       1 ILE         0.1337
     39 C         -23.9120   39.1580    9.3940 C.2       1 ILE         0.2067
     40 O         -22.8190   39.5720    9.7620 O.2       1 ILE        -0.3942
     41 CB        -23.7980   39.8580    7.0290 C.3       1 ILE        -0.0037
     42 CG1       -24.6740   40.0070    5.7930 C.3       1 ILE        -0.0491
     43 CG2       -23.0150   38.5600    6.9370 C.3       1 ILE        -0.0582
     44 CD1       -25.2660   41.3630    5.6370 C.3       1 ILE        -0.0648
     45 N         -24.4860   38.0740    9.9280 N.am      1 PRO        -0.2498
     46 CA        -23.8080   37.4340   11.0610 C.3       1 PRO         0.1337
     47 C         -22.4470   36.8440   10.6630 C.2       1 PRO         0.2035
     48 O         -22.2860   36.3800    9.5330 O.2       1 PRO        -0.3944
     49 CB        -24.7870   36.3360   11.4830 C.3       1 PRO        -0.0104
     50 CG        -25.5920   36.0390   10.2560 C.3       1 PRO        -0.0281
     51 CD        -25.6710   37.3220    9.4760 C.3       1 PRO         0.0369
     52 N         -21.4770   36.8740   11.5730 N.am      1 LYS        -0.2697
     53 CA        -21.6630   37.4530   12.8960 C.3       1 LYS         0.0916
     54 C         -20.3110   37.8200   13.4920 C.2       1 LYS         0.0598
     55 O         -19.3051   37.0855   13.3015 O.co2     1 LYS        -0.5666
     56 CB        -22.3890   36.4660   13.8130 C.3       1 LYS        -0.0300
     57 H         -32.2484   51.8845   -0.8339 H         1 ASN         0.2017
     58 H         -30.5842   51.8314   -0.9013 H         1 ASN         0.2017
     59 H         -31.4877   51.3182   -2.2041 H         1 ASN         0.2017
     60 H         -32.4016   49.5562   -0.9648 H         1 ASN         0.1125
     61 H         -30.0314   48.4508   -0.4007 H         1 ASN         0.0585
     62 H         -29.4519   49.9041   -1.3291 H         1 ASN         0.0585
     63 H         -29.9121   46.8899   -3.5815 H         1 ASN         0.1814
     64 H         -29.0650   47.1331   -2.0504 H         1 ASN         0.1814
     65 H         -32.0305   50.0382    3.5005 H         1 PRO         0.0802
     66 H         -34.1179   49.0105    3.9373 H         1 PRO         0.0313
     67 H         -33.2136   47.5283    4.0778 H         1 PRO         0.0313
     68 H         -35.1543   47.8641    2.1979 H         1 PRO         0.0287
     69 H         -33.7732   46.8137    1.9330 H         1 PRO         0.0287
     70 H         -33.4914   48.2042    0.0750 H         1 PRO         0.0524
     71 H         -34.3204   49.5205    0.7865 H         1 PRO         0.0524
     72 H         -30.7725   49.1274    5.1749 H         1 GLY         0.1881
     73 H         -28.4521   48.5383    5.3927 H         1 GLY         0.0763
     74 H         -28.6614   47.3580    4.0264 H         1 GLY         0.0763
     75 H         -27.5576   45.8050    5.4643 H         1 LEU         0.1883
     76 H         -29.2652   44.9108    7.7088 H         1 LEU         0.0800
     77 H         -29.1065   42.5490    6.8950 H         1 LEU         0.0315
     78 H         -28.4983   43.2612    5.2964 H         1 LEU         0.0315
     79 H         -30.6569   44.3904    5.0856 H         1 LEU         0.0298
     80 H         -30.2217   42.2516    3.9729 H         1 LEU         0.0232
     81 H         -30.7884   41.3769    5.4168 H         1 LEU         0.0232
     82 H         -31.9260   42.3716    4.4747 H         1 LEU         0.0232
     83 H         -31.4411   42.6934    7.4866 H         1 LEU         0.0232
     84 H         -31.2966   44.4680    7.4568 H         1 LEU         0.0232
     85 H         -32.5538   43.6607    6.4879 H         1 LEU         0.0232
     86 H         -28.2643   43.7979    9.3294 H         1 LYS         0.1883
     87 H         -25.3468   43.6639    9.3606 H         1 LYS         0.0800
     88 H         -25.6680   42.5139   11.5045 H         1 LYS         0.0312
     89 H         -27.4828   42.5865   11.2038 H         1 LYS         0.0312
     90 H         -27.0616   45.1099   11.0774 H         1 LYS         0.0269
     91 H         -25.5489   44.7246   11.9718 H         1 LYS         0.0269
     92 H         -26.9043   43.5778   13.6960 H         1 LYS         0.0317
     93 H         -28.3921   44.0755   12.8229 H         1 LYS         0.0317
     94 H         -27.9440   46.3743   13.2105 H         1 LYS         0.0813
     95 H         -26.2989   45.9985   13.8531 H         1 LYS         0.0813
     96 H         -27.8576   46.4810   15.5886 H         1 LYS         0.1994
     97 H         -28.8583   45.2465   15.0871 H         1 LYS         0.1994
     98 H         -27.3401   44.8996   15.6802 H         1 LYS         0.1994
     99 H         -24.1503   41.8989    8.7811 H         1 ILE         0.1883
    100 H         -25.6156   39.3906    8.0804 H         1 ILE         0.0803
    101 H         -23.0983   40.6921    7.0819 H         1 ILE         0.0345
    102 H         -25.4989   39.3015    5.8921 H         1 ILE         0.0267
    103 H         -24.0426   39.8258    4.9232 H         1 ILE         0.0267
    104 H         -22.3686   38.4645    7.8094 H         1 ILE         0.0235
    105 H         -23.7090   37.7201    6.9037 H         1 ILE         0.0235
    106 H         -22.4074   38.5670    6.0321 H         1 ILE         0.0235
    107 H         -25.8870   41.5889    6.5039 H         1 ILE         0.0230
    108 H         -24.4669   42.1002    5.5590 H         1 ILE         0.0230
    109 H         -25.8763   41.3899    4.7343 H         1 ILE         0.0230
    110 H         -23.5797   38.1384   11.8608 H         1 PRO         0.0802
    111 H         -25.4185   36.6557   12.3119 H         1 PRO         0.0313
    112 H         -24.2667   35.4504   11.8479 H         1 PRO         0.0313
    113 H         -26.5871   35.6807   10.5195 H         1 PRO         0.0287
    114 H         -25.1256   35.2510    9.6647 H         1 PRO         0.0287
    115 H         -25.6743   37.1561    8.3987 H         1 PRO         0.0524
    116 H         -26.6010   37.8621    9.6537 H         1 PRO         0.0524
    117 H         -20.5684   36.4763   11.3349 H         1 LYS         0.1875
    118 H         -22.2709   38.3530   12.8039 H         1 LYS         0.0723
    119 O         -20.1969   38.8680   14.1822 O.co2     1 LYS        -0.5666
    120 H         -23.3644   36.2279   13.3887 H         1 LYS         0.0270
    121 H         -21.7984   35.5544   13.9036 H         1 LYS         0.0270
    122 H         -22.5195   36.9153   14.7975 H         1 LYS         0.0270
@<TRIPOS>BOND
     1    1    2 1  
     2    2    3 1  
     3    2    5 1  
     4    3    4 2  
     5    3    9 am 
     6    5    6 1  
     7    6    7 2  
     8    6    8 am 
     9    9   10 1  
    10    9   15 1  
    11   10   11 1  
    12   10   13 1  
    13   11   12 2  
    14   11   16 am 
    15   13   14 1  
    16   14   15 1  
    17   16   17 1  
    18   17   18 1  
    19   18   19 2  
    20   18   20 am 
    21   20   21 1  
    22   21   22 1  
    23   21   24 1  
    24   22   23 2  
    25   22   28 am 
    26   24   25 1  
    27   25   26 1  
    28   25   27 1  
    29   28   29 1  
    30   29   30 1  
    31   29   32 1  
    32   30   31 2  
    33   30   37 am 
    34   32   33 1  
    35   33   34 1  
    36   34   35 1  
    37   35   36 1  
    38   37   38 1  
    39   38   39 1  
    40   38   41 1  
    41   39   40 2  
    42   39   45 am 
    43   41   42 1  
    44   41   43 1  
    45   42   44 1  
    46   45   46 1  
    47   45   51 1  
    48   46   47 1  
    49   46   49 1  
    50   47   48 2  
    51   47   52 am 
    52   49   50 1  
    53   50   51 1  
    54   52   53 1  
    55   53   54 1  
    56   53   56 1  
    57   54   55 ar 
    58    1   57 1  
    59    1   58 1  
    60    1   59 1  
    61    2   60 1  
    62    5   61 1  
    63    5   62 1  
    64    8   63 1  
    65    8   64 1  
    66   10   65 1  
    67   13   66 1  
    68   13   67 1  
    69   14   68 1  
    70   14   69 1  
    71   15   70 1  
    72   15   71 1  
    73   16   72 1  
    74   17   73 1  
    75   17   74 1  
    76   20   75 1  
    77   21   76 1  
    78   24   77 1  
    79   24   78 1  
    80   25   79 1  
    81   26   80 1  
    82   26   81 1  
    83   26   82 1  
    84   27   83 1  
    85   27   84 1  
    86   27   85 1  
    87   28   86 1  
    88   29   87 1  
    89   32   88 1  
    90   32   89 1  
    91   33   90 1  
    92   33   91 1  
    93   34   92 1  
    94   34   93 1  
    95   35   94 1  
    96   35   95 1  
    97   36   96 1  
    98   36   97 1  
    99   36   98 1  
   100   37   99 1  
   101   38  100 1  
   102   41  101 1  
   103   42  102 1  
   104   42  103 1  
   105   43  104 1  
   106   43  105 1  
   107   43  106 1  
   108   44  107 1  
   109   44  108 1  
   110   44  109 1  
   111   46  110 1  
   112   49  111 1  
   113   49  112 1  
   114   50  113 1  
   115   50  114 1  
   116   51  115 1  
   117   51  116 1  
   118   52  117 1  
   119   53  118 1  
   120   54  119 ar 
   121   56  120 1  
   122   56  121 1  
   123   56  122 1  
@<TRIPOS>SUBSTRUCTURE
     1 ASN         1

