2y8o_ligand
  -I-interpret- 

123124  0  0  0  0  0  0  0  0999 V2000
  -31.4450   51.3640   -1.1860 N   0  3  0  0  0
  -31.4660   50.0100   -0.6380 C   0  0  0  0  0
  -31.4170   50.0110    0.8860 C   0  0  0  0  0
  -30.5670   50.6670    1.4830 O   0  0  0  0  0
  -30.2690   49.2050   -1.1510 C   0  0  0  0  0
  -30.5520   48.4810   -2.4610 C   0  0  0  0  0
  -31.4380   48.8700   -3.2370 O   0  0  0  0  0
  -29.7820   47.4170   -2.7180 N   0  0  0  0  0
  -32.3240   49.2660    1.5270 N   0  0  0  0  0
  -32.1610   49.0900    2.9790 C   0  0  0  0  0
  -30.8950   48.2830    3.3280 C   0  0  0  0  0
  -30.4400   47.5020    2.4940 O   0  0  0  0  0
  -33.4390   48.3500    3.3980 C   0  0  0  0  0
  -34.0670   47.8460    2.1230 C   0  0  0  0  0
  -33.6030   48.7340    1.0210 C   0  0  0  0  0
  -30.3310   48.4810    4.5210 N   0  0  0  0  0
  -29.1010   47.8010    4.9200 C   0  0  0  0  0
  -29.3400   46.6800    5.9250 C   0  0  0  0  0
  -30.3660   46.6770    6.6040 O   0  0  0  0  0
  -28.4040   45.7330    6.0290 N   0  0  0  0  0
  -28.5650   44.5910    6.9370 C   0  0  0  0  0
  -27.2590   44.1920    7.6070 C   0  0  0  0  0
  -26.1820   44.3160    7.0130 O   0  0  0  0  0
  -29.1190   43.3760    6.1850 C   0  0  0  0  0
  -30.5610   43.4850    5.6850 C   0  0  0  0  0
  -30.8980   42.2870    4.8270 C   0  0  0  0  0
  -31.5340   43.5840    6.8650 C   0  0  0  0  0
  -27.3670   43.7180    8.8510 N   0  0  0  0  0
  -26.2550   43.0920    9.5510 C   0  0  0  0  0
  -26.1460   41.6610    9.0570 C   0  0  0  0  0
  -27.1550   40.9520    8.9820 O   0  0  0  0  0
  -26.5070   43.0510   11.0620 C   0  0  0  0  0
  -26.5660   44.4050   11.7450 C   0  0  0  0  0
  -27.3580   44.3320   13.0530 C   0  0  0  0  0
  -27.3350   45.6690   13.7760 C   0  0  0  0  0
  -27.8910   45.5660   15.1390 N   0  3  0  0  0
  -24.9280   41.2410    8.7280 N   0  0  0  0  0
  -24.6640   39.8770    8.2950 C   0  0  0  0  0
  -23.9120   39.1580    9.3940 C   0  0  0  0  0
  -22.8190   39.5720    9.7620 O   0  0  0  0  0
  -23.7980   39.8580    7.0290 C   0  0  0  0  0
  -24.6740   40.0070    5.7930 C   0  0  0  0  0
  -23.0150   38.5600    6.9370 C   0  0  0  0  0
  -25.2660   41.3630    5.6370 C   0  0  0  0  0
  -24.4860   38.0740    9.9280 N   0  0  0  0  0
  -23.8080   37.4340   11.0610 C   0  0  0  0  0
  -22.4470   36.8440   10.6630 C   0  0  0  0  0
  -22.2860   36.3800    9.5330 O   0  0  0  0  0
  -24.7870   36.3360   11.4830 C   0  0  0  0  0
  -25.5920   36.0390   10.2560 C   0  0  0  0  0
  -25.6710   37.3220    9.4760 C   0  0  0  0  0
  -21.4770   36.8740   11.5730 N   0  0  0  0  0
  -21.6630   37.4530   12.8960 C   0  0  0  0  0
  -20.3110   37.8200   13.4920 C   0  0  0  0  0
  -19.3051   37.0855   13.3015 O   0  0  0  0  0
  -22.3890   36.4660   13.8130 C   0  0  0  0  0
  -20.1969   38.8680   14.1822 O   0  0  0  0  0
  -32.2484   51.8845   -0.8339 H   0  0  0  0  0
  -30.5842   51.8314   -0.9013 H   0  0  0  0  0
  -31.4877   51.3182   -2.2041 H   0  0  0  0  0
  -32.4016   49.5562   -0.9648 H   0  0  0  0  0
  -30.0314   48.4508   -0.4007 H   0  0  0  0  0
  -29.4519   49.9041   -1.3291 H   0  0  0  0  0
  -29.9121   46.8899   -3.5815 H   0  0  0  0  0
  -29.0650   47.1331   -2.0504 H   0  0  0  0  0
  -32.0305   50.0382    3.5005 H   0  0  0  0  0
  -34.1179   49.0105    3.9373 H   0  0  0  0  0
  -33.2136   47.5283    4.0778 H   0  0  0  0  0
  -35.1543   47.8641    2.1979 H   0  0  0  0  0
  -33.7732   46.8137    1.9330 H   0  0  0  0  0
  -33.4914   48.2042    0.0750 H   0  0  0  0  0
  -34.3204   49.5205    0.7865 H   0  0  0  0  0
  -30.7725   49.1274    5.1749 H   0  0  0  0  0
  -28.4521   48.5383    5.3927 H   0  0  0  0  0
  -28.6614   47.3580    4.0264 H   0  0  0  0  0
  -27.5576   45.8050    5.4643 H   0  0  0  0  0
  -29.2652   44.9108    7.7088 H   0  0  0  0  0
  -29.1065   42.5490    6.8950 H   0  0  0  0  0
  -28.4983   43.2612    5.2964 H   0  0  0  0  0
  -30.6569   44.3904    5.0856 H   0  0  0  0  0
  -30.2217   42.2516    3.9729 H   0  0  0  0  0
  -30.7884   41.3769    5.4168 H   0  0  0  0  0
  -31.9260   42.3716    4.4747 H   0  0  0  0  0
  -31.4411   42.6934    7.4866 H   0  0  0  0  0
  -31.2966   44.4680    7.4568 H   0  0  0  0  0
  -32.5538   43.6607    6.4879 H   0  0  0  0  0
  -28.2643   43.7979    9.3294 H   0  0  0  0  0
  -25.3468   43.6639    9.3606 H   0  0  0  0  0
  -25.6680   42.5139   11.5045 H   0  0  0  0  0
  -27.4828   42.5865   11.2038 H   0  0  0  0  0
  -27.0616   45.1099   11.0774 H   0  0  0  0  0
  -25.5489   44.7246   11.9718 H   0  0  0  0  0
  -26.9043   43.5778   13.6960 H   0  0  0  0  0
  -28.3921   44.0755   12.8229 H   0  0  0  0  0
  -27.9440   46.3743   13.2105 H   0  0  0  0  0
  -26.2989   45.9985   13.8531 H   0  0  0  0  0
  -27.8576   46.4810   15.5886 H   0  0  0  0  0
  -28.8583   45.2465   15.0871 H   0  0  0  0  0
  -27.3401   44.8996   15.6802 H   0  0  0  0  0
  -24.1503   41.8989    8.7811 H   0  0  0  0  0
  -25.6156   39.3906    8.0804 H   0  0  0  0  0
  -23.0983   40.6921    7.0819 H   0  0  0  0  0
  -25.4989   39.3015    5.8921 H   0  0  0  0  0
  -24.0426   39.8258    4.9232 H   0  0  0  0  0
  -22.3686   38.4645    7.8094 H   0  0  0  0  0
  -23.7090   37.7201    6.9037 H   0  0  0  0  0
  -22.4074   38.5670    6.0321 H   0  0  0  0  0
  -25.8870   41.5889    6.5039 H   0  0  0  0  0
  -24.4669   42.1002    5.5590 H   0  0  0  0  0
  -25.8763   41.3899    4.7343 H   0  0  0  0  0
  -23.5797   38.1384   11.8608 H   0  0  0  0  0
  -25.4185   36.6557   12.3119 H   0  0  0  0  0
  -24.2667   35.4504   11.8479 H   0  0  0  0  0
  -26.5871   35.6807   10.5195 H   0  0  0  0  0
  -25.1256   35.2510    9.6647 H   0  0  0  0  0
  -25.6743   37.1561    8.3987 H   0  0  0  0  0
  -26.6010   37.8621    9.6537 H   0  0  0  0  0
  -20.5684   36.4763   11.3349 H   0  0  0  0  0
  -22.2709   38.3530   12.8039 H   0  0  0  0  0
  -23.3644   36.2279   13.3887 H   0  0  0  0  0
  -21.7984   35.5544   13.9036 H   0  0  0  0  0
  -22.5195   36.9153   14.7975 H   0  0  0  0  0
  -21.0469   39.3114   14.2316 H   0  0  0  0  0
  1  2  1  0  0  0
  2  3  1  0  0  0
  2  5  1  0  0  0
  3  4  2  0  0  0
  3  9  1  0  0  0
  5  6  1  0  0  0
  6  7  2  0  0  0
  6  8  1  0  0  0
  9 10  1  0  0  0
  9 15  1  0  0  0
 10 11  1  0  0  0
 10 13  1  0  0  0
 11 12  2  0  0  0
 11 16  1  0  0  0
 13 14  1  0  0  0
 14 15  1  0  0  0
 16 17  1  0  0  0
 17 18  1  0  0  0
 18 19  2  0  0  0
 18 20  1  0  0  0
 20 21  1  0  0  0
 21 22  1  0  0  0
 21 24  1  0  0  0
 22 23  2  0  0  0
 22 28  1  0  0  0
 24 25  1  0  0  0
 25 26  1  0  0  0
 25 27  1  0  0  0
 28 29  1  0  0  0
 29 30  1  0  0  0
 29 32  1  0  0  0
 30 31  2  0  0  0
 30 37  1  0  0  0
 32 33  1  0  0  0
 33 34  1  0  0  0
 34 35  1  0  0  0
 35 36  1  0  0  0
 37 38  1  0  0  0
 38 39  1  0  0  0
 38 41  1  0  0  0
 39 40  2  0  0  0
 39 45  1  0  0  0
 41 42  1  0  0  0
 41 43  1  0  0  0
 42 44  1  0  0  0
 45 46  1  0  0  0
 45 51  1  0  0  0
 46 47  1  0  0  0
 46 49  1  0  0  0
 47 48  2  0  0  0
 47 52  1  0  0  0
 49 50  1  0  0  0
 50 51  1  0  0  0
 52 53  1  0  0  0
 53 54  1  0  0  0
 53 56  1  0  0  0
 54 55  2  0  0  0
 54 57  1  0  0  0
  1 58  1  0  0  0
  1 59  1  0  0  0
  1 60  1  0  0  0
  2 61  1  0  0  0
  5 62  1  0  0  0
  5 63  1  0  0  0
  8 64  1  0  0  0
  8 65  1  0  0  0
 10 66  1  0  0  0
 13 67  1  0  0  0
 13 68  1  0  0  0
 14 69  1  0  0  0
 14 70  1  0  0  0
 15 71  1  0  0  0
 15 72  1  0  0  0
 16 73  1  0  0  0
 17 74  1  0  0  0
 17 75  1  0  0  0
 20 76  1  0  0  0
 21 77  1  0  0  0
 24 78  1  0  0  0
 24 79  1  0  0  0
 25 80  1  0  0  0
 26 81  1  0  0  0
 26 82  1  0  0  0
 26 83  1  0  0  0
 27 84  1  0  0  0
 27 85  1  0  0  0
 27 86  1  0  0  0
 28 87  1  0  0  0
 29 88  1  0  0  0
 32 89  1  0  0  0
 32 90  1  0  0  0
 33 91  1  0  0  0
 33 92  1  0  0  0
 34 93  1  0  0  0
 34 94  1  0  0  0
 35 95  1  0  0  0
 35 96  1  0  0  0
 36 97  1  0  0  0
 36 98  1  0  0  0
 36 99  1  0  0  0
 37100  1  0  0  0
 38101  1  0  0  0
 41102  1  0  0  0
 42103  1  0  0  0
 42104  1  0  0  0
 43105  1  0  0  0
 43106  1  0  0  0
 43107  1  0  0  0
 44108  1  0  0  0
 44109  1  0  0  0
 44110  1  0  0  0
 46111  1  0  0  0
 49112  1  0  0  0
 49113  1  0  0  0
 50114  1  0  0  0
 50115  1  0  0  0
 51116  1  0  0  0
 51117  1  0  0  0
 52118  1  0  0  0
 53119  1  0  0  0
 56120  1  0  0  0
 56121  1  0  0  0
 56122  1  0  0  0
 57123  1  0  0  0
M  END
$$$$
