4amx_ligand
  -I-interpret- 

 23 23  0  0  0  0  0  0  0  0999 V2000
   -0.9100  -22.3080  -22.0380 O   0  0  0  0  0
   -0.1420  -23.0950  -21.0930 C   0  0  0  0  0
   -1.5630  -20.1530  -21.9200 F   0  0  0  0  0
   -0.0370  -22.4280  -19.6940 C   0  0  0  0  0
   -1.1090  -22.7940  -18.8010 O   0  0  0  0  0
    0.0760  -20.9100  -19.8000 C   0  0  0  0  0
    0.9620  -20.4190  -18.7850 O   0  0  0  0  0
    0.5680  -20.5420  -21.1960 C   0  0  0  0  0
    0.8690  -19.1440  -21.2870 O   0  0  0  0  0
   -0.0720  -20.6440  -23.6250 C   0  0  0  0  0
    0.9140  -21.5820  -24.0610 O   0  0  0  0  0
   -0.5190  -20.9250  -22.1910 C   0  0  0  0  0
    0.8682  -23.1976  -21.4892 H   0  0  0  0  0
   -0.6486  -24.0520  -20.9680 H   0  0  0  0  0
    0.8823  -22.8169  -19.2561 H   0  0  0  0  0
   -1.1658  -23.7508  -18.7462 H   0  0  0  0  0
   -0.8987  -20.4474  -19.6448 H   0  0  0  0  0
    0.6252  -20.6665  -17.9208 H   0  0  0  0  0
    1.4896  -21.0804  -21.4171 H   0  0  0  0  0
    1.5552  -18.9236  -20.6528 H   0  0  0  0  0
   -0.9399  -20.7270  -24.2792 H   0  0  0  0  0
    0.3627  -19.6451  -23.6611 H   0  0  0  0  0
    1.1720  -21.3775  -24.9628 H   0  0  0  0  0
  1  2  1  0  0  0
 12  1  1  0  0  0
  2  4  1  0  0  0
 12  3  1  0  0  0
  4  5  1  0  0  0
  6  4  1  0  0  0
  6  7  1  0  0  0
  8  6  1  0  0  0
  8  9  1  0  0  0
 12  8  1  0  0  0
 10 11  1  0  0  0
 10 12  1  0  0  0
  2 13  1  0  0  0
  2 14  1  0  0  0
  4 15  1  0  0  0
  5 16  1  0  0  0
  6 17  1  0  0  0
  7 18  1  0  0  0
  8 19  1  0  0  0
  9 20  1  0  0  0
 10 21  1  0  0  0
 10 22  1  0  0  0
 11 23  1  0  0  0
M  END
$$$$
