### 
### Created by X-TOOL on Mon Sep 10 21:13:11 2018
### 

@<TRIPOS>MOLECULE
3v2o_ligand
  170   172     1     0     0
SMALL
GAST_HUCK


@<TRIPOS>ATOM
      1 N           5.2110    2.1360   13.1090 N.4       1 LEU         0.2377
      2 CA          4.1710    3.1770   12.8790 C.3       1 LEU         0.0623
      3 C           2.9140    2.5590   12.2500 C.2       1 LEU         0.2289
      4 O           2.9510    2.1200   11.0960 O.2       1 LEU        -0.3905
      5 CB          4.7240    4.3100   12.0060 C.3       1 LEU        -0.0040
      6 N           1.8040    2.5140   13.0110 N.am      1 PRO        -0.2471
      7 CA          0.5370    1.9440   12.5430 C.3       1 PRO         0.1339
      8 C           0.1110    2.5430   11.2030 C.2       1 PRO         0.2042
      9 O           0.0700    3.7660   11.0690 O.2       1 PRO        -0.3944
     10 CB         -0.4470    2.3490   13.6370 C.3       1 PRO        -0.0104
     11 CG          0.3840    2.5070   14.8440 C.3       1 PRO        -0.0281
     12 CD          1.6730    3.0770   14.3650 C.3       1 PRO         0.0371
     13 N          -0.1860    1.6900   10.2240 N.am      1 THR        -0.2613
     14 CA         -0.4210    2.1520    8.8530 C.3       1 THR         0.1565
     15 C          -1.6880    1.5620    8.2550 C.2       1 THR         0.2065
     16 O          -1.9980    0.3920    8.4520 O.2       1 THR        -0.3943
     17 CB          0.7620    1.8030    7.8950 C.3       1 THR         0.0924
     18 OG1         2.0120    1.9220    8.5840 O.3       1 THR        -0.3874
     19 CG2         0.7780    2.7330    6.6900 C.3       1 THR        -0.0346
     20 N          -2.3980    2.3830    7.4990 N.am      1 LEU        -0.2636
     21 CA         -3.5460    1.9110    6.7550 C.3       1 LEU         0.1314
     22 C          -3.1250    1.6760    5.3170 C.2       1 LEU         0.2064
     23 O          -2.2830    2.4050    4.8010 O.2       1 LEU        -0.3942
     24 CB         -4.6880    2.9240    6.8350 C.3       1 LEU        -0.0101
     25 CG         -5.2690    3.1440    8.2320 C.3       1 LEU        -0.0425
     26 CD1        -6.0670    4.4260    8.2770 C.3       1 LEU        -0.0625
     27 CD2        -6.1250    1.9710    8.6800 C.3       1 LEU        -0.0625
     28 N          -3.7090    0.6550    4.6710 N.am      1 PRO        -0.2498
     29 CA         -3.4400    0.3460    3.2740 C.3       1 PRO         0.1338
     30 C          -3.8260    1.4810    2.3530 C.2       1 PRO         0.2041
     31 O          -4.8210    2.1670    2.5810 O.2       1 PRO        -0.3944
     32 CB         -4.3460   -0.8580    2.9930 C.3       1 PRO        -0.0104
     33 CG         -5.4190   -0.7650    4.0060 C.3       1 PRO        -0.0281
     34 CD         -4.7520   -0.2210    5.2300 C.3       1 PRO         0.0369
     35 N          -3.0280    1.6820    1.3130 N.am      1 LYS        -0.2637
     36 CA         -3.3670    2.6550    0.2860 C.3       1 LYS         0.1310
     37 C          -4.5420    2.0730   -0.4840 C.2       1 LYS         0.2039
     38 O          -4.4700    0.9500   -0.9740 O.2       1 LYS        -0.3944
     39 CB         -2.1580    2.9250   -0.6220 C.3       1 LYS        -0.0122
     40 CG         -2.3220    4.0940   -1.5870 C.3       1 LYS        -0.0440
     41 CD         -2.6580    5.4020   -0.8730 C.3       1 LYS        -0.0124
     42 CE         -2.9510    6.5090   -1.8860 C.3       1 LYS        -0.0354
     43 NZ         -3.8740    7.5570   -1.3460 N.4       1 LYS         0.2185
     44 N          -5.6380    2.8120   -0.5400 N.am      1 LEU        -0.2637
     45 CA         -6.8290    2.3530   -1.2430 C.3       1 LEU         0.1314
     46 C          -6.8350    2.8360   -2.7050 C.2       1 LEU         0.2064
     47 O          -6.2050    3.8560   -3.0210 O.2       1 LEU        -0.3942
     48 CB         -8.0810    2.8450   -0.5190 C.3       1 LEU        -0.0101
     49 CG         -8.2790    2.3720    0.9240 C.3       1 LEU        -0.0425
     50 CD1        -9.4010    3.1340    1.5680 C.3       1 LEU        -0.0625
     51 CD2        -8.5580    0.8820    0.9770 C.3       1 LEU        -0.0625
     52 N          -7.5600    2.1150   -3.5910 N.am      1 PRO        -0.2498
     53 CA         -7.6700    2.4980   -5.0010 C.3       1 PRO         0.1338
     54 C          -8.1110    3.9470   -5.2200 C.2       1 PRO         0.2042
     55 O          -9.0390    4.4300   -4.5580 O.2       1 PRO        -0.3944
     56 CB         -8.7200    1.5310   -5.5420 C.3       1 PRO        -0.0104
     57 CG         -8.5710    0.3360   -4.7110 C.3       1 PRO        -0.0281
     58 CD         -8.1850    0.8020   -3.3450 C.3       1 PRO         0.0369
     59 N          -7.4370    4.6180   -6.1440 N.am      1 SER        -0.2616
     60 CA         -7.6400    6.0290   -6.4120 C.3       1 SER         0.1539
     61 C          -7.7620    6.1970   -7.9230 C.2       1 SER         0.2062
     62 O          -6.7870    5.9870   -8.6490 O.2       1 SER        -0.3943
     63 CB         -6.4520    6.8220   -5.8540 C.3       1 SER         0.0843
     64 OG         -6.5380    8.2010   -6.1720 O.3       1 SER        -0.3903
     65 N          -8.9540    6.5490   -8.4070 N.am      1 LEU        -0.2637
     66 CA         -9.2060    6.6110   -9.8510 C.3       1 LEU         0.1312
     67 C          -9.1640    8.0420  -10.3490 C.2       1 LEU         0.2034
     68 O          -9.6900    8.9460   -9.6960 O.2       1 LEU        -0.3944
     69 CB        -10.5720    6.0050  -10.1870 C.3       1 LEU        -0.0101
     70 CG        -10.8210    4.4880  -10.1520 C.3       1 LEU        -0.0425
     71 CD1        -9.9920    3.7070   -9.1390 C.3       1 LEU        -0.0625
     72 CD2       -12.3120    4.2480   -9.9230 C.3       1 LEU        -0.0625
     73 N          -8.5450    8.2480  -11.5100 N.am      1 SER        -0.2672
     74 CA         -8.5270    9.5610  -12.1550 C.3       1 SER         0.1173
     75 C          -9.9220    9.9490  -12.6640 C.2       1 SER         0.0623
     76 O         -10.8130    9.1060  -12.8020 O.co2     1 SER        -0.5665
     77 CB         -7.5090    9.5880  -13.2990 C.3       1 SER         0.0789
     78 OG         -7.9870    8.8790  -14.4300 O.3       1 SER        -0.3910
     79 OXT       -10.1880   11.1180  -12.9580 O.co2     1 SER        -0.5665
     80 H1          6.0265    2.5612   13.5216 H         1 LEU         0.2015
     81 H2          5.4619    1.7116   12.2298 H         1 LEU         0.2015
     82 H3          4.8486    1.4307   13.7313 H         1 LEU         0.2015
     83 H4          3.8907    3.6028   13.8538 H         1 LEU         0.1095
     84 H5          3.9415    5.0669   11.8485 H         1 LEU         0.0310
     85 H6          5.0412    3.9030   11.0345 H         1 LEU         0.0310
     86 H7          5.5860    4.7729   12.5087 H         1 LEU         0.0310
     87 H8          0.6063    0.8499   12.4528 H         1 PRO         0.0802
     88 H9         -1.2049    1.5660   13.7871 H         1 PRO         0.0313
     89 H10        -0.9441    3.2963   13.3810 H         1 PRO         0.0313
     90 H11         0.5500    1.5328   15.3272 H         1 PRO         0.0287
     91 H12        -0.0986    3.1922   15.5565 H         1 PRO         0.0287
     92 H13         1.6315    4.1758   14.3336 H         1 PRO         0.0524
     93 H14         2.5079    2.7598   15.0071 H         1 PRO         0.0524
     94 H15        -0.2500    0.7133   10.4288 H         1 THR         0.1884
     95 H16        -0.5291    3.2461    8.8868 H         1 THR         0.0826
     96 H17         0.6396    0.7669    7.5464 H         1 THR         0.0639
     97 H18         2.0236    1.3242    9.3222 H         1 THR         0.2101
     98 H19         1.6187    2.4667    6.0325 H         1 THR         0.0257
     99 H20         0.8939    3.7725    7.0306 H         1 THR         0.0257
    100 H21        -0.1670    2.6318    6.1361 H         1 THR         0.0257
    101 H22        -2.1369    3.3466    7.4406 H         1 LEU         0.1883
    102 H23        -3.8895    0.9598    7.1876 H         1 LEU         0.0800
    103 H24        -5.4998    2.5735    6.1806 H         1 LEU         0.0315
    104 H25        -4.3118    3.8901    6.4674 H         1 LEU         0.0315
    105 H26        -4.4291    3.2379    8.9361 H         1 LEU         0.0298
    106 H27        -6.4767    4.5676    9.2880 H         1 LEU         0.0232
    107 H28        -6.8920    4.3700    7.5516 H         1 LEU         0.0232
    108 H29        -5.4134    5.2739    8.0243 H         1 LEU         0.0232
    109 H30        -5.5297    1.0468    8.6414 H         1 LEU         0.0232
    110 H31        -6.9942    1.8754    8.0127 H         1 LEU         0.0232
    111 H32        -6.4707    2.1417    9.7102 H         1 LEU         0.0232
    112 H33        -2.3794    0.0939    3.1272 H         1 PRO         0.0802
    113 H34        -3.7870   -1.7987    3.1054 H         1 PRO         0.0313
    114 H35        -4.7651   -0.7995    1.9777 H         1 PRO         0.0313
    115 H36        -5.8466   -1.7581    4.2082 H         1 PRO         0.0287
    116 H37        -6.2143   -0.0857    3.6652 H         1 PRO         0.0287
    117 H38        -5.4611    0.3508    5.8466 H         1 PRO         0.0524
    118 H39        -4.3103   -1.0284    5.8325 H         1 PRO         0.0524
    119 H40        -2.1807    1.1569    1.2336 H         1 LYS         0.1883
    120 H41        -3.6707    3.6017    0.7567 H         1 LYS         0.0800
    121 H42        -1.9677    2.0181   -1.2147 H         1 LYS         0.0312
    122 H43        -1.2893    3.1325    0.0200 H         1 LYS         0.0312
    123 H44        -3.1336    3.8585   -2.2912 H         1 LYS         0.0269
    124 H45        -1.3818    4.2271   -2.1423 H         1 LYS         0.0269
    125 H46        -1.8045    5.7016   -0.2471 H         1 LYS         0.0317
    126 H47        -3.5431    5.2500   -0.2378 H         1 LYS         0.0317
    127 H48        -3.4133    6.0579   -2.7764 H         1 LYS         0.0813
    128 H49        -2.0018    6.9878   -2.1684 H         1 LYS         0.0813
    129 H50        -4.0334    8.2598   -2.0508 H         1 LYS         0.1994
    130 H51        -3.4583    7.9845   -0.5333 H         1 LYS         0.1994
    131 H52        -4.7517    7.1324   -1.0904 H         1 LYS         0.1994
    132 H53        -5.6493    3.7050   -0.0901 H         1 LEU         0.1883
    133 H54        -6.8315    1.2530   -1.2415 H         1 LEU         0.0800
    134 H55        -8.9534    2.5118   -1.1003 H         1 LEU         0.0315
    135 H56        -8.0469    3.9444   -0.5064 H         1 LEU         0.0315
    136 H57        -7.3537    2.5712    1.4844 H         1 LEU         0.0298
    137 H58        -9.5338    2.7861    2.6030 H         1 LEU         0.0232
    138 H59       -10.3298    2.9666    1.0029 H         1 LEU         0.0232
    139 H60        -9.1614    4.2076    1.5700 H         1 LEU         0.0232
    140 H61        -7.7290    0.3367    0.5023 H         1 LEU         0.0232
    141 H62        -9.4940    0.6649    0.4414 H         1 LEU         0.0232
    142 H63        -8.6533    0.5638    2.0257 H         1 LEU         0.0232
    143 H64        -6.7053    2.3464   -5.5072 H         1 PRO         0.0802
    144 H65        -8.5268    1.2972   -6.5993 H         1 PRO         0.0313
    145 H66        -9.7300    1.9543   -5.4387 H         1 PRO         0.0313
    146 H67        -7.7872   -0.3162   -5.1236 H         1 PRO         0.0287
    147 H68        -9.5218   -0.2155   -4.6677 H         1 PRO         0.0287
    148 H69        -9.0701    0.9029   -2.6997 H         1 PRO         0.0524
    149 H70        -7.4698    0.1073   -2.8805 H         1 PRO         0.0524
    150 H71        -6.7538    4.1261   -6.6837 H         1 SER         0.1884
    151 H72        -8.5653    6.3745   -5.9278 H         1 SER         0.0823
    152 H73        -5.5226    6.4165   -6.2803 H         1 SER         0.0606
    153 H74        -6.4329    6.7104   -4.7599 H         1 SER         0.0606
    154 H75        -5.7866    8.6558   -5.8100 H         1 SER         0.2097
    155 H76        -9.6922    6.7756   -7.7716 H         1 LEU         0.1883
    156 H77        -8.4244    6.0335  -10.3663 H         1 LEU         0.0800
    157 H78       -10.8113    6.3328  -11.2094 H         1 LEU         0.0315
    158 H79       -11.2887    6.4510   -9.4817 H         1 LEU         0.0315
    159 H80       -10.5596    4.0942  -11.1453 H         1 LEU         0.0298
    160 H81       -10.2495    2.6393   -9.1998 H         1 LEU         0.0232
    161 H82       -10.2057    4.0785   -8.1259 H         1 LEU         0.0232
    162 H83        -8.9227    3.8395   -9.3602 H         1 LEU         0.0232
    163 H84       -12.8930    4.8189  -10.6623 H         1 LEU         0.0232
    164 H85       -12.5849    4.5766   -8.9093 H         1 LEU         0.0232
    165 H86       -12.5319    3.1758  -10.0326 H         1 LEU         0.0232
    166 H87        -8.0788    7.4828  -11.9539 H         1 SER         0.1876
    167 H88        -8.2191   10.3044  -11.4050 H         1 SER         0.0749
    168 H89        -6.5718    9.1255  -12.9559 H         1 SER         0.0599
    169 H90        -7.3189   10.6330  -13.5851 H         1 SER         0.0599
    170 H91        -7.3366    8.9127  -15.1216 H         1 SER         0.2096
@<TRIPOS>BOND
     1    1    2 1  
     2    2    3 1  
     3    2    5 1  
     4    3    4 2  
     5    3    6 am 
     6    6    7 1  
     7    6   12 1  
     8    7    8 1  
     9    7   10 1  
    10    8    9 2  
    11    8   13 am 
    12   10   11 1  
    13   11   12 1  
    14   13   14 1  
    15   14   15 1  
    16   14   17 1  
    17   15   16 2  
    18   15   20 am 
    19   17   18 1  
    20   17   19 1  
    21   20   21 1  
    22   21   22 1  
    23   21   24 1  
    24   22   23 2  
    25   22   28 am 
    26   24   25 1  
    27   25   26 1  
    28   25   27 1  
    29   28   29 1  
    30   28   34 1  
    31   29   30 1  
    32   29   32 1  
    33   30   31 2  
    34   30   35 am 
    35   32   33 1  
    36   33   34 1  
    37   35   36 1  
    38   36   37 1  
    39   36   39 1  
    40   37   38 2  
    41   37   44 am 
    42   39   40 1  
    43   40   41 1  
    44   41   42 1  
    45   42   43 1  
    46   44   45 1  
    47   45   46 1  
    48   45   48 1  
    49   46   47 2  
    50   46   52 am 
    51   48   49 1  
    52   49   50 1  
    53   49   51 1  
    54   52   53 1  
    55   52   58 1  
    56   53   54 1  
    57   53   56 1  
    58   54   55 2  
    59   54   59 am 
    60   56   57 1  
    61   57   58 1  
    62   59   60 1  
    63   60   61 1  
    64   60   63 1  
    65   61   62 2  
    66   61   65 am 
    67   63   64 1  
    68   65   66 1  
    69   66   67 1  
    70   66   69 1  
    71   67   68 2  
    72   67   73 am 
    73   69   70 1  
    74   70   71 1  
    75   70   72 1  
    76   73   74 1  
    77   74   75 1  
    78   74   77 1  
    79   75   76 ar 
    80   75   79 ar 
    81   77   78 1  
    82    1   80 1  
    83    1   81 1  
    84    1   82 1  
    85    2   83 1  
    86    5   84 1  
    87    5   85 1  
    88    5   86 1  
    89    7   87 1  
    90   10   88 1  
    91   10   89 1  
    92   11   90 1  
    93   11   91 1  
    94   12   92 1  
    95   12   93 1  
    96   13   94 1  
    97   14   95 1  
    98   17   96 1  
    99   18   97 1  
   100   19   98 1  
   101   19   99 1  
   102   19  100 1  
   103   20  101 1  
   104   21  102 1  
   105   24  103 1  
   106   24  104 1  
   107   25  105 1  
   108   26  106 1  
   109   26  107 1  
   110   26  108 1  
   111   27  109 1  
   112   27  110 1  
   113   27  111 1  
   114   29  112 1  
   115   32  113 1  
   116   32  114 1  
   117   33  115 1  
   118   33  116 1  
   119   34  117 1  
   120   34  118 1  
   121   35  119 1  
   122   36  120 1  
   123   39  121 1  
   124   39  122 1  
   125   40  123 1  
   126   40  124 1  
   127   41  125 1  
   128   41  126 1  
   129   42  127 1  
   130   42  128 1  
   131   43  129 1  
   132   43  130 1  
   133   43  131 1  
   134   44  132 1  
   135   45  133 1  
   136   48  134 1  
   137   48  135 1  
   138   49  136 1  
   139   50  137 1  
   140   50  138 1  
   141   50  139 1  
   142   51  140 1  
   143   51  141 1  
   144   51  142 1  
   145   53  143 1  
   146   56  144 1  
   147   56  145 1  
   148   57  146 1  
   149   57  147 1  
   150   58  148 1  
   151   58  149 1  
   152   59  150 1  
   153   60  151 1  
   154   63  152 1  
   155   63  153 1  
   156   64  154 1  
   157   65  155 1  
   158   66  156 1  
   159   69  157 1  
   160   69  158 1  
   161   70  159 1  
   162   71  160 1  
   163   71  161 1  
   164   71  162 1  
   165   72  163 1  
   166   72  164 1  
   167   72  165 1  
   168   73  166 1  
   169   74  167 1  
   170   77  168 1  
   171   77  169 1  
   172   78  170 1  
@<TRIPOS>SUBSTRUCTURE
     1 LEU         1

