3v2o_ligand
  -I-interpret- 

171173  0  0  0  0  0  0  0  0999 V2000
    5.2110    2.1360   13.1090 N   0  3  0  0  0
    4.1710    3.1770   12.8790 C   0  0  0  0  0
    2.9140    2.5590   12.2500 C   0  0  0  0  0
    2.9510    2.1200   11.0960 O   0  0  0  0  0
    4.7240    4.3100   12.0060 C   0  0  0  0  0
    1.8040    2.5140   13.0110 N   0  0  0  0  0
    0.5370    1.9440   12.5430 C   0  0  0  0  0
    0.1110    2.5430   11.2030 C   0  0  0  0  0
    0.0700    3.7660   11.0690 O   0  0  0  0  0
   -0.4470    2.3490   13.6370 C   0  0  0  0  0
    0.3840    2.5070   14.8440 C   0  0  0  0  0
    1.6730    3.0770   14.3650 C   0  0  0  0  0
   -0.1860    1.6900   10.2240 N   0  0  0  0  0
   -0.4210    2.1520    8.8530 C   0  0  0  0  0
   -1.6880    1.5620    8.2550 C   0  0  0  0  0
   -1.9980    0.3920    8.4520 O   0  0  0  0  0
    0.7620    1.8030    7.8950 C   0  0  0  0  0
    2.0120    1.9220    8.5840 O   0  0  0  0  0
    0.7780    2.7330    6.6900 C   0  0  0  0  0
   -2.3980    2.3830    7.4990 N   0  0  0  0  0
   -3.5460    1.9110    6.7550 C   0  0  0  0  0
   -3.1250    1.6760    5.3170 C   0  0  0  0  0
   -2.2830    2.4050    4.8010 O   0  0  0  0  0
   -4.6880    2.9240    6.8350 C   0  0  0  0  0
   -5.2690    3.1440    8.2320 C   0  0  0  0  0
   -6.0670    4.4260    8.2770 C   0  0  0  0  0
   -6.1250    1.9710    8.6800 C   0  0  0  0  0
   -3.7090    0.6550    4.6710 N   0  0  0  0  0
   -3.4400    0.3460    3.2740 C   0  0  0  0  0
   -3.8260    1.4810    2.3530 C   0  0  0  0  0
   -4.8210    2.1670    2.5810 O   0  0  0  0  0
   -4.3460   -0.8580    2.9930 C   0  0  0  0  0
   -5.4190   -0.7650    4.0060 C   0  0  0  0  0
   -4.7520   -0.2210    5.2300 C   0  0  0  0  0
   -3.0280    1.6820    1.3130 N   0  0  0  0  0
   -3.3670    2.6550    0.2860 C   0  0  0  0  0
   -4.5420    2.0730   -0.4840 C   0  0  0  0  0
   -4.4700    0.9500   -0.9740 O   0  0  0  0  0
   -2.1580    2.9250   -0.6220 C   0  0  0  0  0
   -2.3220    4.0940   -1.5870 C   0  0  0  0  0
   -2.6580    5.4020   -0.8730 C   0  0  0  0  0
   -2.9510    6.5090   -1.8860 C   0  0  0  0  0
   -3.8740    7.5570   -1.3460 N   0  3  0  0  0
   -5.6380    2.8120   -0.5400 N   0  0  0  0  0
   -6.8290    2.3530   -1.2430 C   0  0  0  0  0
   -6.8350    2.8360   -2.7050 C   0  0  0  0  0
   -6.2050    3.8560   -3.0210 O   0  0  0  0  0
   -8.0810    2.8450   -0.5190 C   0  0  0  0  0
   -8.2790    2.3720    0.9240 C   0  0  0  0  0
   -9.4010    3.1340    1.5680 C   0  0  0  0  0
   -8.5580    0.8820    0.9770 C   0  0  0  0  0
   -7.5600    2.1150   -3.5910 N   0  0  0  0  0
   -7.6700    2.4980   -5.0010 C   0  0  0  0  0
   -8.1110    3.9470   -5.2200 C   0  0  0  0  0
   -9.0390    4.4300   -4.5580 O   0  0  0  0  0
   -8.7200    1.5310   -5.5420 C   0  0  0  0  0
   -8.5710    0.3360   -4.7110 C   0  0  0  0  0
   -8.1850    0.8020   -3.3450 C   0  0  0  0  0
   -7.4370    4.6180   -6.1440 N   0  0  0  0  0
   -7.6400    6.0290   -6.4120 C   0  0  0  0  0
   -7.7620    6.1970   -7.9230 C   0  0  0  0  0
   -6.7870    5.9870   -8.6490 O   0  0  0  0  0
   -6.4520    6.8220   -5.8540 C   0  0  0  0  0
   -6.5380    8.2010   -6.1720 O   0  0  0  0  0
   -8.9540    6.5490   -8.4070 N   0  0  0  0  0
   -9.2060    6.6110   -9.8510 C   0  0  0  0  0
   -9.1640    8.0420  -10.3490 C   0  0  0  0  0
   -9.6900    8.9460   -9.6960 O   0  0  0  0  0
  -10.5720    6.0050  -10.1870 C   0  0  0  0  0
  -10.8210    4.4880  -10.1520 C   0  0  0  0  0
   -9.9920    3.7070   -9.1390 C   0  0  0  0  0
  -12.3120    4.2480   -9.9230 C   0  0  0  0  0
   -8.5450    8.2480  -11.5100 N   0  0  0  0  0
   -8.5270    9.5610  -12.1550 C   0  0  0  0  0
   -9.9220    9.9490  -12.6640 C   0  0  0  0  0
  -10.8130    9.1060  -12.8020 O   0  0  0  0  0
   -7.5090    9.5880  -13.2990 C   0  0  0  0  0
   -7.9870    8.8790  -14.4300 O   0  0  0  0  0
  -10.1880   11.1180  -12.9580 O   0  0  0  0  0
    4.8238    1.3929   13.6906 H   0  0  0  0  0
    5.5068    1.7488   12.2129 H   0  0  0  0  0
    6.0122    2.5558   13.5804 H   0  0  0  0  0
    3.8901    3.6010   13.8431 H   0  0  0  0  0
    4.9824    3.9164   11.0229 H   0  0  0  0  0
    3.9676    5.0877   11.9001 H   0  0  0  0  0
    5.6137    4.7284   12.4766 H   0  0  0  0  0
    0.5979    0.8681   12.3792 H   0  0  0  0  0
   -1.2309    1.6045   13.7763 H   0  0  0  0  0
   -0.9805    3.2659   13.3864 H   0  0  0  0  0
    0.5324    1.5557   15.3550 H   0  0  0  0  0
   -0.0937    3.1578   15.5764 H   0  0  0  0  0
    1.6800    4.1670   14.3708 H   0  0  0  0  0
    2.5129    2.8212   15.0109 H   0  0  0  0  0
   -0.2513    0.6938   10.4329 H   0  0  0  0  0
   -0.5195    3.2343    8.9364 H   0  0  0  0  0
    0.6213    0.7766    7.5562 H   0  0  0  0  0
    2.7290    1.7048    7.9837 H   0  0  0  0  0
   -0.1588    2.6318    6.1421 H   0  0  0  0  0
    0.8928    3.7626    7.0288 H   0  0  0  0  0
    1.6114    2.4682    6.0393 H   0  0  0  0  0
   -2.1317    3.3658    7.4394 H   0  0  0  0  0
   -3.9089    0.9764    7.1828 H   0  0  0  0  0
   -5.4969    2.5319    6.2186 H   0  0  0  0  0
   -4.2792    3.8816    6.5125 H   0  0  0  0  0
   -4.4317    3.2231    8.9253 H   0  0  0  0  0
   -5.4182    5.2653    8.0263 H   0  0  0  0  0
   -6.8841    4.3693    7.5578 H   0  0  0  0  0
   -6.4724    4.5651    9.2792 H   0  0  0  0  0
   -6.9519    1.8389    7.9823 H   0  0  0  0  0
   -5.5173    1.0663    8.7006 H   0  0  0  0  0
   -6.5176    2.1693    9.6773 H   0  0  0  0  0
   -2.3792    0.1634    3.1022 H   0  0  0  0  0
   -3.8027   -1.8005    3.0615 H   0  0  0  0  0
   -4.7426   -0.8403    1.9779 H   0  0  0  0  0
   -5.8804   -1.7343    4.1951 H   0  0  0  0  0
   -6.2345   -0.1235    3.6721 H   0  0  0  0  0
   -5.4409    0.3069    5.8894 H   0  0  0  0  0
   -4.3494   -1.0012    5.8760 H   0  0  0  0  0
   -2.1637    1.1464    1.2320 H   0  0  0  0  0
   -3.6392    3.6185    0.7168 H   0  0  0  0  0
   -2.0178    2.0323   -1.2315 H   0  0  0  0  0
   -1.3230    3.1736    0.0330 H   0  0  0  0  0
   -3.1451    3.8591   -2.2619 H   0  0  0  0  0
   -1.3764    4.2313   -2.1115 H   0  0  0  0  0
   -1.8059    5.6994   -0.2618 H   0  0  0  0  0
   -3.5410    5.2487   -0.2525 H   0  0  0  0  0
   -3.4325    6.0524   -2.7508 H   0  0  0  0  0
   -2.0065    6.9919   -2.1366 H   0  0  0  0  0
   -4.0346    8.2675   -2.0600 H   0  0  0  0  0
   -4.7617    7.1261   -1.0877 H   0  0  0  0  0
   -3.4523    7.9888   -0.5237 H   0  0  0  0  0
   -5.6495    3.7229   -0.0811 H   0  0  0  0  0
   -6.8220    1.2631   -1.2509 H   0  0  0  0  0
   -8.9260    2.4479   -1.0815 H   0  0  0  0  0
   -7.9884    3.9298   -0.4670 H   0  0  0  0  0
   -7.3574    2.5627    1.4738 H   0  0  0  0  0
   -9.1624    4.1976    1.5693 H   0  0  0  0  0
  -10.3206    2.9673    1.0071 H   0  0  0  0  0
   -9.5316    2.7884    2.5935 H   0  0  0  0  0
   -9.4630    0.6627    0.4104 H   0  0  0  0  0
   -7.7167    0.3405    0.5444 H   0  0  0  0  0
   -8.6941    0.5758    2.0142 H   0  0  0  0  0
   -6.7026    2.4422   -5.5001 H   0  0  0  0  0
   -8.5741    1.3161   -6.6006 H   0  0  0  0  0
   -9.7267    1.9456   -5.4888 H   0  0  0  0  0
   -7.8107   -0.3282   -5.1220 H   0  0  0  0  0
   -9.5019   -0.2300   -4.6776 H   0  0  0  0  0
   -9.0381    0.8661   -2.6696 H   0  0  0  0  0
   -7.5122    0.1075   -2.8420 H   0  0  0  0  0
   -6.7401    4.1163   -6.6945 H   0  0  0  0  0
   -8.5446    6.4034   -5.9329 H   0  0  0  0  0
   -5.5388    6.4259   -6.2983 H   0  0  0  0  0
   -6.4546    6.7216   -4.7686 H   0  0  0  0  0
   -5.7787    8.6606   -5.8062 H   0  0  0  0  0
   -9.7070    6.7802   -7.7589 H   0  0  0  0  0
   -8.4217    6.0376  -10.3452 H   0  0  0  0  0
  -10.7164    6.2643  -11.2358 H   0  0  0  0  0
  -11.2231    6.3898   -9.4021 H   0  0  0  0  0
  -10.4917    4.1018  -11.1166 H   0  0  0  0  0
   -8.9327    3.8391   -9.3593 H   0  0  0  0  0
  -10.2046    4.0761   -8.1357 H   0  0  0  0  0
  -10.2480    2.6493   -9.2002 H   0  0  0  0  0
  -12.6096    4.6968   -8.9753 H   0  0  0  0  0
  -12.8805    4.7007  -10.7353 H   0  0  0  0  0
  -12.5061    3.1758   -9.8955 H   0  0  0  0  0
   -8.0695    7.4675  -11.9628 H   0  0  0  0  0
   -8.2265   10.2956  -11.4079 H   0  0  0  0  0
   -6.5888    9.1150  -12.9561 H   0  0  0  0  0
   -7.3373   10.6253  -13.5865 H   0  0  0  0  0
   -7.3297    8.9130  -15.1289 H   0  0  0  0  0
   -9.4162   11.6684  -12.8065 H   0  0  0  0  0
  1  2  1  0  0  0
  2  3  1  0  0  0
  2  5  1  0  0  0
  3  4  2  0  0  0
  3  6  1  0  0  0
  6  7  1  0  0  0
  6 12  1  0  0  0
  7  8  1  0  0  0
  7 10  1  0  0  0
  8  9  2  0  0  0
  8 13  1  0  0  0
 10 11  1  0  0  0
 11 12  1  0  0  0
 13 14  1  0  0  0
 14 15  1  0  0  0
 14 17  1  0  0  0
 15 16  2  0  0  0
 15 20  1  0  0  0
 17 18  1  0  0  0
 17 19  1  0  0  0
 20 21  1  0  0  0
 21 22  1  0  0  0
 21 24  1  0  0  0
 22 23  2  0  0  0
 22 28  1  0  0  0
 24 25  1  0  0  0
 25 26  1  0  0  0
 25 27  1  0  0  0
 28 29  1  0  0  0
 28 34  1  0  0  0
 29 30  1  0  0  0
 29 32  1  0  0  0
 30 31  2  0  0  0
 30 35  1  0  0  0
 32 33  1  0  0  0
 33 34  1  0  0  0
 35 36  1  0  0  0
 36 37  1  0  0  0
 36 39  1  0  0  0
 37 38  2  0  0  0
 37 44  1  0  0  0
 39 40  1  0  0  0
 40 41  1  0  0  0
 41 42  1  0  0  0
 42 43  1  0  0  0
 44 45  1  0  0  0
 45 46  1  0  0  0
 45 48  1  0  0  0
 46 47  2  0  0  0
 46 52  1  0  0  0
 48 49  1  0  0  0
 49 50  1  0  0  0
 49 51  1  0  0  0
 52 53  1  0  0  0
 52 58  1  0  0  0
 53 54  1  0  0  0
 53 56  1  0  0  0
 54 55  2  0  0  0
 54 59  1  0  0  0
 56 57  1  0  0  0
 57 58  1  0  0  0
 59 60  1  0  0  0
 60 61  1  0  0  0
 60 63  1  0  0  0
 61 62  2  0  0  0
 61 65  1  0  0  0
 63 64  1  0  0  0
 65 66  1  0  0  0
 66 67  1  0  0  0
 66 69  1  0  0  0
 67 68  2  0  0  0
 67 73  1  0  0  0
 69 70  1  0  0  0
 70 71  1  0  0  0
 70 72  1  0  0  0
 73 74  1  0  0  0
 74 75  1  0  0  0
 74 77  1  0  0  0
 75 76  2  0  0  0
 75 79  1  0  0  0
 77 78  1  0  0  0
  1 80  1  0  0  0
  1 81  1  0  0  0
  1 82  1  0  0  0
  2 83  1  0  0  0
  5 84  1  0  0  0
  5 85  1  0  0  0
  5 86  1  0  0  0
  7 87  1  0  0  0
 10 88  1  0  0  0
 10 89  1  0  0  0
 11 90  1  0  0  0
 11 91  1  0  0  0
 12 92  1  0  0  0
 12 93  1  0  0  0
 13 94  1  0  0  0
 14 95  1  0  0  0
 17 96  1  0  0  0
 18 97  1  0  0  0
 19 98  1  0  0  0
 19 99  1  0  0  0
 19100  1  0  0  0
 20101  1  0  0  0
 21102  1  0  0  0
 24103  1  0  0  0
 24104  1  0  0  0
 25105  1  0  0  0
 26106  1  0  0  0
 26107  1  0  0  0
 26108  1  0  0  0
 27109  1  0  0  0
 27110  1  0  0  0
 27111  1  0  0  0
 29112  1  0  0  0
 32113  1  0  0  0
 32114  1  0  0  0
 33115  1  0  0  0
 33116  1  0  0  0
 34117  1  0  0  0
 34118  1  0  0  0
 35119  1  0  0  0
 36120  1  0  0  0
 39121  1  0  0  0
 39122  1  0  0  0
 40123  1  0  0  0
 40124  1  0  0  0
 41125  1  0  0  0
 41126  1  0  0  0
 42127  1  0  0  0
 42128  1  0  0  0
 43129  1  0  0  0
 43130  1  0  0  0
 43131  1  0  0  0
 44132  1  0  0  0
 45133  1  0  0  0
 48134  1  0  0  0
 48135  1  0  0  0
 49136  1  0  0  0
 50137  1  0  0  0
 50138  1  0  0  0
 50139  1  0  0  0
 51140  1  0  0  0
 51141  1  0  0  0
 51142  1  0  0  0
 53143  1  0  0  0
 56144  1  0  0  0
 56145  1  0  0  0
 57146  1  0  0  0
 57147  1  0  0  0
 58148  1  0  0  0
 58149  1  0  0  0
 59150  1  0  0  0
 60151  1  0  0  0
 63152  1  0  0  0
 63153  1  0  0  0
 64154  1  0  0  0
 65155  1  0  0  0
 66156  1  0  0  0
 69157  1  0  0  0
 69158  1  0  0  0
 70159  1  0  0  0
 71160  1  0  0  0
 71161  1  0  0  0
 71162  1  0  0  0
 72163  1  0  0  0
 72164  1  0  0  0
 72165  1  0  0  0
 73166  1  0  0  0
 74167  1  0  0  0
 77168  1  0  0  0
 77169  1  0  0  0
 78170  1  0  0  0
 79171  1  0  0  0
M  END
$$$$
