6p8a_ligand
  -I-interpret- 

 58 61  0  0  0  0  0  0  0  0999 V2000
   -9.2510   27.0890   12.8230 C   0  0  0  0  0
  -10.4480   28.0220   14.4900 C   0  0  0  0  0
   -9.9550   30.6510   14.0090 C   0  0  0  0  0
  -10.8420   30.1770   15.0400 C   0  0  0  0  0
   -7.6100   25.8930   11.4010 C   0  0  0  0  0
   -8.9860   27.4250   10.3730 C   0  0  0  0  0
   -8.1930   26.8480    9.4080 C   0  0  0  0  0
   -7.3340   25.8930   10.0400 C   0  0  0  0  0
   -8.3660   30.2700   12.0790 C   0  0  0  0  0
  -15.4670   23.9750   16.4940 C   0  0  0  0  0
  -15.3990   24.0610   14.9440 C   0  0  0  0  0
  -17.1060   23.1090   18.3120 C   0  0  0  0  0
  -17.6040   25.1150   16.7820 C   0  0  0  0  0
  -14.1060   23.4110   14.3640 C   0  0  0  0  0
  -18.9510   25.1270   17.5420 C   0  0  0  0  0
  -18.3160   23.6750   19.1770 C   0  0  0  0  0
  -11.6540   31.1450   15.8240 C   0  0  0  0  0
  -12.4330   25.2340   14.7250 C   0  0  0  0  0
   -9.5830   28.3730   13.3900 C   0  0  0  0  0
   -9.3050   29.7580   13.1580 C   0  0  0  0  0
  -11.2300   25.7520   15.4880 C   0  0  0  0  0
  -16.9100   23.7770   16.9120 N   0  3  0  0  0
  -10.5130   26.6210   14.5280 N   0  0  0  0  0
  -12.9210   23.9750   15.0550 N   0  0  0  0  0
   -9.7890   26.0740   13.5240 N   0  0  0  0  0
   -8.6280   26.8320   11.6080 N   0  0  0  0  0
  -11.1000   28.8820   15.3280 N   0  0  0  0  0
  -12.8810   25.9390   13.8270 O   0  0  0  0  0
  -18.6790   24.9250   18.8560 O   0  0  0  0  0
   -9.7897   31.7221   13.8925 H   0  0  0  0  0
   -7.1270   25.2799   12.1619 H   0  0  0  0  0
   -9.7447   28.1919   10.2167 H   0  0  0  0  0
   -8.2151   27.0789    8.3430 H   0  0  0  0  0
   -6.5910   25.2725    9.5390 H   0  0  0  0  0
   -8.9155   30.9228   11.4008 H   0  0  0  0  0
   -7.5520   30.8276   12.5422 H   0  0  0  0  0
   -7.9592   29.4256   11.5226 H   0  0  0  0  0
  -15.0797   24.8952   16.9314 H   0  0  0  0  0
  -14.8640   23.1369   16.8433 H   0  0  0  0  0
  -15.3984   25.1150   14.6661 H   0  0  0  0  0
  -16.2559   23.5218   14.5401 H   0  0  0  0  0
  -17.3221   22.0568   18.1266 H   0  0  0  0  0
  -16.1978   23.3078   18.8809 H   0  0  0  0  0
  -16.9587   25.8830   17.2084 H   0  0  0  0  0
  -17.8001   25.3026   15.7263 H   0  0  0  0  0
  -14.0397   23.6206   13.2964 H   0  0  0  0  0
  -14.1392   22.3325   14.5183 H   0  0  0  0  0
  -19.6092   24.3447   17.1641 H   0  0  0  0  0
  -19.4606   26.0800   17.4001 H   0  0  0  0  0
  -17.9902   23.6903   20.2170 H   0  0  0  0  0
  -19.1754   23.0311   18.9904 H   0  0  0  0  0
  -10.9909   31.8370   16.3432 H   0  0  0  0  0
  -12.3054   31.7009   15.1497 H   0  0  0  0  0
  -12.2589   30.6042   16.5519 H   0  0  0  0  0
  -10.5985   24.9393   15.8469 H   0  0  0  0  0
  -11.5244   26.2973   16.3847 H   0  0  0  0  0
  -17.3391   23.0919   16.2900 H   0  0  0  0  0
  -12.4575   23.4312   15.7829 H   0  0  0  0  0
 19  1  4  0  0  0
  1 25  4  0  0  0
  1 26  1  0  0  0
  2 19  4  0  0  0
 23  2  4  0  0  0
  2 27  4  0  0  0
  4  3  4  0  0  0
 20  3  4  0  0  0
  4 17  1  0  0  0
 27  4  4  0  0  0
  5  8  4  0  0  0
 26  5  4  0  0  0
  6  7  4  0  0  0
 26  6  4  0  0  0
  7  8  4  0  0  0
 20  9  1  0  0  0
 11 10  1  0  0  0
 10 22  1  0  0  0
 14 11  1  0  0  0
 12 16  1  0  0  0
 22 12  1  0  0  0
 13 15  1  0  0  0
 22 13  1  0  0  0
 24 14  1  0  0  0
 15 29  1  0  0  0
 16 29  1  0  0  0
 21 18  1  0  0  0
 18 24  1  0  0  0
 18 28  2  0  0  0
 19 20  4  0  0  0
 21 23  1  0  0  0
 23 25  4  0  0  0
  3 30  1  0  0  0
  5 31  1  0  0  0
  6 32  1  0  0  0
  7 33  1  0  0  0
  8 34  1  0  0  0
  9 35  1  0  0  0
  9 36  1  0  0  0
  9 37  1  0  0  0
 10 38  1  0  0  0
 10 39  1  0  0  0
 11 40  1  0  0  0
 11 41  1  0  0  0
 12 42  1  0  0  0
 12 43  1  0  0  0
 13 44  1  0  0  0
 13 45  1  0  0  0
 14 46  1  0  0  0
 14 47  1  0  0  0
 15 48  1  0  0  0
 15 49  1  0  0  0
 16 50  1  0  0  0
 16 51  1  0  0  0
 17 52  1  0  0  0
 17 53  1  0  0  0
 17 54  1  0  0  0
 21 55  1  0  0  0
 21 56  1  0  0  0
 22 57  1  0  0  0
 24 58  1  0  0  0
M  END
$$$$
