5vp9_ligand
  -I-interpret- 

112118  0  0  0  0  0  0  0  0999 V2000
  -13.1050  -14.1590   14.9730 C   0  0  0  0  0
  -13.9010  -17.2790   17.0240 C   0  0  0  0  0
  -13.3620  -19.1390   15.6460 C   0  0  0  0  0
  -15.9140  -20.1600   15.6720 C   0  0  0  0  0
  -16.6870  -23.2950   18.5010 C   0  0  0  0  0
  -15.7870  -24.2740   16.3500 C   0  0  0  0  0
  -14.7950  -25.3080   15.7450 C   0  0  0  0  0
  -15.0610  -17.9730   17.1630 C   0  0  0  0  0
  -17.3320  -20.1260   16.2420 C   0  0  0  0  0
  -16.4660  -21.8420   17.9750 C   0  0  0  0  0
  -15.5940  -24.2220   17.8870 C   0  0  0  0  0
  -13.7290  -24.9510   14.9780 C   0  0  0  0  0
  -13.3870  -23.4690   14.6370 C   0  0  0  0  0
  -12.6770  -23.7870   13.3130 C   0  0  0  0  0
  -14.1660  -13.1580   12.7480 C   0  0  0  0  0
  -13.9590  -14.2540   13.6960 C   0  0  0  0  0
  -13.1740  -15.2310   16.1020 C   0  0  0  0  0
  -12.7440  -18.4190   16.5800 C   0  0  0  0  0
  -17.5800  -21.4820   16.9230 C   0  0  0  0  0
  -12.1640  -22.6510   14.1920 C   0  0  0  0  0
  -12.9990  -20.6360   15.6410 C   0  0  0  0  0
  -10.9230  -23.1230   14.9770 C   0  0  0  0  0
   -8.0940  -21.8920   17.5470 C   0  0  0  0  0
   -6.8350  -21.2940   16.9210 C   0  0  0  0  0
   -6.7160  -22.3210   18.0560 C   0  0  0  0  0
  -18.5580  -18.6020   14.6370 C   0  0  0  0  0
  -19.9580  -17.2250   13.1700 C   0  0  0  0  0
  -20.5490  -16.5530   14.4380 C   0  0  0  0  0
  -21.1180  -17.4890   12.1730 C   0  0  0  0  0
  -18.9010  -16.3050   12.4980 C   0  0  0  0  0
  -11.4450  -13.8980   17.4180 C   0  0  0  0  0
  -10.5560  -13.7410   18.6920 C   0  0  0  0  0
   -9.6190  -12.5310   18.8180 C   0  0  0  0  0
   -9.5610  -11.4820   17.6900 C   0  0  0  0  0
  -10.4320  -11.6400   16.4360 C   0  0  0  0  0
  -11.3810  -12.8660   16.3100 C   0  0  0  0  0
  -15.1250  -13.7070   11.5770 C   0  0  0  0  0
  -15.4570  -15.1000   11.8610 C   0  0  0  0  0
  -14.9070  -19.1610   16.1370 N   0  0  0  0  0
  -12.5040  -21.2010   14.3840 N   0  0  0  0  0
  -10.3160  -22.3600   15.7950 N   0  0  0  0  0
  -18.3020  -19.9460   15.1810 N   0  0  0  0  0
  -12.3430  -15.0660   17.2890 N   0  3  0  0  0
  -12.2150  -13.0140   15.0970 N   0  3  0  0  0
  -14.0490  -16.3480   15.9780 O   0  0  0  0  0
  -15.5940  -20.9990   14.8870 O   0  0  0  0  0
  -13.1500  -21.3130   16.6060 O   0  0  0  0  0
  -10.4170  -24.3910   14.7680 O   0  0  0  0  0
   -8.1030  -23.7300   15.4830 O   0  0  0  0  0
   -9.4240  -24.2690   17.3180 O   0  0  0  0  0
  -18.0570  -17.6500   15.1500 O   0  0  0  0  0
  -19.3870  -18.4970   13.4840 O   0  0  0  0  0
   -8.9710  -23.1290   16.5040 S   0  0  0  0  0
  -14.7460  -15.4990   13.1960 S   0  0  0  0  0
  -13.4118  -15.0794   15.4699 H   0  0  0  0  0
  -13.6271  -16.7481   17.9357 H   0  0  0  0  0
  -13.1166  -18.7079   14.6754 H   0  0  0  0  0
  -17.6766  -23.6471   18.2100 H   0  0  0  0  0
  -16.6158  -23.3094   19.5886 H   0  0  0  0  0
  -16.8103  -24.5704   16.1195 H   0  0  0  0  0
  -15.5946  -23.2895   15.9235 H   0  0  0  0  0
  -14.9612  -26.3666   15.9444 H   0  0  0  0  0
  -15.9400  -17.3604   16.9628 H   0  0  0  0  0
  -15.2189  -18.3213   18.1837 H   0  0  0  0  0
  -17.4347  -19.2988   16.9444 H   0  0  0  0  0
  -15.4868  -21.7749   17.5009 H   0  0  0  0  0
  -16.5194  -21.1438   18.8103 H   0  0  0  0  0
  -15.6841  -25.2250   18.3042 H   0  0  0  0  0
  -14.6041  -23.8305   18.1214 H   0  0  0  0  0
  -13.0850  -25.7373   14.5842 H   0  0  0  0  0
  -14.1270  -23.0232   15.3017 H   0  0  0  0  0
  -12.9378  -23.9551   12.2681 H   0  0  0  0  0
  -12.2788  -24.6565   12.7899 H   0  0  0  0  0
  -13.7476  -12.1542   12.8214 H   0  0  0  0  0
  -13.1595  -16.3098   15.9469 H   0  0  0  0  0
  -12.4089  -19.0249   17.4218 H   0  0  0  0  0
  -11.8242  -17.9616   16.2154 H   0  0  0  0  0
  -17.5744  -22.2516   16.1511 H   0  0  0  0  0
  -18.5329  -21.4244   17.4491 H   0  0  0  0  0
   -8.9935  -21.4876   18.0111 H   0  0  0  0  0
   -6.4378  -20.3129   16.6607 H   0  0  0  0  0
   -6.4186  -21.1194   15.9289 H   0  0  0  0  0
   -6.1734  -23.2406   18.2752 H   0  0  0  0  0
   -6.1926  -22.4361   19.0052 H   0  0  0  0  0
  -21.0257  -15.6128   14.1607 H   0  0  0  0  0
  -21.2867  -17.2167   14.8891 H   0  0  0  0  0
  -19.7482  -16.3592   15.1517 H   0  0  0  0  0
  -21.8522  -18.1470   12.6378 H   0  0  0  0  0
  -21.5912  -16.5431   11.9095 H   0  0  0  0  0
  -20.7223  -17.9616   11.2740 H   0  0  0  0  0
  -19.3703  -15.3640   12.2108 H   0  0  0  0  0
  -18.0919  -16.1091   13.2016 H   0  0  0  0  0
  -18.5022  -16.7989   11.6119 H   0  0  0  0  0
  -11.9410  -12.9663   17.6900 H   0  0  0  0  0
   -9.8908  -14.6043   18.6725 H   0  0  0  0  0
  -11.2657  -13.6270   19.5114 H   0  0  0  0  0
   -8.6181  -12.9621   18.8416 H   0  0  0  0  0
   -9.9957  -11.9828   19.6815 H   0  0  0  0  0
   -8.5387  -11.5443   17.3170 H   0  0  0  0  0
   -9.9238  -10.5658   18.1558 H   0  0  0  0  0
   -9.7204  -11.7565   15.6186 H   0  0  0  0  0
  -11.0971  -10.7765   16.4512 H   0  0  0  0  0
  -11.7788  -13.5544   17.0557 H   0  0  0  0  0
  -15.4690  -13.1342   10.7158 H   0  0  0  0  0
  -16.0879  -15.7468   11.2514 H   0  0  0  0  0
  -12.3828  -20.5714   13.5907 H   0  0  0  0  0
  -10.6007  -21.4025   16.0015 H   0  0  0  0  0
  -18.8078  -20.7507   14.8107 H   0  0  0  0  0
  -11.7123  -15.8674   17.2682 H   0  0  0  0  0
  -13.0118  -14.9548   18.0511 H   0  0  0  0  0
  -12.8355  -12.2045   15.1096 H   0  0  0  0  0
  -11.5458  -13.1231   14.3350 H   0  0  0  0  0
  1 16  1  0  0  0
 17  1  1  0  0  0
  1 44  1  0  0  0
  8  2  1  0  0  0
 18  2  1  0  0  0
  2 45  1  0  0  0
  3 18  1  0  0  0
 21  3  1  0  0  0
  3 39  1  0  0  0
  4  9  1  0  0  0
 39  4  1  0  0  0
  4 46  2  0  0  0
  5 10  1  0  0  0
 11  5  1  0  0  0
  7  6  1  0  0  0
  6 11  1  0  0  0
 12  7  2  0  0  0
 39  8  1  0  0  0
  9 19  1  0  0  0
  9 42  1  0  0  0
 19 10  1  0  0  0
 13 12  1  0  0  0
 14 13  1  0  0  0
 20 13  1  0  0  0
 20 14  1  0  0  0
 16 15  4  0  0  0
 15 37  4  0  0  0
 16 54  4  0  0  0
 17 43  1  0  0  0
 45 17  1  0  0  0
 22 20  1  0  0  0
 20 40  1  0  0  0
 40 21  1  0  0  0
 21 47  2  0  0  0
 41 22  1  0  0  0
 22 48  2  0  0  0
 23 24  1  0  0  0
 23 25  1  0  0  0
 53 23  1  0  0  0
 25 24  1  0  0  0
 42 26  1  0  0  0
 26 51  2  0  0  0
 26 52  1  0  0  0
 27 28  1  0  0  0
 27 29  1  0  0  0
 27 30  1  0  0  0
 52 27  1  0  0  0
 31 32  1  0  0  0
 31 36  1  0  0  0
 43 31  1  0  0  0
 32 33  1  0  0  0
 33 34  1  0  0  0
 35 34  1  0  0  0
 36 35  1  0  0  0
 44 36  1  0  0  0
 38 37  4  0  0  0
 54 38  4  0  0  0
 41 53  1  0  0  0
 53 49  2  0  0  0
 53 50  2  0  0  0
  1 55  1  0  0  0
  2 56  1  0  0  0
  3 57  1  0  0  0
  5 58  1  0  0  0
  5 59  1  0  0  0
  6 60  1  0  0  0
  6 61  1  0  0  0
  7 62  1  0  0  0
  8 63  1  0  0  0
  8 64  1  0  0  0
  9 65  1  0  0  0
 10 66  1  0  0  0
 10 67  1  0  0  0
 11 68  1  0  0  0
 11 69  1  0  0  0
 12 70  1  0  0  0
 13 71  1  0  0  0
 14 72  1  0  0  0
 14 73  1  0  0  0
 15 74  1  0  0  0
 17 75  1  0  0  0
 18 76  1  0  0  0
 18 77  1  0  0  0
 19 78  1  0  0  0
 19 79  1  0  0  0
 23 80  1  0  0  0
 24 81  1  0  0  0
 24 82  1  0  0  0
 25 83  1  0  0  0
 25 84  1  0  0  0
 28 85  1  0  0  0
 28 86  1  0  0  0
 28 87  1  0  0  0
 29 88  1  0  0  0
 29 89  1  0  0  0
 29 90  1  0  0  0
 30 91  1  0  0  0
 30 92  1  0  0  0
 30 93  1  0  0  0
 31 94  1  0  0  0
 32 95  1  0  0  0
 32 96  1  0  0  0
 33 97  1  0  0  0
 33 98  1  0  0  0
 34 99  1  0  0  0
 34100  1  0  0  0
 35101  1  0  0  0
 35102  1  0  0  0
 36103  1  0  0  0
 37104  1  0  0  0
 38105  1  0  0  0
 40106  1  0  0  0
 41107  1  0  0  0
 42108  1  0  0  0
 43109  1  0  0  0
 43110  1  0  0  0
 44111  1  0  0  0
 44112  1  0  0  0
M  END
$$$$
