6f4x_ligand
  -I-interpret- 

 31 33  0  0  0  0  0  0  0  0999 V2000
  -13.0250    5.6610  -19.4390 N   0  0  0  0  0
  -11.8380    5.2980  -18.8750 C   0  0  0  0  0
  -11.7030    5.3160  -17.5170 N   0  0  0  0  0
  -12.7370    5.6890  -16.7080 C   0  0  0  0  0
  -13.9080    6.0400  -17.2790 C   0  0  0  0  0
  -14.0500    6.0260  -18.6580 C   0  0  0  0  0
  -15.0400    6.3040  -19.6480 N   0  0  0  0  0
  -14.7940    6.3740  -16.2960 N   0  0  0  0  0
  -14.1490    6.2220  -15.1000 N   0  0  0  0  0
  -12.8960    5.7880  -15.3220 C   0  0  0  0  0
  -11.9850    5.5750  -14.2850 C   0  0  0  0  0
  -10.5930    5.0370  -14.6890 C   0  0  0  0  0
  -10.3540    3.7560  -14.1470 O   0  0  0  0  0
   -9.6190    6.1130  -14.1870 C   0  0  0  0  0
   -9.1520    5.7550  -12.8880 O   0  0  0  0  0
  -10.4890    7.3460  -14.0750 C   0  0  0  0  0
  -11.7850    6.8500  -13.7030 O   0  0  0  0  0
  -10.6100    8.1760  -15.3320 C   0  0  0  0  0
  -11.4200    9.3300  -15.1200 O   0  0  0  0  0
  -11.0017    4.9952  -19.5050 H   0  0  0  0  0
  -14.8183    6.1900  -20.6371 H   0  0  0  0  0
  -15.9692    6.6167  -19.3664 H   0  0  0  0  0
  -12.4094    4.8065  -13.6390 H   0  0  0  0  0
  -10.4861    4.8813  -15.7625 H   0  0  0  0  0
   -9.4839    3.4529  -14.4166 H   0  0  0  0  0
   -8.7521    6.2475  -14.8340 H   0  0  0  0  0
   -8.5428    6.4263  -12.5719 H   0  0  0  0  0
  -10.0354    8.0265  -13.3544 H   0  0  0  0  0
  -11.0750    7.5651  -16.1058 H   0  0  0  0  0
   -9.6130    8.5033  -15.6270 H   0  0  0  0  0
  -11.4765    9.8340  -15.9351 H   0  0  0  0  0
  1  2  4  0  0  0
  1  6  4  0  0  0
  2  3  4  0  0  0
  3  4  4  0  0  0
  4  5  4  0  0  0
  4 10  4  0  0  0
  5  6  4  0  0  0
  5  8  4  0  0  0
  6  7  1  0  0  0
  8  9  4  0  0  0
  9 10  4  0  0  0
 10 11  1  0  0  0
 11 12  1  0  0  0
 11 17  1  0  0  0
 12 13  1  0  0  0
 12 14  1  0  0  0
 14 15  1  0  0  0
 14 16  1  0  0  0
 16 17  1  0  0  0
 16 18  1  0  0  0
 18 19  1  0  0  0
  2 20  1  0  0  0
  7 21  1  0  0  0
  7 22  1  0  0  0
 11 23  1  0  0  0
 12 24  1  0  0  0
 13 25  1  0  0  0
 14 26  1  0  0  0
 15 27  1  0  0  0
 16 28  1  0  0  0
 18 29  1  0  0  0
 18 30  1  0  0  0
 19 31  1  0  0  0
M  END
$$$$
