### 
### Created by X-TOOL on Mon Sep 10 21:13:01 2018
### 

@<TRIPOS>MOLECULE
3k48_ligand
  255   264     1     0     0
SMALL
GAST_HUCK


@<TRIPOS>ATOM
      1 N           7.9020  -20.9940   25.9280 N.4       1 SER         0.2396
      2 CA          9.2030  -21.3810   25.2960 C.3       1 SER         0.0884
      3 C           9.3730  -20.6580   23.9480 C.2       1 SER         0.2288
      4 O           8.9770  -19.4910   23.8220 O.2       1 SER        -0.3906
      5 CB          9.2800  -22.9070   25.1290 C.3       1 SER         0.1041
      6 OG          8.8990  -23.5800   26.3100 O.3       1 SER        -0.3870
      7 N           9.9690  -21.3450   22.9610 N.am      1 GLY        -0.2636
      8 CA         10.2220  -20.7920   21.6260 C.3       1 GLY         0.1202
      9 C          11.6160  -20.2160   21.5920 C.2       1 GLY         0.2008
     10 O          12.3420  -20.3920   20.6200 O.2       1 GLY        -0.3947
     11 N          11.9650  -19.5180   22.6750 N.am      1 TRP        -0.2629
     12 CA         13.2970  -18.9910   22.9240 C.3       1 TRP         0.1352
     13 C          14.1360  -20.0330   23.5950 C.2       1 TRP         0.2052
     14 O          15.3140  -19.8170   23.8660 O.2       1 TRP        -0.3942
     15 CB         13.2110  -17.7820   23.8480 C.3       1 TRP         0.0042
     16 CG         12.4800  -16.6860   23.2310 C.2       1 TRP        -0.0418
     17 CD1        11.2090  -16.3020   23.4930 C.2       1 TRP         0.0167
     18 CD2        12.9560  -15.8410   22.1860 C.ar      1 TRP        -0.0214
     19 NE1        10.8600  -15.2540   22.6890 N.pl3     1 TRP        -0.2890
     20 CE2        11.9190  -14.9490   21.8710 C.ar      1 TRP         0.0603
     21 CE3        14.1680  -15.7470   21.4880 C.ar      1 TRP        -0.0747
     22 CZ2        12.0530  -13.9650   20.8810 C.ar      1 TRP        -0.0443
     23 CZ3        14.3000  -14.7770   20.5110 C.ar      1 TRP        -0.0792
     24 CH2        13.2510  -13.9000   20.2160 C.ar      1 TRP        -0.0768
     25 N          13.5170  -21.1750   23.8850 N.am      1 CYS        -0.2628
     26 CA         14.1920  -22.2700   24.5500 C.3       1 CYS         0.1406
     27 C          14.5750  -23.3590   23.5680 C.2       1 CYS         0.2048
     28 O          14.9030  -24.4650   23.9520 O.2       1 CYS        -0.3944
     29 CB         13.3090  -22.7840   25.6780 C.3       1 CYS         0.0443
     30 SG         13.0600  -21.4780   26.9190 S.3       1 CYS        -0.0882
     31 N          14.5600  -23.0220   22.2790 N.am      1 ASP        -0.2621
     32 CA         15.1300  -23.8720   21.2520 C.3       1 ASP         0.1425
     33 C          16.6370  -24.0340   21.5210 C.2       1 ASP         0.2081
     34 O          17.3100  -23.0690   21.8800 O.2       1 ASP        -0.3941
     35 CB         14.8940  -23.2290   19.8850 C.3       1 ASP         0.0406
     36 CG         15.3250  -24.1090   18.7440 C.2       1 ASP         0.0393
     37 OD1        16.5440  -24.2380   18.5170 O.co2     1 ASP        -0.5688
     38 OD2        14.4450  -24.6610   18.0640 O.co2     1 ASP        -0.5688
     39 N          17.1740  -25.2550   21.3550 N.am      1 PRO        -0.2497
     40 CA         18.5970  -25.4700   21.6780 C.3       1 PRO         0.1338
     41 C          19.5790  -24.6810   20.8240 C.2       1 PRO         0.2041
     42 O          20.6890  -24.4010   21.2700 O.2       1 PRO        -0.3944
     43 CB         18.7970  -26.9770   21.4400 C.3       1 PRO        -0.0104
     44 CG         17.4310  -27.5590   21.4250 C.3       1 PRO        -0.0281
     45 CD         16.5240  -26.4960   20.8960 C.3       1 PRO         0.0369
     46 N          19.1800  -24.3430   19.6050 N.am      1 ARG        -0.2637
     47 CA         20.0470  -23.6010   18.6850 C.3       1 ARG         0.1311
     48 C          20.3550  -22.1700   19.1320 C.2       1 ARG         0.2040
     49 O          21.3900  -21.6120   18.7680 O.2       1 ARG        -0.3944
     50 CB         19.4330  -23.5920   17.2930 C.3       1 ARG        -0.0092
     51 CG         19.5110  -24.9440   16.6200 C.3       1 ARG        -0.0156
     52 CD         18.7890  -24.9440   15.3070 C.3       1 ARG         0.0627
     53 NE         17.3440  -24.8240   15.4790 N.pl3     1 ARG        -0.2723
     54 CZ         16.4860  -24.5140   14.5080 C.cat     1 ARG         0.2882
     55 NH1        16.9040  -24.2940   13.2610 N.pl3     1 ARG        -0.2849
     56 NH2        15.1950  -24.4190   14.7920 N.pl3     1 ARG        -0.2849
     57 N          19.4530  -21.5840   19.9170 N.am      1 TRP        -0.2627
     58 CA         19.6340  -20.2420   20.4740 C.3       1 TRP         0.1352
     59 C          19.1450  -20.1740   21.9320 C.2       1 TRP         0.2053
     60 O          18.6610  -19.1430   22.3900 O.2       1 TRP        -0.3942
     61 CB         18.9250  -19.2000   19.5850 C.3       1 TRP         0.0042
     62 CG         17.4880  -19.5000   19.3020 C.2       1 TRP        -0.0418
     63 CD1        16.4370  -19.2650   20.1250 C.2       1 TRP         0.0167
     64 CD2        16.9400  -20.0820   18.1100 C.ar      1 TRP        -0.0214
     65 NE1        15.2670  -19.6730   19.5370 N.pl3     1 TRP        -0.2890
     66 CE2        15.5440  -20.1750   18.2940 C.ar      1 TRP         0.0603
     67 CE3        17.4890  -20.5320   16.9050 C.ar      1 TRP        -0.0747
     68 CZ2        14.6840  -20.7080   17.3170 C.ar      1 TRP        -0.0443
     69 CZ3        16.6220  -21.0520   15.9200 C.ar      1 TRP        -0.0792
     70 CH2        15.2420  -21.1390   16.1410 C.ar      1 TRP        -0.0768
     71 N          19.3030  -21.2790   22.6600 N.am      1 TYR        -0.2620
     72 CA         18.8490  -21.3810   24.0540 C.3       1 TYR         0.1390
     73 C          19.5390  -20.3480   24.9030 C.2       1 TYR         0.2058
     74 O          20.7430  -20.1290   24.7660 O.2       1 TYR        -0.3942
     75 CB         19.1490  -22.7660   24.6310 C.3       1 TYR         0.0163
     76 CG         18.6730  -23.0180   26.0540 C.ar      1 TYR        -0.0493
     77 CD1        17.3740  -23.4500   26.3090 C.ar      1 TYR        -0.0685
     78 CD2        19.5340  -22.8840   27.1350 C.ar      1 TYR        -0.0685
     79 CE1        16.9380  -23.7210   27.6110 C.ar      1 TYR        -0.0398
     80 CE2        19.1070  -23.1450   28.4440 C.ar      1 TYR        -0.0398
     81 CZ         17.8070  -23.5590   28.6780 C.ar      1 TYR         0.0805
     82 OH         17.3780  -23.8290   29.9650 O.3       1 TYR        -0.3376
     83 N          18.7460  -19.7120   25.7570 N.am      1 ASP        -0.2620
     84 CA         19.2300  -18.8130   26.7810 C.3       1 ASP         0.1425
     85 C          18.5980  -19.2690   28.0890 C.2       1 ASP         0.2081
     86 O          17.3790  -19.1690   28.2560 O.2       1 ASP        -0.3941
     87 CB         18.8130  -17.3710   26.4760 C.3       1 ASP         0.0406
     88 CG         19.4090  -16.3770   27.4530 C.2       1 ASP         0.0393
     89 OD1        20.0410  -16.8250   28.4250 O.co2     1 ASP        -0.5688
     90 OD2        19.2630  -15.1530   27.2490 O.co2     1 ASP        -0.5688
     91 N          19.4120  -19.7570   29.0330 N.am      1 PRO        -0.2497
     92 CA         18.8510  -20.2030   30.3190 C.3       1 PRO         0.1338
     93 C          17.9490  -19.1470   30.9740 C.2       1 PRO         0.2042
     94 O          16.9010  -19.4890   31.5340 O.2       1 PRO        -0.3944
     95 CB         20.0900  -20.4430   31.1770 C.3       1 PRO        -0.0104
     96 CG         21.2050  -20.6580   30.2020 C.3       1 PRO        -0.0281
     97 CD         20.8740  -19.8980   28.9700 C.3       1 PRO         0.0369
     98 N          18.3840  -17.8850   30.8790 N.am      1 PHE        -0.2619
     99 CA         17.6880  -16.6850   31.3910 C.3       1 PHE         0.1404
    100 C          16.1700  -16.6860   31.1820 C.2       1 PHE         0.2060
    101 O          15.4370  -16.1980   32.0330 O.2       1 PHE        -0.3942
    102 CB         18.3010  -15.4410   30.7140 C.3       1 PHE         0.0214
    103 CG         17.9570  -14.1290   31.3710 C.ar      1 PHE        -0.0386
    104 CD1        17.0860  -13.2340   30.7510 C.ar      1 PHE        -0.0601
    105 CD2        18.5280  -13.7650   32.5790 C.ar      1 PHE        -0.0601
    106 CE1        16.7720  -12.0120   31.3360 C.ar      1 PHE        -0.0686
    107 CE2        18.2140  -12.5450   33.1710 C.ar      1 PHE        -0.0686
    108 CZ         17.3370  -11.6690   32.5450 C.ar      1 PHE        -0.0687
    109 N          15.7080  -17.2360   30.0570 N.am      1 MET        -0.2636
    110 CA         14.2820  -17.2860   29.7490 C.3       1 MET         0.1317
    111 C          13.6390  -18.6700   29.6680 C.2       1 MET         0.2039
    112 O          12.6580  -18.8350   28.9330 O.2       1 MET        -0.3944
    113 CB         14.0410  -16.6640   28.3850 C.3       1 MET        -0.0034
    114 CG         14.8080  -15.4410   28.0790 C.3       1 MET        -0.0024
    115 SD         14.0130  -14.7450   26.6450 S.3       1 MET        -0.1639
    116 CE         14.9070  -13.2030   26.5790 C.3       1 MET        -0.0181
    117 N          14.1390  -19.6790   30.3870 N.am      1 CYS        -0.2629
    118 CA         13.5300  -21.0100   30.2580 C.3       1 CYS         0.1406
    119 C          12.9090  -21.5000   31.5580 C.2       1 CYS         0.2047
    120 O          13.2780  -22.5220   32.1290 O.2       1 CYS        -0.3944
    121 CB         14.4920  -21.9850   29.5790 C.3       1 CYS         0.0443
    122 SG         14.8780  -21.3960   27.8540 S.3       1 CYS        -0.0882
    123 N          11.9280  -20.6970   31.9860 N.am      1 GLU        -0.2636
    124 CA         11.0050  -20.9380   33.1030 C.3       1 GLU         0.1324
    125 C          11.4840  -20.4690   34.5120 C.2       1 GLU         0.2036
    126 O          11.7880  -19.2810   34.6310 O.2       1 GLU        -0.3944
    127 CB         10.3410  -22.3330   33.0910 C.3       1 GLU        -0.0008
    128 CG          9.0990  -22.3600   32.2030 C.3       1 GLU         0.0044
    129 CD          8.1450  -21.1910   32.5100 C.2       1 GLU         0.0350
    130 OE1         7.8080  -20.4330   31.5660 O.co2     1 GLU        -0.5690
    131 OE2         7.7580  -21.0220   33.6950 O.co2     1 GLU        -0.5690
    132 N          11.5250  -21.3290   35.5360 N.am      1 HIS        -0.2677
    133 CA         11.8040  -20.9200   36.9350 C.3       1 HIS         0.1056
    134 C          10.5380  -21.0270   37.8200 C.2       1 HIS         0.0621
    135 O           9.6340  -20.1750   37.7690 O.co2     1 HIS        -0.5664
    136 CB         12.3920  -19.4860   37.0080 C.3       1 HIS         0.0372
    137 CG         12.9790  -19.1470   38.3440 C.2       1 HIS         0.0555
    138 ND1        12.9720  -17.8670   38.8750 N.pl3     1 HIS        -0.2623
    139 CD2        13.5840  -19.9440   39.2640 C.2       1 HIS        -0.0276
    140 CE1        13.5630  -17.8950   40.0620 C.2       1 HIS         0.0875
    141 NE2        13.9380  -19.1440   40.3200 N.2       1 HIS        -0.3437
    142 H           7.8645  -19.9801   26.0327 H         1 SER         0.2016
    143 H           7.1319  -21.3045   25.3356 H         1 SER         0.2016
    144 H           7.8264  -21.4347   26.8448 H         1 SER         0.2016
    145 H          10.0223  -21.0750   25.9465 H         1 SER         0.1122
    146 H          10.3105  -23.1761   24.8970 H         1 SER         0.0640
    147 H           8.5983  -23.2005   24.3307 H         1 SER         0.0640
    148 H           8.9587  -24.5279   26.1703 H         1 SER         0.2099
    149 H          10.2620  -22.3037   23.1494 H         1 GLY         0.1882
    150 H           9.4947  -20.0102   21.4071 H         1 GLY         0.0763
    151 H          10.1301  -21.5791   20.8776 H         1 GLY         0.0763
    152 H          11.2466  -19.3420   23.3774 H         1 TRP         0.1884
    153 H          13.7415  -18.7046   21.9709 H         1 TRP         0.0815
    154 H          14.2237  -17.4415   24.0641 H         1 TRP         0.0397
    155 H          12.6846  -18.0791   24.7550 H         1 TRP         0.0397
    156 H          10.5586  -16.7618   24.2370 H         1 TRP         0.0795
    157 H           9.9590  -14.7760   22.6956 H         1 TRP         0.2216
    158 H          14.9911  -16.4258   21.7111 H         1 TRP         0.0540
    159 H          11.2380  -13.2793   20.6492 H         1 TRP         0.0541
    160 H          15.2377  -14.6945   19.9614 H         1 TRP         0.0510
    161 H          13.3887  -13.1474   19.4396 H         1 TRP         0.0530
    162 H          12.5351  -21.2824   23.6305 H         1 CYS         0.1884
    163 H          15.1282  -21.9160   24.9818 H         1 CYS         0.0808
    164 H          13.7924  -23.6393   26.1501 H         1 CYS         0.0432
    165 H          12.3424  -23.0795   25.2700 H         1 CYS         0.0432
    166 H          14.1334  -22.1367   22.0057 H         1 ASP         0.1884
    167 H          14.6595  -24.8551   21.2640 H         1 ASP         0.0819
    168 H          15.4834  -22.3131   19.8410 H         1 ASP         0.0478
    169 H          13.8240  -23.0487   19.7814 H         1 ASP         0.0478
    170 H          18.8027  -25.1280   22.6923 H         1 PRO         0.0802
    171 H          19.4148  -27.4263   22.2175 H         1 PRO         0.0313
    172 H          19.3236  -27.1680   20.5049 H         1 PRO         0.0313
    173 H          17.1276  -27.8694   22.4248 H         1 PRO         0.0287
    174 H          17.3933  -28.4513   20.8001 H         1 PRO         0.0287
    175 H          16.4066  -26.5383   19.8132 H         1 PRO         0.0524
    176 H          15.4992  -26.5958   21.2535 H         1 PRO         0.0524
    177 H          18.2434  -24.6069   19.2991 H         1 ARG         0.1883
    178 H          21.0030  -24.1245   18.6793 H         1 ARG         0.0800
    179 H          19.9889  -22.8793   16.6837 H         1 ARG         0.0313
    180 H          18.3810  -23.3237   17.3901 H         1 ARG         0.0313
    181 H          19.0439  -25.6824   17.2717 H         1 ARG         0.0301
    182 H          20.5595  -25.1801   16.4383 H         1 ARG         0.0301
    183 H          18.9956  -25.8886   14.8038 H         1 ARG         0.0689
    184 H          19.1359  -24.0890   14.7267 H         1 ARG         0.0689
    185 H          16.9636  -24.9896   16.4108 H         1 ARG         0.2642
    186 H          17.8966  -24.3619   13.0364 H         1 ARG         0.2615
    187 H          16.2311  -24.0578   12.5317 H         1 ARG         0.2615
    188 H          14.8690  -24.5825   15.7446 H         1 ARG         0.2615
    189 H          14.5274  -24.1824   14.0580 H         1 ARG         0.2615
    190 H          18.5976  -22.0928   20.1403 H         1 TRP         0.1884
    191 H          20.6988  -20.0095   20.4854 H         1 TRP         0.0815
    192 H          19.4438  -19.1932   18.6264 H         1 TRP         0.0397
    193 H          18.9528  -18.2517   20.1216 H         1 TRP         0.0397
    194 H          16.5112  -18.8150   21.1150 H         1 TRP         0.0795
    195 H          14.3399  -19.6122   19.9580 H         1 TRP         0.2216
    196 H          18.5637  -20.4822   16.7302 H         1 TRP         0.0540
    197 H          13.6098  -20.7762   17.4890 H         1 TRP         0.0541
    198 H          17.0342  -21.3920   14.9700 H         1 TRP         0.0510
    199 H          14.6004  -21.5565   15.3650 H         1 TRP         0.0530
    200 H          19.7572  -22.0862   22.2326 H         1 TYR         0.1885
    201 H          17.7719  -21.2142   24.0620 H         1 TYR         0.0821
    202 H          20.2349  -22.8583   24.6523 H         1 TYR         0.0453
    203 H          18.6178  -23.4798   24.0013 H         1 TYR         0.0453
    204 H          16.6820  -23.5799   25.4769 H         1 TYR         0.0530
    205 H          20.5631  -22.5693   26.9619 H         1 TYR         0.0530
    206 H          15.9165  -24.0589   27.7854 H         1 TYR         0.0525
    207 H          19.7984  -23.0220   29.2777 H         1 TYR         0.0525
    208 H          16.4577  -24.1015   29.9438 H         1 TYR         0.2458
    209 H          17.7401  -19.8660   25.6870 H         1 ASP         0.1884
    210 H          20.3186  -18.8345   26.8323 H         1 ASP         0.0819
    211 H          17.7275  -17.3106   26.5541 H         1 ASP         0.0478
    212 H          19.1732  -17.1200   25.4783 H         1 ASP         0.0478
    213 H          18.2143  -21.0793   30.1978 H         1 PRO         0.0802
    214 H          19.9622  -21.3003   31.8380 H         1 PRO         0.0313
    215 H          20.2908  -19.6006   31.8389 H         1 PRO         0.0313
    216 H          21.3153  -21.7188   29.9772 H         1 PRO         0.0287
    217 H          22.1497  -20.3116   30.6211 H         1 PRO         0.0287
    218 H          21.3840  -18.9357   28.9242 H         1 PRO         0.0524
    219 H          21.2050  -20.4069   28.0647 H         1 PRO         0.0524
    220 H          19.2778  -17.7373   30.4103 H         1 PHE         0.1885
    221 H          17.8320  -16.6779   32.4714 H         1 PHE         0.0823
    222 H          17.8999  -15.4022   29.7012 H         1 PHE         0.0474
    223 H          19.3839  -15.5500   30.7734 H         1 PHE         0.0474
    224 H          16.6431  -13.4969   29.7903 H         1 PHE         0.0557
    225 H          19.2292  -14.4395   33.0703 H         1 PHE         0.0557
    226 H          16.0822  -11.3288   30.8405 H         1 PHE         0.0599
    227 H          18.6581  -12.2762   34.1295 H         1 PHE         0.0599
    228 H          17.0962  -10.7125   33.0089 H         1 PHE         0.0559
    229 H          16.3716  -17.6335   29.3922 H         1 MET         0.1883
    230 H          13.8302  -16.7611   30.5907 H         1 MET         0.0800
    231 H          12.9899  -16.3761   28.3642 H         1 MET         0.0320
    232 H          14.3525  -17.4087   27.6526 H         1 MET         0.0320
    233 H          15.8593  -15.6597   27.8918 H         1 MET         0.0378
    234 H          14.8097  -14.7448   28.9177 H         1 MET         0.0378
    235 H          14.7446  -12.6504   27.5044 H         1 MET         0.0340
    236 H          15.9710  -13.4063   26.4577 H         1 MET         0.0340
    237 H          14.5499  -12.6133   25.7347 H         1 MET         0.0340
    238 H          14.9292  -19.5281   31.0141 H         1 CYS         0.1884
    239 H          12.6738  -20.9373   29.5873 H         1 CYS         0.0808
    240 H          14.0287  -22.9703   29.5274 H         1 CYS         0.0432
    241 H          15.4154  -22.0395   30.1556 H         1 CYS         0.0432
    242 H          11.8077  -19.8195   31.4801 H         1 GLU         0.1883
    243 H          10.1976  -20.2381   32.8877 H         1 GLU         0.0801
    244 H          10.0403  -22.5789   34.1094 H         1 GLU         0.0330
    245 H          11.0598  -23.0520   32.6979 H         1 GLU         0.0330
    246 H           8.5666  -23.2926   32.3899 H         1 GLU         0.0433
    247 H           9.4202  -22.2742   31.1649 H         1 GLU         0.0433
    248 H          11.3558  -22.3166   35.3453 H         1 HIS         0.1877
    249 H          12.5522  -21.6118   37.3219 H         1 HIS         0.0750
    250 O1         10.4211  -22.0009   38.6108 O.co2     1 HIS        -0.5664
    251 H          11.5758  -18.7878   36.8225 H         1 HIS         0.0484
    252 H          13.1942  -19.4234   36.2727 H         1 HIS         0.0484
    253 H          12.5775  -17.0399   38.4270 H         1 HIS         0.2386
    254 H          13.7555  -21.0170   39.1785 H         1 HIS         0.0324
    255 H          13.7157  -17.0370   40.7167 H         1 HIS         0.1149
@<TRIPOS>BOND
     1    1    2 1  
     2    2    3 1  
     3    2    5 1  
     4    3    4 2  
     5    3    7 am 
     6    5    6 1  
     7    7    8 1  
     8    8    9 1  
     9    9   10 2  
    10    9   11 am 
    11   11   12 1  
    12   12   13 1  
    13   12   15 1  
    14   13   14 2  
    15   13   25 am 
    16   15   16 1  
    17   16   17 2  
    18   16   18 1  
    19   17   19 1  
    20   18   20 ar 
    21   18   21 ar 
    22   19   20 1  
    23   20   22 ar 
    24   21   23 ar 
    25   22   24 ar 
    26   23   24 ar 
    27   25   26 1  
    28   26   27 1  
    29   26   29 1  
    30   27   28 2  
    31   27   31 am 
    32   29   30 1  
    33   30  122 1  
    34   31   32 1  
    35   32   33 1  
    36   32   35 1  
    37   33   34 2  
    38   33   39 am 
    39   35   36 1  
    40   36   37 ar 
    41   36   38 ar 
    42   39   40 1  
    43   39   45 1  
    44   40   41 1  
    45   40   43 1  
    46   41   42 2  
    47   41   46 am 
    48   43   44 1  
    49   44   45 1  
    50   46   47 1  
    51   47   48 1  
    52   47   50 1  
    53   48   49 2  
    54   48   57 am 
    55   50   51 1  
    56   51   52 1  
    57   52   53 1  
    58   53   54 ar 
    59   54   55 ar 
    60   54   56 ar 
    61   57   58 1  
    62   58   59 1  
    63   58   61 1  
    64   59   60 2  
    65   59   71 am 
    66   61   62 1  
    67   62   63 2  
    68   62   64 1  
    69   63   65 1  
    70   64   66 ar 
    71   64   67 ar 
    72   65   66 1  
    73   66   68 ar 
    74   67   69 ar 
    75   68   70 ar 
    76   69   70 ar 
    77   71   72 1  
    78   72   73 1  
    79   72   75 1  
    80   73   74 2  
    81   73   83 am 
    82   75   76 1  
    83   76   77 ar 
    84   76   78 ar 
    85   77   79 ar 
    86   78   80 ar 
    87   79   81 ar 
    88   80   81 ar 
    89   81   82 1  
    90   83   84 1  
    91   84   85 1  
    92   84   87 1  
    93   85   86 2  
    94   85   91 am 
    95   87   88 1  
    96   88   89 ar 
    97   88   90 ar 
    98   91   92 1  
    99   91   97 1  
   100   92   93 1  
   101   92   95 1  
   102   93   94 2  
   103   93   98 am 
   104   95   96 1  
   105   96   97 1  
   106   98   99 1  
   107   99  100 1  
   108   99  102 1  
   109  100  101 2  
   110  100  109 am 
   111  102  103 1  
   112  103  104 ar 
   113  103  105 ar 
   114  104  106 ar 
   115  105  107 ar 
   116  106  108 ar 
   117  107  108 ar 
   118  109  110 1  
   119  110  111 1  
   120  110  113 1  
   121  111  112 2  
   122  111  117 am 
   123  113  114 1  
   124  114  115 1  
   125  115  116 1  
   126  117  118 1  
   127  118  119 1  
   128  118  121 1  
   129  119  120 2  
   130  119  123 am 
   131  121  122 1  
   132  123  124 1  
   133  124  125 1  
   134  124  127 1  
   135  125  126 2  
   136  125  132 am 
   137  127  128 1  
   138  128  129 1  
   139  129  130 ar 
   140  129  131 ar 
   141  132  133 1  
   142  133  134 1  
   143  133  136 1  
   144  134  135 ar 
   145  136  137 1  
   146  137  138 1  
   147  137  139 2  
   148  138  140 1  
   149  139  141 1  
   150  140  141 2  
   151    1  142 1  
   152    1  143 1  
   153    1  144 1  
   154    2  145 1  
   155    5  146 1  
   156    5  147 1  
   157    6  148 1  
   158    7  149 1  
   159    8  150 1  
   160    8  151 1  
   161   11  152 1  
   162   12  153 1  
   163   15  154 1  
   164   15  155 1  
   165   17  156 1  
   166   19  157 1  
   167   21  158 1  
   168   22  159 1  
   169   23  160 1  
   170   24  161 1  
   171   25  162 1  
   172   26  163 1  
   173   29  164 1  
   174   29  165 1  
   175   31  166 1  
   176   32  167 1  
   177   35  168 1  
   178   35  169 1  
   179   40  170 1  
   180   43  171 1  
   181   43  172 1  
   182   44  173 1  
   183   44  174 1  
   184   45  175 1  
   185   45  176 1  
   186   46  177 1  
   187   47  178 1  
   188   50  179 1  
   189   50  180 1  
   190   51  181 1  
   191   51  182 1  
   192   52  183 1  
   193   52  184 1  
   194   53  185 1  
   195   55  186 1  
   196   55  187 1  
   197   56  188 1  
   198   56  189 1  
   199   57  190 1  
   200   58  191 1  
   201   61  192 1  
   202   61  193 1  
   203   63  194 1  
   204   65  195 1  
   205   67  196 1  
   206   68  197 1  
   207   69  198 1  
   208   70  199 1  
   209   71  200 1  
   210   72  201 1  
   211   75  202 1  
   212   75  203 1  
   213   77  204 1  
   214   78  205 1  
   215   79  206 1  
   216   80  207 1  
   217   82  208 1  
   218   83  209 1  
   219   84  210 1  
   220   87  211 1  
   221   87  212 1  
   222   92  213 1  
   223   95  214 1  
   224   95  215 1  
   225   96  216 1  
   226   96  217 1  
   227   97  218 1  
   228   97  219 1  
   229   98  220 1  
   230   99  221 1  
   231  102  222 1  
   232  102  223 1  
   233  104  224 1  
   234  105  225 1  
   235  106  226 1  
   236  107  227 1  
   237  108  228 1  
   238  109  229 1  
   239  110  230 1  
   240  113  231 1  
   241  113  232 1  
   242  114  233 1  
   243  114  234 1  
   244  116  235 1  
   245  116  236 1  
   246  116  237 1  
   247  117  238 1  
   248  118  239 1  
   249  121  240 1  
   250  121  241 1  
   251  123  242 1  
   252  124  243 1  
   253  127  244 1  
   254  127  245 1  
   255  128  246 1  
   256  128  247 1  
   257  132  248 1  
   258  133  249 1  
   259  134  250 ar 
   260  136  251 1  
   261  136  252 1  
   262  138  253 1  
   263  139  254 1  
   264  140  255 1  
@<TRIPOS>SUBSTRUCTURE
     1 SER         1

