3k48_ligand
  -I-interpret- 

255264  0  0  0  0  0  0  0  0999 V2000
    7.9020  -20.9940   25.9280 N   0  3  0  0  0
    9.2030  -21.3810   25.2960 C   0  0  0  0  0
    9.3730  -20.6580   23.9480 C   0  0  0  0  0
    8.9770  -19.4910   23.8220 O   0  0  0  0  0
    9.2800  -22.9070   25.1290 C   0  0  0  0  0
    8.8990  -23.5800   26.3100 O   0  0  0  0  0
    9.9690  -21.3450   22.9610 N   0  0  0  0  0
   10.2220  -20.7920   21.6260 C   0  0  0  0  0
   11.6160  -20.2160   21.5920 C   0  0  0  0  0
   12.3420  -20.3920   20.6200 O   0  0  0  0  0
   11.9650  -19.5180   22.6750 N   0  0  0  0  0
   13.2970  -18.9910   22.9240 C   0  0  0  0  0
   14.1360  -20.0330   23.5950 C   0  0  0  0  0
   15.3140  -19.8170   23.8660 O   0  0  0  0  0
   13.2110  -17.7820   23.8480 C   0  0  0  0  0
   12.4800  -16.6860   23.2310 C   0  0  0  0  0
   11.2090  -16.3020   23.4930 C   0  0  0  0  0
   12.9560  -15.8410   22.1860 C   0  0  0  0  0
   10.8600  -15.2540   22.6890 N   0  0  0  0  0
   11.9190  -14.9490   21.8710 C   0  0  0  0  0
   14.1680  -15.7470   21.4880 C   0  0  0  0  0
   12.0530  -13.9650   20.8810 C   0  0  0  0  0
   14.3000  -14.7770   20.5110 C   0  0  0  0  0
   13.2510  -13.9000   20.2160 C   0  0  0  0  0
   13.5170  -21.1750   23.8850 N   0  0  0  0  0
   14.1920  -22.2700   24.5500 C   0  0  0  0  0
   14.5750  -23.3590   23.5680 C   0  0  0  0  0
   14.9030  -24.4650   23.9520 O   0  0  0  0  0
   13.3090  -22.7840   25.6780 C   0  0  0  0  0
   13.0600  -21.4780   26.9190 S   0  0  0  0  0
   14.5600  -23.0220   22.2790 N   0  0  0  0  0
   15.1300  -23.8720   21.2520 C   0  0  0  0  0
   16.6370  -24.0340   21.5210 C   0  0  0  0  0
   17.3100  -23.0690   21.8800 O   0  0  0  0  0
   14.8940  -23.2290   19.8850 C   0  0  0  0  0
   15.3250  -24.1090   18.7440 C   0  0  0  0  0
   16.5440  -24.2380   18.5170 O   0  0  0  0  0
   14.4450  -24.6610   18.0640 O   0  0  0  0  0
   17.1740  -25.2550   21.3550 N   0  0  0  0  0
   18.5970  -25.4700   21.6780 C   0  0  0  0  0
   19.5790  -24.6810   20.8240 C   0  0  0  0  0
   20.6890  -24.4010   21.2700 O   0  0  0  0  0
   18.7970  -26.9770   21.4400 C   0  0  0  0  0
   17.4310  -27.5590   21.4250 C   0  0  0  0  0
   16.5240  -26.4960   20.8960 C   0  0  0  0  0
   19.1800  -24.3430   19.6050 N   0  0  0  0  0
   20.0470  -23.6010   18.6850 C   0  0  0  0  0
   20.3550  -22.1700   19.1320 C   0  0  0  0  0
   21.3900  -21.6120   18.7680 O   0  0  0  0  0
   19.4330  -23.5920   17.2930 C   0  0  0  0  0
   19.5110  -24.9440   16.6200 C   0  0  0  0  0
   18.7890  -24.9440   15.3070 C   0  0  0  0  0
   17.3440  -24.8240   15.4790 N   0  0  0  0  0
   16.4860  -24.5140   14.5080 C   0  0  0  0  0
   16.9040  -24.2940   13.2610 N   0  0  0  0  0
   15.1950  -24.4190   14.7920 N   0  0  0  0  0
   19.4530  -21.5840   19.9170 N   0  0  0  0  0
   19.6340  -20.2420   20.4740 C   0  0  0  0  0
   19.1450  -20.1740   21.9320 C   0  0  0  0  0
   18.6610  -19.1430   22.3900 O   0  0  0  0  0
   18.9250  -19.2000   19.5850 C   0  0  0  0  0
   17.4880  -19.5000   19.3020 C   0  0  0  0  0
   16.4370  -19.2650   20.1250 C   0  0  0  0  0
   16.9400  -20.0820   18.1100 C   0  0  0  0  0
   15.2670  -19.6730   19.5370 N   0  0  0  0  0
   15.5440  -20.1750   18.2940 C   0  0  0  0  0
   17.4890  -20.5320   16.9050 C   0  0  0  0  0
   14.6840  -20.7080   17.3170 C   0  0  0  0  0
   16.6220  -21.0520   15.9200 C   0  0  0  0  0
   15.2420  -21.1390   16.1410 C   0  0  0  0  0
   19.3030  -21.2790   22.6600 N   0  0  0  0  0
   18.8490  -21.3810   24.0540 C   0  0  0  0  0
   19.5390  -20.3480   24.9030 C   0  0  0  0  0
   20.7430  -20.1290   24.7660 O   0  0  0  0  0
   19.1490  -22.7660   24.6310 C   0  0  0  0  0
   18.6730  -23.0180   26.0540 C   0  0  0  0  0
   17.3740  -23.4500   26.3090 C   0  0  0  0  0
   19.5340  -22.8840   27.1350 C   0  0  0  0  0
   16.9380  -23.7210   27.6110 C   0  0  0  0  0
   19.1070  -23.1450   28.4440 C   0  0  0  0  0
   17.8070  -23.5590   28.6780 C   0  0  0  0  0
   17.3780  -23.8290   29.9650 O   0  0  0  0  0
   18.7460  -19.7120   25.7570 N   0  0  0  0  0
   19.2300  -18.8130   26.7810 C   0  0  0  0  0
   18.5980  -19.2690   28.0890 C   0  0  0  0  0
   17.3790  -19.1690   28.2560 O   0  0  0  0  0
   18.8130  -17.3710   26.4760 C   0  0  0  0  0
   19.4090  -16.3770   27.4530 C   0  0  0  0  0
   20.0410  -16.8250   28.4250 O   0  0  0  0  0
   19.2630  -15.1530   27.2490 O   0  0  0  0  0
   19.4120  -19.7570   29.0330 N   0  0  0  0  0
   18.8510  -20.2030   30.3190 C   0  0  0  0  0
   17.9490  -19.1470   30.9740 C   0  0  0  0  0
   16.9010  -19.4890   31.5340 O   0  0  0  0  0
   20.0900  -20.4430   31.1770 C   0  0  0  0  0
   21.2050  -20.6580   30.2020 C   0  0  0  0  0
   20.8740  -19.8980   28.9700 C   0  0  0  0  0
   18.3840  -17.8850   30.8790 N   0  0  0  0  0
   17.6880  -16.6850   31.3910 C   0  0  0  0  0
   16.1700  -16.6860   31.1820 C   0  0  0  0  0
   15.4370  -16.1980   32.0330 O   0  0  0  0  0
   18.3010  -15.4410   30.7140 C   0  0  0  0  0
   17.9570  -14.1290   31.3710 C   0  0  0  0  0
   17.0860  -13.2340   30.7510 C   0  0  0  0  0
   18.5280  -13.7650   32.5790 C   0  0  0  0  0
   16.7720  -12.0120   31.3360 C   0  0  0  0  0
   18.2140  -12.5450   33.1710 C   0  0  0  0  0
   17.3370  -11.6690   32.5450 C   0  0  0  0  0
   15.7080  -17.2360   30.0570 N   0  0  0  0  0
   14.2820  -17.2860   29.7490 C   0  0  0  0  0
   13.6390  -18.6700   29.6680 C   0  0  0  0  0
   12.6580  -18.8350   28.9330 O   0  0  0  0  0
   14.0410  -16.6640   28.3850 C   0  0  0  0  0
   14.8080  -15.4410   28.0790 C   0  0  0  0  0
   14.0130  -14.7450   26.6450 S   0  0  0  0  0
   14.9070  -13.2030   26.5790 C   0  0  0  0  0
   14.1390  -19.6790   30.3870 N   0  0  0  0  0
   13.5300  -21.0100   30.2580 C   0  0  0  0  0
   12.9090  -21.5000   31.5580 C   0  0  0  0  0
   13.2780  -22.5220   32.1290 O   0  0  0  0  0
   14.4920  -21.9850   29.5790 C   0  0  0  0  0
   14.8780  -21.3960   27.8540 S   0  0  0  0  0
   11.9280  -20.6970   31.9860 N   0  0  0  0  0
   11.0050  -20.9380   33.1030 C   0  0  0  0  0
   11.4840  -20.4690   34.5120 C   0  0  0  0  0
   11.7880  -19.2810   34.6310 O   0  0  0  0  0
   10.3410  -22.3330   33.0910 C   0  0  0  0  0
    9.0990  -22.3600   32.2030 C   0  0  0  0  0
    8.1450  -21.1910   32.5100 C   0  0  0  0  0
    7.8080  -20.4330   31.5660 O   0  0  0  0  0
    7.7580  -21.0220   33.6950 O   0  0  0  0  0
   11.5250  -21.3290   35.5360 N   0  0  0  0  0
   11.8040  -20.9200   36.9350 C   0  0  0  0  0
   10.5380  -21.0270   37.8200 C   0  0  0  0  0
    9.6340  -20.1750   37.7690 O   0  0  0  0  0
   12.3920  -19.4860   37.0080 C   0  0  0  0  0
   12.9790  -19.1470   38.3440 C   0  0  0  0  0
   12.9720  -17.8670   38.8750 N   0  0  0  0  0
   13.5840  -19.9440   39.2640 C   0  0  0  0  0
   13.5630  -17.8950   40.0620 C   0  0  0  0  0
   13.9380  -19.1440   40.3200 N   0  0  0  0  0
   10.4211  -22.0009   38.6108 O   0  0  0  0  0
    7.8645  -19.9801   26.0327 H   0  0  0  0  0
    7.1319  -21.3045   25.3356 H   0  0  0  0  0
    7.8264  -21.4347   26.8448 H   0  0  0  0  0
   10.0223  -21.0750   25.9465 H   0  0  0  0  0
   10.3105  -23.1761   24.8970 H   0  0  0  0  0
    8.5983  -23.2005   24.3307 H   0  0  0  0  0
    8.9587  -24.5279   26.1703 H   0  0  0  0  0
   10.2620  -22.3037   23.1494 H   0  0  0  0  0
    9.4947  -20.0102   21.4071 H   0  0  0  0  0
   10.1301  -21.5791   20.8776 H   0  0  0  0  0
   11.2466  -19.3420   23.3774 H   0  0  0  0  0
   13.7415  -18.7046   21.9709 H   0  0  0  0  0
   14.2237  -17.4415   24.0641 H   0  0  0  0  0
   12.6846  -18.0791   24.7550 H   0  0  0  0  0
   10.5586  -16.7618   24.2370 H   0  0  0  0  0
   14.9911  -16.4258   21.7111 H   0  0  0  0  0
   11.2380  -13.2793   20.6492 H   0  0  0  0  0
   15.2377  -14.6945   19.9614 H   0  0  0  0  0
   13.3887  -13.1474   19.4396 H   0  0  0  0  0
   12.5351  -21.2824   23.6305 H   0  0  0  0  0
   15.1282  -21.9160   24.9818 H   0  0  0  0  0
   13.7924  -23.6393   26.1501 H   0  0  0  0  0
   12.3424  -23.0795   25.2700 H   0  0  0  0  0
   14.1334  -22.1367   22.0057 H   0  0  0  0  0
   14.6595  -24.8551   21.2640 H   0  0  0  0  0
   15.4834  -22.3131   19.8410 H   0  0  0  0  0
   13.8240  -23.0487   19.7814 H   0  0  0  0  0
   17.0436  -23.7287   19.1593 H   0  0  0  0  0
   18.8027  -25.1280   22.6923 H   0  0  0  0  0
   19.4148  -27.4263   22.2175 H   0  0  0  0  0
   19.3236  -27.1680   20.5049 H   0  0  0  0  0
   17.1276  -27.8694   22.4248 H   0  0  0  0  0
   17.3933  -28.4513   20.8001 H   0  0  0  0  0
   16.4066  -26.5383   19.8132 H   0  0  0  0  0
   15.4992  -26.5958   21.2535 H   0  0  0  0  0
   18.2434  -24.6069   19.2991 H   0  0  0  0  0
   21.0030  -24.1245   18.6793 H   0  0  0  0  0
   19.9889  -22.8793   16.6837 H   0  0  0  0  0
   18.3810  -23.3237   17.3901 H   0  0  0  0  0
   19.0439  -25.6824   17.2717 H   0  0  0  0  0
   20.5595  -25.1801   16.4383 H   0  0  0  0  0
   18.9956  -25.8886   14.8038 H   0  0  0  0  0
   19.1359  -24.0890   14.7267 H   0  0  0  0  0
   16.9636  -24.9896   16.4108 H   0  0  0  0  0
   16.2315  -24.0542   12.5325 H   0  0  0  0  0
   17.8962  -24.3655   13.0356 H   0  0  0  0  0
   14.8690  -24.5825   15.7446 H   0  0  0  0  0
   18.5976  -22.0928   20.1403 H   0  0  0  0  0
   20.6988  -20.0095   20.4854 H   0  0  0  0  0
   19.4438  -19.1932   18.6264 H   0  0  0  0  0
   18.9528  -18.2517   20.1216 H   0  0  0  0  0
   16.5112  -18.8150   21.1150 H   0  0  0  0  0
   18.5637  -20.4822   16.7302 H   0  0  0  0  0
   13.6098  -20.7762   17.4890 H   0  0  0  0  0
   17.0342  -21.3920   14.9700 H   0  0  0  0  0
   14.6004  -21.5565   15.3650 H   0  0  0  0  0
   19.7572  -22.0862   22.2326 H   0  0  0  0  0
   17.7719  -21.2142   24.0620 H   0  0  0  0  0
   20.2349  -22.8583   24.6523 H   0  0  0  0  0
   18.6178  -23.4798   24.0013 H   0  0  0  0  0
   16.6820  -23.5799   25.4769 H   0  0  0  0  0
   20.5631  -22.5693   26.9619 H   0  0  0  0  0
   15.9165  -24.0589   27.7854 H   0  0  0  0  0
   19.7984  -23.0220   29.2777 H   0  0  0  0  0
   18.0963  -23.6672   30.5811 H   0  0  0  0  0
   17.7401  -19.8660   25.6870 H   0  0  0  0  0
   20.3186  -18.8345   26.8323 H   0  0  0  0  0
   17.7275  -17.3106   26.5541 H   0  0  0  0  0
   19.1732  -17.1200   25.4783 H   0  0  0  0  0
   18.7465  -15.0222   26.4504 H   0  0  0  0  0
   18.2143  -21.0793   30.1978 H   0  0  0  0  0
   19.9622  -21.3003   31.8380 H   0  0  0  0  0
   20.2908  -19.6006   31.8389 H   0  0  0  0  0
   21.3153  -21.7188   29.9772 H   0  0  0  0  0
   22.1497  -20.3116   30.6211 H   0  0  0  0  0
   21.3840  -18.9357   28.9242 H   0  0  0  0  0
   21.2050  -20.4069   28.0647 H   0  0  0  0  0
   19.2778  -17.7373   30.4103 H   0  0  0  0  0
   17.8320  -16.6779   32.4714 H   0  0  0  0  0
   17.8999  -15.4022   29.7012 H   0  0  0  0  0
   19.3839  -15.5500   30.7734 H   0  0  0  0  0
   16.6431  -13.4969   29.7903 H   0  0  0  0  0
   19.2292  -14.4395   33.0703 H   0  0  0  0  0
   16.0822  -11.3288   30.8405 H   0  0  0  0  0
   18.6581  -12.2762   34.1295 H   0  0  0  0  0
   17.0962  -10.7125   33.0089 H   0  0  0  0  0
   16.3716  -17.6335   29.3922 H   0  0  0  0  0
   13.8302  -16.7611   30.5907 H   0  0  0  0  0
   12.9899  -16.3761   28.3642 H   0  0  0  0  0
   14.3525  -17.4087   27.6526 H   0  0  0  0  0
   15.8593  -15.6597   27.8918 H   0  0  0  0  0
   14.8097  -14.7448   28.9177 H   0  0  0  0  0
   14.7446  -12.6504   27.5044 H   0  0  0  0  0
   15.9710  -13.4063   26.4577 H   0  0  0  0  0
   14.5499  -12.6133   25.7347 H   0  0  0  0  0
   14.9292  -19.5281   31.0141 H   0  0  0  0  0
   12.6738  -20.9373   29.5873 H   0  0  0  0  0
   14.0287  -22.9703   29.5274 H   0  0  0  0  0
   15.4154  -22.0395   30.1556 H   0  0  0  0  0
   11.8077  -19.8195   31.4801 H   0  0  0  0  0
   10.1976  -20.2381   32.8877 H   0  0  0  0  0
   10.0403  -22.5789   34.1094 H   0  0  0  0  0
   11.0598  -23.0520   32.6979 H   0  0  0  0  0
    8.5666  -23.2926   32.3899 H   0  0  0  0  0
    9.4202  -22.2742   31.1649 H   0  0  0  0  0
    8.1299  -21.7090   34.2530 H   0  0  0  0  0
   11.3558  -22.3166   35.3453 H   0  0  0  0  0
   12.5522  -21.6118   37.3219 H   0  0  0  0  0
   11.5758  -18.7878   36.8225 H   0  0  0  0  0
   13.1942  -19.4234   36.2727 H   0  0  0  0  0
   13.7555  -21.0170   39.1785 H   0  0  0  0  0
   13.7157  -17.0370   40.7167 H   0  0  0  0  0
   11.1928  -22.5670   38.5358 H   0  0  0  0  0
  1  2  1  0  0  0
  2  3  1  0  0  0
  2  5  1  0  0  0
  3  4  2  0  0  0
  3  7  1  0  0  0
  5  6  1  0  0  0
  7  8  1  0  0  0
  8  9  1  0  0  0
  9 10  2  0  0  0
  9 11  1  0  0  0
 11 12  1  0  0  0
 12 13  1  0  0  0
 12 15  1  0  0  0
 13 14  2  0  0  0
 13 25  1  0  0  0
 15 16  1  0  0  0
 16 17  4  0  0  0
 16 18  4  0  0  0
 17 19  4  0  0  0
 18 20  4  0  0  0
 18 21  4  0  0  0
 19 20  4  0  0  0
 20 22  4  0  0  0
 21 23  4  0  0  0
 22 24  4  0  0  0
 23 24  4  0  0  0
 25 26  1  0  0  0
 26 27  1  0  0  0
 26 29  1  0  0  0
 27 28  2  0  0  0
 27 31  1  0  0  0
 29 30  1  0  0  0
 30122  1  0  0  0
 31 32  1  0  0  0
 32 33  1  0  0  0
 32 35  1  0  0  0
 33 34  2  0  0  0
 33 39  1  0  0  0
 35 36  1  0  0  0
 36 37  1  0  0  0
 36 38  2  0  0  0
 39 40  1  0  0  0
 39 45  1  0  0  0
 40 41  1  0  0  0
 40 43  1  0  0  0
 41 42  2  0  0  0
 41 46  1  0  0  0
 43 44  1  0  0  0
 44 45  1  0  0  0
 46 47  1  0  0  0
 47 48  1  0  0  0
 47 50  1  0  0  0
 48 49  2  0  0  0
 48 57  1  0  0  0
 50 51  1  0  0  0
 51 52  1  0  0  0
 52 53  1  0  0  0
 53 54  1  0  0  0
 54 55  1  0  0  0
 54 56  2  0  0  0
 57 58  1  0  0  0
 58 59  1  0  0  0
 58 61  1  0  0  0
 59 60  2  0  0  0
 59 71  1  0  0  0
 61 62  1  0  0  0
 62 63  4  0  0  0
 62 64  4  0  0  0
 63 65  4  0  0  0
 64 66  4  0  0  0
 64 67  4  0  0  0
 65 66  4  0  0  0
 66 68  4  0  0  0
 67 69  4  0  0  0
 68 70  4  0  0  0
 69 70  4  0  0  0
 71 72  1  0  0  0
 72 73  1  0  0  0
 72 75  1  0  0  0
 73 74  2  0  0  0
 73 83  1  0  0  0
 75 76  1  0  0  0
 76 77  4  0  0  0
 76 78  4  0  0  0
 77 79  4  0  0  0
 78 80  4  0  0  0
 79 81  4  0  0  0
 80 81  4  0  0  0
 81 82  1  0  0  0
 83 84  1  0  0  0
 84 85  1  0  0  0
 84 87  1  0  0  0
 85 86  2  0  0  0
 85 91  1  0  0  0
 87 88  1  0  0  0
 88 89  2  0  0  0
 88 90  1  0  0  0
 91 92  1  0  0  0
 91 97  1  0  0  0
 92 93  1  0  0  0
 92 95  1  0  0  0
 93 94  2  0  0  0
 93 98  1  0  0  0
 95 96  1  0  0  0
 96 97  1  0  0  0
 98 99  1  0  0  0
 99100  1  0  0  0
 99102  1  0  0  0
100101  2  0  0  0
100109  1  0  0  0
102103  1  0  0  0
103104  4  0  0  0
103105  4  0  0  0
104106  4  0  0  0
105107  4  0  0  0
106108  4  0  0  0
107108  4  0  0  0
109110  1  0  0  0
110111  1  0  0  0
110113  1  0  0  0
111112  2  0  0  0
111117  1  0  0  0
113114  1  0  0  0
114115  1  0  0  0
115116  1  0  0  0
117118  1  0  0  0
118119  1  0  0  0
118121  1  0  0  0
119120  2  0  0  0
119123  1  0  0  0
121122  1  0  0  0
123124  1  0  0  0
124125  1  0  0  0
124127  1  0  0  0
125126  2  0  0  0
125132  1  0  0  0
127128  1  0  0  0
128129  1  0  0  0
129130  2  0  0  0
129131  1  0  0  0
132133  1  0  0  0
133134  1  0  0  0
133136  1  0  0  0
134135  2  0  0  0
136137  1  0  0  0
137138  4  0  0  0
137139  4  0  0  0
138140  4  0  0  0
139141  4  0  0  0
140141  4  0  0  0
134142  1  0  0  0
  1143  1  0  0  0
  1144  1  0  0  0
  1145  1  0  0  0
  2146  1  0  0  0
  5147  1  0  0  0
  5148  1  0  0  0
  6149  1  0  0  0
  7150  1  0  0  0
  8151  1  0  0  0
  8152  1  0  0  0
 11153  1  0  0  0
 12154  1  0  0  0
 15155  1  0  0  0
 15156  1  0  0  0
 17157  1  0  0  0
 21158  1  0  0  0
 22159  1  0  0  0
 23160  1  0  0  0
 24161  1  0  0  0
 25162  1  0  0  0
 26163  1  0  0  0
 29164  1  0  0  0
 29165  1  0  0  0
 31166  1  0  0  0
 32167  1  0  0  0
 35168  1  0  0  0
 35169  1  0  0  0
 37170  1  0  0  0
 40171  1  0  0  0
 43172  1  0  0  0
 43173  1  0  0  0
 44174  1  0  0  0
 44175  1  0  0  0
 45176  1  0  0  0
 45177  1  0  0  0
 46178  1  0  0  0
 47179  1  0  0  0
 50180  1  0  0  0
 50181  1  0  0  0
 51182  1  0  0  0
 51183  1  0  0  0
 52184  1  0  0  0
 52185  1  0  0  0
 53186  1  0  0  0
 55187  1  0  0  0
 55188  1  0  0  0
 56189  1  0  0  0
 57190  1  0  0  0
 58191  1  0  0  0
 61192  1  0  0  0
 61193  1  0  0  0
 63194  1  0  0  0
 67195  1  0  0  0
 68196  1  0  0  0
 69197  1  0  0  0
 70198  1  0  0  0
 71199  1  0  0  0
 72200  1  0  0  0
 75201  1  0  0  0
 75202  1  0  0  0
 77203  1  0  0  0
 78204  1  0  0  0
 79205  1  0  0  0
 80206  1  0  0  0
 82207  1  0  0  0
 83208  1  0  0  0
 84209  1  0  0  0
 87210  1  0  0  0
 87211  1  0  0  0
 90212  1  0  0  0
 92213  1  0  0  0
 95214  1  0  0  0
 95215  1  0  0  0
 96216  1  0  0  0
 96217  1  0  0  0
 97218  1  0  0  0
 97219  1  0  0  0
 98220  1  0  0  0
 99221  1  0  0  0
102222  1  0  0  0
102223  1  0  0  0
104224  1  0  0  0
105225  1  0  0  0
106226  1  0  0  0
107227  1  0  0  0
108228  1  0  0  0
109229  1  0  0  0
110230  1  0  0  0
113231  1  0  0  0
113232  1  0  0  0
114233  1  0  0  0
114234  1  0  0  0
116235  1  0  0  0
116236  1  0  0  0
116237  1  0  0  0
117238  1  0  0  0
118239  1  0  0  0
121240  1  0  0  0
121241  1  0  0  0
123242  1  0  0  0
124243  1  0  0  0
127244  1  0  0  0
127245  1  0  0  0
128246  1  0  0  0
128247  1  0  0  0
131248  1  0  0  0
132249  1  0  0  0
133250  1  0  0  0
136251  1  0  0  0
136252  1  0  0  0
139253  1  0  0  0
140254  1  0  0  0
142255  1  0  0  0
M  END
$$$$
