4alg_ligand
  -I-interpret- 

 52 56  0  0  0  0  0  0  0  0999 V2000
    7.8980   -7.8790   17.0070 O   0  0  0  0  0
    8.7570   -7.0500   17.2640 C   0  0  0  0  0
    9.5310   -7.0130   18.4160 N   0  0  0  0  0
    9.4610   -8.0180   19.5040 C   0  0  0  0  0
   10.7960   -8.7350   19.6440 C   0  0  0  0  0
   11.1040   -9.2440   20.8470 N   0  0  0  0  0
   12.2880   -9.8800   20.9690 C   0  0  0  0  0
   13.1900  -10.0160   19.9410 C   0  0  0  0  0
   12.8600   -9.4860   18.7160 C   0  0  0  0  0
   11.6500   -8.8370   18.5550 C   0  0  0  0  0
    8.9190   -7.4290   20.8030 C   0  0  0  0  0
    9.1380   -5.9870   16.5010 N   0  0  0  0  0
   10.1510   -5.2830   17.1310 C   0  0  0  0  0
   10.4290   -5.9030   18.3540 C   0  0  0  0  0
   10.8330   -4.1410   16.7250 C   0  0  0  0  0
   11.7840   -3.5730   17.4270 N   0  0  0  0  0
   12.0940   -4.1360   18.6410 C   0  0  0  0  0
   11.4530   -5.2920   19.1450 C   0  0  0  0  0
   11.8600   -5.7950   20.4050 C   0  0  0  0  0
   13.1080   -3.5250   19.4080 C   0  0  0  0  0
   13.4730   -4.0170   20.6360 C   0  0  0  0  0
   12.8450   -5.1770   21.1220 C   0  0  0  0  0
   13.2900   -5.6010   22.3490 O   0  0  0  0  0
   12.4260   -6.4350   23.1120 C   0  0  0  0  0
   14.5580   -3.3570   21.3910 C   0  0  0  0  0
   14.5280   -2.9050   22.6620 C   0  0  0  0  0
   13.4810   -2.8460   23.7090 C   0  0  0  0  0
   15.7230   -2.3890   22.9840 O   0  0  0  0  0
   16.5820   -2.5330   21.8600 N   0  0  0  0  0
   15.8700   -3.1100   20.9340 C   0  0  0  0  0
   16.4930   -3.4040   19.6110 C   0  0  0  0  0
    8.7294   -8.7797   19.2346 H   0  0  0  0  0
   12.5433  -10.3101   21.9375 H   0  0  0  0  0
   14.1396  -10.5292   20.0925 H   0  0  0  0  0
   13.5488   -9.5771   17.8762 H   0  0  0  0  0
   11.3718   -8.4131   17.5901 H   0  0  0  0  0
    8.7754   -8.2278   21.5306 H   0  0  0  0  0
    9.6301   -6.7020   21.1953 H   0  0  0  0  0
    7.9657   -6.9379   20.6078 H   0  0  0  0  0
    8.7350   -5.7446   15.5959 H   0  0  0  0  0
   10.5617   -3.6927   15.7692 H   0  0  0  0  0
   11.3808   -6.6872   20.8080 H   0  0  0  0  0
   13.6131   -2.6420   19.0164 H   0  0  0  0  0
   11.4944   -5.9053   23.3113 H   0  0  0  0  0
   12.2148   -7.3461   22.5521 H   0  0  0  0  0
   12.9092   -6.6903   24.0551 H   0  0  0  0  0
   12.6439   -2.2469   23.3506 H   0  0  0  0  0
   13.1369   -3.8554   23.9342 H   0  0  0  0  0
   13.8948   -2.3924   24.6096 H   0  0  0  0  0
   16.4550   -4.4771   19.4234 H   0  0  0  0  0
   15.9466   -2.8774   18.8285 H   0  0  0  0  0
   17.5311   -3.0716   19.6178 H   0  0  0  0  0
  1  2  2  0  0  0
  2  3  1  0  0  0
  2 12  1  0  0  0
  3  4  1  0  0  0
  3 14  1  0  0  0
  4  5  1  0  0  0
  4 11  1  0  0  0
  5  6  4  0  0  0
  5 10  4  0  0  0
  6  7  4  0  0  0
  7  8  4  0  0  0
  8  9  4  0  0  0
  9 10  4  0  0  0
 12 13  1  0  0  0
 13 14  4  0  0  0
 13 15  4  0  0  0
 14 18  4  0  0  0
 15 16  4  0  0  0
 16 17  4  0  0  0
 17 18  4  0  0  0
 17 20  4  0  0  0
 18 19  4  0  0  0
 19 22  4  0  0  0
 20 21  4  0  0  0
 21 22  4  0  0  0
 21 25  1  0  0  0
 22 23  1  0  0  0
 23 24  1  0  0  0
 25 26  4  0  0  0
 25 30  4  0  0  0
 26 27  1  0  0  0
 26 28  4  0  0  0
 28 29  4  0  0  0
 29 30  4  0  0  0
 30 31  1  0  0  0
  4 32  1  0  0  0
  7 33  1  0  0  0
  8 34  1  0  0  0
  9 35  1  0  0  0
 10 36  1  0  0  0
 11 37  1  0  0  0
 11 38  1  0  0  0
 11 39  1  0  0  0
 12 40  1  0  0  0
 15 41  1  0  0  0
 19 42  1  0  0  0
 20 43  1  0  0  0
 24 44  1  0  0  0
 24 45  1  0  0  0
 24 46  1  0  0  0
 27 47  1  0  0  0
 27 48  1  0  0  0
 27 49  1  0  0  0
 31 50  1  0  0  0
 31 51  1  0  0  0
 31 52  1  0  0  0
M  END
$$$$
