1yxd_ligand
  -I-interpret- 

 26 25  0  0  0  0  0  0  0  0999 V2000
  -42.7470   25.1820    5.3700 N   0  3  0  0  0
  -43.1380   24.5490    6.6710 C   0  0  0  0  0
  -41.9400   24.3840    7.5560 C   0  0  0  0  0
  -40.7960   24.5660    7.1240 O   0  0  0  0  0
  -43.8030   23.1790    6.4790 C   0  0  0  0  0
  -42.8940   22.0770    5.9150 C   0  0  0  0  0
  -43.7420   20.8480    5.5670 C   0  0  0  0  0
  -43.0160   19.5230    5.5360 C   0  0  0  0  0
  -41.8270   19.5670    4.7040 N   0  3  0  0  0
  -42.0740   24.0590    8.7390 O   0  0  0  0  0
  -42.3113   26.0864    5.5507 H   0  0  0  0  0
  -42.0863   24.5761    4.8834 H   0  0  0  0  0
  -43.5783   25.3129    4.7935 H   0  0  0  0  0
  -43.8617   25.2187    7.1356 H   0  0  0  0  0
  -40.8405   24.8120    6.1971 H   0  0  0  0  0
  -44.6047   23.3216    5.7544 H   0  0  0  0  0
  -44.1187   22.8456    7.4676 H   0  0  0  0  0
  -42.1461   21.8048    6.6597 H   0  0  0  0  0
  -42.3939   22.4408    5.0174 H   0  0  0  0  0
  -44.1169   21.0132    4.5569 H   0  0  0  0  0
  -44.4936   20.7648    6.3520 H   0  0  0  0  0
  -43.6924   18.7759    5.1208 H   0  0  0  0  0
  -42.7086   19.2814    6.5535 H   0  0  0  0  0
  -41.3725   18.6539    4.7141 H   0  0  0  0  0
  -42.0909   19.8062    3.7482 H   0  0  0  0  0
  -41.1852   20.2717    5.0672 H   0  0  0  0  0
  1  2  1  0  0  0
  2  3  1  0  0  0
  2  5  1  0  0  0
  3  4  1  0  0  0
  3 10  2  0  0  0
  5  6  1  0  0  0
  6  7  1  0  0  0
  7  8  1  0  0  0
  8  9  1  0  0  0
  1 11  1  0  0  0
  1 12  1  0  0  0
  1 13  1  0  0  0
  2 14  1  0  0  0
  4 15  1  0  0  0
  5 16  1  0  0  0
  5 17  1  0  0  0
  6 18  1  0  0  0
  6 19  1  0  0  0
  7 20  1  0  0  0
  7 21  1  0  0  0
  8 22  1  0  0  0
  8 23  1  0  0  0
  9 24  1  0  0  0
  9 25  1  0  0  0
  9 26  1  0  0  0
M  END
$$$$
