1b6h_ligand
  -I-interpret- 

 64 63  0  0  0  0  0  0  0  0999 V2000
    6.9380   16.5310   15.1250 N   0  3  0  0  0
    6.4620   17.8240   14.5740 C   0  0  0  0  0
    5.2090   18.3150   15.3120 C   0  0  0  0  0
    4.4430   17.5090   15.8290 O   0  0  0  0  0
    6.1930   17.7870   13.0570 C   0  0  0  0  0
    5.2520   16.6620   12.6330 C   0  0  0  0  0
    5.2210   16.5570   11.0870 C   0  0  0  0  0
    6.5020   15.8980   10.5730 C   0  0  0  0  0
    6.5780   14.4400   10.8960 N   0  3  0  0  0
    5.0520   19.6220   15.3700 N   0  0  0  0  0
    3.9570   20.2560   16.0860 C   0  0  0  0  0
    4.3130   21.7180   16.4190 C   0  0  0  0  0
    5.3540   21.6450   17.5830 C   0  0  0  0  0
    5.5270   22.9880   18.2430 C   0  0  0  0  0
    2.6490   20.2390   15.3140 C   0  0  0  0  0
    2.6210   20.5390   14.1260 O   0  0  0  0  0
    1.5780   19.8850   16.0210 N   0  0  0  0  0
    0.2710   19.8990   15.3840 C   0  0  0  0  0
   -0.7230   20.7610   16.1800 C   0  0  0  0  0
   -1.7540   21.0940   15.5420 O   0  0  0  0  0
   -0.3290   18.5040   15.2150 C   0  0  0  0  0
   -1.3930   18.5240   14.1090 C   0  0  0  0  0
   -2.1320   17.2180   13.9920 C   0  0  0  0  0
   -2.9400   17.0800   12.7120 C   0  0  0  0  0
   -3.6970   18.3410   12.4480 N   0  3  0  0  0
   -0.4410   21.1260   17.3310 O   0  0  0  0  0
    7.0950   16.6275   16.1282 H   0  0  0  0  0
    6.2344   15.8117   14.9574 H   0  0  0  0  0
    7.8105   16.2681   14.6668 H   0  0  0  0  0
    7.2799   18.5263   14.7353 H   0  0  0  0  0
    7.1481   17.6207   12.5588 H   0  0  0  0  0
    5.7195   18.7303   12.7850 H   0  0  0  0  0
    4.2479   16.8750   12.9997 H   0  0  0  0  0
    5.6061   15.7196   13.0509 H   0  0  0  0  0
    5.1421   17.5585   10.6641 H   0  0  0  0  0
    4.3653   15.9513   10.7889 H   0  0  0  0  0
    7.3460   16.3900   11.0565 H   0  0  0  0  0
    6.5155   15.9992    9.4878 H   0  0  0  0  0
    7.4496   14.0569   10.5300 H   0  0  0  0  0
    6.5488   14.3152   11.9079 H   0  0  0  0  0
    5.7873   13.9569   10.4696 H   0  0  0  0  0
    5.7292   20.2156   14.8910 H   0  0  0  0  0
    3.8142   19.6742   16.9966 H   0  0  0  0  0
    3.4295   22.2858   16.7107 H   0  0  0  0  0
    4.7225   22.2351   15.5512 H   0  0  0  0  0
    6.3141   21.3325   17.1724 H   0  0  0  0  0
    4.9945   20.9348   18.3276 H   0  0  0  0  0
    5.8777   23.7109   17.5064 H   0  0  0  0  0
    4.5710   23.3171   18.6503 H   0  0  0  0  0
    6.2570   22.9044   19.0481 H   0  0  0  0  0
    1.6731   19.6073   16.9978 H   0  0  0  0  0
    0.4353   20.3233   14.3935 H   0  0  0  0  0
   -1.7402   20.6808   14.6756 H   0  0  0  0  0
   -0.7908   18.1950   16.1528 H   0  0  0  0  0
    0.4603   17.8036   14.9421 H   0  0  0  0  0
   -0.8877   18.7092   13.1611 H   0  0  0  0  0
   -2.1188   19.2988   14.3561 H   0  0  0  0  0
   -2.8331   17.1665   14.8250 H   0  0  0  0  0
   -1.3867   16.4227   13.9922 H   0  0  0  0  0
   -3.6438   16.2546   12.8191 H   0  0  0  0  0
   -2.2634   16.8866   11.8796 H   0  0  0  0  0
   -4.2357   18.2390   11.5879 H   0  0  0  0  0
   -4.3293   18.5259   13.2267 H   0  0  0  0  0
   -3.0409   19.1158   12.3498 H   0  0  0  0  0
  3  2  1  0  0  0
  2  5  1  0  0  0
  2  1  1  0  0  0
  5  6  1  0  0  0
  6  7  1  0  0  0
  7  8  1  0  0  0
  8  9  1  0  0  0
  3  4  2  0  0  0
 11 10  1  0  0  0
 15 11  1  0  0  0
 11 12  1  0  0  0
 12 13  1  0  0  0
 13 14  1  0  0  0
 15 16  2  0  0  0
 18 19  1  0  0  0
 18 21  1  0  0  0
 17 18  1  0  0  0
 21 22  1  0  0  0
 22 23  1  0  0  0
 23 24  1  0  0  0
 24 25  1  0  0  0
 19 26  2  0  0  0
 19 20  1  0  0  0
 10  3  1  0  0  0
 15 17  1  0  0  0
  1 27  1  0  0  0
  1 28  1  0  0  0
  1 29  1  0  0  0
  2 30  1  0  0  0
  5 31  1  0  0  0
  5 32  1  0  0  0
  6 33  1  0  0  0
  6 34  1  0  0  0
  7 35  1  0  0  0
  7 36  1  0  0  0
  8 37  1  0  0  0
  8 38  1  0  0  0
  9 39  1  0  0  0
  9 40  1  0  0  0
  9 41  1  0  0  0
 10 42  1  0  0  0
 11 43  1  0  0  0
 12 44  1  0  0  0
 12 45  1  0  0  0
 13 46  1  0  0  0
 13 47  1  0  0  0
 14 48  1  0  0  0
 14 49  1  0  0  0
 14 50  1  0  0  0
 17 51  1  0  0  0
 18 52  1  0  0  0
 20 53  1  0  0  0
 21 54  1  0  0  0
 21 55  1  0  0  0
 22 56  1  0  0  0
 22 57  1  0  0  0
 23 58  1  0  0  0
 23 59  1  0  0  0
 24 60  1  0  0  0
 24 61  1  0  0  0
 25 62  1  0  0  0
 25 63  1  0  0  0
 25 64  1  0  0  0
M  END
$$$$
