1h0r_ligand
  -I-interpret- 

 22 22  0  0  0  0  0  0  0  0999 V2000
   30.0170   72.0450   20.6080 C   0  0  0  0  0
   29.1550   73.2480   20.2380 C   0  0  0  0  0
   29.8850   74.4610   20.6060 O   0  0  0  0  0
   28.9840   73.2600   18.7050 C   0  0  0  0  0
   28.1760   74.3800   18.3500 O   0  0  0  0  0
   28.5740   71.9340   18.0660 C   0  0  0  0  0
   28.8250   70.8150   18.6800 C   0  0  0  0  0
   30.1910   69.5200   20.2350 C   0  0  0  0  0
   31.4300   69.6150   20.5250 O   0  0  0  0  0
   28.1950   70.6710   21.0010 O   0  0  0  0  0
   29.6200   68.3370   20.1760 O   0  0  0  0  0
   29.3490   70.7600   20.1040 C   0  0  0  0  0
   30.1253   71.9962   21.6915 H   0  0  0  0  0
   30.9994   72.1476   20.1471 H   0  0  0  0  0
   28.1906   73.1990   20.7435 H   0  0  0  0  0
   30.0078   74.4829   21.5579 H   0  0  0  0  0
   29.9713   73.3829   18.2597 H   0  0  0  0  0
   28.5050   75.1644   18.7950 H   0  0  0  0  0
   28.0725   71.9257   17.0982 H   0  0  0  0  0
   28.6520   69.8782   18.1504 H   0  0  0  0  0
   28.5001   70.6348   21.9105 H   0  0  0  0  0
   28.6934   68.4412   19.9476 H   0  0  0  0  0
  1  2  1  0  0  0
 12  1  1  0  0  0
  2  3  1  0  0  0
  2  4  1  0  0  0
  4  5  1  0  0  0
  6  4  1  0  0  0
  7  6  2  0  0  0
 12  7  1  0  0  0
  8  9  2  0  0  0
  8 11  1  0  0  0
  8 12  1  0  0  0
 12 10  1  0  0  0
  1 13  1  0  0  0
  1 14  1  0  0  0
  2 15  1  0  0  0
  3 16  1  0  0  0
  4 17  1  0  0  0
  5 18  1  0  0  0
  6 19  1  0  0  0
  7 20  1  0  0  0
 10 21  1  0  0  0
 11 22  1  0  0  0
M  END
$$$$
