6hgv_ligand
  -I-interpret- 

 60 61  0  0  0  0  0  0  0  0999 V2000
   -8.3990  -30.5880  -34.4770 C   0  0  0  0  0
   -9.3000  -32.8890  -34.4230 N   0  3  0  0  0
  -10.7200  -32.9350  -34.0810 C   0  0  0  0  0
  -10.9300  -32.3670  -32.6790 C   0  0  0  0  0
  -16.3890  -24.8910  -37.8720 C   0  0  0  0  0
  -17.8040  -24.9950  -37.3000 C   0  0  0  0  0
  -18.7230  -23.9800  -39.4390 C   0  0  0  0  0
  -16.2640  -23.7290  -38.8580 C   0  0  0  0  0
  -14.2530  -25.5430  -36.6930 C   0  0  0  0  0
  -12.0840  -26.0910  -35.3590 C   0  0  0  0  0
  -11.4120  -25.9160  -34.1580 C   0  0  0  0  0
  -10.2390  -26.6160  -33.8980 C   0  0  0  0  0
   -9.7330  -27.4970  -34.8420 C   0  0  0  0  0
   -8.3670  -29.3510  -35.3740 C   0  0  0  0  0
   -8.9610  -31.7600  -35.2840 C   0  0  0  0  0
  -11.1830  -34.3890  -34.0840 C   0  0  0  0  0
  -11.5770  -32.1580  -35.0820 C   0  0  0  0  0
  -10.3990  -27.6740  -36.0460 C   0  0  0  0  0
  -11.5690  -26.9730  -36.3010 C   0  0  0  0  0
  -18.8500  -25.1050  -38.4080 C   0  0  0  0  0
  -17.2970  -23.8350  -39.9790 C   0  0  0  0  0
  -13.3150  -25.3340  -35.5900 N   0  0  0  0  0
  -15.4360  -24.6980  -36.7740 N   0  0  0  0  0
  -14.0860  -26.3720  -37.5220 O   0  0  0  0  0
   -8.5430  -28.2060  -34.5800 O   0  0  0  0  0
   -7.1080  -30.8920  -34.0430 O   0  0  0  0  0
   -9.0264  -30.3988  -33.6060 H   0  0  0  0  0
   -9.0726  -33.7457  -34.9277 H   0  0  0  0  0
   -8.7731  -32.7891  -33.5554 H   0  0  0  0  0
  -11.9873  -32.4235  -32.4201 H   0  0  0  0  0
  -10.3477  -32.9465  -31.9626 H   0  0  0  0  0
  -10.6043  -31.3270  -32.6572 H   0  0  0  0  0
  -16.1720  -25.8150  -38.4080 H   0  0  0  0  0
  -18.0088  -24.0949  -36.7204 H   0  0  0  0  0
  -17.8611  -25.8907  -36.6815 H   0  0  0  0  0
  -18.9934  -23.0443  -38.9497 H   0  0  0  0  0
  -19.3770  -24.2181  -40.2779 H   0  0  0  0  0
  -15.2685  -23.7567  -39.3011 H   0  0  0  0  0
  -16.4335  -22.7974  -38.3182 H   0  0  0  0  0
  -11.8063  -25.2249  -33.4130 H   0  0  0  0  0
   -9.7170  -26.4722  -32.9520 H   0  0  0  0  0
   -9.1657  -29.4121  -36.1132 H   0  0  0  0  0
   -7.4089  -29.2963  -35.8908 H   0  0  0  0  0
   -8.2019  -32.0845  -35.9958 H   0  0  0  0  0
   -9.8673  -31.4275  -35.7901 H   0  0  0  0  0
  -12.2328  -34.4353  -33.7943 H   0  0  0  0  0
  -11.0620  -34.8054  -35.0840 H   0  0  0  0  0
  -10.5838  -34.9612  -33.3758 H   0  0  0  0  0
  -11.4535  -32.5889  -36.0756 H   0  0  0  0  0
  -12.6242  -32.2188  -34.7859 H   0  0  0  0  0
  -11.2618  -31.1147  -35.0953 H   0  0  0  0  0
  -10.0033  -28.3636  -36.7916 H   0  0  0  0  0
  -12.0886  -27.1155  -37.2485 H   0  0  0  0  0
  -19.8368  -25.0351  -37.9503 H   0  0  0  0  0
  -18.6999  -26.0542  -38.9223 H   0  0  0  0  0
  -17.2498  -22.9213  -40.5715 H   0  0  0  0  0
  -17.0663  -24.7211  -40.5704 H   0  0  0  0  0
  -13.5387  -24.5954  -34.9230 H   0  0  0  0  0
  -15.6008  -23.9767  -36.0719 H   0  0  0  0  0
   -7.1355  -31.6694  -33.4805 H   0  0  0  0  0
 14  1  1  0  0  0
  1 15  1  0  0  0
  1 26  1  0  0  0
  2  3  1  0  0  0
 15  2  1  0  0  0
  3  4  1  0  0  0
  3 16  1  0  0  0
  3 17  1  0  0  0
  5  6  1  0  0  0
  5  8  1  0  0  0
 23  5  1  0  0  0
  6 20  1  0  0  0
 20  7  1  0  0  0
 21  7  1  0  0  0
  8 21  1  0  0  0
 22  9  1  0  0  0
  9 23  1  0  0  0
  9 24  2  0  0  0
 11 10  4  0  0  0
 10 19  4  0  0  0
 10 22  1  0  0  0
 12 11  4  0  0  0
 13 12  4  0  0  0
 13 18  4  0  0  0
 25 13  1  0  0  0
 14 25  1  0  0  0
 18 19  4  0  0  0
  1 27  1  0  0  0
  2 28  1  0  0  0
  2 29  1  0  0  0
  4 30  1  0  0  0
  4 31  1  0  0  0
  4 32  1  0  0  0
  5 33  1  0  0  0
  6 34  1  0  0  0
  6 35  1  0  0  0
  7 36  1  0  0  0
  7 37  1  0  0  0
  8 38  1  0  0  0
  8 39  1  0  0  0
 11 40  1  0  0  0
 12 41  1  0  0  0
 14 42  1  0  0  0
 14 43  1  0  0  0
 15 44  1  0  0  0
 15 45  1  0  0  0
 16 46  1  0  0  0
 16 47  1  0  0  0
 16 48  1  0  0  0
 17 49  1  0  0  0
 17 50  1  0  0  0
 17 51  1  0  0  0
 18 52  1  0  0  0
 19 53  1  0  0  0
 20 54  1  0  0  0
 20 55  1  0  0  0
 21 56  1  0  0  0
 21 57  1  0  0  0
 22 58  1  0  0  0
 23 59  1  0  0  0
 26 60  1  0  0  0
M  END
$$$$
