2c1n_ligand
  -I-interpret- 

125124  0  0  0  0  0  0  0  0999 V2000
    3.6460   -1.7980    9.0250 N   0  3  0  0  0
    4.1940   -0.5140    9.5400 C   0  0  0  0  0
    5.3830   -0.0120    8.6850 C   0  0  0  0  0
    5.6150   -0.5180    7.5700 O   0  0  0  0  0
    4.5960   -0.6570   11.0310 C   0  0  0  0  0
    6.1100    0.9800    9.2250 N   0  0  0  0  0
    7.2180    1.6670    8.5300 C   0  0  0  0  0
    8.4670    0.8100    8.4290 C   0  0  0  0  0
    8.9590    0.2390    9.4170 O   0  0  0  0  0
    7.5710    3.0150    9.1660 C   0  0  0  0  0
    7.0870    3.1730   10.5690 C   0  0  0  0  0
    8.1040    2.7870   11.6720 C   0  0  0  0  0
    9.0540    1.7400   11.3430 N   0  0  0  0  0
   10.1450    1.4650   12.0520 C   0  0  0  0  0
   10.4250    2.1600   13.1400 N   0  0  0  0  0
   10.9540    0.4910   11.6620 N   0  0  0  0  0
    8.9890    0.7570    7.2180 N   0  0  0  0  0
   10.1060   -0.0820    6.9350 C   0  0  0  0  0
   11.4060    0.6270    7.2380 C   0  0  0  0  0
   11.6240    1.7800    6.8720 O   0  0  0  0  0
   10.0230   -0.5780    5.4980 C   0  0  0  0  0
    8.9360   -1.6520    5.3230 C   0  0  0  0  0
    7.9990   -1.2740    4.1860 C   0  0  0  0  0
    6.6760   -2.0280    4.2670 C   0  0  0  0  0
    6.8810   -3.5080    4.3350 N   0  3  0  0  0
   12.2430   -0.0750    7.9670 N   0  0  0  0  0
   13.6310    0.2820    8.0540 C   0  0  0  0  0
   14.0650    0.4970    9.5060 C   0  0  0  0  0
   13.8720   -0.6570   10.2960 O   0  0  0  0  0
   14.4790   -0.8180    7.4250 C   0  0  0  0  0
   13.9870   -1.8810    7.0710 O   0  0  0  0  0
   14.5120   -0.4430   11.7460 P   0  0  0  0  0
   13.5380    0.4900   12.5770 O   0  0  0  0  0
   16.0020    0.1070   11.6670 O   0  0  0  0  0
   14.6320   -1.7800   12.6240 O   0  0  0  0  0
   15.7560   -0.4920    7.2770 N   0  0  0  0  0
   16.8620   -1.4170    7.1040 C   0  0  0  0  0
   16.9400   -2.4750    8.2360 C   0  0  0  0  0
   17.5060   -3.5430    8.0630 O   0  0  0  0  0
   18.1270   -0.5370    7.0470 C   0  0  0  0  0
   18.3530   -0.1260    5.6910 O   0  0  0  0  0
   19.3490   -1.1530    7.6790 C   0  0  0  0  0
   16.3600   -2.1820    9.3920 N   0  0  0  0  0
   16.5500   -3.0530   10.5610 C   0  0  0  0  0
   15.4520   -4.0040   11.0040 C   0  0  0  0  0
   15.5450   -4.5890   12.0930 O   0  0  0  0  0
   14.4190   -4.1690   10.1840 N   0  0  0  0  0
   13.3440   -5.1270   10.4850 C   0  0  0  0  0
   13.2620   -6.3070    9.5240 C   0  0  0  0  0
   13.9840   -6.3610    8.5070 O   0  0  0  0  0
   12.3720   -7.2520    9.8380 N   0  0  0  0  0
   12.1080   -8.3940    8.9600 C   0  0  0  0  0
   13.3920   -9.2110    8.7910 C   0  0  0  0  0
   13.3790  -10.3270    8.2470 O   0  0  0  0  0
   11.5620   -7.9160    7.5930 C   0  0  0  0  0
   11.0970   -9.0240    6.6420 C   0  0  0  0  0
   11.0270   -8.5380    5.2020 C   0  0  0  0  0
   11.1200   -9.6970    4.2200 C   0  0  0  0  0
   11.2130   -9.2230    2.8000 N   0  3  0  0  0
   14.4828   -8.7417    9.2121 O   0  0  0  0  0
    3.3869   -1.6869    8.0447 H   0  0  0  0  0
    4.3542   -2.5271    9.1102 H   0  0  0  0  0
    2.8225   -2.0571    9.5683 H   0  0  0  0  0
    3.4085    0.2380    9.4649 H   0  0  0  0  0
    5.4142   -1.3719   11.1184 H   0  0  0  0  0
    4.9159    0.3119   11.4143 H   0  0  0  0  0
    3.7395   -1.0112   11.6046 H   0  0  0  0  0
    5.8830    1.2775   10.1739 H   0  0  0  0  0
    6.8450    1.8509    7.5224 H   0  0  0  0  0
    7.0882    3.7890    8.5695 H   0  0  0  0  0
    8.6585    3.0848    9.1905 H   0  0  0  0  0
    6.2364    2.5008   10.6817 H   0  0  0  0  0
    6.8685    4.2322   10.7048 H   0  0  0  0  0
    7.5137    2.4065   12.5056 H   0  0  0  0  0
    8.6965    3.6821   11.8615 H   0  0  0  0  0
    8.8725    1.1772   10.5119 H   0  0  0  0  0
    9.8033    2.9111   13.4394 H   0  0  0  0  0
   11.7928    0.2779   12.2018 H   0  0  0  0  0
   10.7380   -0.0458   10.8220 H   0  0  0  0  0
    8.5867    1.3255    6.4727 H   0  0  0  0  0
   10.0798   -0.9561    7.5857 H   0  0  0  0  0
   10.9841   -1.0185    5.2327 H   0  0  0  0  0
    9.7728    0.2685    4.8585 H   0  0  0  0  0
    8.3618   -1.7310    6.2461 H   0  0  0  0  0
    9.4113   -2.6050    5.0906 H   0  0  0  0  0
    8.4827   -1.5316    3.2438 H   0  0  0  0  0
    7.7895   -0.2066    4.2555 H   0  0  0  0  0
    6.0992   -1.8037    3.3697 H   0  0  0  0  0
    6.1577   -1.7127    5.1726 H   0  0  0  0  0
    5.9749   -3.9735    4.3879 H   0  0  0  0  0
    7.3767   -3.8201    3.5000 H   0  0  0  0  0
    7.4307   -3.7362    5.1633 H   0  0  0  0  0
   11.9012   -0.8876    8.4801 H   0  0  0  0  0
   13.7745    1.2195    7.5167 H   0  0  0  0  0
   13.4599    1.3007    9.9256 H   0  0  0  0  0
   15.1281    0.7374    9.5104 H   0  0  0  0  0
   16.5392   -0.5002   11.1528 H   0  0  0  0  0
   15.2133   -2.4018   12.1802 H   0  0  0  0  0
   15.9827    0.5024    7.2855 H   0  0  0  0  0
   16.7399   -2.0057    6.1948 H   0  0  0  0  0
   17.9398    0.3404    7.6660 H   0  0  0  0  0
   19.1400    0.4223    5.6509 H   0  0  0  0  0
   19.1500   -1.3536    8.7317 H   0  0  0  0  0
   19.5890   -2.0860    7.1690 H   0  0  0  0  0
   20.1885   -0.4633    7.5916 H   0  0  0  0  0
   15.7787   -1.3475    9.4705 H   0  0  0  0  0
   16.6567   -2.3604   11.3959 H   0  0  0  0  0
   17.3723   -3.7088   10.2749 H   0  0  0  0  0
   14.3706   -3.6188    9.3265 H   0  0  0  0  0
   12.4018   -4.5847   10.4055 H   0  0  0  0  0
   13.5483   -5.5352   11.4748 H   0  0  0  0  0
   11.8601   -7.1759   10.7169 H   0  0  0  0  0
   11.3457   -9.0293    9.4111 H   0  0  0  0  0
   12.3842   -7.4038    7.0932 H   0  0  0  0  0
   10.6861   -7.3034    7.8065 H   0  0  0  0  0
   10.0994   -9.3409    6.9461 H   0  0  0  0  0
   11.8140   -9.8434    6.6931 H   0  0  0  0  0
   11.8649   -7.8642    5.0228 H   0  0  0  0  0
   10.0724   -8.0335    5.0528 H   0  0  0  0  0
   10.2186  -10.3017    4.3195 H   0  0  0  0  0
   12.0205  -10.2669    4.4491 H   0  0  0  0  0
   11.2733  -10.0285    2.1772 H   0  0  0  0  0
   10.3834   -8.6757    2.5705 H   0  0  0  0  0
   12.0452   -8.6436    2.6900 H   0  0  0  0  0
   14.3287   -7.8788    9.6036 H   0  0  0  0  0
  1  2  1  0  0  0
  2  3  1  0  0  0
  2  5  1  0  0  0
  3  4  2  0  0  0
  3  6  1  0  0  0
  6  7  1  0  0  0
  7  8  1  0  0  0
  7 10  1  0  0  0
  8  9  2  0  0  0
  8 17  1  0  0  0
 10 11  1  0  0  0
 11 12  1  0  0  0
 12 13  1  0  0  0
 13 14  1  0  0  0
 14 15  2  0  0  0
 14 16  1  0  0  0
 17 18  1  0  0  0
 18 19  1  0  0  0
 18 21  1  0  0  0
 19 20  2  0  0  0
 19 26  1  0  0  0
 21 22  1  0  0  0
 22 23  1  0  0  0
 23 24  1  0  0  0
 24 25  1  0  0  0
 26 27  1  0  0  0
 27 28  1  0  0  0
 27 30  1  0  0  0
 28 29  1  0  0  0
 29 32  1  0  0  0
 30 31  2  0  0  0
 30 36  1  0  0  0
 32 33  2  0  0  0
 32 34  1  0  0  0
 32 35  1  0  0  0
 36 37  1  0  0  0
 37 38  1  0  0  0
 37 40  1  0  0  0
 38 39  2  0  0  0
 38 43  1  0  0  0
 40 41  1  0  0  0
 40 42  1  0  0  0
 43 44  1  0  0  0
 44 45  1  0  0  0
 45 46  2  0  0  0
 45 47  1  0  0  0
 47 48  1  0  0  0
 48 49  1  0  0  0
 49 50  2  0  0  0
 49 51  1  0  0  0
 51 52  1  0  0  0
 52 53  1  0  0  0
 52 55  1  0  0  0
 53 54  2  0  0  0
 55 56  1  0  0  0
 56 57  1  0  0  0
 57 58  1  0  0  0
 58 59  1  0  0  0
 53 60  1  0  0  0
  1 61  1  0  0  0
  1 62  1  0  0  0
  1 63  1  0  0  0
  2 64  1  0  0  0
  5 65  1  0  0  0
  5 66  1  0  0  0
  5 67  1  0  0  0
  6 68  1  0  0  0
  7 69  1  0  0  0
 10 70  1  0  0  0
 10 71  1  0  0  0
 11 72  1  0  0  0
 11 73  1  0  0  0
 12 74  1  0  0  0
 12 75  1  0  0  0
 13 76  1  0  0  0
 15 77  1  0  0  0
 16 78  1  0  0  0
 16 79  1  0  0  0
 17 80  1  0  0  0
 18 81  1  0  0  0
 21 82  1  0  0  0
 21 83  1  0  0  0
 22 84  1  0  0  0
 22 85  1  0  0  0
 23 86  1  0  0  0
 23 87  1  0  0  0
 24 88  1  0  0  0
 24 89  1  0  0  0
 25 90  1  0  0  0
 25 91  1  0  0  0
 25 92  1  0  0  0
 26 93  1  0  0  0
 27 94  1  0  0  0
 28 95  1  0  0  0
 28 96  1  0  0  0
 34 97  1  0  0  0
 35 98  1  0  0  0
 36 99  1  0  0  0
 37100  1  0  0  0
 40101  1  0  0  0
 41102  1  0  0  0
 42103  1  0  0  0
 42104  1  0  0  0
 42105  1  0  0  0
 43106  1  0  0  0
 44107  1  0  0  0
 44108  1  0  0  0
 47109  1  0  0  0
 48110  1  0  0  0
 48111  1  0  0  0
 51112  1  0  0  0
 52113  1  0  0  0
 55114  1  0  0  0
 55115  1  0  0  0
 56116  1  0  0  0
 56117  1  0  0  0
 57118  1  0  0  0
 57119  1  0  0  0
 58120  1  0  0  0
 58121  1  0  0  0
 59122  1  0  0  0
 59123  1  0  0  0
 59124  1  0  0  0
 60125  1  0  0  0
M  END
$$$$
