### 
### Created by X-TOOL on Mon Sep 10 21:12:53 2018
### 

@<TRIPOS>MOLECULE
2c1n_ligand
  123   122     1     0     0
SMALL
GAST_HUCK


@<TRIPOS>ATOM
      1 N           3.6460   -1.7980    9.0250 N.4       1 ALA         0.2377
      2 CA          4.1940   -0.5140    9.5400 C.3       1 ALA         0.0621
      3 C           5.3830   -0.0120    8.6850 C.2       1 ALA         0.2264
      4 O           5.6150   -0.5180    7.5700 O.2       1 ALA        -0.3907
      5 CB          4.5960   -0.6570   11.0310 C.3       1 ALA        -0.0040
      6 N           6.1100    0.9800    9.2250 N.am      1 ARG        -0.2610
      7 CA          7.2180    1.6670    8.5300 C.3       1 ARG         0.1312
      8 C           8.4670    0.8100    8.4290 C.2       1 ARG         0.2039
      9 O           8.9590    0.2390    9.4170 O.2       1 ARG        -0.3944
     10 CB          7.5710    3.0150    9.1660 C.3       1 ARG        -0.0092
     11 CG          7.0870    3.1730   10.5690 C.3       1 ARG        -0.0156
     12 CD          8.1040    2.7870   11.6720 C.3       1 ARG         0.0627
     13 NE          9.0540    1.7400   11.3430 N.pl3     1 ARG        -0.2723
     14 CZ         10.1450    1.4650   12.0520 C.cat     1 ARG         0.2882
     15 NH1        10.4250    2.1600   13.1400 N.pl3     1 ARG        -0.2849
     16 NH2        10.9540    0.4910   11.6620 N.pl3     1 ARG        -0.2849
     17 N           8.9890    0.7570    7.2180 N.am      1 LYS        -0.2637
     18 CA         10.1060   -0.0820    6.9350 C.3       1 LYS         0.1310
     19 C          11.4060    0.6270    7.2380 C.2       1 LYS         0.2040
     20 O          11.6240    1.7800    6.8720 O.2       1 LYS        -0.3944
     21 CB         10.0230   -0.5780    5.4980 C.3       1 LYS        -0.0122
     22 CG          8.9360   -1.6520    5.3230 C.3       1 LYS        -0.0440
     23 CD          7.9990   -1.2740    4.1860 C.3       1 LYS        -0.0124
     24 CE          6.6760   -2.0280    4.2670 C.3       1 LYS        -0.0354
     25 NZ          6.8810   -3.5080    4.3350 N.4       1 LYS         0.2185
     26 N          12.2430   -0.0750    7.9670 N.am      1 SEP        -0.2613
     27 CA         13.6310    0.2820    8.0540 C.3       1 SEP         0.1586
     28 CB         14.0650    0.4970    9.5060 C.3       1 SEP         0.1184
     29 OG         13.8720   -0.6570   10.2960 O.3       1 SEP        -0.2714
     30 C          14.4790   -0.8180    7.4250 C.2       1 SEP         0.2066
     31 O          13.9870   -1.8810    7.0710 O.2       1 SEP        -0.3943
     32 P          14.5120   -0.4430   11.7460 P.3       1 SEP         0.2010
     33 O1P        13.5380    0.4900   12.5770 O.co2     1 SEP        -0.5537
     34 O2P        16.0020    0.1070   11.6670 O.co2     1 SEP        -0.5537
     35 O3P        14.6320   -1.7800   12.6240 O.co2     1 SEP        -0.5537
     36 N          15.7560   -0.4920    7.2770 N.am      1 THR        -0.2613
     37 CA         16.8620   -1.4170    7.1040 C.3       1 THR         0.1565
     38 C          16.9400   -2.4750    8.2360 C.2       1 THR         0.2063
     39 O          17.5060   -3.5430    8.0630 O.2       1 THR        -0.3943
     40 CB         18.1270   -0.5370    7.0470 C.3       1 THR         0.0924
     41 OG1        18.3530   -0.1260    5.6910 O.3       1 THR        -0.3874
     42 CG2        19.3490   -1.1530    7.6790 C.3       1 THR        -0.0346
     43 N          16.3600   -2.1820    9.3920 N.am      1 GLY        -0.2663
     44 CA         16.5500   -3.0530   10.5610 C.3       1 GLY         0.1201
     45 C          15.4520   -4.0040   11.0040 C.2       1 GLY         0.2005
     46 O          15.5450   -4.5890   12.0930 O.2       1 GLY        -0.3947
     47 N          14.4190   -4.1690   10.1840 N.am      1 GLY        -0.2666
     48 CA         13.3440   -5.1270   10.4850 C.3       1 GLY         0.1201
     49 C          13.2620   -6.3070    9.5240 C.2       1 GLY         0.2002
     50 O          13.9840   -6.3610    8.5070 O.2       1 GLY        -0.3947
     51 N          12.3720   -7.2520    9.8380 N.am      1 LYS        -0.2697
     52 CA         12.1080   -8.3940    8.9600 C.3       1 LYS         0.0944
     53 C          13.3920   -9.2110    8.7910 C.2       1 LYS         0.0601
     54 O          13.3790  -10.3270    8.2470 O.co2     1 LYS        -0.5666
     55 CB         11.5620   -7.9160    7.5930 C.3       1 LYS        -0.0177
     56 CG         11.0970   -9.0240    6.6420 C.3       1 LYS        -0.0446
     57 CD         11.0270   -8.5380    5.2020 C.3       1 LYS        -0.0125
     58 CE         11.1200   -9.6970    4.2200 C.3       1 LYS        -0.0354
     59 NZ         11.2130   -9.2230    2.8000 N.4       1 LYS         0.2185
     60 H1          2.8762   -2.0917    9.6057 H         1 ALA         0.2015
     61 H2          4.3672   -2.5020    9.0419 H         1 ALA         0.2015
     62 H3          3.3233   -1.6701    8.0787 H         1 ALA         0.2015
     63 H4          3.3964    0.2408    9.4763 H         1 ALA         0.1095
     64 H5          4.9985    0.2996   11.3956 H         1 ALA         0.0310
     65 H6          5.3629   -1.4393   11.1306 H         1 ALA         0.0310
     66 H7          3.7118   -0.9326   11.6244 H         1 ALA         0.0310
     67 H8          5.8874    1.2717   10.1553 H         1 ARG         0.1884
     68 H9          6.8734    1.8678    7.5049 H         1 ARG         0.0800
     69 H10         7.1241    3.8128    8.5547 H         1 ARG         0.0313
     70 H11         8.6658    3.1214    9.1644 H         1 ARG         0.0313
     71 H12         6.1957    2.5406   10.6934 H         1 ARG         0.0301
     72 H13         6.8116    4.2278   10.7159 H         1 ARG         0.0301
     73 H14         7.5326    2.4547   12.5512 H         1 ARG         0.0689
     74 H15         8.6779    3.6900   11.9275 H         1 ARG         0.0689
     75 H16         8.8708    1.1717   10.5038 H         1 ARG         0.2642
     76 H17        11.2711    1.9434   13.6859 H         1 ARG         0.2615
     77 H18         9.7972    2.9185   13.4424 H         1 ARG         0.2615
     78 H19        10.7359   -0.0510   10.8137 H         1 ARG         0.2615
     79 H20        11.8011    0.2758   12.2071 H         1 ARG         0.2615
     80 H21         8.5946    1.3143    6.4873 H         1 LYS         0.1883
     81 H22        10.0485   -0.9601    7.5950 H         1 LYS         0.0800
     82 H23        10.9952   -1.0065    5.2131 H         1 LYS         0.0312
     83 H24         9.7908    0.2731    4.8410 H         1 LYS         0.0312
     84 H25         8.3586   -1.7393    6.2552 H         1 LYS         0.0269
     85 H26         9.4125   -2.6169    5.0950 H         1 LYS         0.0269
     86 H27         8.4863   -1.5122    3.2290 H         1 LYS         0.0317
     87 H28         7.7967   -0.1939    4.2357 H         1 LYS         0.0317
     88 H29         6.0772   -1.7926    3.3748 H         1 LYS         0.0813
     89 H30         6.1355   -1.7021    5.1679 H         1 LYS         0.0813
     90 H31         5.9862   -3.9691    4.3873 H         1 LYS         0.1994
     91 H32         7.4241   -3.7348    5.1533 H         1 LYS         0.1994
     92 H33         7.3708   -3.8176    3.5102 H         1 LYS         0.1994
     93 H34        11.9079   -0.8717    8.4700 H         1 SEP         0.1884
     94 H35        13.7886    1.2181    7.4982 H         1 SEP         0.0827
     95 H36        13.4759    1.3217    9.9336 H         1 SEP         0.0662
     96 H37        15.1324    0.7624    9.5213 H         1 SEP         0.0662
     97 H38        15.9783    0.4830    7.2853 H         1 THR         0.1884
     98 H39        16.7439   -1.9497    6.1489 H         1 THR         0.0826
     99 H40        17.9083    0.3707    7.6286 H         1 THR         0.0639
    100 H41        19.1317    0.4166    5.6514 H         1 THR         0.2101
    101 H42        20.1970   -0.4578    7.5914 H         1 THR         0.0257
    102 H43        19.5924   -2.0947    7.1652 H         1 THR         0.0257
    103 H44        19.1495   -1.3559    8.7415 H         1 THR         0.0257
    104 H45        15.7901   -1.3639    9.4690 H         1 GLY         0.1881
    105 H46        16.7571   -2.3919   11.4154 H         1 GLY         0.0763
    106 H47        17.4358   -3.6708   10.3522 H         1 GLY         0.0763
    107 H48        14.3715   -3.6296    9.3433 H         1 GLY         0.1881
    108 H49        12.3850   -4.5892   10.4513 H         1 GLY         0.0763
    109 H50        13.5083   -5.5205   11.4990 H         1 GLY         0.0763
    110 H51        11.8701   -7.1774   10.6997 H         1 LYS         0.1875
    111 H52        11.3465   -9.0325    9.4317 H         1 LYS         0.0726
    112 O1         14.4828   -8.7417    9.2121 O.co2     1 LYS        -0.5666
    113 H54        12.3594   -7.3501    7.0891 H         1 LYS         0.0305
    114 H55        10.7058   -7.2524    7.7838 H         1 LYS         0.0305
    115 H56        10.0979   -9.3639    6.9523 H         1 LYS         0.0269
    116 H57        11.8047   -9.8641    6.7005 H         1 LYS         0.0269
    117 H58        11.8607   -7.8446    5.0173 H         1 LYS         0.0317
    118 H59        10.0726   -8.0135    5.0472 H         1 LYS         0.0317
    119 H60        10.2238  -10.3259    4.3266 H         1 LYS         0.0813
    120 H61        12.0152  -10.2913    4.4555 H         1 LYS         0.0813
    121 H62        11.2727  -10.0183    2.1836 H         1 LYS         0.1994
    122 H63        12.0352   -8.6503    2.6901 H         1 LYS         0.1994
    123 H64        10.3937   -8.6820    2.5720 H         1 LYS         0.1994
@<TRIPOS>BOND
     1    1    2 1  
     2    2    3 1  
     3    2    5 1  
     4    3    4 2  
     5    3    6 am 
     6    6    7 1  
     7    7    8 1  
     8    7   10 1  
     9    8    9 2  
    10    8   17 am 
    11   10   11 1  
    12   11   12 1  
    13   12   13 1  
    14   13   14 ar 
    15   14   15 ar 
    16   14   16 ar 
    17   17   18 1  
    18   18   19 1  
    19   18   21 1  
    20   19   20 2  
    21   19   26 am 
    22   21   22 1  
    23   22   23 1  
    24   23   24 1  
    25   24   25 1  
    26   26   27 1  
    27   27   28 1  
    28   27   30 1  
    29   28   29 1  
    30   29   32 1  
    31   30   31 2  
    32   30   36 am 
    33   32   33 ar 
    34   32   34 ar 
    35   32   35 ar 
    36   36   37 1  
    37   37   38 1  
    38   37   40 1  
    39   38   39 2  
    40   38   43 am 
    41   40   41 1  
    42   40   42 1  
    43   43   44 1  
    44   44   45 1  
    45   45   46 2  
    46   45   47 am 
    47   47   48 1  
    48   48   49 1  
    49   49   50 2  
    50   49   51 am 
    51   51   52 1  
    52   52   53 1  
    53   52   55 1  
    54   53   54 ar 
    55   55   56 1  
    56   56   57 1  
    57   57   58 1  
    58   58   59 1  
    59    1   60 1  
    60    1   61 1  
    61    1   62 1  
    62    2   63 1  
    63    5   64 1  
    64    5   65 1  
    65    5   66 1  
    66    6   67 1  
    67    7   68 1  
    68   10   69 1  
    69   10   70 1  
    70   11   71 1  
    71   11   72 1  
    72   12   73 1  
    73   12   74 1  
    74   13   75 1  
    75   15   76 1  
    76   15   77 1  
    77   16   78 1  
    78   16   79 1  
    79   17   80 1  
    80   18   81 1  
    81   21   82 1  
    82   21   83 1  
    83   22   84 1  
    84   22   85 1  
    85   23   86 1  
    86   23   87 1  
    87   24   88 1  
    88   24   89 1  
    89   25   90 1  
    90   25   91 1  
    91   25   92 1  
    92   26   93 1  
    93   27   94 1  
    94   28   95 1  
    95   28   96 1  
    96   36   97 1  
    97   37   98 1  
    98   40   99 1  
    99   41  100 1  
   100   42  101 1  
   101   42  102 1  
   102   42  103 1  
   103   43  104 1  
   104   44  105 1  
   105   44  106 1  
   106   47  107 1  
   107   48  108 1  
   108   48  109 1  
   109   51  110 1  
   110   52  111 1  
   111   53  112 ar 
   112   55  113 1  
   113   55  114 1  
   114   56  115 1  
   115   56  116 1  
   116   57  117 1  
   117   57  118 1  
   118   58  119 1  
   119   58  120 1  
   120   59  121 1  
   121   59  122 1  
   122   59  123 1  
@<TRIPOS>SUBSTRUCTURE
     1 ALA         1

