5gut_ligand
  -I-interpret- 

 47 49  0  0  0  0  0  0  0  0999 V2000
  -15.1140    2.7770   -8.5690 N   0  3  0  0  0
  -14.7640    3.0080   -7.1560 C   0  0  0  0  0
  -13.8510    1.9320   -6.5380 C   0  0  0  0  0
  -14.4870    0.5390   -6.4610 C   0  0  0  0  0
  -13.3560   -0.6930   -5.7340 S   0  0  0  0  0
  -14.0970    4.3560   -7.0430 C   0  0  0  0  0
  -13.8660    5.0380   -8.0640 O   0  0  0  0  0
  -13.7780    4.7820   -5.9400 O   0  0  0  0  0
  -14.5990   -1.9510   -5.3400 C   0  0  0  0  0
  -15.3940   -1.6770   -4.0550 C   0  0  0  0  0
  -16.3270   -2.7250   -3.9200 O   0  0  0  0  0
  -14.5580   -1.7300   -2.7910 C   0  0  0  0  0
  -14.6400   -0.4930   -2.0600 O   0  0  0  0  0
  -15.1440   -2.8950   -2.0040 C   0  0  0  0  0
  -15.2100   -2.6360   -0.6260 O   0  0  0  0  0
  -16.5570   -2.9150   -2.5460 C   0  0  0  0  0
  -17.2720   -4.1910   -2.4380 N   0  0  0  0  0
  -16.7480   -5.4580   -2.5280 C   0  0  0  0  0
  -17.7810   -6.3300   -2.4220 N   0  0  0  0  0
  -18.9540   -5.6430   -2.2880 C   0  0  0  0  0
  -20.3000   -6.0180   -2.1820 C   0  0  0  0  0
  -20.7080   -7.2930   -2.1560 N   0  0  0  0  0
  -21.2550   -5.0320   -2.1120 N   0  0  0  0  0
  -20.9070   -3.6910   -2.1180 C   0  0  0  0  0
  -19.5780   -3.3240   -2.2120 N   0  0  0  0  0
  -18.6320   -4.2900   -2.3180 C   0  0  0  0  0
  -15.5667    1.8677   -8.6616 H   0  0  0  0  0
  -15.7507    3.5088   -8.8843 H   0  0  0  0  0
  -14.2659    2.7952   -9.1355 H   0  0  0  0  0
  -15.6957    2.9629   -6.5921 H   0  0  0  0  0
  -13.6321    2.2431   -5.5165 H   0  0  0  0  0
  -12.9717    1.8498   -7.1769 H   0  0  0  0  0
  -14.7306    0.2202   -7.4745 H   0  0  0  0  0
  -15.3715    0.6039   -5.8273 H   0  0  0  0  0
  -14.1752    4.5650   -8.8401 H   0  0  0  0  0
  -14.0671   -2.8910   -5.1927 H   0  0  0  0  0
  -15.3144   -1.9623   -6.1623 H   0  0  0  0  0
  -15.8191   -0.6780   -4.1517 H   0  0  0  0  0
  -13.4963   -1.8686   -2.9953 H   0  0  0  0  0
  -14.1026   -0.5550   -1.2669 H   0  0  0  0  0
  -14.5614   -3.8103   -2.1085 H   0  0  0  0  0
  -15.5846   -3.3968   -0.1761 H   0  0  0  0  0
  -17.1662   -2.1939   -2.0010 H   0  0  0  0  0
  -15.6969   -5.7146   -2.6601 H   0  0  0  0  0
  -20.0250   -8.0483   -2.2148 H   0  0  0  0  0
  -21.7018   -7.5090   -2.0774 H   0  0  0  0  0
  -21.6806   -2.9263   -2.0487 H   0  0  0  0  0
  1  2  1  0  0  0
  2  3  1  0  0  0
  2  6  1  0  0  0
  3  4  1  0  0  0
  4  5  1  0  0  0
  5  9  1  0  0  0
  6  7  1  0  0  0
  6  8  2  0  0  0
  9 10  1  0  0  0
 10 11  1  0  0  0
 10 12  1  0  0  0
 11 16  1  0  0  0
 12 13  1  0  0  0
 12 14  1  0  0  0
 14 15  1  0  0  0
 14 16  1  0  0  0
 16 17  1  0  0  0
 17 18  4  0  0  0
 17 26  4  0  0  0
 18 19  4  0  0  0
 19 20  4  0  0  0
 20 21  4  0  0  0
 20 26  4  0  0  0
 21 22  1  0  0  0
 21 23  4  0  0  0
 23 24  4  0  0  0
 24 25  4  0  0  0
 25 26  4  0  0  0
  1 27  1  0  0  0
  1 28  1  0  0  0
  1 29  1  0  0  0
  2 30  1  0  0  0
  3 31  1  0  0  0
  3 32  1  0  0  0
  4 33  1  0  0  0
  4 34  1  0  0  0
  7 35  1  0  0  0
  9 36  1  0  0  0
  9 37  1  0  0  0
 10 38  1  0  0  0
 12 39  1  0  0  0
 13 40  1  0  0  0
 14 41  1  0  0  0
 15 42  1  0  0  0
 16 43  1  0  0  0
 18 44  1  0  0  0
 22 45  1  0  0  0
 22 46  1  0  0  0
 24 47  1  0  0  0
M  END
$$$$
