3zxr_ligand
  -I-interpret- 

 44 47  0  0  0  0  0  0  0  0999 V2000
  -25.1500   78.9470   12.0890 C   0  0  0  0  0
  -25.7470   80.2150   12.6800 C   0  0  0  0  0
  -24.6260   81.0790   13.2520 C   0  0  0  0  0
  -26.7140   79.8030   13.7790 C   0  0  0  0  0
  -26.4860   80.9790   11.6070 C   0  0  0  0  0
  -25.9240   81.6810   10.6310 N   0  0  0  0  0
  -27.7950   81.0680   11.4600 N   0  0  0  0  0
  -28.0940   81.8470   10.3550 C   0  0  0  0  0
  -29.4260   82.0170    9.8620 C   0  0  0  0  0
  -30.4420   81.1920   10.3490 C   0  0  0  0  0
  -31.7520   81.3570    9.8920 C   0  0  0  0  0
  -32.0340   82.3050    8.9780 N   0  0  0  0  0
  -31.0840   83.1150    8.4850 C   0  0  0  0  0
  -29.7670   82.9910    8.9200 C   0  0  0  0  0
  -26.8910   82.2490    9.8230 C   0  0  0  0  0
  -26.6020   83.1770    8.8000 C   0  0  0  0  0
  -25.6180   84.1630    8.9750 C   0  0  0  0  0
  -25.3300   85.0540    8.0050 N   0  0  0  0  0
  -25.9660   85.0290    6.8180 C   0  0  0  0  0
  -25.6420   85.9600    5.8230 C   0  0  0  0  0
  -27.2630   83.1400    7.5670 C   0  0  0  0  0
  -26.9540   84.0670    6.5730 C   0  0  0  0  0
  -27.6240   84.0350    5.3450 C   0  0  0  0  0
  -27.3010   84.9660    4.3540 C   0  0  0  0  0
  -26.3130   85.9290    4.5950 C   0  0  0  0  0
  -25.9489   78.3241   11.6867 H   0  0  0  0  0
  -24.4566   79.2113   11.2906 H   0  0  0  0  0
  -24.6182   78.4002   12.8676 H   0  0  0  0  0
  -23.9314   81.3450   12.4552 H   0  0  0  0  0
  -25.0514   81.9855   13.6826 H   0  0  0  0  0
  -24.0976   80.5213   14.0252 H   0  0  0  0  0
  -27.1657   80.6934   14.2164 H   0  0  0  0  0
  -27.4934   79.1688   13.3565 H   0  0  0  0  0
  -26.1736   79.2525   14.5491 H   0  0  0  0  0
  -30.2135   80.4206   11.0844 H   0  0  0  0  0
  -32.5469   80.7175   10.2758 H   0  0  0  0  0
  -31.3437   83.8705    7.7435 H   0  0  0  0  0
  -28.9994   83.6561    8.5243 H   0  0  0  0  0
  -25.0736   84.2093    9.9182 H   0  0  0  0  0
  -24.8692   86.7069    6.0045 H   0  0  0  0  0
  -28.0240   82.3817    7.3829 H   0  0  0  0  0
  -28.3951   83.2866    5.1620 H   0  0  0  0  0
  -27.8175   84.9427    3.3944 H   0  0  0  0  0
  -26.0655   86.6575    3.8229 H   0  0  0  0  0
  1  2  1  0  0  0
  2  3  1  0  0  0
  2  4  1  0  0  0
  2  5  1  0  0  0
  5  6  4  0  0  0
  5  7  4  0  0  0
  6 15  4  0  0  0
  7  8  4  0  0  0
  8  9  1  0  0  0
  8 15  4  0  0  0
  9 10  4  0  0  0
  9 14  4  0  0  0
 10 11  4  0  0  0
 11 12  4  0  0  0
 12 13  4  0  0  0
 13 14  4  0  0  0
 15 16  1  0  0  0
 16 17  4  0  0  0
 16 21  4  0  0  0
 17 18  4  0  0  0
 18 19  4  0  0  0
 19 20  4  0  0  0
 19 22  4  0  0  0
 20 25  4  0  0  0
 21 22  4  0  0  0
 22 23  4  0  0  0
 23 24  4  0  0  0
 24 25  4  0  0  0
  1 26  1  0  0  0
  1 27  1  0  0  0
  1 28  1  0  0  0
  3 29  1  0  0  0
  3 30  1  0  0  0
  3 31  1  0  0  0
  4 32  1  0  0  0
  4 33  1  0  0  0
  4 34  1  0  0  0
 10 35  1  0  0  0
 11 36  1  0  0  0
 13 37  1  0  0  0
 14 38  1  0  0  0
 17 39  1  0  0  0
 20 40  1  0  0  0
 21 41  1  0  0  0
 23 42  1  0  0  0
 24 43  1  0  0  0
 25 44  1  0  0  0
M  END
$$$$
