2fsv_ligand
  -I-interpret- 

 73 77  0  0  0  0  0  0  0  0999 V2000
   -7.4870    6.2700   25.0630 O   0  0  0  0  0
   -7.6070    6.3650   26.6680 P   0  0  0  0  0
   -6.8830    5.1990   27.3020 O   0  0  0  0  0
   -7.2420    7.7750   27.0680 O   0  0  0  0  0
   -9.1910    6.1780   26.9200 O   0  0  0  0  0
   -9.9510    5.1620   26.2620 C   0  0  0  0  0
  -11.1550    5.7490   25.5340 C   0  0  0  0  0
  -12.0680    6.3080   26.4790 O   0  0  0  0  0
  -10.8480    6.8870   24.5600 C   0  0  0  0  0
  -11.1410    6.4830   23.2380 O   0  0  0  0  0
  -11.7460    8.0360   24.9930 C   0  0  0  0  0
  -12.2900    8.7810   23.9160 O   0  0  0  0  0
  -12.8130    7.3180   25.8060 C   0  0  0  0  0
  -13.5410    8.1330   26.8030 N   0  0  0  0  0
  -13.0340    9.0120   27.7030 C   0  0  0  0  0
  -14.0140    9.5790   28.4820 N   0  0  0  0  0
  -15.1850    9.0500   28.0770 C   0  0  0  0  0
  -16.6360    9.1280   28.3870 C   0  0  0  0  0
  -17.0900    9.9470   29.3660 N   0  0  0  0  0
  -17.5040    8.3640   27.6750 N   0  0  0  0  0
  -17.1400    7.5220   26.6860 C   0  0  0  0  0
  -15.8590    7.3690   26.3180 N   0  0  0  0  0
  -14.8470    8.1320   27.0070 C   0  0  0  0  0
   -6.3380    5.4470   24.2940 P   0  0  0  0  0
   -6.4940    3.9740   24.5670 O   0  0  0  0  0
   -4.9990    6.1030   24.5060 O   0  0  0  0  0
   -6.7740    5.6970   22.7760 O   0  0  0  0  0
   -7.1840    6.9720   22.2950 C   0  0  0  0  0
   -7.0530    7.0250   20.7740 C   0  0  0  0  0
   -6.0720    8.0100   20.4220 O   0  0  0  0  0
   -6.6600    5.6900   20.1290 C   0  0  0  0  0
   -7.7300    5.1630   19.3570 O   0  0  0  0  0
   -5.4520    5.9960   19.2710 C   0  0  0  0  0
   -5.7230    5.7360   17.9010 O   0  0  0  0  0
   -5.1280    7.4780   19.4900 C   0  0  0  0  0
   -3.7570    7.4620   19.9830 N   0  0  0  0  0
   -3.4760    6.8770   21.3160 C   0  0  0  0  0
   -2.2150    6.7680   21.7540 C   0  0  0  0  0
   -1.8770    6.1890   23.0520 C   0  0  0  0  0
   -1.4400    6.9150   23.9300 O   0  0  0  0  0
   -2.0440    4.8940   23.2650 N   0  0  0  0  0
   -1.1290    7.2750   20.8530 C   0  0  0  0  0
   -1.4070    7.8950   19.5080 C   0  0  0  0  0
   -2.6770    7.9880   19.1170 C   0  0  0  0  0
   -7.2277    4.3773   26.9448 H   0  0  0  0  0
  -10.3106    4.4586   27.0130 H   0  0  0  0  0
   -9.3102    4.6709   25.5297 H   0  0  0  0  0
  -11.5500    4.9047   24.9690 H   0  0  0  0  0
   -9.7972    7.1763   24.5746 H   0  0  0  0  0
  -10.9455    7.2029   22.6338 H   0  0  0  0  0
  -11.2061    8.8021   25.5495 H   0  0  0  0  0
  -12.8427    9.4853   24.2625 H   0  0  0  0  0
  -13.6075    6.9777   25.1418 H   0  0  0  0  0
  -11.9727    9.2419   27.7974 H   0  0  0  0  0
  -16.4336   10.5179   29.8986 H   0  0  0  0  0
  -18.0882    9.9928   29.5705 H   0  0  0  0  0
  -17.9101    6.9485   26.1701 H   0  0  0  0  0
   -7.3990    3.7101   24.3854 H   0  0  0  0  0
   -6.5507    7.7417   22.7360 H   0  0  0  0  0
   -8.2249    7.1411   22.5709 H   0  0  0  0  0
   -8.0422    7.2776   20.3923 H   0  0  0  0  0
   -6.4316    4.9300   20.8763 H   0  0  0  0  0
   -7.4599    4.3295   18.9647 H   0  0  0  0  0
   -4.6076    5.3646   19.5472 H   0  0  0  0  0
   -4.9435    5.9372   17.3780 H   0  0  0  0  0
   -5.2001    8.1103   18.6051 H   0  0  0  0  0
   -4.2994    6.5340   21.9424 H   0  0  0  0  0
   -1.8066    4.4915   24.1716 H   0  0  0  0  0
   -2.4102    4.2981   22.5226 H   0  0  0  0  0
   -0.5716    6.3727   20.6016 H   0  0  0  0  0
   -0.6959    8.0974   21.4223 H   0  0  0  0  0
   -0.5955    8.2555   18.8758 H   0  0  0  0  0
   -2.9210    8.4507   18.1607 H   0  0  0  0  0
  1  2  1  0  0  0
  1 24  1  0  0  0
  2  3  1  0  0  0
  2  4  2  0  0  0
  2  5  1  0  0  0
  5  6  1  0  0  0
  6  7  1  0  0  0
  7  8  1  0  0  0
  7  9  1  0  0  0
  8 13  1  0  0  0
  9 10  1  0  0  0
  9 11  1  0  0  0
 11 12  1  0  0  0
 11 13  1  0  0  0
 13 14  1  0  0  0
 14 15  4  0  0  0
 14 23  4  0  0  0
 15 16  4  0  0  0
 16 17  4  0  0  0
 17 18  4  0  0  0
 17 23  4  0  0  0
 18 19  1  0  0  0
 18 20  4  0  0  0
 20 21  4  0  0  0
 21 22  4  0  0  0
 22 23  4  0  0  0
 24 25  1  0  0  0
 24 26  2  0  0  0
 24 27  1  0  0  0
 27 28  1  0  0  0
 28 29  1  0  0  0
 29 30  1  0  0  0
 29 31  1  0  0  0
 30 35  1  0  0  0
 31 32  1  0  0  0
 31 33  1  0  0  0
 33 34  1  0  0  0
 33 35  1  0  0  0
 35 36  1  0  0  0
 36 37  1  0  0  0
 36 44  1  0  0  0
 37 38  2  0  0  0
 38 39  1  0  0  0
 38 42  1  0  0  0
 39 40  2  0  0  0
 39 41  1  0  0  0
 42 43  1  0  0  0
 43 44  2  0  0  0
  3 45  1  0  0  0
  6 46  1  0  0  0
  6 47  1  0  0  0
  7 48  1  0  0  0
  9 49  1  0  0  0
 10 50  1  0  0  0
 11 51  1  0  0  0
 12 52  1  0  0  0
 13 53  1  0  0  0
 15 54  1  0  0  0
 19 55  1  0  0  0
 19 56  1  0  0  0
 21 57  1  0  0  0
 25 58  1  0  0  0
 28 59  1  0  0  0
 28 60  1  0  0  0
 29 61  1  0  0  0
 31 62  1  0  0  0
 32 63  1  0  0  0
 33 64  1  0  0  0
 34 65  1  0  0  0
 35 66  1  0  0  0
 37 67  1  0  0  0
 41 68  1  0  0  0
 41 69  1  0  0  0
 42 70  1  0  0  0
 42 71  1  0  0  0
 43 72  1  0  0  0
 44 73  1  0  0  0
M  END
$$$$
