### 
### Created by X-TOOL on Sun Sep  9 21:50:27 2018
### 

@<TRIPOS>MOLECULE
2fsv_ligand
   71    75     1     0     0
SMALL
GAST_HUCK


@<TRIPOS>ATOM
      1 O3         -7.4870    6.2700   25.0630 O.3       1 NON        -0.1319
      2 PA         -7.6070    6.3650   26.6680 P.3       1 NON         0.2972
      3 O1A        -6.8830    5.1990   27.3020 O.co2     1 NON        -0.6127
      4 O2A        -7.2420    7.7750   27.0680 O.co2     1 NON        -0.6127
      5 O5B        -9.1910    6.1780   26.9200 O.3       1 NON        -0.2476
      6 C5B        -9.9510    5.1620   26.2620 C.3       1 NON         0.1128
      7 C4B       -11.1550    5.7490   25.5340 C.3       1 NON         0.1189
      8 O4B       -12.0680    6.3080   26.4790 O.3       1 NON        -0.3364
      9 C3B       -10.8480    6.8870   24.5600 C.3       1 NON         0.1149
     10 O3B       -11.1410    6.4830   23.2380 O.3       1 NON        -0.3864
     11 C2B       -11.7460    8.0360   24.9930 C.3       1 NON         0.1385
     12 O2B       -12.2900    8.7810   23.9160 O.3       1 NON        -0.3836
     13 C1B       -12.8130    7.3180   25.8060 C.3       1 NON         0.2010
     14 N9A       -13.5410    8.1330   26.8030 N.pl3     1 NON        -0.1919
     15 C8A       -13.0340    9.0120   27.7030 C.2       1 NON         0.1123
     16 N7A       -14.0140    9.5790   28.4820 N.2       1 NON        -0.2958
     17 C5A       -15.1850    9.0500   28.0770 C.ar      1 NON         0.1045
     18 C6A       -16.6360    9.1280   28.3870 C.ar      1 NON         0.1298
     19 N6A       -17.0900    9.9470   29.3660 N.pl3     1 NON        -0.3152
     20 N1A       -17.5040    8.3640   27.6750 N.ar      1 NON        -0.2698
     21 C2A       -17.1400    7.5220   26.6860 C.ar      1 NON         0.0533
     22 N3A       -15.8590    7.3690   26.3180 N.ar      1 NON        -0.2714
     23 C4A       -14.8470    8.1320   27.0070 C.ar      1 NON         0.1613
     24 PN         -6.3380    5.4470   24.2940 P.3       1 NON         0.2972
     25 O1N        -6.4940    3.9740   24.5670 O.co2     1 NON        -0.6127
     26 O2N        -4.9990    6.1030   24.5060 O.co2     1 NON        -0.6127
     27 O5D        -6.7740    5.6970   22.7760 O.3       1 NON        -0.2476
     28 C5D        -7.1840    6.9720   22.2950 C.3       1 NON         0.1128
     29 C4D        -7.0530    7.0250   20.7740 C.3       1 NON         0.1185
     30 O4D        -6.0720    8.0100   20.4220 O.3       1 NON        -0.3397
     31 C3D        -6.6600    5.6900   20.1290 C.3       1 NON         0.1146
     32 O3D        -7.7300    5.1630   19.3570 O.3       1 NON        -0.3864
     33 C2D        -5.4520    5.9960   19.2710 C.3       1 NON         0.1347
     34 O2D        -5.7230    5.7360   17.9010 O.3       1 NON        -0.3840
     35 C1D        -5.1280    7.4780   19.4900 C.3       1 NON         0.1845
     36 N1N        -3.7570    7.4620   19.9830 N.pl3     1 NON        -0.2499
     37 C2N        -3.4760    6.8770   21.3160 C.2       1 NON         0.0396
     38 C3N        -2.2150    6.7680   21.7540 C.2       1 NON         0.0299
     39 C7N        -1.8770    6.1890   23.0520 C.2       1 NON         0.1716
     40 O7N        -1.4400    6.9150   23.9300 O.2       1 NON        -0.4080
     41 N7N        -2.0440    4.8940   23.2650 N.am      1 NON        -0.3073
     42 C4N        -1.1290    7.2750   20.8530 C.3       1 NON        -0.0184
     43 C5N        -1.4070    7.8950   19.5080 C.2       1 NON        -0.0795
     44 C6N        -2.6770    7.9880   19.1170 C.2       1 NON         0.0125
     45 H1        -10.3042    4.4381   27.0111 H         1 NON         0.0648
     46 H2         -9.3068    4.6497   25.5322 H         1 NON         0.0648
     47 H3        -11.6427    4.9332   24.9803 H         1 NON         0.0651
     48 H4         -9.7901    7.1806   24.6277 H         1 NON         0.0648
     49 H5        -12.0612    6.2556   23.1741 H         1 NON         0.2100
     50 H6        -11.1831    8.7305   25.6339 H         1 NON         0.0676
     51 H7        -12.8125    8.2075   23.3677 H         1 NON         0.2101
     52 H8        -13.5517    6.8713   25.1243 H         1 NON         0.0996
     53 H9        -11.9737    9.2417   27.7974 H         1 NON         0.1349
     54 H10       -18.0980    9.9932   29.5725 H         1 NON         0.1820
     55 H11       -16.4271   10.5235   29.9038 H         1 NON         0.1820
     56 H12       -17.9059    6.9516   26.1730 H         1 NON         0.0996
     57 H13        -6.5494    7.7512   22.7423 H         1 NON         0.0648
     58 H14        -8.2329    7.1471   22.5763 H         1 NON         0.0648
     59 H15        -8.0271    7.3268   20.3618 H         1 NON         0.0651
     60 H16        -6.3912    4.9605   20.9072 H         1 NON         0.0648
     61 H17        -8.4836    5.0209   19.9177 H         1 NON         0.2100
     62 H18        -4.6010    5.3766   19.5907 H         1 NON         0.0672
     63 H19        -5.9506    4.8201   17.7927 H         1 NON         0.2101
     64 H20        -5.1867    8.0446   18.5490 H         1 NON         0.0946
     65 H21        -4.2987    6.5344   21.9419 H         1 NON         0.1020
     66 H22        -1.8121    4.4995   24.1542 H         1 NON         0.1788
     67 H23        -2.4022    4.3096   22.5368 H         1 NON         0.1788
     68 H24        -0.4678    6.4171   20.6614 H         1 NON         0.0398
     69 H25        -0.5844    8.0357   21.4316 H         1 NON         0.0398
     70 H26        -0.5963    8.2552   18.8764 H         1 NON         0.0345
     71 H27        -2.9208    8.4503   18.1616 H         1 NON         0.0814
@<TRIPOS>BOND
     1    1    2 1  
     2    1   24 1  
     3    2    3 ar 
     4    2    4 ar 
     5    2    5 1  
     6    5    6 1  
     7    6    7 1  
     8    7    8 1  
     9    7    9 1  
    10    8   13 1  
    11    9   10 1  
    12    9   11 1  
    13   11   12 1  
    14   11   13 1  
    15   13   14 1  
    16   14   15 1  
    17   14   23 1  
    18   15   16 2  
    19   16   17 1  
    20   17   18 ar 
    21   17   23 ar 
    22   18   19 1  
    23   18   20 ar 
    24   20   21 ar 
    25   21   22 ar 
    26   22   23 ar 
    27   24   25 ar 
    28   24   26 ar 
    29   24   27 1  
    30   27   28 1  
    31   28   29 1  
    32   29   30 1  
    33   29   31 1  
    34   30   35 1  
    35   31   32 1  
    36   31   33 1  
    37   33   34 1  
    38   33   35 1  
    39   35   36 1  
    40   36   37 1  
    41   36   44 1  
    42   37   38 2  
    43   38   39 1  
    44   38   42 1  
    45   39   40 2  
    46   39   41 am 
    47   42   43 1  
    48   43   44 2  
    49    6   45 1  
    50    6   46 1  
    51    7   47 1  
    52    9   48 1  
    53   10   49 1  
    54   11   50 1  
    55   12   51 1  
    56   13   52 1  
    57   15   53 1  
    58   19   54 1  
    59   19   55 1  
    60   21   56 1  
    61   28   57 1  
    62   28   58 1  
    63   29   59 1  
    64   31   60 1  
    65   32   61 1  
    66   33   62 1  
    67   34   63 1  
    68   35   64 1  
    69   37   65 1  
    70   41   66 1  
    71   41   67 1  
    72   42   68 1  
    73   42   69 1  
    74   43   70 1  
    75   44   71 1  
@<TRIPOS>SUBSTRUCTURE
     1 NON         1

