6oxv_ligand
  -I-interpret- 

 86 89  0  0  0  0  0  0  0  0999 V2000
   73.3300   53.8220   13.0580 C   0  0  0  0  0
   70.0450   56.9890   14.1830 C   0  0  0  0  0
   72.6280   58.9180   17.6970 C   0  0  0  0  0
   75.6400   60.2820   18.6560 C   0  0  0  0  0
   74.0580   60.8050   20.2430 C   0  0  0  0  0
   72.4390   60.9510   20.2410 C   0  0  0  0  0
   66.3640   52.4880   13.0220 C   0  0  0  0  0
   66.1750   53.9750   13.0950 C   0  0  0  0  0
   67.0930   54.7970   13.9830 C   0  0  0  0  0
   68.1490   54.0570   14.7850 C   0  0  0  0  0
   68.3440   52.5640   14.7180 C   0  0  0  0  0
   67.4340   51.7650   13.8050 C   0  0  0  0  0
   71.1270   54.7100   13.9130 C   0  0  0  0  0
   72.6570   54.8530   13.9950 C   0  0  0  0  0
   73.0600   54.7440   15.4660 C   0  0  0  0  0
   70.9930   58.0610   14.7280 C   0  0  0  0  0
   70.6390   58.3880   16.1870 C   0  0  0  0  0
   74.5500   59.8200   19.0390 C   0  0  0  0  0
   74.5400   61.9360   20.0000 C   0  0  0  0  0
   72.1480   62.0260   19.5150 C   0  0  0  0  0
   69.3210   59.1630   16.2700 C   0  0  0  0  0
   69.0650   59.5440   17.7410 C   0  0  0  0  0
   68.7130   58.4740   18.7530 C   0  0  0  0  0
   68.4710   58.8290   20.2060 C   0  0  0  0  0
   68.5540   60.2710   20.6470 C   0  0  0  0  0
   68.8890   61.3440   19.6400 C   0  0  0  0  0
   69.1430   60.9870   18.1800 C   0  0  0  0  0
   65.4410   51.7190   12.0870 C   0  0  0  0  0
   65.2350   50.3100   12.6070 C   0  0  0  0  0
   74.5730   54.7750   15.7200 C   0  0  0  0  0
   72.9690   52.3950   13.4450 C   0  0  0  0  0
   70.4260   55.6860   14.7650 N   0  0  0  0  0
   71.6370   59.2850   16.7070 N   0  0  0  0  0
   69.8760   54.1820   16.8160 O   0  0  0  0  0
   68.4490   56.1090   16.4230 O   0  0  0  0  0
   70.9060   59.2160   13.9550 O   0  0  0  0  0
   72.6430   57.8660   18.2730 O   0  0  0  0  0
   73.5710   59.9290   17.9130 O   0  0  0  0  0
   75.5310   61.7910   18.8620 O   0  0  0  0  0
   73.3700   62.8550   19.4900 O   0  0  0  0  0
   66.1180   51.7350   10.8780 O   0  0  0  0  0
   69.2280   55.0420   15.8170 S   0  0  0  0  0
   74.4109   53.9378   13.1378 H   0  0  0  0  0
   72.9818   54.0018   12.0409 H   0  0  0  0  0
   70.1173   56.9463   13.0962 H   0  0  0  0  0
   69.0167   57.2302   14.4523 H   0  0  0  0  0
   75.8383   60.0321   17.6137 H   0  0  0  0  0
   76.4744   59.8594   19.2157 H   0  0  0  0  0
   74.3774   60.4044   21.2051 H   0  0  0  0  0
   72.0595   61.0570   21.2573 H   0  0  0  0  0
   71.9715   60.0615   19.8186 H   0  0  0  0  0
   65.3879   54.4596   12.5173 H   0  0  0  0  0
   66.9971   55.8811   14.0426 H   0  0  0  0  0
   69.1170   52.0725   15.3088 H   0  0  0  0  0
   67.5505   50.6850   13.7153 H   0  0  0  0  0
   70.8626   53.7102   14.2573 H   0  0  0  0  0
   70.8264   54.8863   12.8802 H   0  0  0  0  0
   73.0027   55.8241   13.6406 H   0  0  0  0  0
   72.6978   53.7802   15.8237 H   0  0  0  0  0
   72.6347   55.6081   15.9764 H   0  0  0  0  0
   72.0127   57.6784   14.6849 H   0  0  0  0  0
   70.5743   57.4478   16.7347 H   0  0  0  0  0
   74.6293   58.7810   19.3588 H   0  0  0  0  0
   75.0179   62.3525   20.8867 H   0  0  0  0  0
   71.3114   62.5752   19.9470 H   0  0  0  0  0
   71.8441   61.7464   18.5062 H   0  0  0  0  0
   68.5034   58.5446   15.8996 H   0  0  0  0  0
   69.3815   60.0636   15.6590 H   0  0  0  0  0
   68.6327   57.4354   18.4322 H   0  0  0  0  0
   68.2382   58.0475   20.9293 H   0  0  0  0  0
   68.3726   60.5358   21.6887 H   0  0  0  0  0
   68.9499   62.3843   19.9598 H   0  0  0  0  0
   69.3794   61.7681   17.4575 H   0  0  0  0  0
   64.4431   52.1485   11.9988 H   0  0  0  0  0
   64.6530   49.7387   11.8839 H   0  0  0  0  0
   66.2040   49.8329   12.7536 H   0  0  0  0  0
   64.7004   50.3489   13.5561 H   0  0  0  0  0
   75.0445   53.9407   15.2007 H   0  0  0  0  0
   74.9833   55.7142   15.3489 H   0  0  0  0  0
   74.7622   54.6921   16.7902 H   0  0  0  0  0
   73.3003   52.2017   14.4653 H   0  0  0  0  0
   71.8886   52.2650   13.3817 H   0  0  0  0  0
   73.4604   51.6999   12.7642 H   0  0  0  0  0
   71.6470   60.2423   16.3550 H   0  0  0  0  0
   71.1278   59.0078   13.0445 H   0  0  0  0  0
   65.6027   51.2657   10.2178 H   0  0  0  0  0
 14  1  1  0  0  0
  1 31  1  0  0  0
  2 16  1  0  0  0
 32  2  1  0  0  0
 33  3  1  0  0  0
  3 37  2  0  0  0
  3 38  1  0  0  0
 18  4  1  0  0  0
  4 39  1  0  0  0
  5  6  1  0  0  0
 18  5  1  0  0  0
  5 19  1  0  0  0
  6 20  1  0  0  0
  8  7  4  0  0  0
 12  7  4  0  0  0
  7 28  1  0  0  0
  9  8  4  0  0  0
 10  9  4  0  0  0
 10 11  4  0  0  0
 42 10  1  0  0  0
 11 12  4  0  0  0
 13 14  1  0  0  0
 32 13  1  0  0  0
 14 15  1  0  0  0
 15 30  1  0  0  0
 16 17  1  0  0  0
 16 36  1  0  0  0
 17 21  1  0  0  0
 17 33  1  0  0  0
 38 18  1  0  0  0
 19 39  1  0  0  0
 19 40  1  0  0  0
 40 20  1  0  0  0
 21 22  1  0  0  0
 22 23  4  0  0  0
 22 27  4  0  0  0
 23 24  4  0  0  0
 24 25  4  0  0  0
 26 25  4  0  0  0
 27 26  4  0  0  0
 28 29  1  0  0  0
 28 41  1  0  0  0
 32 42  1  0  0  0
 42 34  2  0  0  0
 42 35  2  0  0  0
  1 43  1  0  0  0
  1 44  1  0  0  0
  2 45  1  0  0  0
  2 46  1  0  0  0
  4 47  1  0  0  0
  4 48  1  0  0  0
  5 49  1  0  0  0
  6 50  1  0  0  0
  6 51  1  0  0  0
  8 52  1  0  0  0
  9 53  1  0  0  0
 11 54  1  0  0  0
 12 55  1  0  0  0
 13 56  1  0  0  0
 13 57  1  0  0  0
 14 58  1  0  0  0
 15 59  1  0  0  0
 15 60  1  0  0  0
 16 61  1  0  0  0
 17 62  1  0  0  0
 18 63  1  0  0  0
 19 64  1  0  0  0
 20 65  1  0  0  0
 20 66  1  0  0  0
 21 67  1  0  0  0
 21 68  1  0  0  0
 23 69  1  0  0  0
 24 70  1  0  0  0
 25 71  1  0  0  0
 26 72  1  0  0  0
 27 73  1  0  0  0
 28 74  1  0  0  0
 29 75  1  0  0  0
 29 76  1  0  0  0
 29 77  1  0  0  0
 30 78  1  0  0  0
 30 79  1  0  0  0
 30 80  1  0  0  0
 31 81  1  0  0  0
 31 82  1  0  0  0
 31 83  1  0  0  0
 33 84  1  0  0  0
 36 85  1  0  0  0
 41 86  1  0  0  0
M  END
$$$$
