4jfl_ligand
  -I-interpret- 

 63 67  0  0  0  0  0  0  0  0999 V2000
   11.2910  -14.2790  -17.5280 C   0  0  0  0  0
    9.1300  -13.8320  -18.0610 N   0  0  0  0  0
   12.4150  -13.8470  -17.2910 O   0  0  0  0  0
   10.1720  -13.5930  -17.0540 C   0  0  0  0  0
    9.7810  -14.0850  -15.6840 C   0  0  0  0  0
   18.9910  -13.2400  -17.8350 C   0  0  0  0  0
   16.9250  -10.4000  -20.9670 C   0  0  0  0  0
    4.2210  -14.1070  -24.6980 O   0  0  0  0  0
    8.2450  -11.3690  -17.6210 O   0  0  0  0  0
    6.6000  -13.2540  -17.2770 O   0  0  0  0  0
   15.3920  -14.6560  -19.2740 C   0  0  0  0  0
   16.6650  -14.2280  -18.8950 C   0  0  0  0  0
    7.9510  -11.9860  -20.8030 C   0  0  0  0  0
    7.4960  -12.0560  -22.1140 C   0  0  0  0  0
   14.8440  -12.4160  -19.9010 C   0  0  0  0  0
    6.2390  -13.4870  -20.2330 C   0  0  0  0  0
    9.6740  -15.5510  -15.7420 C   0  0  0  0  0
   12.9240  -15.5260  -20.2050 C   0  0  0  0  0
    8.4900  -15.8060  -16.6620 C   0  0  0  0  0
   12.4650  -15.9900  -18.8010 C   0  0  0  0  0
    9.9190  -16.0130  -18.7020 C   0  0  0  0  0
    5.9140  -12.9740  -23.6810 N   0  0  0  0  0
   18.2380  -12.3690  -18.6780 O   0  0  0  0  0
   16.5080  -10.6900  -19.6280 O   0  0  0  0  0
   13.2020  -14.1340  -20.1590 O   0  0  0  0  0
    4.5940  -14.3600  -22.2340 S   0  0  0  0  0
   14.4670  -13.7520  -19.7820 C   0  0  0  0  0
    7.3000  -12.7140  -19.8250 C   0  0  0  0  0
   17.0210  -12.8880  -19.0190 C   0  0  0  0  0
   16.1070  -11.9880  -19.5260 C   0  0  0  0  0
    4.8720  -13.8080  -23.6980 C   0  0  0  0  0
    6.4550  -12.8150  -22.4540 C   0  0  0  0  0
    5.8330  -13.5300  -21.5030 C   0  0  0  0  0
    8.7700  -15.2490  -18.0580 C   0  0  0  0  0
   11.1940  -15.3610  -18.3370 N   0  0  0  0  0
    7.7840  -12.7370  -18.0890 S   0  0  0  0  0
   10.3538  -12.5258  -16.9273 H   0  0  0  0  0
    8.8279  -13.6490  -15.3847 H   0  0  0  0  0
   10.5307  -13.7905  -14.9496 H   0  0  0  0  0
   18.4356  -13.4231  -16.9152 H   0  0  0  0  0
   19.1627  -14.1845  -18.3513 H   0  0  0  0  0
   19.9479  -12.7754  -17.5968 H   0  0  0  0  0
   17.7565  -11.0513  -21.2363 H   0  0  0  0  0
   16.0928  -10.5698  -21.6502 H   0  0  0  0  0
   17.2419   -9.3590  -21.0301 H   0  0  0  0  0
   15.1213  -15.7068  -19.1708 H   0  0  0  0  0
   17.3837  -14.9461  -18.5001 H   0  0  0  0  0
    8.8101  -11.3651  -20.5492 H   0  0  0  0  0
    8.0037  -11.4751  -22.8840 H   0  0  0  0  0
   14.1309  -11.6931  -20.2971 H   0  0  0  0  0
    5.7103  -14.0865  -19.4920 H   0  0  0  0  0
    9.5289  -15.9909  -14.7553 H   0  0  0  0  0
   10.5884  -16.0146  -16.1123 H   0  0  0  0  0
   12.1376  -15.7217  -20.9340 H   0  0  0  0  0
   13.8202  -16.0720  -20.4997 H   0  0  0  0  0
    7.6093  -15.3113  -16.2525 H   0  0  0  0  0
    8.3226  -16.8806  -16.7356 H   0  0  0  0  0
   13.2440  -15.7015  -18.0953 H   0  0  0  0  0
   12.2913  -17.0646  -18.8572 H   0  0  0  0  0
    9.8012  -16.0097  -19.7856 H   0  0  0  0  0
    9.9188  -17.0441  -18.3486 H   0  0  0  0  0
    6.2672  -12.5027  -24.5137 H   0  0  0  0  0
    7.8395  -15.3664  -18.6134 H   0  0  0  0  0
  1  3  2  0  0  0
  4  1  1  0  0  0
  1 35  1  0  0  0
  2  4  1  0  0  0
  2 34  1  0  0  0
 36  2  1  0  0  0
  4  5  1  0  0  0
  5 17  1  0  0  0
 23  6  1  0  0  0
 24  7  1  0  0  0
 31  8  2  0  0  0
 36  9  2  0  0  0
 36 10  2  0  0  0
 11 12  4  0  0  0
 27 11  4  0  0  0
 12 29  4  0  0  0
 13 14  4  0  0  0
 28 13  4  0  0  0
 14 32  4  0  0  0
 27 15  4  0  0  0
 15 30  4  0  0  0
 28 16  4  0  0  0
 16 33  4  0  0  0
 19 17  1  0  0  0
 20 18  1  0  0  0
 18 25  1  0  0  0
 34 19  1  0  0  0
 35 20  1  0  0  0
 34 21  1  0  0  0
 21 35  1  0  0  0
 31 22  1  0  0  0
 32 22  1  0  0  0
 29 23  1  0  0  0
 30 24  1  0  0  0
 25 27  1  0  0  0
 26 31  1  0  0  0
 33 26  1  0  0  0
 28 36  1  0  0  0
 29 30  4  0  0  0
 32 33  4  0  0  0
  4 37  1  0  0  0
  5 38  1  0  0  0
  5 39  1  0  0  0
  6 40  1  0  0  0
  6 41  1  0  0  0
  6 42  1  0  0  0
  7 43  1  0  0  0
  7 44  1  0  0  0
  7 45  1  0  0  0
 11 46  1  0  0  0
 12 47  1  0  0  0
 13 48  1  0  0  0
 14 49  1  0  0  0
 15 50  1  0  0  0
 16 51  1  0  0  0
 17 52  1  0  0  0
 17 53  1  0  0  0
 18 54  1  0  0  0
 18 55  1  0  0  0
 19 56  1  0  0  0
 19 57  1  0  0  0
 20 58  1  0  0  0
 20 59  1  0  0  0
 21 60  1  0  0  0
 21 61  1  0  0  0
 22 62  1  0  0  0
 34 63  1  0  0  0
M  END
$$$$
