### 
### Created by X-TOOL on Mon Sep 10 21:13:02 2018
### 

@<TRIPOS>MOLECULE
3o88_ligand
   42    43     1     0     0
SMALL
GAST_HUCK


@<TRIPOS>ATOM
      1 OAA        20.9500   10.9280   14.7930 O.co2     1 BSH        -0.5607
      2 OAB        26.9750    5.4300   13.3830 O.2       1 BSH        -0.1556
      3 OAC        25.0350    3.7250   13.6890 O.2       1 BSH        -0.1556
      4 OAD        20.9500   10.5160   12.5980 O.co2     1 BSH        -0.5607
      5 OAE        25.3710    4.8280   17.3760 O.3       1 BSH        -0.8710
      6 OAF        27.1040    6.5560   18.1360 O.3       1 BSH        -0.8710
      7 CAH        20.2720    5.5490   11.6010 C.ar      1 BSH        -0.0687
      8 CAI        20.7990    6.3820   12.5840 C.ar      1 BSH        -0.0685
      9 CAJ        21.1510    4.8690   10.7590 C.ar      1 BSH        -0.0685
     10 CAK        25.0250    9.7000   12.6570 C.ar      1 BSH        -0.0650
     11 CAL        22.1780    6.5290   12.7170 C.ar      1 BSH        -0.0587
     12 CAM        22.5300    5.0280   10.8850 C.ar      1 BSH        -0.0587
     13 CAN        25.5520    9.0920   13.8050 C.ar      1 BSH        -0.0602
     14 CAO        23.7070   10.1430   12.6730 C.ar      1 BSH        -0.0546
     15 CAP        23.4660    9.3650   14.9530 C.ar      1 BSH        -0.0487
     16 CAQ        25.4340    8.2140   16.1280 C.3       1 BSH        -0.1289
     17 CAR        24.5310    6.0380   12.0350 C.3       1 BSH         0.1153
     18 NAS        25.0220    6.0370   15.0310 N.am      1 BSH        -0.3971
     19 CAT        21.4980   10.5040   13.7270 C.2       1 BSH         0.0613
     20 CAU        23.0680    5.8550   11.8650 C.ar      1 BSH        -0.0205
     21 CAV        24.7990    8.9200   14.9650 C.ar      1 BSH        -0.0677
     22 CAW        22.9240    9.9760   13.8140 C.ar      1 BSH         0.0034
     23 CAX        25.9790    6.8080   15.7950 C.3       1 BSH        -0.2240
     24 SAZ        25.2680    5.4010   13.5770 S.o2      1 BSH         0.0230
     25 BOR        26.4160    5.8540   16.9830 B         1 BSH         3.0000
     26 H          24.9926    4.4389   16.5842 H         1 BSH        -0.1290
     27 H          27.7444    7.1828   17.7913 H         1 BSH        -0.1290
     28 H          19.1940    5.4308   11.4918 H         1 BSH         0.0559
     29 H          20.1292    6.9221   13.2532 H         1 BSH         0.0599
     30 H          20.7544    4.2040    9.9918 H         1 BSH         0.0599
     31 H          25.6393    9.8236   11.7651 H         1 BSH         0.0606
     32 H          22.5736    7.1794   13.4971 H         1 BSH         0.0557
     33 H          23.1963    4.4964   10.2056 H         1 BSH         0.0557
     34 H          26.5843    8.7424   13.7898 H         1 BSH         0.0577
     35 H          23.2846   10.6226   11.7900 H         1 BSH         0.0593
     36 H          22.8463    9.2334   15.8400 H         1 BSH         0.0589
     37 H          24.6625    8.0880   16.8876 H         1 BSH         0.0091
     38 H          26.2818    8.8199   16.4477 H         1 BSH         0.0091
     39 H          24.6978    7.1151   12.0470 H         1 BSH         0.0681
     40 H          24.9982    5.4760   11.2263 H         1 BSH         0.0681
     41 H          24.1071    5.8834   15.4549 H         1 BSH         0.1259
     42 H          26.8865    7.0835   15.2578 H         1 BSH        -0.1845
@<TRIPOS>BOND
     1   19    1 ar 
     2   24    2 2  
     3   24    3 2  
     4   19    4 ar 
     5   25    5 1  
     6   25    6 1  
     7    8    7 ar 
     8    9    7 ar 
     9   11    8 ar 
    10   12    9 ar 
    11   13   10 ar 
    12   10   14 ar 
    13   20   11 ar 
    14   20   12 ar 
    15   21   13 ar 
    16   22   14 ar 
    17   21   15 ar 
    18   15   22 ar 
    19   16   21 1  
    20   23   16 1  
    21   17   20 1  
    22   24   17 1  
    23   23   18 1  
    24   18   24 am 
    25   22   19 1  
    26   23   25 1  
    27    5   26 1  
    28    6   27 1  
    29    7   28 1  
    30    8   29 1  
    31    9   30 1  
    32   10   31 1  
    33   11   32 1  
    34   12   33 1  
    35   13   34 1  
    36   14   35 1  
    37   15   36 1  
    38   16   37 1  
    39   16   38 1  
    40   17   39 1  
    41   17   40 1  
    42   18   41 1  
    43   23   42 1  
@<TRIPOS>SUBSTRUCTURE
     1 BSH         1

