3o88_ligand
  -I-interpret- 

 43 44  0  0  0  0  0  0  0  0999 V2000
   20.9500   10.9280   14.7930 O   0  0  0  0  0
   26.9750    5.4300   13.3830 O   0  0  0  0  0
   25.0350    3.7250   13.6890 O   0  0  0  0  0
   20.9500   10.5160   12.5980 O   0  0  0  0  0
   25.3710    4.8280   17.3760 O   0  0  0  0  0
   27.1040    6.5560   18.1360 O   0  0  0  0  0
   20.2720    5.5490   11.6010 C   0  0  0  0  0
   20.7990    6.3820   12.5840 C   0  0  0  0  0
   21.1510    4.8690   10.7590 C   0  0  0  0  0
   25.0250    9.7000   12.6570 C   0  0  0  0  0
   22.1780    6.5290   12.7170 C   0  0  0  0  0
   22.5300    5.0280   10.8850 C   0  0  0  0  0
   25.5520    9.0920   13.8050 C   0  0  0  0  0
   23.7070   10.1430   12.6730 C   0  0  0  0  0
   23.4660    9.3650   14.9530 C   0  0  0  0  0
   25.4340    8.2140   16.1280 C   0  0  0  0  0
   24.5310    6.0380   12.0350 C   0  0  0  0  0
   25.0220    6.0370   15.0310 N   0  0  0  0  0
   21.4980   10.5040   13.7270 C   0  0  0  0  0
   23.0680    5.8550   11.8650 C   0  0  0  0  0
   24.7990    8.9200   14.9650 C   0  0  0  0  0
   22.9240    9.9760   13.8140 C   0  0  0  0  0
   25.9790    6.8080   15.7950 C   0  0  0  0  0
   25.2680    5.4010   13.5770 S   0  0  0  0  0
   26.4160    5.8540   16.9830 B   0  0  0  0  0
   21.5567   10.8182   15.5289 H   0  0  0  0  0
   25.7069    4.2909   18.0973 H   0  0  0  0  0
   27.3349    5.9119   18.8094 H   0  0  0  0  0
   19.1940    5.4308   11.4918 H   0  0  0  0  0
   20.1292    6.9221   13.2532 H   0  0  0  0  0
   20.7544    4.2040    9.9918 H   0  0  0  0  0
   25.6393    9.8236   11.7651 H   0  0  0  0  0
   22.5736    7.1794   13.4971 H   0  0  0  0  0
   23.1963    4.4964   10.2056 H   0  0  0  0  0
   26.5843    8.7424   13.7898 H   0  0  0  0  0
   23.2846   10.6226   11.7900 H   0  0  0  0  0
   22.8463    9.2334   15.8400 H   0  0  0  0  0
   24.6625    8.0880   16.8876 H   0  0  0  0  0
   26.2818    8.8199   16.4477 H   0  0  0  0  0
   24.6978    7.1151   12.0470 H   0  0  0  0  0
   24.9982    5.4760   11.2263 H   0  0  0  0  0
   24.1071    5.8834   15.4549 H   0  0  0  0  0
   26.8865    7.0835   15.2578 H   0  0  0  0  0
 19  1  1  0  0  0
 24  2  2  0  0  0
 24  3  2  0  0  0
 19  4  2  0  0  0
 25  5  1  0  0  0
 25  6  1  0  0  0
  8  7  4  0  0  0
  9  7  4  0  0  0
 11  8  4  0  0  0
 12  9  4  0  0  0
 13 10  4  0  0  0
 10 14  4  0  0  0
 20 11  4  0  0  0
 20 12  4  0  0  0
 21 13  4  0  0  0
 22 14  4  0  0  0
 21 15  4  0  0  0
 15 22  4  0  0  0
 16 21  1  0  0  0
 23 16  1  0  0  0
 17 20  1  0  0  0
 24 17  1  0  0  0
 23 18  1  0  0  0
 18 24  1  0  0  0
 22 19  1  0  0  0
 23 25  1  0  0  0
  1 26  1  0  0  0
  5 27  1  0  0  0
  6 28  1  0  0  0
  7 29  1  0  0  0
  8 30  1  0  0  0
  9 31  1  0  0  0
 10 32  1  0  0  0
 11 33  1  0  0  0
 12 34  1  0  0  0
 13 35  1  0  0  0
 14 36  1  0  0  0
 15 37  1  0  0  0
 16 38  1  0  0  0
 16 39  1  0  0  0
 17 40  1  0  0  0
 17 41  1  0  0  0
 18 42  1  0  0  0
 23 43  1  0  0  0
M  END
$$$$
