4o0r_ligand
  -I-interpret- 

 65 69  0  0  0  0  0  0  0  0999 V2000
   16.0590  -16.9600   15.0720 C   0  0  0  0  0
   17.1970  -17.7030   14.7500 C   0  0  0  0  0
   15.4500  -17.5680   16.1430 C   0  0  0  0  0
   15.9890  -15.7950   14.1150 C   0  0  0  0  0
   17.8950  -17.0720   13.5690 C   0  0  0  0  0
   17.2760  -18.7130   15.5800 N   0  0  0  0  0
   14.2870  -17.2140   16.8380 N   0  0  0  0  0
   16.1970  -18.6510   16.4570 N   0  0  0  0  0
   17.1250  -15.8780   13.1920 N   0  0  0  0  0
   17.9290  -18.0940   12.4210 C   0  0  0  0  0
   19.3180  -16.6870   13.9810 C   0  0  0  0  0
   13.1380  -16.6880   16.2570 C   0  0  0  0  0
   17.3710  -15.0010   12.1930 C   0  0  0  0  0
   11.9980  -16.4510   17.0500 C   0  0  0  0  0
   13.0760  -16.4000   14.9630 N   0  0  0  0  0
   16.5330  -13.9620   12.0180 N   0  0  0  0  0
   18.3260  -15.1250   11.4520 O   0  0  0  0  0
   10.8510  -15.9180   16.4520 C   0  0  0  0  0
   11.7000  -16.7080   18.7650 S   0  0  0  0  0
   11.9840  -15.8930   14.4250 C   0  0  0  0  0
   16.7520  -13.0030   10.9380 C   0  0  0  0  0
   10.8980  -15.6550   15.1240 N   0  0  0  0  0
    9.7960  -15.7330   17.3680 C   0  0  0  0  0
   10.0590  -16.0860   18.6170 C   0  0  0  0  0
   11.9990  -15.5870   12.9470 C   0  0  0  0  0
   15.6880  -13.2890    9.9160 C   0  0  0  0  0
   16.5430  -11.5580   11.4010 C   0  0  0  0  0
   14.3680  -13.3550   10.3300 C   0  0  0  0  0
   16.0120  -13.4780    8.5880 C   0  0  0  0  0
   17.5070  -11.1050   12.4140 N   0  3  0  0  0
   13.3650  -13.6120    9.4150 C   0  0  0  0  0
   15.0090  -13.7340    7.6720 C   0  0  0  0  0
   13.6890  -13.8020    8.0850 C   0  0  0  0  0
   18.8490  -11.6440   12.1730 C   0  0  0  0  0
   17.5870   -9.6410   12.3570 C   0  0  0  0  0
   16.0290  -14.8571   14.6690 H   0  0  0  0  0
   15.0538  -15.8298   13.5562 H   0  0  0  0  0
   14.2821  -17.3526   17.8485 H   0  0  0  0  0
   16.9112  -18.3977   12.1764 H   0  0  0  0  0
   18.3944  -17.6403   11.5460 H   0  0  0  0  0
   18.5055  -18.9661   12.7296 H   0  0  0  0  0
   19.8158  -16.1940   13.1460 H   0  0  0  0  0
   19.2772  -16.0086   14.8332 H   0  0  0  0  0
   19.8708  -17.5852   14.2562 H   0  0  0  0  0
   15.7376  -13.8433   12.6454 H   0  0  0  0  0
   17.7722  -13.1021   10.5671 H   0  0  0  0  0
    8.8296  -15.3271   17.0689 H   0  0  0  0  0
    9.3535  -16.0026   19.4437 H   0  0  0  0  0
   12.7835  -14.8604   12.7356 H   0  0  0  0  0
   12.1912  -16.5037   12.3894 H   0  0  0  0  0
   11.0331  -15.1767   12.6524 H   0  0  0  0  0
   15.5525  -11.5050   11.8529 H   0  0  0  0  0
   16.6699  -10.9186   10.5274 H   0  0  0  0  0
   14.1197  -13.2038   11.3805 H   0  0  0  0  0
   17.0513  -13.4258    8.2637 H   0  0  0  0  0
   17.1865  -11.4336   13.3249 H   0  0  0  0  0
   12.3258  -13.6645    9.7398 H   0  0  0  0  0
   15.2579  -13.8828    6.6213 H   0  0  0  0  0
   12.9026  -14.0061    7.3584 H   0  0  0  0  0
   18.8119  -12.7330   12.1997 H   0  0  0  0  0
   19.2011  -11.3150   11.1953 H   0  0  0  0  0
   19.5282  -11.2832   12.9454 H   0  0  0  0  0
   17.9173   -9.3348   11.3644 H   0  0  0  0  0
   16.6041   -9.2165   12.5612 H   0  0  0  0  0
   18.2988   -9.2880   13.1032 H   0  0  0  0  0
  1  2  4  0  0  0
  1  3  4  0  0  0
  1  4  1  0  0  0
  2  5  1  0  0  0
  2  6  4  0  0  0
  3  7  1  0  0  0
  3  8  4  0  0  0
  4  9  1  0  0  0
  5  9  1  0  0  0
  5 10  1  0  0  0
  5 11  1  0  0  0
  6  8  4  0  0  0
  7 12  1  0  0  0
  9 13  1  0  0  0
 12 14  4  0  0  0
 12 15  4  0  0  0
 13 16  1  0  0  0
 13 17  2  0  0  0
 14 18  4  0  0  0
 14 19  4  0  0  0
 15 20  4  0  0  0
 16 21  1  0  0  0
 18 22  4  0  0  0
 18 23  4  0  0  0
 19 24  4  0  0  0
 20 22  4  0  0  0
 20 25  1  0  0  0
 21 26  1  0  0  0
 21 27  1  0  0  0
 23 24  4  0  0  0
 26 28  4  0  0  0
 26 29  4  0  0  0
 27 30  1  0  0  0
 28 31  4  0  0  0
 29 32  4  0  0  0
 30 34  1  0  0  0
 30 35  1  0  0  0
 31 33  4  0  0  0
 32 33  4  0  0  0
  4 36  1  0  0  0
  4 37  1  0  0  0
  7 38  1  0  0  0
 10 39  1  0  0  0
 10 40  1  0  0  0
 10 41  1  0  0  0
 11 42  1  0  0  0
 11 43  1  0  0  0
 11 44  1  0  0  0
 16 45  1  0  0  0
 21 46  1  0  0  0
 23 47  1  0  0  0
 24 48  1  0  0  0
 25 49  1  0  0  0
 25 50  1  0  0  0
 25 51  1  0  0  0
 27 52  1  0  0  0
 27 53  1  0  0  0
 28 54  1  0  0  0
 29 55  1  0  0  0
 30 56  1  0  0  0
 31 57  1  0  0  0
 32 58  1  0  0  0
 33 59  1  0  0  0
 34 60  1  0  0  0
 34 61  1  0  0  0
 34 62  1  0  0  0
 35 63  1  0  0  0
 35 64  1  0  0  0
 35 65  1  0  0  0
M  END
$$$$
