2ien_ligand
  -I-interpret- 

 75 78  0  0  0  0  0  0  0  0999 V2000
   21.0910   28.7350   14.0670 N   0  0  0  0  0
   20.5400   27.5660   14.5190 C   0  0  0  0  0
   19.1880   27.3330   14.2100 C   0  0  0  0  0
   18.6260   26.1600   14.6750 C   0  0  0  0  0
   19.3840   25.2160   15.3450 C   0  0  0  0  0
   20.7110   25.4230   15.7210 C   0  0  0  0  0
   21.2630   26.6460   15.2920 C   0  0  0  0  0
   18.4500   23.7990   15.9930 S   0  0  0  0  0
   17.2570   23.4660   15.0690 O   0  0  0  0  0
   19.4810   22.6380   16.2400 O   0  0  0  0  0
   17.7940   24.1570   17.5840 N   0  0  0  0  0
   18.7830   24.4260   18.6320 C   0  0  0  0  0
   18.4000   23.8560   20.0060 C   0  0  0  0  0
   18.3680   22.3520   19.8930 C   0  0  0  0  0
   19.5030   24.3350   20.9200 C   0  0  0  0  0
   16.5050   24.8940   17.5640 C   0  0  0  0  0
   15.3940   23.9640   18.1580 C   0  0  0  0  0
   14.2320   24.7640   18.4090 O   0  0  0  0  0
   15.0130   22.8280   17.1770 C   0  0  0  0  0
   14.1320   21.9410   17.8870 N   0  0  0  0  0
   14.4880   20.6750   18.2230 C   0  0  0  0  0
   15.5870   20.0860   17.9550 O   0  0  0  0  0
   13.4210   20.0660   18.9520 O   0  0  0  0  0
   13.5050   18.6020   19.1020 C   0  0  0  0  0
   12.8390   18.3510   20.4850 C   0  0  0  0  0
   11.4120   18.4700   20.2840 O   0  0  0  0  0
   11.2200   17.9780   18.9680 C   0  0  0  0  0
   10.2970   18.8060   18.2910 O   0  0  0  0  0
   11.0420   19.4440   17.2410 C   0  0  0  0  0
   12.1310   18.4320   16.8180 C   0  0  0  0  0
   12.4700   17.8870   18.2130 C   0  0  0  0  0
   14.2940   23.2850   15.8960 C   0  0  0  0  0
   12.5490   21.7500   14.8810 C   0  0  0  0  0
   12.1480   20.6610   14.0690 C   0  0  0  0  0
   13.1190   19.9330   13.3910 C   0  0  0  0  0
   14.4710   20.2400   13.5170 C   0  0  0  0  0
   14.8600   21.3260   14.3140 C   0  0  0  0  0
   13.9020   22.1140   14.9680 C   0  0  0  0  0
   20.5242   29.3923   13.5312 H   0  0  0  0  0
   22.0683   28.9486   14.2661 H   0  0  0  0  0
   18.6075   28.0485   13.6276 H   0  0  0  0  0
   17.5645   25.9744   14.5109 H   0  0  0  0  0
   21.2772   24.6948   16.3018 H   0  0  0  0  0
   22.2890   26.8859   15.5709 H   0  0  0  0  0
   18.8581   25.5082   18.7383 H   0  0  0  0  0
   19.7150   23.9483   18.3300 H   0  0  0  0  0
   17.4244   24.1703   20.3768 H   0  0  0  0  0
   17.6308   22.0607   19.1448 H   0  0  0  0  0
   19.3522   21.9903   19.5953 H   0  0  0  0  0
   18.0979   21.9221   20.8576 H   0  0  0  0  0
   20.4592   23.9492   20.5666 H   0  0  0  0  0
   19.5266   25.4247   20.9187 H   0  0  0  0  0
   19.3164   23.9755   21.9319 H   0  0  0  0  0
   16.2506   25.1724   16.5413 H   0  0  0  0  0
   16.5866   25.8039   18.1585 H   0  0  0  0  0
   15.7732   23.5072   19.0721 H   0  0  0  0  0
   13.5372   24.2114   18.7744 H   0  0  0  0  0
   15.9440   22.3663   16.8481 H   0  0  0  0  0
   13.2045   22.2757   18.1481 H   0  0  0  0  0
   14.5286   18.2768   18.9160 H   0  0  0  0  0
   13.1898   19.0727   21.2227 H   0  0  0  0  0
   13.0972   17.3637   20.8680 H   0  0  0  0  0
   10.8283   16.9638   19.0462 H   0  0  0  0  0
   11.4835   20.3803   17.5822 H   0  0  0  0  0
   10.3976   19.7053   16.4016 H   0  0  0  0  0
   12.9695   18.8505   16.2614 H   0  0  0  0  0
   11.8198   17.6866   16.0861 H   0  0  0  0  0
   12.9154   16.9133   18.0090 H   0  0  0  0  0
   14.9790   23.9288   15.3443 H   0  0  0  0  0
   13.3762   23.7913   16.1949 H   0  0  0  0  0
   11.8012   22.3098   15.4427 H   0  0  0  0  0
   11.0943   20.3978   13.9771 H   0  0  0  0  0
   12.8160   19.1062   12.7486 H   0  0  0  0  0
   15.2210   19.6411   13.0003 H   0  0  0  0  0
   15.9186   21.5603   14.4265 H   0  0  0  0  0
  2  1  1  0  0  0
  3  2  4  0  0  0
  7  2  4  0  0  0
  4  3  4  0  0  0
  5  4  4  0  0  0
  5  6  4  0  0  0
  8  5  1  0  0  0
  6  7  4  0  0  0
  8  9  2  0  0  0
  8 10  2  0  0  0
 11  8  1  0  0  0
 11 12  1  0  0  0
 16 11  1  0  0  0
 12 13  1  0  0  0
 13 14  1  0  0  0
 13 15  1  0  0  0
 17 16  1  0  0  0
 17 18  1  0  0  0
 19 17  1  0  0  0
 19 20  1  0  0  0
 32 19  1  0  0  0
 20 21  1  0  0  0
 21 22  2  0  0  0
 21 23  1  0  0  0
 23 24  1  0  0  0
 24 25  1  0  0  0
 24 31  1  0  0  0
 25 26  1  0  0  0
 27 26  1  0  0  0
 27 28  1  0  0  0
 31 27  1  0  0  0
 29 28  1  0  0  0
 30 29  1  0  0  0
 31 30  1  0  0  0
 38 32  1  0  0  0
 33 34  4  0  0  0
 33 38  4  0  0  0
 34 35  4  0  0  0
 35 36  4  0  0  0
 36 37  4  0  0  0
 37 38  4  0  0  0
  1 39  1  0  0  0
  1 40  1  0  0  0
  3 41  1  0  0  0
  4 42  1  0  0  0
  6 43  1  0  0  0
  7 44  1  0  0  0
 12 45  1  0  0  0
 12 46  1  0  0  0
 13 47  1  0  0  0
 14 48  1  0  0  0
 14 49  1  0  0  0
 14 50  1  0  0  0
 15 51  1  0  0  0
 15 52  1  0  0  0
 15 53  1  0  0  0
 16 54  1  0  0  0
 16 55  1  0  0  0
 17 56  1  0  0  0
 18 57  1  0  0  0
 19 58  1  0  0  0
 20 59  1  0  0  0
 24 60  1  0  0  0
 25 61  1  0  0  0
 25 62  1  0  0  0
 27 63  1  0  0  0
 29 64  1  0  0  0
 29 65  1  0  0  0
 30 66  1  0  0  0
 30 67  1  0  0  0
 31 68  1  0  0  0
 32 69  1  0  0  0
 32 70  1  0  0  0
 33 71  1  0  0  0
 34 72  1  0  0  0
 35 73  1  0  0  0
 36 74  1  0  0  0
 37 75  1  0  0  0
M  END
$$$$
