3f8c_ligand
  -I-interpret- 

 61 66  0  0  0  0  0  0  0  0999 V2000
    0.4840   -5.5480    6.5570 C   0  0  0  0  0
    0.7220   -6.3420    7.6430 O   0  0  0  0  0
   -0.4650   -5.9340    5.6170 C   0  0  0  0  0
   -0.7220   -5.1370    4.5030 C   0  0  0  0  0
   -0.0260   -3.9470    4.3270 C   0  0  0  0  0
    0.9300   -3.5470    5.2760 C   0  0  0  0  0
    1.1830   -4.3500    6.3930 C   0  0  0  0  0
   -0.3020   -3.1560    3.2080 C   0  0  0  0  0
   -1.2750   -3.3980    2.3060 N   0  0  0  0  0
   -1.2430   -2.4460    1.3790 C   0  0  0  0  0
   -0.2010   -1.5710    1.7390 C   0  0  0  0  0
    0.3470   -2.0340    2.8620 N   0  0  0  0  0
    0.0830   -0.4560    0.9600 C   0  0  0  0  0
   -0.6730   -0.2160   -0.1790 C   0  0  0  0  0
   -1.7200   -1.0750   -0.5440 C   0  0  0  0  0
   -2.0160   -2.2180    0.2240 C   0  0  0  0  0
   -2.4340   -0.7910   -1.7120 C   0  0  0  0  0
   -3.3220   -1.5990   -2.3110 N   0  0  0  0  0
   -3.7740   -0.9840   -3.4100 C   0  0  0  0  0
   -3.1170    0.2450   -3.4950 C   0  0  0  0  0
   -2.3010    0.3310   -2.4470 N   0  0  0  0  0
   -3.3780    1.1110   -4.5570 C   0  0  0  0  0
   -4.3080    0.7500   -5.5410 C   0  0  0  0  0
   -4.9830   -0.4710   -5.4610 C   0  0  0  0  0
   -4.7050   -1.3500   -4.3940 C   0  0  0  0  0
   -5.8540   -0.8280   -6.4380 N   0  0  0  0  0
   -6.9910    0.0960   -6.6140 C   0  0  0  0  0
   -7.8240   -0.3520   -7.8430 C   0  0  0  0  0
   -8.2720   -1.7610   -7.6920 N   0  3  0  0  0
   -7.1160   -2.6500   -7.4690 C   0  0  0  0  0
   -6.3590   -2.1870   -6.2140 C   0  0  0  0  0
   -8.9830   -2.2170   -8.8960 C   0  0  0  0  0
    0.0120   -7.5840    7.5280 C   0  0  0  0  0
   -0.1730   -8.1910    8.9250 C   0  0  0  0  0
   -1.0121   -6.8670    5.7524 H   0  0  0  0  0
   -1.4678   -5.4465    3.7708 H   0  0  0  0  0
    1.4738   -2.6119    5.1418 H   0  0  0  0  0
    1.9225   -4.0421    7.1323 H   0  0  0  0  0
    0.8895    0.2218    1.2399 H   0  0  0  0  0
   -0.4499    0.6525   -0.7987 H   0  0  0  0  0
   -2.8145   -2.9014   -0.0651 H   0  0  0  0  0
   -2.8591    2.0674   -4.6213 H   0  0  0  0  0
   -4.5060    1.4253   -6.3734 H   0  0  0  0  0
   -5.2127   -2.3126   -4.3337 H   0  0  0  0  0
   -6.6194    1.1084   -6.7724 H   0  0  0  0  0
   -7.6170    0.0810   -5.7218 H   0  0  0  0  0
   -7.2031   -0.2744   -8.7355 H   0  0  0  0  0
   -8.7018    0.2889   -7.9251 H   0  0  0  0  0
   -8.9000   -1.7980   -6.8891 H   0  0  0  0  0
   -6.4520   -2.6111   -8.3325 H   0  0  0  0  0
   -7.4627   -3.6741   -7.3307 H   0  0  0  0  0
   -7.0303   -2.1937   -5.3553 H   0  0  0  0  0
   -5.5260   -2.8617   -6.0163 H   0  0  0  0  0
   -9.8566   -1.5865   -9.0612 H   0  0  0  0  0
   -8.3174   -2.1504   -9.7566 H   0  0  0  0  0
   -9.3001   -3.2509   -8.7594 H   0  0  0  0  0
    0.5793   -8.2729    6.9022 H   0  0  0  0  0
   -0.9631   -7.4071    7.0741 H   0  0  0  0  0
    0.8038   -8.3678    9.3752 H   0  0  0  0  0
   -0.7417   -7.5002    9.5475 H   0  0  0  0  0
   -0.7121   -9.1347    8.8412 H   0  0  0  0  0
  1  2  1  0  0  0
  1  3  4  0  0  0
  1  7  4  0  0  0
  2 33  1  0  0  0
  3  4  4  0  0  0
  4  5  4  0  0  0
  5  6  4  0  0  0
  5  8  1  0  0  0
  6  7  4  0  0  0
  8  9  4  0  0  0
  8 12  4  0  0  0
  9 10  4  0  0  0
 10 11  4  0  0  0
 10 16  4  0  0  0
 11 12  4  0  0  0
 11 13  4  0  0  0
 13 14  4  0  0  0
 14 15  4  0  0  0
 15 16  4  0  0  0
 15 17  1  0  0  0
 17 18  4  0  0  0
 17 21  4  0  0  0
 18 19  4  0  0  0
 19 20  4  0  0  0
 19 25  4  0  0  0
 20 21  4  0  0  0
 20 22  4  0  0  0
 22 23  4  0  0  0
 23 24  4  0  0  0
 24 25  4  0  0  0
 24 26  1  0  0  0
 26 27  1  0  0  0
 26 31  1  0  0  0
 27 28  1  0  0  0
 28 29  1  0  0  0
 29 30  1  0  0  0
 29 32  1  0  0  0
 30 31  1  0  0  0
 33 34  1  0  0  0
  3 35  1  0  0  0
  4 36  1  0  0  0
  6 37  1  0  0  0
  7 38  1  0  0  0
 13 39  1  0  0  0
 14 40  1  0  0  0
 16 41  1  0  0  0
 22 42  1  0  0  0
 23 43  1  0  0  0
 25 44  1  0  0  0
 27 45  1  0  0  0
 27 46  1  0  0  0
 28 47  1  0  0  0
 28 48  1  0  0  0
 29 49  1  0  0  0
 30 50  1  0  0  0
 30 51  1  0  0  0
 31 52  1  0  0  0
 31 53  1  0  0  0
 32 54  1  0  0  0
 32 55  1  0  0  0
 32 56  1  0  0  0
 33 57  1  0  0  0
 33 58  1  0  0  0
 34 59  1  0  0  0
 34 60  1  0  0  0
 34 61  1  0  0  0
M  END
$$$$
