4nld_ligand
  -I-interpret- 

 93100  0  0  0  0  0  0  0  0999 V2000
   36.4220    8.8390   43.8760 C   0  0  0  0  0
   35.5490    9.7300   44.4980 C   0  0  0  0  0
   35.5870    9.9280   45.8670 C   0  0  0  0  0
   37.3120    8.1000   44.6570 C   0  0  0  0  0
   37.3350    8.2950   46.0350 C   0  0  0  0  0
   36.4710    9.2040   46.6640 C   0  0  0  0  0
   36.7410    9.1380   48.0870 C   0  0  0  0  0
   37.7690    8.2190   48.2780 C   0  0  0  0  0
   38.1360    7.6990   46.9950 N   0  0  0  0  0
   39.1490    6.6920   46.7550 C   0  0  0  0  0
   36.0180    9.8640   49.1660 C   0  0  0  0  0
   34.5160    9.5800   49.1150 C   0  0  0  0  0
   33.7720   10.3630   50.1890 C   0  0  0  0  0
   34.0170   11.8560   50.0570 C   0  0  0  0  0
   35.4920   12.1470   50.1330 C   0  0  0  0  0
   36.2600   11.3780   49.0600 C   0  0  0  0  0
   38.5800    6.3220   49.7000 C   0  0  0  0  0
   38.4010    7.7010   49.5090 C   0  0  0  0  0
   38.8250    8.5970   50.4930 C   0  0  0  0  0
   39.4210    8.1390   51.6550 C   0  0  0  0  0
   39.5980    6.7710   51.8460 C   0  0  0  0  0
   39.1640    5.8650   50.8820 C   0  0  0  0  0
   40.2540    6.4200   52.9980 O   0  0  0  0  0
   40.4670    5.0310   53.2650 C   0  0  0  0  0
   38.5500    5.3930   47.2170 C   0  0  0  0  0
   38.2540    5.2520   48.7180 C   0  0  0  0  0
   39.3920    4.5070   48.0950 C   0  0  0  0  0
   37.5890    4.7300   46.1940 C   0  0  0  0  0
   36.2360    4.7970   46.3150 N   0  0  0  0  0
   38.1050    4.2350   45.2050 O   0  0  0  0  0
   35.2160    4.1540   45.4620 C   0  0  0  0  0
   34.3380    3.2370   46.2940 C   0  0  0  0  0
   33.6460    3.9190   47.3900 N   0  3  0  0  0
   34.5620    4.7710   48.1480 C   0  0  0  0  0
   35.3560    5.6230   47.1810 C   0  0  0  0  0
   34.4580    5.3720   44.9380 C   0  0  0  0  0
   34.4150    6.2980   46.1590 C   0  0  0  0  0
   32.9900    2.9540   48.2750 C   0  0  0  0  0
   36.3270    8.6850   42.3880 C   0  0  0  0  0
   35.4100    9.1970   41.7440 O   0  0  0  0  0
   37.2840    7.8890   41.7700 N   0  0  0  0  0
   37.4410    7.4890   40.1290 S   0  0  0  0  0
   36.1890    6.4310   39.8810 N   0  0  0  0  0
   38.6780    6.7950   39.9800 O   0  0  0  0  0
   37.2320    8.6980   39.4040 O   0  0  0  0  0
   35.0770    6.8470   39.0190 C   0  0  0  0  0
   35.8230    5.4930   40.9510 C   0  0  0  0  0
   34.8249   10.2795   43.8965 H   0  0  0  0  0
   34.9192   10.6571   46.3260 H   0  0  0  0  0
   37.9826    7.3772   44.1923 H   0  0  0  0  0
   40.0695    6.9185   47.2930 H   0  0  0  0  0
   39.4252    6.6496   45.7014 H   0  0  0  0  0
   36.4079    9.5054   50.1186 H   0  0  0  0  0
   34.3567    8.5155   49.2866 H   0  0  0  0  0
   34.1373    9.8818   48.1385 H   0  0  0  0  0
   34.1317   10.0384   51.1654 H   0  0  0  0  0
   32.7041   10.1764   50.0759 H   0  0  0  0  0
   33.5077   12.3752   50.8689 H   0  0  0  0  0
   33.6341   12.1976   49.0953 H   0  0  0  0  0
   35.8583   11.8391   51.1124 H   0  0  0  0  0
   35.6456   13.2144   49.9745 H   0  0  0  0  0
   35.9150   11.7141   48.0822 H   0  0  0  0  0
   37.3248   11.5668   49.1968 H   0  0  0  0  0
   38.6851    9.6677   50.3442 H   0  0  0  0  0
   39.7502    8.8455   52.4169 H   0  0  0  0  0
   39.2809    4.7946   51.0513 H   0  0  0  0  0
   39.5049    4.5222   53.3253 H   0  0  0  0  0
   41.0605    4.5947   52.4615 H   0  0  0  0  0
   40.9973    4.9213   54.2109 H   0  0  0  0  0
   37.3528    5.0116   49.2820 H   0  0  0  0  0
   40.4514    4.3441   48.2934 H   0  0  0  0  0
   39.7716    3.4854   48.0787 H   0  0  0  0  0
   35.6056    3.5164   44.6684 H   0  0  0  0  0
   34.9853    2.4807   46.7379 H   0  0  0  0  0
   33.5752    2.8273   45.6319 H   0  0  0  0  0
   32.9291    4.5161   46.9778 H   0  0  0  0  0
   35.2403    4.1513   48.7345 H   0  0  0  0  0
   33.9946    5.4121   48.8226 H   0  0  0  0  0
   35.9123    6.3237   47.8036 H   0  0  0  0  0
   33.4665    5.1235   44.5594 H   0  0  0  0  0
   34.9391    5.8313   44.0745 H   0  0  0  0  0
   34.7314    7.3125   45.9167 H   0  0  0  0  0
   33.4040    6.4182   46.5482 H   0  0  0  0  0
   32.2616    2.3771   47.7052 H   0  0  0  0  0
   33.7380    2.2824   48.6963 H   0  0  0  0  0
   32.4838    3.4869   49.0799 H   0  0  0  0  0
   37.9898    7.4900   42.3889 H   0  0  0  0  0
   34.6087    7.7382   39.4369 H   0  0  0  0  0
   35.4556    7.0679   38.0210 H   0  0  0  0  0
   34.3435    6.0428   38.9609 H   0  0  0  0  0
   36.6769    4.8561   41.1819 H   0  0  0  0  0
   35.5348    6.0531   41.8406 H   0  0  0  0  0
   34.9867    4.8764   40.6216 H   0  0  0  0  0
  1  2  4  0  0  0
  1  4  4  0  0  0
  1 39  1  0  0  0
  2  3  4  0  0  0
  3  6  4  0  0  0
  4  5  4  0  0  0
  5  6  4  0  0  0
  5  9  4  0  0  0
  6  7  4  0  0  0
  7  8  4  0  0  0
  7 11  1  0  0  0
  8  9  4  0  0  0
  8 18  1  0  0  0
  9 10  1  0  0  0
 10 25  1  0  0  0
 11 12  1  0  0  0
 11 16  1  0  0  0
 12 13  1  0  0  0
 13 14  1  0  0  0
 14 15  1  0  0  0
 15 16  1  0  0  0
 18 17  4  0  0  0
 17 22  4  0  0  0
 17 26  1  0  0  0
 18 19  4  0  0  0
 19 20  4  0  0  0
 20 21  4  0  0  0
 21 22  4  0  0  0
 21 23  1  0  0  0
 23 24  1  0  0  0
 25 26  1  0  0  0
 25 27  1  0  0  0
 25 28  1  0  0  0
 26 27  1  0  0  0
 28 29  1  0  0  0
 28 30  2  0  0  0
 29 31  1  0  0  0
 29 35  1  0  0  0
 31 32  1  0  0  0
 31 36  1  0  0  0
 32 33  1  0  0  0
 33 34  1  0  0  0
 33 38  1  0  0  0
 34 35  1  0  0  0
 35 37  1  0  0  0
 36 37  1  0  0  0
 39 40  2  0  0  0
 39 41  1  0  0  0
 41 42  1  0  0  0
 42 43  1  0  0  0
 42 44  2  0  0  0
 42 45  2  0  0  0
 43 46  1  0  0  0
 43 47  1  0  0  0
  2 48  1  0  0  0
  3 49  1  0  0  0
  4 50  1  0  0  0
 10 51  1  0  0  0
 10 52  1  0  0  0
 11 53  1  0  0  0
 12 54  1  0  0  0
 12 55  1  0  0  0
 13 56  1  0  0  0
 13 57  1  0  0  0
 14 58  1  0  0  0
 14 59  1  0  0  0
 15 60  1  0  0  0
 15 61  1  0  0  0
 16 62  1  0  0  0
 16 63  1  0  0  0
 19 64  1  0  0  0
 20 65  1  0  0  0
 22 66  1  0  0  0
 24 67  1  0  0  0
 24 68  1  0  0  0
 24 69  1  0  0  0
 26 70  1  0  0  0
 27 71  1  0  0  0
 27 72  1  0  0  0
 31 73  1  0  0  0
 32 74  1  0  0  0
 32 75  1  0  0  0
 33 76  1  0  0  0
 34 77  1  0  0  0
 34 78  1  0  0  0
 35 79  1  0  0  0
 36 80  1  0  0  0
 36 81  1  0  0  0
 37 82  1  0  0  0
 37 83  1  0  0  0
 38 84  1  0  0  0
 38 85  1  0  0  0
 38 86  1  0  0  0
 41 87  1  0  0  0
 46 88  1  0  0  0
 46 89  1  0  0  0
 46 90  1  0  0  0
 47 91  1  0  0  0
 47 92  1  0  0  0
 47 93  1  0  0  0
M  END
$$$$
