### 
### Created by X-TOOL on Mon Sep 10 21:12:56 2018
### 

@<TRIPOS>MOLECULE
2pv3_ligand
  188   192     1     0     0
SMALL
GAST_HUCK


@<TRIPOS>ATOM
      1 N          77.1250   41.9920  -36.4230 N.4       1 ASN         0.2396
      2 CA         75.7100   42.1090  -36.8930 C.3       1 ASN         0.0818
      3 C          75.4070   43.5370  -37.3450 C.2       1 ASN         0.2292
      4 O          74.9920   43.7740  -38.4850 O.2       1 ASN        -0.3905
      5 CB         74.7350   41.6870  -35.7840 C.3       1 ASN         0.0972
      6 CG         74.9440   40.2500  -35.3190 C.2       1 ASN         0.1813
      7 OD1        75.3660   39.3850  -36.0870 O.2       1 ASN        -0.3969
      8 ND2        74.6340   39.9920  -34.0530 N.am      1 ASN        -0.3006
      9 N          75.6150   44.4780  -36.4290 N.am      1 PHE        -0.2591
     10 CA         75.5580   45.8980  -36.7550 C.3       1 PHE         0.1406
     11 C          76.9090   46.6120  -36.5970 C.2       1 PHE         0.2060
     12 O          77.0190   47.7850  -36.9540 O.2       1 PHE        -0.3942
     13 CB         74.4360   46.6300  -35.9720 C.3       1 PHE         0.0214
     14 CG         74.4770   46.4740  -34.4410 C.ar      1 PHE        -0.0386
     15 CD1        73.2820   46.4300  -33.7250 C.ar      1 PHE        -0.0601
     16 CD2        75.6690   46.4190  -33.7180 C.ar      1 PHE        -0.0601
     17 CE1        73.2720   46.3150  -32.3370 C.ar      1 PHE        -0.0686
     18 CE2        75.6590   46.3000  -32.3270 C.ar      1 PHE        -0.0686
     19 CZ         74.4600   46.2500  -31.6410 C.ar      1 PHE        -0.0687
     20 N          77.9290   45.9090  -36.0880 N.am      1 THR        -0.2612
     21 CA         79.2470   46.5080  -35.7860 C.3       1 THR         0.1565
     22 C          79.5440   47.6590  -36.7650 C.2       1 THR         0.2065
     23 O          79.8970   48.7750  -36.3510 O.2       1 THR        -0.3943
     24 CB         80.3950   45.4020  -35.7380 C.3       1 THR         0.0924
     25 OG1        81.6840   45.9900  -35.5030 O.3       1 THR        -0.3874
     26 CG2        80.4480   44.5820  -37.0110 C.3       1 THR        -0.0346
     27 N          79.3140   47.3910  -38.0530 N.am      1 LEU        -0.2636
     28 CA         79.6030   48.3410  -39.1240 C.3       1 LEU         0.1312
     29 C          78.5770   49.4590  -39.2400 C.2       1 LEU         0.2039
     30 O          78.9100   50.6100  -38.9630 O.2       1 LEU        -0.3944
     31 CB         79.7520   47.6050  -40.4560 C.3       1 LEU        -0.0101
     32 CG         81.2230   47.2930  -40.7170 C.3       1 LEU        -0.0425
     33 CD1        81.3460   46.2190  -41.7700 C.3       1 LEU        -0.0625
     34 CD2        82.0020   48.5640  -41.1100 C.3       1 LEU        -0.0625
     35 N          77.3520   49.1140  -39.6560 N.am      1 LYS        -0.2637
     36 CA         76.2010   50.0460  -39.6960 C.3       1 LYS         0.1310
     37 C          76.3530   51.1620  -38.6660 C.2       1 LYS         0.2040
     38 O          76.0280   52.3260  -38.9230 O.2       1 LYS        -0.3944
     39 CB         74.8830   49.3170  -39.3760 C.3       1 LYS        -0.0122
     40 CG         74.5750   48.0530  -40.1790 C.3       1 LYS        -0.0440
     41 CD         73.4410   47.2520  -39.5360 C.3       1 LYS        -0.0124
     42 CE         73.3730   45.8340  -40.0850 C.3       1 LYS        -0.0354
     43 NZ         72.6980   44.8980  -39.1470 N.4       1 LYS         0.2185
     44 N          76.8310   50.7550  -37.4900 N.am      1 PHE        -0.2619
     45 CA         77.0380   51.6130  -36.3270 C.3       1 PHE         0.1404
     46 C          78.3480   52.4190  -36.3510 C.2       1 PHE         0.2060
     47 O          78.3440   53.6390  -36.0720 O.2       1 PHE        -0.3942
     48 CB         77.0350   50.7400  -35.0730 C.3       1 PHE         0.0214
     49 CG         75.8240   50.9060  -34.2100 C.ar      1 PHE        -0.0386
     50 CD1        75.4840   52.1650  -33.7060 C.ar      1 PHE        -0.0601
     51 CD2        75.0660   49.7960  -33.8430 C.ar      1 PHE        -0.0601
     52 CE1        74.3830   52.3270  -32.8660 C.ar      1 PHE        -0.0686
     53 CE2        73.9620   49.9310  -33.0080 C.ar      1 PHE        -0.0686
     54 CZ         73.6160   51.2080  -32.5110 C.ar      1 PHE        -0.0687
     55 N          79.4650   51.7360  -36.6400 N.am      1 TRP        -0.2625
     56 CA         80.7550   52.4240  -36.8010 C.3       1 TRP         0.1352
     57 C          80.5640   53.5740  -37.7740 C.2       1 TRP         0.2052
     58 O          80.8650   54.7290  -37.4490 O.2       1 TRP        -0.3942
     59 CB         81.8600   51.4930  -37.3110 C.3       1 TRP         0.0042
     60 CG         83.2290   52.1690  -37.3820 C.2       1 TRP        -0.0418
     61 CD1        83.5740   53.4110  -36.9010 C.2       1 TRP         0.0167
     62 CD2        84.4280   51.6150  -37.9290 C.ar      1 TRP        -0.0214
     63 NE1        84.9000   53.6620  -37.1390 N.pl3     1 TRP        -0.2890
     64 CE2        85.4490   52.5730  -37.7620 C.ar      1 TRP         0.0603
     65 CE3        84.7390   50.4040  -38.5520 C.ar      1 TRP        -0.0747
     66 CZ2        86.7570   52.3510  -38.1940 C.ar      1 TRP        -0.0443
     67 CZ3        86.0400   50.1880  -38.9810 C.ar      1 TRP        -0.0792
     68 CH2        87.0300   51.1540  -38.8000 C.ar      1 TRP        -0.0768
     69 N          80.0240   53.2500  -38.9470 N.am      1 ASP        -0.2621
     70 CA         79.5690   54.2550  -39.8950 C.3       1 ASP         0.1423
     71 C          78.5150   55.1730  -39.2430 C.2       1 ASP         0.2056
     72 O          77.4220   55.3490  -39.7750 O.2       1 ASP        -0.3943
     73 CB         78.9950   53.5920  -41.1590 C.3       1 ASP         0.0406
     74 CG         79.9630   52.6170  -41.8090 C.2       1 ASP         0.0393
     75 OD1        81.0310   52.3510  -41.2230 O.co2     1 ASP        -0.5688
     76 OD2        79.6480   52.1050  -42.9040 O.co2     1 ASP        -0.5688
     77 N          78.8300   55.6900  -38.0530 N.am      1 ILE        -0.2634
     78 CA         78.2720   56.9460  -37.5450 C.3       1 ILE         0.1335
     79 C          79.4070   57.8470  -36.9840 C.2       1 ILE         0.2044
     80 O          79.1660   59.0020  -36.6240 O.2       1 ILE        -0.3944
     81 CB         77.1510   56.7030  -36.4760 C.3       1 ILE        -0.0037
     82 CG1        75.9700   55.9700  -37.1020 C.3       1 ILE        -0.0491
     83 CG2        76.6420   58.0320  -35.8600 C.3       1 ILE        -0.0582
     84 CD1        74.6920   55.9650  -36.2410 C.3       1 ILE        -0.0648
     85 N          80.6470   57.3490  -36.9610 N.am      1 PHE        -0.2606
     86 CA         81.7260   58.0100  -36.2220 C.3       1 PHE         0.1515
     87 C          83.0300   58.1490  -37.0090 C.2       1 PHE         0.2591
     88 O          84.0060   57.4070  -36.8220 O.2       1 PHE        -0.3678
     89 CB         81.9740   57.2470  -34.9300 C.3       1 PHE         0.0228
     90 CG         80.7570   57.1240  -34.0660 C.ar      1 PHE        -0.0384
     91 CD1        80.4720   58.0890  -33.1000 C.ar      1 PHE        -0.0601
     92 CD2        79.8900   56.0510  -34.2220 C.ar      1 PHE        -0.0601
     93 CE1        79.3500   57.9800  -32.2950 C.ar      1 PHE        -0.0686
     94 CE2        78.7670   55.9350  -33.4230 C.ar      1 PHE        -0.0686
     95 CZ         78.4940   56.9070  -32.4560 C.ar      1 PHE        -0.0687
     96 O1         83.1209   59.1036  -37.9306 O.3       1 PHE        -0.2908
     97 H1         77.3044   41.0444  -36.1298 H         1 ASN         0.2017
     98 H2         77.2741   42.6177  -35.6469 H         1 ASN         0.2017
     99 H3         77.7502   42.2349  -37.1754 H         1 ASN         0.2017
    100 H4         75.5734   41.4356  -37.7520 H         1 ASN         0.1125
    101 H5         73.7077   41.7859  -36.1647 H         1 ASN         0.0585
    102 H6         74.8730   42.3572  -34.9228 H         1 ASN         0.0585
    103 H7         74.7491   39.0680  -33.6884 H         1 ASN         0.1814
    104 H8         74.2856   40.7218  -33.4648 H         1 ASN         0.1814
    105 H9         75.8165   44.2037  -35.4887 H         1 PHE         0.1886
    106 H10        75.2939   45.9613  -37.8209 H         1 PHE         0.0823
    107 H11        73.4693   46.2417  -36.3251 H         1 PHE         0.0474
    108 H12        74.5071   47.7029  -36.2040 H         1 PHE         0.0474
    109 H13        72.3407   46.4865  -34.2596 H         1 PHE         0.0557
    110 H14        76.6158   46.4694  -34.2435 H         1 PHE         0.0557
    111 H15        72.3291   46.2766  -31.8036 H         1 PHE         0.0599
    112 H16        76.5950   46.2466  -31.7829 H         1 PHE         0.0599
    113 H17        74.4540   46.1601  -30.5607 H         1 PHE         0.0559
    114 H18        77.7933   44.9355  -35.9039 H         1 THR         0.1884
    115 H19        79.1868   46.9478  -34.7795 H         1 THR         0.0826
    116 H20        80.1692   44.7229  -34.9026 H         1 THR         0.0639
    117 H21        81.6551   46.5052  -34.7054 H         1 THR         0.2101
    118 H22        81.2515   43.8349  -36.9327 H         1 THR         0.0257
    119 H23        80.6459   45.2449  -37.8662 H         1 THR         0.0257
    120 H24        79.4852   44.0709  -37.1583 H         1 THR         0.0257
    121 H25        78.9271   46.5011  -38.2946 H         1 LEU         0.1883
    122 H26        80.5694   48.8114  -38.8899 H         1 LEU         0.0800
    123 H27        79.3642   48.2381  -41.2676 H         1 LEU         0.0315
    124 H28        79.1812   46.6654  -40.4191 H         1 LEU         0.0315
    125 H29        81.6602   46.9063  -39.7846 H         1 LEU         0.0298
    126 H30        82.4093   46.0022  -41.9501 H         1 LEU         0.0232
    127 H31        80.8793   46.5658  -42.7037 H         1 LEU         0.0232
    128 H32        80.8392   45.3062  -41.4237 H         1 LEU         0.0232
    129 H33        81.8892   49.3219  -40.3208 H         1 LEU         0.0232
    130 H34        81.6055   48.9590  -42.0570 H         1 LEU         0.0232
    131 H35        83.0671   48.3181  -41.2326 H         1 LEU         0.0232
    132 H36        77.2053   48.1719  -39.9574 H         1 LYS         0.1883
    133 H37        76.1410   50.4846  -40.7030 H         1 LYS         0.0800
    134 H38        74.0609   50.0274  -39.5477 H         1 LYS         0.0312
    135 H39        74.9090   49.0362  -38.3128 H         1 LYS         0.0312
    136 H40        75.4778   47.4260  -40.2216 H         1 LYS         0.0269
    137 H41        74.2787   48.3391  -41.1990 H         1 LYS         0.0269
    138 H42        72.4863   47.7592  -39.7391 H         1 LYS         0.0317
    139 H43        73.6080   47.2062  -38.4497 H         1 LYS         0.0317
    140 H44        74.3969   45.4755  -40.2669 H         1 LYS         0.0813
    141 H45        72.8155   45.8480  -41.0331 H         1 LYS         0.0813
    142 H46        72.6764   43.9748  -39.5511 H         1 LYS         0.1994
    143 H47        71.7555   45.2130  -38.9782 H         1 LYS         0.1994
    144 H48        73.2046   44.8717  -38.2760 H         1 LYS         0.1994
    145 H49        77.0659   49.7874  -37.3973 H         1 PHE         0.1885
    146 H50        76.2008   52.3247  -36.2761 H         1 PHE         0.0823
    147 H51        77.9221   50.9940  -34.4742 H         1 PHE         0.0474
    148 H52        77.0931   49.6871  -35.3861 H         1 PHE         0.0474
    149 H53        76.0847   53.0272  -33.9720 H         1 PHE         0.0557
    150 H54        75.3403   48.8147  -34.2130 H         1 PHE         0.0557
    151 H55        74.1221   53.3098  -32.4905 H         1 PHE         0.0599
    152 H56        73.3709   49.0627  -32.7402 H         1 PHE         0.0599
    153 H57        72.7594   51.3222  -31.8566 H         1 PHE         0.0559
    154 H58        79.4203   50.7428  -36.7478 H         1 TRP         0.1884
    155 H59        81.0636   52.8244  -35.8241 H         1 TRP         0.0815
    156 H60        81.5882   51.1465  -38.3190 H         1 TRP         0.0397
    157 H61        81.9308   50.6296  -36.6331 H         1 TRP         0.0397
    158 H62        82.8907   54.0968  -36.4023 H         1 TRP         0.0795
    159 H63        85.4010   54.5269  -36.8904 H         1 TRP         0.2216
    160 H64        83.9771   49.6467  -38.6975 H         1 TRP         0.0540
    161 H65        87.5291   53.0991  -38.0549 H         1 TRP         0.0541
    162 H66        86.2921   49.2517  -39.4657 H         1 TRP         0.0510
    163 H67        88.0372   50.9526  -39.1466 H         1 TRP         0.0530
    164 H68        79.9280   52.2833  -39.1843 H         1 ASP         0.1884
    165 H69        80.4322   54.8705  -40.1882 H         1 ASP         0.0819
    166 H70        78.7486   54.3791  -41.8868 H         1 ASP         0.0478
    167 H71        78.0799   53.0469  -40.8844 H         1 ASP         0.0478
    168 H72        79.4809   55.1940  -37.4783 H         1 ILE         0.1883
    169 H73        77.8106   57.4741  -38.3925 H         1 ILE         0.0803
    170 H74        77.5705   56.0812  -35.6714 H         1 ILE         0.0345
    171 H75        76.2685   54.9263  -37.2798 H         1 ILE         0.0267
    172 H76        75.7355   56.4530  -38.0620 H         1 ILE         0.0267
    173 H77        77.4853   58.5716  -35.4043 H         1 ILE         0.0235
    174 H78        75.8873   57.8139  -35.0901 H         1 ILE         0.0235
    175 H79        76.1925   58.6532  -36.6486 H         1 ILE         0.0235
    176 H80        73.8969   55.4174  -36.7682 H         1 ILE         0.0230
    177 H81        74.3669   57.0004  -36.0612 H         1 ILE         0.0230
    178 H82        74.8998   55.4737  -35.2790 H         1 ILE         0.0230
    179 H83        80.8432   56.5050  -37.4601 H         1 PHE         0.1886
    180 H84        81.3846   59.0244  -35.9683 H         1 PHE         0.0840
    181 H85        82.7542   57.7723  -34.3597 H         1 PHE         0.0475
    182 H86        82.3239   56.2357  -35.1845 H         1 PHE         0.0475
    183 H87        81.1376   58.9358  -32.9776 H         1 PHE         0.0557
    184 H88        80.0946   55.2988  -34.9753 H         1 PHE         0.0557
    185 H89        79.1444   58.7326  -31.5424 H         1 PHE         0.0599
    186 H90        78.0987   55.0905  -33.5466 H         1 PHE         0.0599
    187 H91        77.6114   56.8191  -31.8328 H         1 PHE         0.0559
    188 H92        83.8322   59.6921  -37.7063 H         1 PHE         0.2540
@<TRIPOS>BOND
     1    2    1 1  
     2    2    5 1  
     3    3    2 1  
     4    3    4 2  
     5    5    6 1  
     6    6    8 am 
     7    6    7 2  
     8   10    9 1  
     9   10   13 1  
    10   11   10 1  
    11   11   12 2  
    12   13   14 1  
    13   14   15 ar 
    14   14   16 ar 
    15   16   18 ar 
    16   18   19 ar 
    17   17   19 ar 
    18   15   17 ar 
    19    9    3 am 
    20   21   20 1  
    21   21   24 1  
    22   22   21 1  
    23   22   23 2  
    24   24   26 1  
    25   24   25 1  
    26   20   11 am 
    27   28   27 1  
    28   28   31 1  
    29   29   28 1  
    30   29   30 2  
    31   31   32 1  
    32   32   33 1  
    33   32   34 1  
    34   27   22 am 
    35   36   35 1  
    36   36   39 1  
    37   37   36 1  
    38   37   38 2  
    39   39   40 1  
    40   40   41 1  
    41   41   42 1  
    42   42   43 1  
    43   35   29 am 
    44   45   44 1  
    45   45   48 1  
    46   46   45 1  
    47   46   47 2  
    48   48   49 1  
    49   49   50 ar 
    50   49   51 ar 
    51   51   53 ar 
    52   53   54 ar 
    53   52   54 ar 
    54   50   52 ar 
    55   44   37 am 
    56   56   55 1  
    57   56   59 1  
    58   57   56 1  
    59   57   58 2  
    60   59   60 1  
    61   60   61 2  
    62   60   62 1  
    63   62   65 ar 
    64   62   64 ar 
    65   64   66 ar 
    66   64   63 1  
    67   61   63 1  
    68   66   68 ar 
    69   67   68 ar 
    70   65   67 ar 
    71   55   46 am 
    72   70   69 1  
    73   70   73 1  
    74   71   70 1  
    75   71   72 2  
    76   73   74 1  
    77   74   75 ar 
    78   74   76 ar 
    79   69   57 am 
    80   78   77 1  
    81   78   81 1  
    82   79   78 1  
    83   79   80 2  
    84   81   83 1  
    85   81   82 1  
    86   82   84 1  
    87   77   71 am 
    88   85   86 1  
    89   86   89 1  
    90   86   87 1  
    91   87   88 2  
    92   89   90 1  
    93   90   91 ar 
    94   90   92 ar 
    95   92   94 ar 
    96   94   95 ar 
    97   93   95 ar 
    98   91   93 ar 
    99   79   85 am 
   100   87   96 1  
   101    1   97 1  
   102    1   98 1  
   103    1   99 1  
   104    2  100 1  
   105    5  101 1  
   106    5  102 1  
   107    8  103 1  
   108    8  104 1  
   109    9  105 1  
   110   10  106 1  
   111   13  107 1  
   112   13  108 1  
   113   15  109 1  
   114   16  110 1  
   115   17  111 1  
   116   18  112 1  
   117   19  113 1  
   118   20  114 1  
   119   21  115 1  
   120   24  116 1  
   121   25  117 1  
   122   26  118 1  
   123   26  119 1  
   124   26  120 1  
   125   27  121 1  
   126   28  122 1  
   127   31  123 1  
   128   31  124 1  
   129   32  125 1  
   130   33  126 1  
   131   33  127 1  
   132   33  128 1  
   133   34  129 1  
   134   34  130 1  
   135   34  131 1  
   136   35  132 1  
   137   36  133 1  
   138   39  134 1  
   139   39  135 1  
   140   40  136 1  
   141   40  137 1  
   142   41  138 1  
   143   41  139 1  
   144   42  140 1  
   145   42  141 1  
   146   43  142 1  
   147   43  143 1  
   148   43  144 1  
   149   44  145 1  
   150   45  146 1  
   151   48  147 1  
   152   48  148 1  
   153   50  149 1  
   154   51  150 1  
   155   52  151 1  
   156   53  152 1  
   157   54  153 1  
   158   55  154 1  
   159   56  155 1  
   160   59  156 1  
   161   59  157 1  
   162   61  158 1  
   163   63  159 1  
   164   65  160 1  
   165   66  161 1  
   166   67  162 1  
   167   68  163 1  
   168   69  164 1  
   169   70  165 1  
   170   73  166 1  
   171   73  167 1  
   172   77  168 1  
   173   78  169 1  
   174   81  170 1  
   175   82  171 1  
   176   82  172 1  
   177   83  173 1  
   178   83  174 1  
   179   83  175 1  
   180   84  176 1  
   181   84  177 1  
   182   84  178 1  
   183   85  179 1  
   184   86  180 1  
   185   89  181 1  
   186   89  182 1  
   187   91  183 1  
   188   92  184 1  
   189   93  185 1  
   190   94  186 1  
   191   95  187 1  
   192   96  188 1  
@<TRIPOS>SUBSTRUCTURE
     1 ASN         1

