6aox_ligand
  -I-interpret- 

 51 52  0  0  0  0  0  0  0  0999 V2000
   -5.6870    3.2590  -12.5370 C   0  0  0  0  0
   -6.4780    5.4350  -14.1650 C   0  0  0  0  0
   -7.5520    6.2880  -14.8110 C   0  0  0  0  0
   -3.6470    1.3010   -8.9760 C   0  0  0  0  0
   -4.5350    2.5180   -8.7930 C   0  0  0  0  0
   -5.7310    2.3720   -8.6650 O   0  0  0  0  0
   -3.9800    3.8240   -8.7750 N   0  0  0  0  0
   -4.8020    4.9740   -8.6080 C   0  0  0  0  0
   -5.0780    5.5860   -9.9670 C   0  0  0  0  0
   -5.7790    6.9120   -9.7950 C   0  0  0  0  0
   -4.9450    7.8090   -8.9090 C   0  0  0  0  0
   -5.6420    9.1380   -8.7180 C   0  0  0  0  0
   -4.8330    9.9910   -7.9360 O   0  0  0  0  0
   -4.7650    7.1890   -7.6590 O   0  0  0  0  0
   -4.0790    5.9590   -7.7130 C   0  0  0  0  0
   -2.7790    6.1580   -8.2120 O   0  0  0  0  0
   -7.0350    6.6930   -9.2000 O   0  0  0  0  0
   -5.9180    4.7150  -10.6940 O   0  0  0  0  0
   -5.6540    4.6970  -12.0800 C   0  0  0  0  0
   -5.5070    3.1890  -14.0350 C   0  0  0  0  0
   -6.5840    4.0210  -14.6880 C   0  0  0  0  0
   -8.8210    5.9010  -14.3330 O   0  0  0  0  0
   -6.6350    5.4370  -12.7630 O   0  0  0  0  0
   -7.8480    3.4990  -14.3650 O   0  0  0  0  0
   -5.5980    1.8510  -14.4660 O   0  0  0  0  0
   -4.6410    2.5600  -11.9120 O   0  0  0  0  0
   -6.6470    2.8158  -12.2724 H   0  0  0  0  0
   -5.4977    5.8443  -14.4092 H   0  0  0  0  0
   -7.5176    6.1532  -15.8921 H   0  0  0  0  0
   -7.3777    7.3352  -14.5638 H   0  0  0  0  0
   -3.7463    0.6468   -8.1098 H   0  0  0  0  0
   -3.9495    0.7640   -9.8750 H   0  0  0  0  0
   -2.6097    1.6211   -9.0742 H   0  0  0  0  0
   -2.9726    3.9409   -8.8838 H   0  0  0  0  0
   -5.7527    4.7058   -8.1472 H   0  0  0  0  0
   -4.1383    5.7386  -10.4978 H   0  0  0  0  0
   -5.9127    7.3897  -10.7656 H   0  0  0  0  0
   -3.9762    7.9794   -9.3785 H   0  0  0  0  0
   -6.5936    8.9776   -8.2113 H   0  0  0  0  0
   -5.8171    9.5975   -9.6908 H   0  0  0  0  0
   -5.2789   10.8329   -7.8173 H   0  0  0  0  0
   -4.0346    5.5537   -6.7021 H   0  0  0  0  0
   -2.3182    5.3165   -8.2459 H   0  0  0  0  0
   -7.4857    7.5332   -9.0881 H   0  0  0  0  0
   -4.6805    5.1411  -12.2879 H   0  0  0  0  0
   -4.5257    3.5743  -14.3119 H   0  0  0  0  0
   -6.4596    4.0071  -15.7708 H   0  0  0  0  0
   -9.4964    6.4444  -14.7455 H   0  0  0  0  0
   -8.5290    4.0314  -14.7825 H   0  0  0  0  0
   -4.9088    1.3326  -14.0444 H   0  0  0  0  0
   -4.6547    1.6435  -12.1974 H   0  0  0  0  0
 19  1  1  0  0  0
  1 20  1  0  0  0
  1 26  1  0  0  0
  2  3  1  0  0  0
  2 21  1  0  0  0
 23  2  1  0  0  0
  3 22  1  0  0  0
  5  4  1  0  0  0
  5  6  2  0  0  0
  7  5  1  0  0  0
  8  7  1  0  0  0
  9  8  1  0  0  0
  8 15  1  0  0  0
  9 10  1  0  0  0
 18  9  1  0  0  0
 10 11  1  0  0  0
 10 17  1  0  0  0
 11 12  1  0  0  0
 11 14  1  0  0  0
 12 13  1  0  0  0
 15 14  1  0  0  0
 15 16  1  0  0  0
 19 18  1  0  0  0
 19 23  1  0  0  0
 20 21  1  0  0  0
 20 25  1  0  0  0
 21 24  1  0  0  0
  1 27  1  0  0  0
  2 28  1  0  0  0
  3 29  1  0  0  0
  3 30  1  0  0  0
  4 31  1  0  0  0
  4 32  1  0  0  0
  4 33  1  0  0  0
  7 34  1  0  0  0
  8 35  1  0  0  0
  9 36  1  0  0  0
 10 37  1  0  0  0
 11 38  1  0  0  0
 12 39  1  0  0  0
 12 40  1  0  0  0
 13 41  1  0  0  0
 15 42  1  0  0  0
 16 43  1  0  0  0
 17 44  1  0  0  0
 19 45  1  0  0  0
 20 46  1  0  0  0
 21 47  1  0  0  0
 22 48  1  0  0  0
 24 49  1  0  0  0
 25 50  1  0  0  0
 26 51  1  0  0  0
M  END
$$$$
