3rxa_ligand
  -I-interpret- 

 24 24  0  0  0  0  0  0  0  0999 V2000
   -1.6920  -13.0360   17.8190 N   0  3  0  0  0
   -1.3980  -14.1260   16.8950 C   0  0  0  0  0
   -1.5320  -13.6400   15.4520 C   0  0  0  0  0
   -0.6390  -14.4240   14.4950 C   0  0  0  0  0
   -1.2750  -15.7380   14.0640 C   0  0  0  0  0
   -1.4660  -16.6560   15.2620 C   0  0  0  0  0
   -2.6710  -16.2540   16.0930 C   0  0  0  0  0
   -2.3230  -15.2990   17.2380 C   0  0  0  0  0
   -1.0870  -12.2419   17.6097 H   0  0  0  0  0
   -2.6679  -12.7580   17.7155 H   0  0  0  0  0
   -1.5259  -13.3486   18.7756 H   0  0  0  0  0
   -0.3691  -14.4715   16.9952 H   0  0  0  0  0
   -1.2301  -12.5932   15.4171 H   0  0  0  0  0
   -2.5674  -13.7801   15.1416 H   0  0  0  0  0
    0.2942  -14.6512   15.0103 H   0  0  0  0  0
   -0.4788  -13.8159   13.6047 H   0  0  0  0  0
   -0.6208  -16.2283   13.3430 H   0  0  0  0  0
   -2.2478  -15.5310   13.6180 H   0  0  0  0  0
   -0.5781  -16.5885   15.8906 H   0  0  0  0  0
   -1.6255  -17.6699   14.8950 H   0  0  0  0  0
   -3.0855  -17.1607   16.5337 H   0  0  0  0  0
   -3.3695  -15.7385   15.4339 H   0  0  0  0  0
   -3.2660  -14.8556   17.5576 H   0  0  0  0  0
   -1.7900  -15.8967   17.9774 H   0  0  0  0  0
  1  2  1  0  0  0
  2  3  1  0  0  0
  2  8  1  0  0  0
  3  4  1  0  0  0
  4  5  1  0  0  0
  5  6  1  0  0  0
  6  7  1  0  0  0
  7  8  1  0  0  0
  1  9  1  0  0  0
  1 10  1  0  0  0
  1 11  1  0  0  0
  2 12  1  0  0  0
  3 13  1  0  0  0
  3 14  1  0  0  0
  4 15  1  0  0  0
  4 16  1  0  0  0
  5 17  1  0  0  0
  5 18  1  0  0  0
  6 19  1  0  0  0
  6 20  1  0  0  0
  7 21  1  0  0  0
  7 22  1  0  0  0
  8 23  1  0  0  0
  8 24  1  0  0  0
M  END
$$$$
