### 
### Created by X-TOOL on Mon Sep 10 21:12:54 2018
### 

@<TRIPOS>MOLECULE
2flu_ligand
  247   249     1     0     0
SMALL
GAST_HUCK


@<TRIPOS>ATOM
      1 N         -14.4100   10.0690    4.7180 N.4       1 ALA         0.2377
      2 CA        -15.7700    9.6130    5.1590 C.3       1 ALA         0.0621
      3 C         -16.1160    8.2190    4.6390 C.2       1 ALA         0.2265
      4 O         -17.0420    7.5790    5.1410 O.2       1 ALA        -0.3907
      5 CB        -16.8480   10.6040    4.7190 C.3       1 ALA        -0.0040
      6 N         -15.3630    7.7590    3.6390 N.am      1 PHE        -0.2592
      7 CA        -15.6610    6.4970    2.9670 C.3       1 PHE         0.1406
      8 C         -14.7180    5.3480    3.3240 C.2       1 PHE         0.2061
      9 O         -14.7680    4.2960    2.6870 O.2       1 PHE        -0.3942
     10 CB        -15.6390    6.7170    1.4530 C.3       1 PHE         0.0214
     11 CG        -16.7640    7.5790    0.9520 C.ar      1 PHE        -0.0386
     12 CD1       -16.6150    8.9590    0.8610 C.ar      1 PHE        -0.0601
     13 CD2       -17.9730    7.0090    0.5770 C.ar      1 PHE        -0.0601
     14 CE1       -17.6550    9.7570    0.3910 C.ar      1 PHE        -0.0686
     15 CE2       -19.0270    7.8110    0.1090 C.ar      1 PHE        -0.0686
     16 CZ        -18.8610    9.1850    0.0190 C.ar      1 PHE        -0.0687
     17 N         -13.8850    5.5380    4.3470 N.am      1 PHE        -0.2618
     18 CA        -12.9030    4.5180    4.7590 C.3       1 PHE         0.1404
     19 C         -12.0550    4.0190    3.5870 C.2       1 PHE         0.2059
     20 O         -11.8730    2.8190    3.3850 O.2       1 PHE        -0.3942
     21 CB        -13.5840    3.3700    5.5180 C.3       1 PHE         0.0214
     22 CG        -14.3470    3.8430    6.7190 C.ar      1 PHE        -0.0386
     23 CD1       -15.7030    4.1550    6.6180 C.ar      1 PHE        -0.0601
     24 CD2       -13.6980    4.0200    7.9560 C.ar      1 PHE        -0.0601
     25 CE1       -16.4170    4.6340    7.7420 C.ar      1 PHE        -0.0686
     26 CE2       -14.4070    4.4960    9.0680 C.ar      1 PHE        -0.0686
     27 CZ        -15.7500    4.7980    8.9550 C.ar      1 PHE        -0.0687
     28 N         -11.5180    4.9680    2.8320 N.am      1 ALA        -0.2639
     29 CA        -10.7220    4.6730    1.6620 C.3       1 ALA         0.1282
     30 C          -9.4470    3.9120    2.0040 C.2       1 ALA         0.2036
     31 O          -8.8760    4.0730    3.0820 O.2       1 ALA        -0.3944
     32 CB        -10.3760    5.9800    0.9340 C.3       1 ALA        -0.0244
     33 N          -9.0050    3.0960    1.0590 N.am      1 GLN        -0.2636
     34 CA         -7.7130    2.4210    1.1480 C.3       1 GLN         0.1330
     35 C          -6.5790    3.4450    1.2880 C.2       1 GLN         0.2040
     36 O          -6.6720    4.5680    0.7610 O.2       1 GLN        -0.3944
     37 CB         -7.5010    1.5580   -0.1070 C.3       1 GLN         0.0045
     38 CG         -6.2220    0.7420   -0.1810 C.3       1 GLN         0.0412
     39 CD         -6.0360   -0.1810    1.0200 C.2       1 GLN         0.1737
     40 OE1        -5.7200    0.2750    2.1220 O.2       1 GLN        -0.3973
     41 NE2        -6.2090   -1.4880    0.8040 N.am      1 GLN        -0.3009
     42 N          -5.5250    3.0510    1.9990 N.am      1 LEU        -0.2637
     43 CA         -4.3390    3.9030    2.1400 C.3       1 LEU         0.1312
     44 C          -3.5880    4.0490    0.8180 C.2       1 LEU         0.2039
     45 O          -3.6120    3.1490   -0.0290 O.2       1 LEU        -0.3944
     46 CB         -3.3770    3.3130    3.1640 C.3       1 LEU        -0.0101
     47 CG         -3.9310    2.9630    4.5390 C.3       1 LEU        -0.0425
     48 CD1        -2.9710    1.9980    5.2340 C.3       1 LEU        -0.0625
     49 CD2        -4.1250    4.2140    5.3560 C.3       1 LEU        -0.0625
     50 N          -2.9010    5.1860    0.6790 N.am      1 GLN        -0.2636
     51 CA         -2.1050    5.4790   -0.5100 C.3       1 GLN         0.1330
     52 C          -0.6320    5.5640   -0.1330 C.2       1 GLN         0.2040
     53 O          -0.2890    6.1040    0.9240 O.2       1 GLN        -0.3944
     54 CB         -2.5500    6.7990   -1.1470 C.3       1 GLN         0.0045
     55 CG         -3.8550    6.7100   -1.9360 C.3       1 GLN         0.0412
     56 CD         -3.6880    6.0370   -3.2870 C.2       1 GLN         0.1737
     57 OE1        -2.7550    6.3390   -4.0390 O.2       1 GLN        -0.3973
     58 NE2        -4.5940    5.1190   -3.6030 N.am      1 GLN        -0.3009
     59 N           0.2180    5.0280   -1.0060 N.am      1 LEU        -0.2637
     60 CA          1.6680    4.9970   -0.8400 C.3       1 LEU         0.1312
     61 C           2.2930    6.3400   -1.2030 C.2       1 LEU         0.2040
     62 O           1.9840    6.9120   -2.2470 O.2       1 LEU        -0.3944
     63 CB          2.2440    3.8830   -1.7370 C.3       1 LEU        -0.0101
     64 CG          3.7140    3.7260   -2.1630 C.3       1 LEU        -0.0425
     65 CD1         4.1210    4.6690   -3.3180 C.3       1 LEU        -0.0625
     66 CD2         4.6790    3.7810   -0.9790 C.3       1 LEU        -0.0625
     67 N           3.1660    6.8440   -0.3280 N.am      1 ASP        -0.2622
     68 CA          3.9600    8.0280   -0.6410 C.3       1 ASP         0.1423
     69 C           5.1810    7.5550   -1.4150 C.2       1 ASP         0.2056
     70 O           5.9720    6.7720   -0.8870 O.2       1 ASP        -0.3943
     71 CB          4.4050    8.7140    0.6520 C.3       1 ASP         0.0406
     72 CG          5.0790   10.0320    0.3980 C.2       1 ASP         0.0393
     73 OD1         6.1410   10.0530   -0.2590 O.co2     1 ASP        -0.5688
     74 OD2         4.5460   11.0640    0.8590 O.co2     1 ASP        -0.5688
     75 N           5.3400    8.0250   -2.6540 N.am      1 GLU        -0.2639
     76 CA          6.4070    7.5210   -3.5330 C.3       1 GLU         0.1282
     77 C           7.7960    7.9040   -3.0530 C.2       1 GLU         0.2036
     78 O           8.7830    7.2650   -3.4290 O.2       1 GLU        -0.3944
     79 CB          6.2010    8.0170   -4.9630 C.3       1 GLU        -0.0244
     80 N           7.8740    8.9480   -2.2350 N.am      1 GLU        -0.2636
     81 CA          9.1650    9.4710   -1.7830 C.3       1 GLU         0.1325
     82 C           9.6180    8.9050   -0.4370 C.2       1 GLU         0.2041
     83 O          10.8130    8.7090   -0.2090 O.2       1 GLU        -0.3944
     84 CB          9.1170   10.9970   -1.6750 C.3       1 GLU        -0.0008
     85 CG          8.9290   11.6810   -3.0060 C.3       1 GLU         0.0044
     86 CD          8.9090   13.1980   -2.9140 C.2       1 GLU         0.0350
     87 OE1         9.5520   13.7560   -2.0010 O.co2     1 GLU        -0.5690
     88 OE2         8.2600   13.8270   -3.7730 O.co2     1 GLU        -0.5690
     89 N           8.6640    8.6670    0.4630 N.am      1 THR        -0.2613
     90 CA          9.0120    8.2650    1.8270 C.3       1 THR         0.1565
     91 C           8.6620    6.8090    2.0920 C.2       1 THR         0.2063
     92 O           9.1430    6.2160    3.0640 O.2       1 THR        -0.3943
     93 CB          8.2760    9.1110    2.8920 C.3       1 THR         0.0924
     94 OG1         6.8780    8.8200    2.8560 O.3       1 THR        -0.3874
     95 CG2         8.4990   10.6010    2.6410 C.3       1 THR        -0.0346
     96 N           7.7670    6.2670    1.2650 N.am      1 GLY        -0.2663
     97 CA          7.2890    4.9080    1.4630 C.3       1 GLY         0.1201
     98 C           6.2060    4.7800    2.5180 C.2       1 GLY         0.2007
     99 O           5.6910    3.6820    2.7570 O.2       1 GLY        -0.3947
    100 N           5.8300    5.8880    3.1590 N.am      1 GLU        -0.2639
    101 CA          4.7360    5.8370    4.1440 C.3       1 GLU         0.1325
    102 C           3.3850    5.6170    3.4740 C.2       1 GLU         0.2041
    103 O           3.1550    6.0780    2.3530 O.2       1 GLU        -0.3944
    104 CB          4.6830    7.1280    4.9660 C.3       1 GLU        -0.0008
    105 CG          5.9630    7.3800    5.7800 C.3       1 GLU         0.0044
    106 CD          5.7950    8.4000    6.9140 C.2       1 GLU         0.0350
    107 OE1         4.6400    8.7430    7.2560 O.co2     1 GLU        -0.5690
    108 OE2         6.8150    8.8640    7.4760 O.co2     1 GLU        -0.5690
    109 N           2.4880    4.9190    4.1750 N.am      1 PHE        -0.2619
    110 CA          1.1140    4.7760    3.7010 C.3       1 PHE         0.1404
    111 C           0.2400    5.6630    4.5430 C.2       1 PHE         0.2054
    112 O           0.3880    5.6990    5.7710 O.2       1 PHE        -0.3942
    113 CB          0.6190    3.3190    3.7960 C.3       1 PHE         0.0214
    114 CG          0.9940    2.4740    2.6060 C.ar      1 PHE        -0.0386
    115 CD1         2.1420    1.6910    2.6280 C.ar      1 PHE        -0.0601
    116 CD2         0.2030    2.4710    1.4560 C.ar      1 PHE        -0.0601
    117 CE1         2.4980    0.9050    1.5220 C.ar      1 PHE        -0.0686
    118 CE2         0.5480    1.6920    0.3470 C.ar      1 PHE        -0.0686
    119 CZ          1.6990    0.9110    0.3790 C.ar      1 PHE        -0.0687
    120 N          -0.6750    6.3670    3.8740 N.am      1 LEU        -0.2693
    121 CA         -1.5700    7.3220    4.5140 C.3       1 LEU         0.0946
    122 C          -2.9510    7.2810    3.8570 C.2       1 LEU         0.0601
    123 O          -3.0730    7.1230    2.6370 O.co2     1 LEU        -0.5666
    124 CB         -0.9740    8.7330    4.4120 C.3       1 LEU        -0.0156
    125 CG         -1.7220    9.9010    5.0610 C.3       1 LEU        -0.0431
    126 CD1        -1.4720    9.9610    6.5550 C.3       1 LEU        -0.0625
    127 CD2        -1.3010   11.2020    4.4130 C.3       1 LEU        -0.0625
    128 OXT        -3.9860    7.4090    4.5310 O.co2     1 LEU        -0.5666
    129 H1        -14.2291   10.9902    5.0851 H         1 ALA         0.2015
    130 H2        -14.3747   10.0957    3.7110 H         1 ALA         0.2015
    131 H3        -13.7126    9.4275    5.0618 H         1 ALA         0.2015
    132 H4        -15.7677    9.5730    6.2583 H         1 ALA         0.1095
    133 H5        -17.8330   10.2469    5.0540 H         1 ALA         0.0310
    134 H6        -16.8424   10.6889    3.6223 H         1 ALA         0.0310
    135 H7        -16.6442   11.5890    5.1641 H         1 ALA         0.0310
    136 H8        -14.5720    8.2933    3.3409 H         1 PHE         0.1886
    137 H9        -16.6767    6.1957    3.2629 H         1 PHE         0.0823
    138 H10       -15.7057    5.7367    0.9585 H         1 PHE         0.0474
    139 H11       -14.6868    7.1985    1.1857 H         1 PHE         0.0474
    140 H12       -15.6794    9.4181    1.1591 H         1 PHE         0.0557
    141 H13       -18.1049    5.9353    0.6460 H         1 PHE         0.0557
    142 H14       -17.5205   10.8300    0.3159 H         1 PHE         0.0599
    143 H15       -19.9677    7.3572   -0.1811 H         1 PHE         0.0599
    144 H16       -19.6713    9.8088   -0.3408 H         1 PHE         0.0559
    145 H17       -13.9273    6.4003    4.8516 H         1 PHE         0.1885
    146 H18       -12.2127    5.0038    5.4644 H         1 PHE         0.0823
    147 H19       -12.8118    2.6599    5.8489 H         1 PHE         0.0474
    148 H20       -14.2813    2.8618    4.8358 H         1 PHE         0.0474
    149 H21       -16.2141    4.0294    5.6703 H         1 PHE         0.0557
    150 H22       -12.6435    3.7868    8.0492 H         1 PHE         0.0557
    151 H23       -17.4717    4.8709    7.6606 H         1 PHE         0.0599
    152 H24       -13.9006    4.6271   10.0174 H         1 PHE         0.0599
    153 H25       -16.2912    5.1665    9.8189 H         1 PHE         0.0559
    154 H26       -11.6696    5.9244    3.0817 H         1 ALA         0.1883
    155 H27       -11.3232    4.0447    0.9883 H         1 ALA         0.0797
    156 H28        -9.7703    5.7546    0.0439 H         1 ALA         0.0277
    157 H29        -9.8062    6.6358    1.6087 H         1 ALA         0.0277
    158 H30       -11.3036    6.4858    0.6278 H         1 ALA         0.0277
    159 H31        -9.5773    2.9362    0.2546 H         1 GLN         0.1883
    160 H32        -7.7116    1.7693    2.0341 H         1 GLN         0.0801
    161 H33        -7.5150    2.2306   -0.9773 H         1 GLN         0.0337
    162 H34        -8.3454    0.8561   -0.1724 H         1 GLN         0.0337
    163 H35        -5.3672    1.4327   -0.2284 H         1 GLN         0.0504
    164 H36        -6.2491    0.1289   -1.0939 H         1 GLN         0.0504
    165 H37        -6.0993   -2.1379    1.5561 H         1 GLN         0.1814
    166 H38        -6.4482   -1.8164   -0.1098 H         1 GLN         0.1814
    167 H39        -5.5419    2.1566    2.4459 H         1 LEU         0.1883
    168 H40        -4.6630    4.8980    2.4790 H         1 LEU         0.0800
    169 H41        -2.5675    4.0428    3.3124 H         1 LEU         0.0315
    170 H42        -2.9636    2.3897    2.7321 H         1 LEU         0.0315
    171 H43        -4.9059    2.4683    4.4172 H         1 LEU         0.0298
    172 H44        -3.3654    1.7410    6.2282 H         1 LEU         0.0232
    173 H45        -1.9859    2.4753    5.3425 H         1 LEU         0.0232
    174 H46        -2.8708    1.0831    4.6316 H         1 LEU         0.0232
    175 H47        -4.8187    4.8891    4.8336 H         1 LEU         0.0232
    176 H48        -3.1563    4.7172    5.4918 H         1 LEU         0.0232
    177 H49        -4.5417    3.9491    6.3390 H         1 LEU         0.0232
    178 H50        -2.9328    5.8613    1.4159 H         1 GLN         0.1883
    179 H51        -2.2432    4.6674   -1.2395 H         1 GLN         0.0801
    180 H52        -1.7568    7.1358   -1.8307 H         1 GLN         0.0337
    181 H53        -2.6825    7.5405   -0.3454 H         1 GLN         0.0337
    182 H54        -4.2372    7.7288   -2.0970 H         1 GLN         0.0504
    183 H55        -4.5829    6.1343   -1.3455 H         1 GLN         0.0504
    184 H56        -4.5369    4.6411   -4.4796 H         1 GLN         0.1814
    185 H57        -5.3334    4.9056   -2.9644 H         1 GLN         0.1814
    186 H58        -0.1637    4.6175   -1.8341 H         1 LEU         0.1883
    187 H59         1.9027    4.7720    0.2108 H         1 LEU         0.0800
    188 H60         1.6783    3.9510   -2.6779 H         1 LEU         0.0315
    189 H61         1.9918    2.9429   -1.2246 H         1 LEU         0.0315
    190 H62         3.7983    2.7073   -2.5693 H         1 LEU         0.0298
    191 H63         5.1789    4.5043   -3.5703 H         1 LEU         0.0232
    192 H64         3.9768    5.7140   -3.0063 H         1 LEU         0.0232
    193 H65         3.4971    4.4598   -4.1994 H         1 LEU         0.0232
    194 H66         4.3359    3.0910   -0.1940 H         1 LEU         0.0232
    195 H67         4.7104    4.8051   -0.5788 H         1 LEU         0.0232
    196 H68         5.6851    3.4864   -1.3120 H         1 LEU         0.0232
    197 H69         3.2785    6.4007    0.5613 H         1 ASP         0.1884
    198 H70         3.3715    8.7302   -1.2497 H         1 ASP         0.0819
    199 H71         5.1091    8.0529    1.1785 H         1 ASP         0.0478
    200 H72         3.5208    8.8853    1.2835 H         1 ASP         0.0478
    201 H73         4.7213    8.7342   -2.9919 H         1 GLU         0.1883
    202 H74         6.3441    6.4228   -3.5371 H         1 GLU         0.0797
    203 H75         7.0067    7.6309   -5.6046 H         1 GLU         0.0277
    204 H76         6.2175    9.1168   -4.9756 H         1 GLU         0.0277
    205 H77         5.2305    7.6604   -5.3386 H         1 GLU         0.0277
    206 H78         7.0320    9.3866   -1.9208 H         1 GLU         0.1883
    207 H79         9.9171    9.1962   -2.5372 H         1 GLU         0.0801
    208 H80        10.0618   11.3461   -1.2329 H         1 GLU         0.0330
    209 H81         8.2798   11.2749   -1.0178 H         1 GLU         0.0330
    210 H82         7.9739   11.3463   -3.4370 H         1 GLU         0.0433
    211 H83         9.7547   11.3839   -3.6692 H         1 GLU         0.0433
    212 H84         7.7029    8.7638    0.2044 H         1 THR         0.1884
    213 H85        10.0963    8.4001    1.9535 H         1 THR         0.0826
    214 H86         8.6709    8.8544    3.8861 H         1 THR         0.0639
    215 H87         6.4301    9.3417    3.5115 H         1 THR         0.2101
    216 H88         7.9687   11.1853    3.4074 H         1 THR         0.0257
    217 H89         8.1138   10.8668    1.6455 H         1 THR         0.0257
    218 H90         9.5751   10.8240    2.6894 H         1 THR         0.0257
    219 H91         7.4190    6.8038    0.4964 H         1 GLY         0.1881
    220 H92         8.1417    4.2825    1.7656 H         1 GLY         0.0763
    221 H93         6.8857    4.5410    0.5077 H         1 GLY         0.0763
    222 H94         6.2917    6.7547    2.9704 H         1 GLU         0.1883
    223 H95         4.9281    4.9948    4.8250 H         1 GLU         0.0801
    224 H96         3.8330    7.0652    5.6614 H         1 GLU         0.0330
    225 H97         4.5331    7.9740    4.2792 H         1 GLU         0.0330
    226 H98         6.7403    7.7500    5.0953 H         1 GLU         0.0433
    227 H99         6.2861    6.4249    6.2198 H         1 GLU         0.0433
    228 H100        2.7606    4.4887    5.0356 H         1 PHE         0.1885
    229 H101        1.0613    5.0984    2.6507 H         1 PHE         0.0823
    230 H102       -0.4775    3.3295    3.8829 H         1 PHE         0.0474
    231 H103        1.0539    2.8623    4.6973 H         1 PHE         0.0474
    232 H104        2.7704    1.6876    3.5112 H         1 PHE         0.0557
    233 H105       -0.6920    3.0816    1.4220 H         1 PHE         0.0557
    234 H106        3.3927    0.2939    1.5557 H         1 PHE         0.0599
    235 H107       -0.0804    1.6967   -0.5363 H         1 PHE         0.0599
    236 H108        1.9734    0.3100   -0.4804 H         1 PHE         0.0559
    237 H109       -0.7500    6.2327    2.8859 H         1 LEU         0.1875
    238 H110       -1.6754    7.0552    5.5759 H         1 LEU         0.0726
    239 H111       -0.8780    8.9663    3.3413 H         1 LEU         0.0308
    240 H112        0.0253    8.6952    4.8702 H         1 LEU         0.0308
    241 H113       -2.8000    9.7575    4.8958 H         1 LEU         0.0297
    242 H114       -2.0237   10.8098    6.9853 H         1 LEU         0.0232
    243 H115       -0.3958   10.0908    6.7418 H         1 LEU         0.0232
    244 H116       -1.8151    9.0261    7.0221 H         1 LEU         0.0232
    245 H117       -1.4861   11.1489    3.3300 H         1 LEU         0.0232
    246 H118       -0.2294   11.3718    4.5939 H         1 LEU         0.0232
    247 H119       -1.8815   12.0310    4.8439 H         1 LEU         0.0232
@<TRIPOS>BOND
     1    1    2 1  
     2    2    3 1  
     3    2    5 1  
     4    3    4 2  
     5    3    6 am 
     6    6    7 1  
     7    7    8 1  
     8    7   10 1  
     9    8    9 2  
    10    8   17 am 
    11   10   11 1  
    12   11   12 ar 
    13   11   13 ar 
    14   12   14 ar 
    15   13   15 ar 
    16   14   16 ar 
    17   15   16 ar 
    18   17   18 1  
    19   18   19 1  
    20   18   21 1  
    21   19   20 2  
    22   19   28 am 
    23   21   22 1  
    24   22   23 ar 
    25   22   24 ar 
    26   23   25 ar 
    27   24   26 ar 
    28   25   27 ar 
    29   26   27 ar 
    30   28   29 1  
    31   29   30 1  
    32   29   32 1  
    33   30   31 2  
    34   30   33 am 
    35   33   34 1  
    36   34   35 1  
    37   34   37 1  
    38   35   36 2  
    39   35   42 am 
    40   37   38 1  
    41   38   39 1  
    42   39   40 2  
    43   39   41 am 
    44   42   43 1  
    45   43   44 1  
    46   43   46 1  
    47   44   45 2  
    48   44   50 am 
    49   46   47 1  
    50   47   48 1  
    51   47   49 1  
    52   50   51 1  
    53   51   52 1  
    54   51   54 1  
    55   52   53 2  
    56   52   59 am 
    57   54   55 1  
    58   55   56 1  
    59   56   57 2  
    60   56   58 am 
    61   59   60 1  
    62   60   61 1  
    63   60   63 1  
    64   61   62 2  
    65   61   67 am 
    66   63   64 1  
    67   64   65 1  
    68   64   66 1  
    69   67   68 1  
    70   68   69 1  
    71   68   71 1  
    72   69   70 2  
    73   69   75 am 
    74   71   72 1  
    75   72   73 ar 
    76   72   74 ar 
    77   75   76 1  
    78   76   77 1  
    79   76   79 1  
    80   77   78 2  
    81   77   80 am 
    82   80   81 1  
    83   81   82 1  
    84   81   84 1  
    85   82   83 2  
    86   82   89 am 
    87   84   85 1  
    88   85   86 1  
    89   86   87 ar 
    90   86   88 ar 
    91   89   90 1  
    92   90   91 1  
    93   90   93 1  
    94   91   92 2  
    95   91   96 am 
    96   93   94 1  
    97   93   95 1  
    98   96   97 1  
    99   97   98 1  
   100   98   99 2  
   101   98  100 am 
   102  100  101 1  
   103  101  102 1  
   104  101  104 1  
   105  102  103 2  
   106  102  109 am 
   107  104  105 1  
   108  105  106 1  
   109  106  107 ar 
   110  106  108 ar 
   111  109  110 1  
   112  110  111 1  
   113  110  113 1  
   114  111  112 2  
   115  111  120 am 
   116  113  114 1  
   117  114  115 ar 
   118  114  116 ar 
   119  115  117 ar 
   120  116  118 ar 
   121  117  119 ar 
   122  118  119 ar 
   123  120  121 1  
   124  121  122 1  
   125  121  124 1  
   126  122  123 ar 
   127  122  128 ar 
   128  124  125 1  
   129  125  126 1  
   130  125  127 1  
   131    1  129 1  
   132    1  130 1  
   133    1  131 1  
   134    2  132 1  
   135    5  133 1  
   136    5  134 1  
   137    5  135 1  
   138    6  136 1  
   139    7  137 1  
   140   10  138 1  
   141   10  139 1  
   142   12  140 1  
   143   13  141 1  
   144   14  142 1  
   145   15  143 1  
   146   16  144 1  
   147   17  145 1  
   148   18  146 1  
   149   21  147 1  
   150   21  148 1  
   151   23  149 1  
   152   24  150 1  
   153   25  151 1  
   154   26  152 1  
   155   27  153 1  
   156   28  154 1  
   157   29  155 1  
   158   32  156 1  
   159   32  157 1  
   160   32  158 1  
   161   33  159 1  
   162   34  160 1  
   163   37  161 1  
   164   37  162 1  
   165   38  163 1  
   166   38  164 1  
   167   41  165 1  
   168   41  166 1  
   169   42  167 1  
   170   43  168 1  
   171   46  169 1  
   172   46  170 1  
   173   47  171 1  
   174   48  172 1  
   175   48  173 1  
   176   48  174 1  
   177   49  175 1  
   178   49  176 1  
   179   49  177 1  
   180   50  178 1  
   181   51  179 1  
   182   54  180 1  
   183   54  181 1  
   184   55  182 1  
   185   55  183 1  
   186   58  184 1  
   187   58  185 1  
   188   59  186 1  
   189   60  187 1  
   190   63  188 1  
   191   63  189 1  
   192   64  190 1  
   193   65  191 1  
   194   65  192 1  
   195   65  193 1  
   196   66  194 1  
   197   66  195 1  
   198   66  196 1  
   199   67  197 1  
   200   68  198 1  
   201   71  199 1  
   202   71  200 1  
   203   75  201 1  
   204   76  202 1  
   205   79  203 1  
   206   79  204 1  
   207   79  205 1  
   208   80  206 1  
   209   81  207 1  
   210   84  208 1  
   211   84  209 1  
   212   85  210 1  
   213   85  211 1  
   214   89  212 1  
   215   90  213 1  
   216   93  214 1  
   217   94  215 1  
   218   95  216 1  
   219   95  217 1  
   220   95  218 1  
   221   96  219 1  
   222   97  220 1  
   223   97  221 1  
   224  100  222 1  
   225  101  223 1  
   226  104  224 1  
   227  104  225 1  
   228  105  226 1  
   229  105  227 1  
   230  109  228 1  
   231  110  229 1  
   232  113  230 1  
   233  113  231 1  
   234  115  232 1  
   235  116  233 1  
   236  117  234 1  
   237  118  235 1  
   238  119  236 1  
   239  120  237 1  
   240  121  238 1  
   241  124  239 1  
   242  124  240 1  
   243  125  241 1  
   244  126  242 1  
   245  126  243 1  
   246  126  244 1  
   247  127  245 1  
   248  127  246 1  
   249  127  247 1  
@<TRIPOS>SUBSTRUCTURE
     1 ALA         1

