2flu_ligand
  -I-interpret- 

251253  0  0  0  0  0  0  0  0999 V2000
  -14.4100   10.0690    4.7180 N   0  3  0  0  0
  -15.7700    9.6130    5.1590 C   0  0  0  0  0
  -16.1160    8.2190    4.6390 C   0  0  0  0  0
  -17.0420    7.5790    5.1410 O   0  0  0  0  0
  -16.8480   10.6040    4.7190 C   0  0  0  0  0
  -15.3630    7.7590    3.6390 N   0  0  0  0  0
  -15.6610    6.4970    2.9670 C   0  0  0  0  0
  -14.7180    5.3480    3.3240 C   0  0  0  0  0
  -14.7680    4.2960    2.6870 O   0  0  0  0  0
  -15.6390    6.7170    1.4530 C   0  0  0  0  0
  -16.7640    7.5790    0.9520 C   0  0  0  0  0
  -16.6150    8.9590    0.8610 C   0  0  0  0  0
  -17.9730    7.0090    0.5770 C   0  0  0  0  0
  -17.6550    9.7570    0.3910 C   0  0  0  0  0
  -19.0270    7.8110    0.1090 C   0  0  0  0  0
  -18.8610    9.1850    0.0190 C   0  0  0  0  0
  -13.8850    5.5380    4.3470 N   0  0  0  0  0
  -12.9030    4.5180    4.7590 C   0  0  0  0  0
  -12.0550    4.0190    3.5870 C   0  0  0  0  0
  -11.8730    2.8190    3.3850 O   0  0  0  0  0
  -13.5840    3.3700    5.5180 C   0  0  0  0  0
  -14.3470    3.8430    6.7190 C   0  0  0  0  0
  -15.7030    4.1550    6.6180 C   0  0  0  0  0
  -13.6980    4.0200    7.9560 C   0  0  0  0  0
  -16.4170    4.6340    7.7420 C   0  0  0  0  0
  -14.4070    4.4960    9.0680 C   0  0  0  0  0
  -15.7500    4.7980    8.9550 C   0  0  0  0  0
  -11.5180    4.9680    2.8320 N   0  0  0  0  0
  -10.7220    4.6730    1.6620 C   0  0  0  0  0
   -9.4470    3.9120    2.0040 C   0  0  0  0  0
   -8.8760    4.0730    3.0820 O   0  0  0  0  0
  -10.3760    5.9800    0.9340 C   0  0  0  0  0
   -9.0050    3.0960    1.0590 N   0  0  0  0  0
   -7.7130    2.4210    1.1480 C   0  0  0  0  0
   -6.5790    3.4450    1.2880 C   0  0  0  0  0
   -6.6720    4.5680    0.7610 O   0  0  0  0  0
   -7.5010    1.5580   -0.1070 C   0  0  0  0  0
   -6.2220    0.7420   -0.1810 C   0  0  0  0  0
   -6.0360   -0.1810    1.0200 C   0  0  0  0  0
   -5.7200    0.2750    2.1220 O   0  0  0  0  0
   -6.2090   -1.4880    0.8040 N   0  0  0  0  0
   -5.5250    3.0510    1.9990 N   0  0  0  0  0
   -4.3390    3.9030    2.1400 C   0  0  0  0  0
   -3.5880    4.0490    0.8180 C   0  0  0  0  0
   -3.6120    3.1490   -0.0290 O   0  0  0  0  0
   -3.3770    3.3130    3.1640 C   0  0  0  0  0
   -3.9310    2.9630    4.5390 C   0  0  0  0  0
   -2.9710    1.9980    5.2340 C   0  0  0  0  0
   -4.1250    4.2140    5.3560 C   0  0  0  0  0
   -2.9010    5.1860    0.6790 N   0  0  0  0  0
   -2.1050    5.4790   -0.5100 C   0  0  0  0  0
   -0.6320    5.5640   -0.1330 C   0  0  0  0  0
   -0.2890    6.1040    0.9240 O   0  0  0  0  0
   -2.5500    6.7990   -1.1470 C   0  0  0  0  0
   -3.8550    6.7100   -1.9360 C   0  0  0  0  0
   -3.6880    6.0370   -3.2870 C   0  0  0  0  0
   -2.7550    6.3390   -4.0390 O   0  0  0  0  0
   -4.5940    5.1190   -3.6030 N   0  0  0  0  0
    0.2180    5.0280   -1.0060 N   0  0  0  0  0
    1.6680    4.9970   -0.8400 C   0  0  0  0  0
    2.2930    6.3400   -1.2030 C   0  0  0  0  0
    1.9840    6.9120   -2.2470 O   0  0  0  0  0
    2.2440    3.8830   -1.7370 C   0  0  0  0  0
    3.7140    3.7260   -2.1630 C   0  0  0  0  0
    4.1210    4.6690   -3.3180 C   0  0  0  0  0
    4.6790    3.7810   -0.9790 C   0  0  0  0  0
    3.1660    6.8440   -0.3280 N   0  0  0  0  0
    3.9600    8.0280   -0.6410 C   0  0  0  0  0
    5.1810    7.5550   -1.4150 C   0  0  0  0  0
    5.9720    6.7720   -0.8870 O   0  0  0  0  0
    4.4050    8.7140    0.6520 C   0  0  0  0  0
    5.0790   10.0320    0.3980 C   0  0  0  0  0
    6.1410   10.0530   -0.2590 O   0  0  0  0  0
    4.5460   11.0640    0.8590 O   0  0  0  0  0
    5.3400    8.0250   -2.6540 N   0  0  0  0  0
    6.4070    7.5210   -3.5330 C   0  0  0  0  0
    7.7960    7.9040   -3.0530 C   0  0  0  0  0
    8.7830    7.2650   -3.4290 O   0  0  0  0  0
    6.2010    8.0170   -4.9630 C   0  0  0  0  0
    7.8740    8.9480   -2.2350 N   0  0  0  0  0
    9.1650    9.4710   -1.7830 C   0  0  0  0  0
    9.6180    8.9050   -0.4370 C   0  0  0  0  0
   10.8130    8.7090   -0.2090 O   0  0  0  0  0
    9.1170   10.9970   -1.6750 C   0  0  0  0  0
    8.9290   11.6810   -3.0060 C   0  0  0  0  0
    8.9090   13.1980   -2.9140 C   0  0  0  0  0
    9.5520   13.7560   -2.0010 O   0  0  0  0  0
    8.2600   13.8270   -3.7730 O   0  0  0  0  0
    8.6640    8.6670    0.4630 N   0  0  0  0  0
    9.0120    8.2650    1.8270 C   0  0  0  0  0
    8.6620    6.8090    2.0920 C   0  0  0  0  0
    9.1430    6.2160    3.0640 O   0  0  0  0  0
    8.2760    9.1110    2.8920 C   0  0  0  0  0
    6.8780    8.8200    2.8560 O   0  0  0  0  0
    8.4990   10.6010    2.6410 C   0  0  0  0  0
    7.7670    6.2670    1.2650 N   0  0  0  0  0
    7.2890    4.9080    1.4630 C   0  0  0  0  0
    6.2060    4.7800    2.5180 C   0  0  0  0  0
    5.6910    3.6820    2.7570 O   0  0  0  0  0
    5.8300    5.8880    3.1590 N   0  0  0  0  0
    4.7360    5.8370    4.1440 C   0  0  0  0  0
    3.3850    5.6170    3.4740 C   0  0  0  0  0
    3.1550    6.0780    2.3530 O   0  0  0  0  0
    4.6830    7.1280    4.9660 C   0  0  0  0  0
    5.9630    7.3800    5.7800 C   0  0  0  0  0
    5.7950    8.4000    6.9140 C   0  0  0  0  0
    4.6400    8.7430    7.2560 O   0  0  0  0  0
    6.8150    8.8640    7.4760 O   0  0  0  0  0
    2.4880    4.9190    4.1750 N   0  0  0  0  0
    1.1140    4.7760    3.7010 C   0  0  0  0  0
    0.2400    5.6630    4.5430 C   0  0  0  0  0
    0.3880    5.6990    5.7710 O   0  0  0  0  0
    0.6190    3.3190    3.7960 C   0  0  0  0  0
    0.9940    2.4740    2.6060 C   0  0  0  0  0
    2.1420    1.6910    2.6280 C   0  0  0  0  0
    0.2030    2.4710    1.4560 C   0  0  0  0  0
    2.4980    0.9050    1.5220 C   0  0  0  0  0
    0.5480    1.6920    0.3470 C   0  0  0  0  0
    1.6990    0.9110    0.3790 C   0  0  0  0  0
   -0.6750    6.3670    3.8740 N   0  0  0  0  0
   -1.5700    7.3220    4.5140 C   0  0  0  0  0
   -2.9510    7.2810    3.8570 C   0  0  0  0  0
   -3.0730    7.1230    2.6370 O   0  0  0  0  0
   -0.9740    8.7330    4.4120 C   0  0  0  0  0
   -1.7220    9.9010    5.0610 C   0  0  0  0  0
   -1.4720    9.9610    6.5550 C   0  0  0  0  0
   -1.3010   11.2020    4.4130 C   0  0  0  0  0
   -3.9860    7.4090    4.5310 O   0  0  0  0  0
  -13.7104    9.3924    5.0231 H   0  0  0  0  0
  -14.3912   10.1442    3.7010 H   0  0  0  0  0
  -14.2073   10.9792    5.1313 H   0  0  0  0  0
  -15.7401    9.5665    6.2476 H   0  0  0  0  0
  -16.8987   10.6241    3.6304 H   0  0  0  0  0
  -17.8116   10.2939    5.1232 H   0  0  0  0  0
  -16.5995   11.5980    5.0909 H   0  0  0  0  0
  -14.5562    8.3039    3.3349 H   0  0  0  0  0
  -16.6480    6.1942    3.3166 H   0  0  0  0  0
  -15.7408    5.7403    0.9799 H   0  0  0  0  0
  -14.7057    7.2254    1.2108 H   0  0  0  0  0
  -15.6742    9.4207    1.1608 H   0  0  0  0  0
  -18.1056    5.9293    0.6463 H   0  0  0  0  0
  -17.5198   10.8359    0.3154 H   0  0  0  0  0
  -19.9729    7.3546   -0.1827 H   0  0  0  0  0
  -19.6757    9.8122   -0.3428 H   0  0  0  0  0
  -13.9282    6.4176    4.8616 H   0  0  0  0  0
  -12.2077    4.9963    5.4489 H   0  0  0  0  0
  -12.8061    2.6886    5.8626 H   0  0  0  0  0
  -14.2906    2.8926    4.8391 H   0  0  0  0  0
  -16.2169    4.0287    5.6651 H   0  0  0  0  0
  -12.6377    3.7855    8.0497 H   0  0  0  0  0
  -17.4775    4.8722    7.6601 H   0  0  0  0  0
  -13.8978    4.6279   10.0227 H   0  0  0  0  0
  -16.2942    5.1686    9.8237 H   0  0  0  0  0
  -11.6726    5.9435    3.0867 H   0  0  0  0  0
  -11.3150    4.0286    1.0130 H   0  0  0  0  0
  -11.2959    6.4802    0.6312 H   0  0  0  0  0
   -9.8115    6.6289    1.6036 H   0  0  0  0  0
   -9.7759    5.7554    0.0522 H   0  0  0  0  0
   -9.5887    2.9330    0.2386 H   0  0  0  0  0
   -7.7043    1.7822    2.0312 H   0  0  0  0  0
   -7.4547    2.2569   -0.9422 H   0  0  0  0  0
   -8.3149    0.8330   -0.1083 H   0  0  0  0  0
   -5.3835    1.4382   -0.1988 H   0  0  0  0  0
   -6.2755    0.1195   -1.0741 H   0  0  0  0  0
   -6.0796   -2.1525    1.5669 H   0  0  0  0  0
   -6.4705   -1.8214   -0.1239 H   0  0  0  0  0
   -5.5422    2.1387    2.4548 H   0  0  0  0  0
   -4.6919    4.8817    2.4650 H   0  0  0  0  0
   -2.6289    4.0861    3.3398 H   0  0  0  0  0
   -3.0405    2.3684    2.7367 H   0  0  0  0  0
   -4.9026    2.4804    4.4329 H   0  0  0  0  0
   -2.8725    1.0919    4.6361 H   0  0  0  0  0
   -1.9954    2.4721    5.3409 H   0  0  0  0  0
   -3.3629    1.7441    6.2189 H   0  0  0  0  0
   -3.1674    4.7208    5.4751 H   0  0  0  0  0
   -4.8261    4.8745    4.8458 H   0  0  0  0  0
   -4.5214    3.9485    6.3361 H   0  0  0  0  0
   -2.9335    5.8748    1.4306 H   0  0  0  0  0
   -2.2524    4.6765   -1.2328 H   0  0  0  0  0
   -1.7707    7.0940   -1.8497 H   0  0  0  0  0
   -2.7148    7.5068   -0.3346 H   0  0  0  0  0
   -4.2056    7.7268   -2.1130 H   0  0  0  0  0
   -4.5555    6.1128   -1.3522 H   0  0  0  0  0
   -4.5359    4.6318   -4.4972 H   0  0  0  0  0
   -5.3480    4.9011   -2.9515 H   0  0  0  0  0
   -0.1714    4.6093   -1.8507 H   0  0  0  0  0
    1.9030    4.7962    0.2052 H   0  0  0  0  0
    1.7572    4.0906   -2.6899 H   0  0  0  0  0
    2.0966    2.9991   -1.1164 H   0  0  0  0  0
    3.7958    2.7192   -2.5725 H   0  0  0  0  0
    3.5020    4.4607   -4.1907 H   0  0  0  0  0
    3.9776    5.7041   -3.0079 H   0  0  0  0  0
    5.1694    4.5049   -3.5670 H   0  0  0  0  0
    4.5775    4.7413   -0.4735 H   0  0  0  0  0
    4.4442    2.9758   -0.2828 H   0  0  0  0  0
    5.7012    3.6649   -1.3393 H   0  0  0  0  0
    3.2807    6.3919    0.5791 H   0  0  0  0  0
    3.3780    8.7415   -1.2243 H   0  0  0  0  0
    5.1199    8.0604    1.1519 H   0  0  0  0  0
    3.5181    8.8999    1.2577 H   0  0  0  0  0
    3.7429   10.8259    1.3279 H   0  0  0  0  0
    4.7089    8.7484   -2.9987 H   0  0  0  0  0
    6.3424    6.4332   -3.5061 H   0  0  0  0  0
    5.2391    7.6631   -5.3339 H   0  0  0  0  0
    6.2175    9.1068   -4.9741 H   0  0  0  0  0
    6.9999    7.6338   -5.5978 H   0  0  0  0  0
    7.0152    9.3954   -1.9146 H   0  0  0  0  0
    9.8875    9.1551   -2.5356 H   0  0  0  0  0
   10.0705   11.3293   -1.2645 H   0  0  0  0  0
    8.2652   11.2571   -1.0466 H   0  0  0  0  0
    7.9639   11.3651   -3.4020 H   0  0  0  0  0
    9.7726   11.4033   -3.6379 H   0  0  0  0  0
    9.9747   13.0890   -1.4550 H   0  0  0  0  0
    7.6837    8.7658    0.1992 H   0  0  0  0  0
   10.0881    8.4198    1.9054 H   0  0  0  0  0
    8.6752    8.8595    3.8746 H   0  0  0  0  0
    6.4254    9.3472    3.5184 H   0  0  0  0  0
    9.5656   10.8206    2.6892 H   0  0  0  0  0
    8.1170   10.8631    1.6544 H   0  0  0  0  0
    7.9730   11.1789    3.4010 H   0  0  0  0  0
    7.4121    6.8145    0.4810 H   0  0  0  0  0
    8.1383    4.3130    1.7988 H   0  0  0  0  0
    6.8594    4.5762    0.5178 H   0  0  0  0  0
    6.3010    6.7721    2.9666 H   0  0  0  0  0
    4.9414    4.9927    4.8021 H   0  0  0  0  0
    3.8559    7.0378    5.6701 H   0  0  0  0  0
    4.5651    7.9585    4.2699 H   0  0  0  0  0
    6.7077    7.7819    5.0930 H   0  0  0  0  0
    6.2450    6.4322    6.2385 H   0  0  0  0  0
    7.6004    8.4827    7.0767 H   0  0  0  0  0
    2.7660    4.4801    5.0528 H   0  0  0  0  0
    1.0715    5.0615    2.6499 H   0  0  0  0  0
   -0.4695    3.3469    3.8463 H   0  0  0  0  0
    1.0863    2.8723    4.6736 H   0  0  0  0  0
    2.7739    1.6876    3.5161 H   0  0  0  0  0
   -0.6970    3.0850    1.4218 H   0  0  0  0  0
    3.3977    0.2906    1.5559 H   0  0  0  0  0
   -0.0839    1.6967   -0.5411 H   0  0  0  0  0
    1.9749    0.3067   -0.4852 H   0  0  0  0  0
   -0.7515    6.2300    2.8661 H   0  0  0  0  0
   -1.6822    7.0558    5.5650 H   0  0  0  0  0
   -0.9682    8.9599    3.3459 H   0  0  0  0  0
   -0.0242    8.6766    4.9437 H   0  0  0  0  0
   -2.7898    9.7444    4.9080 H   0  0  0  0  0
   -1.8124    9.0341    7.0166 H   0  0  0  0  0
   -0.4053   10.0895    6.7387 H   0  0  0  0  0
   -2.0192   10.8024    6.9802 H   0  0  0  0  0
   -0.2282   11.3419    4.5454 H   0  0  0  0  0
   -1.5358   11.1692    3.3491 H   0  0  0  0  0
   -1.8368   12.0288    4.8793 H   0  0  0  0  0
   -3.7526    7.5235    5.4551 H   0  0  0  0  0
  1  2  1  0  0  0
  2  3  1  0  0  0
  2  5  1  0  0  0
  3  4  2  0  0  0
  3  6  1  0  0  0
  6  7  1  0  0  0
  7  8  1  0  0  0
  7 10  1  0  0  0
  8  9  2  0  0  0
  8 17  1  0  0  0
 10 11  1  0  0  0
 11 12  4  0  0  0
 11 13  4  0  0  0
 12 14  4  0  0  0
 13 15  4  0  0  0
 14 16  4  0  0  0
 15 16  4  0  0  0
 17 18  1  0  0  0
 18 19  1  0  0  0
 18 21  1  0  0  0
 19 20  2  0  0  0
 19 28  1  0  0  0
 21 22  1  0  0  0
 22 23  4  0  0  0
 22 24  4  0  0  0
 23 25  4  0  0  0
 24 26  4  0  0  0
 25 27  4  0  0  0
 26 27  4  0  0  0
 28 29  1  0  0  0
 29 30  1  0  0  0
 29 32  1  0  0  0
 30 31  2  0  0  0
 30 33  1  0  0  0
 33 34  1  0  0  0
 34 35  1  0  0  0
 34 37  1  0  0  0
 35 36  2  0  0  0
 35 42  1  0  0  0
 37 38  1  0  0  0
 38 39  1  0  0  0
 39 40  2  0  0  0
 39 41  1  0  0  0
 42 43  1  0  0  0
 43 44  1  0  0  0
 43 46  1  0  0  0
 44 45  2  0  0  0
 44 50  1  0  0  0
 46 47  1  0  0  0
 47 48  1  0  0  0
 47 49  1  0  0  0
 50 51  1  0  0  0
 51 52  1  0  0  0
 51 54  1  0  0  0
 52 53  2  0  0  0
 52 59  1  0  0  0
 54 55  1  0  0  0
 55 56  1  0  0  0
 56 57  2  0  0  0
 56 58  1  0  0  0
 59 60  1  0  0  0
 60 61  1  0  0  0
 60 63  1  0  0  0
 61 62  2  0  0  0
 61 67  1  0  0  0
 63 64  1  0  0  0
 64 65  1  0  0  0
 64 66  1  0  0  0
 67 68  1  0  0  0
 68 69  1  0  0  0
 68 71  1  0  0  0
 69 70  2  0  0  0
 69 75  1  0  0  0
 71 72  1  0  0  0
 72 73  2  0  0  0
 72 74  1  0  0  0
 75 76  1  0  0  0
 76 77  1  0  0  0
 76 79  1  0  0  0
 77 78  2  0  0  0
 77 80  1  0  0  0
 80 81  1  0  0  0
 81 82  1  0  0  0
 81 84  1  0  0  0
 82 83  2  0  0  0
 82 89  1  0  0  0
 84 85  1  0  0  0
 85 86  1  0  0  0
 86 87  1  0  0  0
 86 88  2  0  0  0
 89 90  1  0  0  0
 90 91  1  0  0  0
 90 93  1  0  0  0
 91 92  2  0  0  0
 91 96  1  0  0  0
 93 94  1  0  0  0
 93 95  1  0  0  0
 96 97  1  0  0  0
 97 98  1  0  0  0
 98 99  2  0  0  0
 98100  1  0  0  0
100101  1  0  0  0
101102  1  0  0  0
101104  1  0  0  0
102103  2  0  0  0
102109  1  0  0  0
104105  1  0  0  0
105106  1  0  0  0
106107  2  0  0  0
106108  1  0  0  0
109110  1  0  0  0
110111  1  0  0  0
110113  1  0  0  0
111112  2  0  0  0
111120  1  0  0  0
113114  1  0  0  0
114115  4  0  0  0
114116  4  0  0  0
115117  4  0  0  0
116118  4  0  0  0
117119  4  0  0  0
118119  4  0  0  0
120121  1  0  0  0
121122  1  0  0  0
121124  1  0  0  0
122123  2  0  0  0
122128  1  0  0  0
124125  1  0  0  0
125126  1  0  0  0
125127  1  0  0  0
  1129  1  0  0  0
  1130  1  0  0  0
  1131  1  0  0  0
  2132  1  0  0  0
  5133  1  0  0  0
  5134  1  0  0  0
  5135  1  0  0  0
  6136  1  0  0  0
  7137  1  0  0  0
 10138  1  0  0  0
 10139  1  0  0  0
 12140  1  0  0  0
 13141  1  0  0  0
 14142  1  0  0  0
 15143  1  0  0  0
 16144  1  0  0  0
 17145  1  0  0  0
 18146  1  0  0  0
 21147  1  0  0  0
 21148  1  0  0  0
 23149  1  0  0  0
 24150  1  0  0  0
 25151  1  0  0  0
 26152  1  0  0  0
 27153  1  0  0  0
 28154  1  0  0  0
 29155  1  0  0  0
 32156  1  0  0  0
 32157  1  0  0  0
 32158  1  0  0  0
 33159  1  0  0  0
 34160  1  0  0  0
 37161  1  0  0  0
 37162  1  0  0  0
 38163  1  0  0  0
 38164  1  0  0  0
 41165  1  0  0  0
 41166  1  0  0  0
 42167  1  0  0  0
 43168  1  0  0  0
 46169  1  0  0  0
 46170  1  0  0  0
 47171  1  0  0  0
 48172  1  0  0  0
 48173  1  0  0  0
 48174  1  0  0  0
 49175  1  0  0  0
 49176  1  0  0  0
 49177  1  0  0  0
 50178  1  0  0  0
 51179  1  0  0  0
 54180  1  0  0  0
 54181  1  0  0  0
 55182  1  0  0  0
 55183  1  0  0  0
 58184  1  0  0  0
 58185  1  0  0  0
 59186  1  0  0  0
 60187  1  0  0  0
 63188  1  0  0  0
 63189  1  0  0  0
 64190  1  0  0  0
 65191  1  0  0  0
 65192  1  0  0  0
 65193  1  0  0  0
 66194  1  0  0  0
 66195  1  0  0  0
 66196  1  0  0  0
 67197  1  0  0  0
 68198  1  0  0  0
 71199  1  0  0  0
 71200  1  0  0  0
 74201  1  0  0  0
 75202  1  0  0  0
 76203  1  0  0  0
 79204  1  0  0  0
 79205  1  0  0  0
 79206  1  0  0  0
 80207  1  0  0  0
 81208  1  0  0  0
 84209  1  0  0  0
 84210  1  0  0  0
 85211  1  0  0  0
 85212  1  0  0  0
 87213  1  0  0  0
 89214  1  0  0  0
 90215  1  0  0  0
 93216  1  0  0  0
 94217  1  0  0  0
 95218  1  0  0  0
 95219  1  0  0  0
 95220  1  0  0  0
 96221  1  0  0  0
 97222  1  0  0  0
 97223  1  0  0  0
100224  1  0  0  0
101225  1  0  0  0
104226  1  0  0  0
104227  1  0  0  0
105228  1  0  0  0
105229  1  0  0  0
108230  1  0  0  0
109231  1  0  0  0
110232  1  0  0  0
113233  1  0  0  0
113234  1  0  0  0
115235  1  0  0  0
116236  1  0  0  0
117237  1  0  0  0
118238  1  0  0  0
119239  1  0  0  0
120240  1  0  0  0
121241  1  0  0  0
124242  1  0  0  0
124243  1  0  0  0
125244  1  0  0  0
126245  1  0  0  0
126246  1  0  0  0
126247  1  0  0  0
127248  1  0  0  0
127249  1  0  0  0
127250  1  0  0  0
128251  1  0  0  0
M  END
$$$$
