4jvq_ligand
  -I-interpret- 

 76 79  0  0  0  0  0  0  0  0999 V2000
  -22.8910   49.0130   56.4120 C   0  0  0  0  0
  -21.7980   49.5550   55.6760 C   0  0  0  0  0
  -21.4260   50.9070   55.7650 C   0  0  0  0  0
  -22.1560   51.7870   56.6250 C   0  0  0  0  0
  -23.2510   51.2910   57.3710 C   0  0  0  0  0
  -23.6410   49.9050   57.2870 C   0  0  0  0  0
  -20.3370   51.2550   54.9770 O   0  0  0  0  0
  -19.8910   52.5590   54.8220 C   0  0  0  0  0
  -18.7170   53.0380   55.4610 C   0  0  0  0  0
  -18.2830   54.3760   55.2540 C   0  0  0  0  0
  -19.0150   55.2530   54.4100 C   0  0  0  0  0
  -20.1990   54.7560   53.7780 C   0  0  0  0  0
  -20.6410   53.4260   53.9760 C   0  0  0  0  0
  -23.1640   47.5400   56.2080 C   0  0  0  0  0
  -22.1720   46.8320   55.8220 O   0  0  0  0  0
  -24.3320   47.1180   56.4230 O   0  0  0  0  0
  -24.7930   49.5040   58.0980 N   0  0  0  0  0
  -24.6140   49.1280   59.5590 C   0  0  0  0  0
  -23.5130   48.0830   59.8040 C   0  0  0  0  0
  -24.3260   50.3220   60.5060 C   0  0  0  0  0
  -26.1300   49.4630   57.5630 C   0  0  0  0  0
  -26.3580   49.8530   56.0650 C   0  0  0  0  0
  -27.1100   49.1270   58.2630 O   0  0  0  0  0
  -27.3000   48.8350   55.3480 C   0  0  0  0  0
  -27.5860   49.2580   53.8940 C   0  0  0  0  0
  -28.1370   50.7050   53.8230 C   0  0  0  0  0
  -27.1850   51.7140   54.5260 C   0  0  0  0  0
  -26.9010   51.3040   55.9830 C   0  0  0  0  0
  -28.3700   51.1110   52.3680 C   0  0  0  0  0
  -18.6250   56.5830   54.1310 N   0  0  0  0  0
  -19.3750   57.6570   53.6870 C   0  0  0  0  0
  -20.5800   57.6880   53.4400 O   0  0  0  0  0
  -18.5620   58.8930   53.4720 C   0  0  0  0  0
  -17.5340   59.2900   54.3730 C   0  0  0  0  0
  -16.7770   60.4640   54.1120 C   0  0  0  0  0
  -17.0350   61.2610   52.9510 C   0  0  0  0  0
  -18.0680   60.8580   52.0550 C   0  0  0  0  0
  -18.8220   59.6820   52.3220 C   0  0  0  0  0
  -16.2190   62.3620   52.8120 O   0  0  0  0  0
  -16.7370   63.6420   53.1490 C   0  0  0  0  0
  -21.2293   48.8964   55.0196 H   0  0  0  0  0
  -21.8696   52.8356   56.7051 H   0  0  0  0  0
  -23.8086   51.9669   58.0194 H   0  0  0  0  0
  -18.1460   52.3771   56.1131 H   0  0  0  0  0
  -17.3792   54.7324   55.7481 H   0  0  0  0  0
  -20.7737   55.4170   53.1292 H   0  0  0  0  0
  -21.5466   53.0685   53.4859 H   0  0  0  0  0
  -21.3968   47.3912   55.7325 H   0  0  0  0  0
  -25.5907   48.7072   59.7979 H   0  0  0  0  0
  -23.7549   47.1685   59.2625 H   0  0  0  0  0
  -22.5583   48.4736   59.4518 H   0  0  0  0  0
  -23.4481   47.8688   60.8708 H   0  0  0  0  0
  -23.4075   50.8187   60.1934 H   0  0  0  0  0
  -25.1555   51.0278   60.4614 H   0  0  0  0  0
  -24.2134   49.9558   61.5264 H   0  0  0  0  0
  -25.4041   49.8128   55.5390 H   0  0  0  0  0
  -28.2453   48.7987   55.8894 H   0  0  0  0  0
  -26.8100   47.8614   55.3344 H   0  0  0  0  0
  -28.3335   48.5825   53.4780 H   0  0  0  0  0
  -26.6533   49.2151   53.3315 H   0  0  0  0  0
  -29.0890   50.7273   54.3533 H   0  0  0  0  0
  -27.6636   52.6933   54.5307 H   0  0  0  0  0
  -26.2402   51.7321   53.9828 H   0  0  0  0  0
  -26.1500   51.9791   56.3932 H   0  0  0  0  0
  -27.8325   51.3581   56.5464 H   0  0  0  0  0
  -27.4276   51.0605   51.8227 H   0  0  0  0  0
  -29.0911   50.4316   51.9135 H   0  0  0  0  0
  -28.7569   52.1294   52.3338 H   0  0  0  0  0
  -17.6358   56.7816   54.2805 H   0  0  0  0  0
  -17.3277   58.6942   55.2621 H   0  0  0  0  0
  -15.9898   60.7615   54.8047 H   0  0  0  0  0
  -18.2799   61.4511   51.1654 H   0  0  0  0  0
  -19.6115   59.3824   51.6327 H   0  0  0  0  0
  -17.6031   63.8582   52.5236 H   0  0  0  0  0
  -17.0340   63.6477   54.1977 H   0  0  0  0  0
  -15.9697   64.3982   52.9832 H   0  0  0  0  0
  1  2  4  0  0  0
  1  6  4  0  0  0
  1 14  1  0  0  0
  2  3  4  0  0  0
  3  4  4  0  0  0
  3  7  1  0  0  0
  4  5  4  0  0  0
  5  6  4  0  0  0
  6 17  1  0  0  0
  7  8  1  0  0  0
  8  9  4  0  0  0
  8 13  4  0  0  0
  9 10  4  0  0  0
 10 11  4  0  0  0
 11 12  4  0  0  0
 11 30  1  0  0  0
 12 13  4  0  0  0
 14 15  1  0  0  0
 14 16  2  0  0  0
 17 18  1  0  0  0
 17 21  1  0  0  0
 18 19  1  0  0  0
 18 20  1  0  0  0
 21 22  1  0  0  0
 21 23  2  0  0  0
 22 24  1  0  0  0
 22 28  1  0  0  0
 24 25  1  0  0  0
 25 26  1  0  0  0
 26 27  1  0  0  0
 26 29  1  0  0  0
 27 28  1  0  0  0
 30 31  1  0  0  0
 31 32  2  0  0  0
 31 33  1  0  0  0
 33 34  4  0  0  0
 33 38  4  0  0  0
 34 35  4  0  0  0
 35 36  4  0  0  0
 36 37  4  0  0  0
 36 39  1  0  0  0
 37 38  4  0  0  0
 39 40  1  0  0  0
  2 41  1  0  0  0
  4 42  1  0  0  0
  5 43  1  0  0  0
  9 44  1  0  0  0
 10 45  1  0  0  0
 12 46  1  0  0  0
 13 47  1  0  0  0
 15 48  1  0  0  0
 18 49  1  0  0  0
 19 50  1  0  0  0
 19 51  1  0  0  0
 19 52  1  0  0  0
 20 53  1  0  0  0
 20 54  1  0  0  0
 20 55  1  0  0  0
 22 56  1  0  0  0
 24 57  1  0  0  0
 24 58  1  0  0  0
 25 59  1  0  0  0
 25 60  1  0  0  0
 26 61  1  0  0  0
 27 62  1  0  0  0
 27 63  1  0  0  0
 28 64  1  0  0  0
 28 65  1  0  0  0
 29 66  1  0  0  0
 29 67  1  0  0  0
 29 68  1  0  0  0
 30 69  1  0  0  0
 34 70  1  0  0  0
 35 71  1  0  0  0
 37 72  1  0  0  0
 38 73  1  0  0  0
 40 74  1  0  0  0
 40 75  1  0  0  0
 40 76  1  0  0  0
M  END
$$$$
