### 
### Created by X-TOOL on Mon Aug  2 16:17:03 2021
### 

@<TRIPOS>MOLECULE
6d07_ligand
  153   152     1     0     0
SMALL
GAST_HUCK


@<TRIPOS>ATOM
      1 N          23.3510   19.8250   13.4950 N.4       1 LYS         0.2379
      2 CA         22.0230   20.0140   14.0690 C.3       1 LYS         0.0650
      3 C          21.3920   18.6860   14.4750 C.2       1 LYS         0.2267
      4 O          21.6360   17.6550   13.8550 O.2       1 LYS        -0.3907
      5 CB         21.1140   20.7500   13.0820 C.3       1 LYS         0.0080
      6 CG         21.5010   20.5650   11.6250 C.3       1 LYS        -0.0410
      7 CD         20.5900   21.3690   10.7080 C.3       1 LYS        -0.0123
      8 CE         21.1220   21.4020    9.2840 C.3       1 LYS        -0.0354
      9 NZ         22.4470   22.0840    9.2060 N.4       1 LYS         0.2185
     10 N          20.5830   18.7250   15.5300 N.am      1 LYS        -0.2609
     11 CA         19.8960   17.5430   16.0360 C.3       1 LYS         0.1331
     12 C          18.5590   17.4160   15.3150 C.2       1 LYS         0.2041
     13 O          17.6360   18.2010   15.5590 O.2       1 LYS        -0.3944
     14 CB         19.7020   17.6450   17.5470 C.3       1 LYS         0.0045
     15 CG         20.9640   18.0300   18.3090 C.3       1 LYS         0.0412
     16 CD         22.0640   16.9910   18.1880 C.2       1 LYS         0.1737
     17 OE1        21.9950   15.9260   18.7990 O.2       1 LYS        -0.3973
     18 NE2        23.0870   17.2970   17.3960 N.am      1 LYS        -0.3009
     19 N          18.4550   16.4370   14.4240 N.am      1 LYS        -0.2613
     20 CA         17.2480   16.2110   13.6450 C.3       1 LYS         0.1565
     21 C          16.7640   14.7800   13.8330 C.2       1 LYS         0.2065
     22 O          17.4310   13.9430   14.4460 O.2       1 LYS        -0.3943
     23 CB         17.4860   16.4790   12.1530 C.3       1 LYS         0.0924
     24 OG1        18.4000   15.5030   11.6380 O.3       1 LYS        -0.3874
     25 CG2        18.0570   17.8780   11.9350 C.3       1 LYS        -0.0346
     26 N          15.5840   14.5100   13.2820 N.am      1 LYS        -0.2639
     27 CA         15.0460   13.1600   13.2150 C.3       1 LYS         0.1282
     28 C          13.9940   13.1190   12.1190 C.2       1 LYS         0.2036
     29 O          13.4090   14.1430   11.7550 O.2       1 LYS        -0.3944
     30 CB         14.4500   12.7120   14.5550 C.3       1 LYS        -0.0244
     31 N          13.7700   11.9240   11.5900 N.am      1 LYS        -0.2637
     32 CA         12.6960   11.7210   10.6300 C.3       1 LYS         0.1311
     33 C          11.4230   11.3390   11.3730 C.2       1 LYS         0.2039
     34 O          11.4300   10.4400   12.2150 O.2       1 LYS        -0.3944
     35 CB         13.0710   10.6510    9.6020 C.3       1 LYS        -0.0092
     36 CG         14.1160   11.1160    8.5990 C.3       1 LYS        -0.0156
     37 CD         14.4880   10.0160    7.6220 C.3       1 LYS         0.0627
     38 NE         15.0650    8.8570    8.2950 N.pl3     1 LYS        -0.2723
     39 CZ         16.3500    8.7450    8.6160 C.cat     1 LYS         0.2882
     40 NH1        17.1920    9.7280    8.3300 N.pl3     1 LYS        -0.2849
     41 NH2        16.7920    7.6510    9.2230 N.pl3     1 LYS        -0.2849
     42 N          10.3400   12.0460   11.0770 N.am      1 LYS        -0.2637
     43 CA          9.0640   11.7680   11.6860 C.3       1 LYS         0.1310
     44 CB          8.2220   13.0400   11.8710 C.3       1 LYS        -0.0122
     45 CG          7.0730   12.8110   12.8260 C.3       1 LYS        -0.0440
     46 CD          6.0450   13.9220   12.6910 C.3       1 LYS        -0.0123
     47 CE          6.6950   15.2290   13.1250 C.3       1 LYS        -0.0309
     48 NZ          5.8050   16.4460   13.2820 N.4       1 LYS         0.2369
     49 C           8.2600   10.7730   10.8620 C.2       1 LYS         0.2040
     50 O           8.0060   10.9390    9.6670 O.2       1 LYS        -0.3944
     51 CM1         4.7520   16.2310   14.3180 C.3       1 LYS        -0.0418
     52 CM2         5.1610   16.8330   11.9920 C.3       1 LYS        -0.0418
     53 CM3         6.6870   17.5720   13.7250 C.3       1 LYS        -0.0418
     54 N           7.8580    9.6940   11.5290 N.am      1 LYS        -0.2616
     55 CA          7.1140    8.6210   10.8770 C.3       1 LYS         0.1539
     56 C           5.7890    9.1390   10.3300 C.2       1 LYS         0.2063
     57 O           5.0070    9.7560   11.0520 O.2       1 LYS        -0.3943
     58 CB          6.8760    7.4630   11.8490 C.3       1 LYS         0.0843
     59 OG          8.1020    6.8650   12.2350 O.3       1 LYS        -0.3903
     60 N           5.5510    8.8840    9.0460 N.am      1 LYS        -0.2613
     61 CA          4.3920    9.4170    8.3450 C.3       1 LYS         0.1564
     62 C           3.2420    8.4180    8.3660 C.2       1 LYS         0.2057
     63 O           3.4330    7.2250    8.1150 O.2       1 LYS        -0.3943
     64 CB          4.7560    9.7630    6.8990 C.3       1 LYS         0.0924
     65 OG1         5.9240   10.5970    6.8840 O.3       1 LYS        -0.3874
     66 CG2         3.6020   10.4940    6.2130 C.3       1 LYS        -0.0346
     67 N           2.0460    8.9150    8.6650 N.am      1 LYS        -0.2721
     68 CA          0.8610    8.0790    8.7190 C.3       1 LYS         0.0833
     69 C           0.6360    7.4520   10.0810 C.2       1 LYS         0.0570
     70 O           1.4300    7.6460   11.0010 O.co2     1 LYS        -0.5669
     71 OXT        -0.3450    6.7380   10.2900 O.co2     1 LYS        -0.5669
     72 H1         23.7369   20.7203   13.2389 H         1 LYS         0.2015
     73 H2         23.2831   19.2417   12.6757 H         1 LYS         0.2015
     74 H3         23.9506   19.3825   14.1738 H         1 LYS         0.2015
     75 H4         22.1269   20.6335   14.9720 H         1 LYS         0.1098
     76 H5         21.1496   21.8245   13.3149 H         1 LYS         0.0346
     77 H6         20.0870   20.3796   13.2162 H         1 LYS         0.0346
     78 H7         21.4217   19.4991   11.3651 H         1 LYS         0.0270
     79 H8         22.5390   20.9006   11.4839 H         1 LYS         0.0270
     80 H9         20.5199   22.3991   11.0873 H         1 LYS         0.0317
     81 H10        19.5902   20.9103   10.7055 H         1 LYS         0.0317
     82 H11        20.4051   21.9419    8.6479 H         1 LYS         0.0813
     83 H12        21.2304   20.3697    8.9198 H         1 LYS         0.0813
     84 H13        22.7676   22.0870    8.2503 H         1 LYS         0.1994
     85 H14        23.1123   21.5925    9.7820 H         1 LYS         0.1994
     86 H15        22.3561   23.0332    9.5329 H         1 LYS         0.1994
     87 H16        20.4405   19.5992   15.9942 H         1 LYS         0.1885
     88 H17        20.5045   16.6524   15.8202 H         1 LYS         0.0801
     89 H18        19.3581   16.6684   17.9184 H         1 LYS         0.0337
     90 H19        18.9321   18.4049   17.7464 H         1 LYS         0.0337
     91 H20        20.7096   18.1503   19.3724 H         1 LYS         0.0504
     92 H21        21.3374   18.9851   17.9110 H         1 LYS         0.0504
     93 H22        23.8400   16.6494   17.2792 H         1 LYS         0.1814
     94 H23        23.1035   18.1747   16.9171 H         1 LYS         0.1814
     95 H24        19.2379   15.8310   14.2830 H         1 LYS         0.1884
     96 H25        16.4685   16.8991   14.0041 H         1 LYS         0.0826
     97 H26        16.5285   16.3973   11.6177 H         1 LYS         0.0639
     98 H27        18.0315   14.6347   11.7514 H         1 LYS         0.2101
     99 H28        18.2181   18.0448   10.8597 H         1 LYS         0.0257
    100 H29        19.0149   17.9703   12.4679 H         1 LYS         0.0257
    101 H30        17.3494   18.6270   12.3202 H         1 LYS         0.0257
    102 H31        15.0471   15.2622   12.8999 H         1 LYS         0.1883
    103 H32        15.8609   12.4689   12.9534 H         1 LYS         0.0797
    104 H33        14.0567   11.6893   14.4577 H         1 LYS         0.0277
    105 H34        13.6343   13.3930   14.8395 H         1 LYS         0.0277
    106 H35        15.2314   12.7322   15.3289 H         1 LYS         0.0277
    107 H36        14.3473   11.1516   11.8546 H         1 LYS         0.1883
    108 H37        12.5204   12.6661   10.0953 H         1 LYS         0.0800
    109 H38        12.1632   10.3632    9.0514 H         1 LYS         0.0313
    110 H39        13.4675    9.7762   10.1382 H         1 LYS         0.0313
    111 H40        15.0189   11.4282    9.1443 H         1 LYS         0.0301
    112 H41        13.7136   11.9711    8.0361 H         1 LYS         0.0301
    113 H42        15.2222   10.4117    6.9049 H         1 LYS         0.0689
    114 H43        13.5830    9.6991    7.0830 H         1 LYS         0.0689
    115 H44        14.4373    8.0769    8.5364 H         1 LYS         0.2642
    116 H45        18.1878    9.6418    8.5785 H         1 LYS         0.2615
    117 H46        16.8504   10.5781    7.8593 H         1 LYS         0.2615
    118 H47        16.1390    6.8863    9.4459 H         1 LYS         0.2615
    119 H48        17.7881    7.5665    9.4712 H         1 LYS         0.2615
    120 H49        10.4111   12.7912   10.4140 H         1 LYS         0.1883
    121 H50         9.2525   11.3294   12.6770 H         1 LYS         0.0800
    122 H51         7.8191   13.3469   10.8945 H         1 LYS         0.0312
    123 H52         8.8644   13.8388   12.2701 H         1 LYS         0.0312
    124 H53         7.4560   12.7945   13.8570 H         1 LYS         0.0269
    125 H54         6.5969   11.8464   12.5961 H         1 LYS         0.0269
    126 H55         5.1779   13.7067   13.3327 H         1 LYS         0.0317
    127 H56         5.7162   13.9996   11.6442 H         1 LYS         0.0317
    128 H57         7.4614   15.4781   12.3763 H         1 LYS         0.0815
    129 H58         7.1770   15.0482   14.0971 H         1 LYS         0.0815
    130 H59         4.1296   17.1342   14.4011 H         1 LYS         0.0778
    131 H60         5.2284   16.0236   15.2875 H         1 LYS         0.0778
    132 H61         4.1220   15.3769   14.0288 H         1 LYS         0.0778
    133 H62         5.9365   16.9916   11.2281 H         1 LYS         0.0778
    134 H63         4.5889   17.7620   12.1320 H         1 LYS         0.0778
    135 H64         4.4832   16.0306   11.6653 H         1 LYS         0.0778
    136 H65         7.1717   17.3058   14.6759 H         1 LYS         0.0778
    137 H66         6.0812   18.4796   13.8638 H         1 LYS         0.0778
    138 H67         7.4561   17.7578   12.9609 H         1 LYS         0.0778
    139 H68         8.0714    9.6163   12.5029 H         1 LYS         0.1884
    140 H69         7.7138    8.2476   10.0340 H         1 LYS         0.0823
    141 H70         6.2448    6.7064   11.3599 H         1 LYS         0.0606
    142 H71         6.3639    7.8443   12.7447 H         1 LYS         0.0606
    143 H72         8.6493    7.5141   12.6612 H         1 LYS         0.2097
    144 H73         6.1926    8.3043    8.5436 H         1 LYS         0.1884
    145 H74         4.0676   10.3357    8.8555 H         1 LYS         0.0826
    146 H75         4.9676    8.8331    6.3509 H         1 LYS         0.0639
    147 H76         5.7472   11.3964    7.3659 H         1 LYS         0.2101
    148 H77         3.8837   10.7330    5.1769 H         1 LYS         0.0257
    149 H78         3.3822   11.4244    6.7571 H         1 LYS         0.0257
    150 H79         2.7098    9.8507    6.2113 H         1 LYS         0.0257
    151 H80         1.9604    9.8924    8.8582 H         1 LYS         0.1873
    152 H81         0.9663    7.2743    7.9765 H         1 LYS         0.0689
    153 H82        -0.0145    8.6963    8.4691 H         1 LYS         0.0689
@<TRIPOS>BOND
     1    1    2 1  
     2    2    3 1  
     3    2    5 1  
     4    3    4 2  
     5    3   10 am 
     6    5    6 1  
     7    6    7 1  
     8    7    8 1  
     9    8    9 1  
    10   10   11 1  
    11   11   12 1  
    12   11   14 1  
    13   12   13 2  
    14   12   19 am 
    15   14   15 1  
    16   15   16 1  
    17   16   17 2  
    18   16   18 am 
    19   19   20 1  
    20   20   21 1  
    21   20   23 1  
    22   21   22 2  
    23   21   26 am 
    24   23   24 1  
    25   23   25 1  
    26   26   27 1  
    27   27   28 1  
    28   27   30 1  
    29   28   29 2  
    30   28   31 am 
    31   31   32 1  
    32   32   33 1  
    33   32   35 1  
    34   33   34 2  
    35   33   42 am 
    36   35   36 1  
    37   36   37 1  
    38   37   38 1  
    39   38   39 ar 
    40   39   40 ar 
    41   39   41 ar 
    42   42   43 1  
    43   43   44 1  
    44   43   49 1  
    45   44   45 1  
    46   45   46 1  
    47   46   47 1  
    48   47   48 1  
    49   48   51 1  
    50   48   52 1  
    51   48   53 1  
    52   49   50 2  
    53   49   54 am 
    54   54   55 1  
    55   55   56 1  
    56   55   58 1  
    57   56   57 2  
    58   56   60 am 
    59   58   59 1  
    60   60   61 1  
    61   61   62 1  
    62   61   64 1  
    63   62   63 2  
    64   62   67 am 
    65   64   65 1  
    66   64   66 1  
    67   67   68 1  
    68   68   69 1  
    69   69   70 ar 
    70   69   71 ar 
    71    1   72 1  
    72    1   73 1  
    73    1   74 1  
    74    2   75 1  
    75    5   76 1  
    76    5   77 1  
    77    6   78 1  
    78    6   79 1  
    79    7   80 1  
    80    7   81 1  
    81    8   82 1  
    82    8   83 1  
    83    9   84 1  
    84    9   85 1  
    85    9   86 1  
    86   10   87 1  
    87   11   88 1  
    88   14   89 1  
    89   14   90 1  
    90   15   91 1  
    91   15   92 1  
    92   18   93 1  
    93   18   94 1  
    94   19   95 1  
    95   20   96 1  
    96   23   97 1  
    97   24   98 1  
    98   25   99 1  
    99   25  100 1  
   100   25  101 1  
   101   26  102 1  
   102   27  103 1  
   103   30  104 1  
   104   30  105 1  
   105   30  106 1  
   106   31  107 1  
   107   32  108 1  
   108   35  109 1  
   109   35  110 1  
   110   36  111 1  
   111   36  112 1  
   112   37  113 1  
   113   37  114 1  
   114   38  115 1  
   115   40  116 1  
   116   40  117 1  
   117   41  118 1  
   118   41  119 1  
   119   42  120 1  
   120   43  121 1  
   121   44  122 1  
   122   44  123 1  
   123   45  124 1  
   124   45  125 1  
   125   46  126 1  
   126   46  127 1  
   127   47  128 1  
   128   47  129 1  
   129   51  130 1  
   130   51  131 1  
   131   51  132 1  
   132   52  133 1  
   133   52  134 1  
   134   52  135 1  
   135   53  136 1  
   136   53  137 1  
   137   53  138 1  
   138   54  139 1  
   139   55  140 1  
   140   58  141 1  
   141   58  142 1  
   142   59  143 1  
   143   60  144 1  
   144   61  145 1  
   145   64  146 1  
   146   65  147 1  
   147   66  148 1  
   148   66  149 1  
   149   66  150 1  
   150   67  151 1  
   151   68  152 1  
   152   68  153 1  
@<TRIPOS>SUBSTRUCTURE
     1 LYS         1

