3nnu_ligand
  -I-interpret- 

 49 52  0  0  0  0  0  0  0  0999 V2000
   18.6190   12.3390   29.4570 C   0  0  0  0  0
   19.3070   11.3800   30.2120 C   0  0  0  0  0
   18.6330   10.5730   31.1380 C   0  0  0  0  0
   17.2570   10.7300   31.2760 C   0  0  0  0  0
   16.5780   11.6840   30.5160 C   0  0  0  0  0
   17.2150   12.4790   29.5820 C   0  0  0  0  0
   15.9740   15.6040   23.7850 C   0  0  0  0  0
   16.0910   14.5890   24.7260 C   0  0  0  0  0
   15.8340   15.2430   25.9330 C   0  0  0  0  0
   15.5810   16.5590   25.6530 N   0  0  0  0  0
   15.6540   16.8170   24.2850 N   0  0  0  0  0
   15.3330   17.5750   26.5150 C   0  0  0  0  0
   14.0000   18.5760   26.2800 C   0  0  0  0  0
   14.1300   19.6350   27.1710 C   0  0  0  0  0
   14.8570   19.7610   28.3590 C   0  0  0  0  0
   15.8260   18.7980   28.6240 C   0  0  0  0  0
   16.0380   17.7520   27.7210 C   0  0  0  0  0
   15.8350   14.8090   27.2280 N   0  0  0  0  0
   16.5820   13.7780   27.6300 C   0  0  0  0  0
   17.3030   13.1630   26.8620 O   0  0  0  0  0
   16.4990   13.4340   28.9100 N   0  0  0  0  0
   16.2240   15.5020   19.8010 C   0  0  0  0  0
   15.9340   16.6140   21.1010 S   0  0  0  0  0
   16.1110   15.3630   22.3120 C   0  0  0  0  0
   16.3960   14.1160   21.7700 C   0  0  0  0  0
   16.4460   14.2320   20.3950 C   0  0  0  0  0
   13.0600   20.6610   26.8480 C   0  0  0  0  0
   13.6560   21.9340   26.2860 C   0  0  0  0  0
   13.2710   23.0280   26.6720 O   0  0  0  0  0
   14.5920   21.7900   25.3630 N   0  0  0  0  0
   14.8210   11.8790   30.6730 Cl  0  0  0  0  0
   16.2990    9.7360   32.4200 Cl  0  0  0  0  0
   19.1679   12.9817   28.7687 H   0  0  0  0  0
   20.3819   11.2600   30.0770 H   0  0  0  0  0
   19.1735    9.8395   31.7362 H   0  0  0  0  0
   16.3263   13.5374   24.5622 H   0  0  0  0  0
   13.1905   18.4231   25.5663 H   0  0  0  0  0
   14.6717   20.5824   29.0512 H   0  0  0  0  0
   16.4199   18.8593   29.5359 H   0  0  0  0  0
   16.8059   17.0192   27.9689 H   0  0  0  0  0
   15.2464   15.2877   27.9097 H   0  0  0  0  0
   15.8136   13.9472   29.4643 H   0  0  0  0  0
   16.2338   15.7335   18.7359 H   0  0  0  0  0
   16.5540   13.1982   22.3363 H   0  0  0  0  0
   16.6531   13.3603   19.7742 H   0  0  0  0  0
   12.5310   20.9069   27.7688 H   0  0  0  0  0
   12.3911   20.2356   26.0998 H   0  0  0  0  0
   15.0242   22.6125   24.9423 H   0  0  0  0  0
   14.8818   20.8564   25.0718 H   0  0  0  0  0
  1  2  4  0  0  0
  6  1  4  0  0  0
  2  3  4  0  0  0
  4  3  4  0  0  0
  5  4  4  0  0  0
  4 32  1  0  0  0
  6  5  4  0  0  0
  5 31  1  0  0  0
 21  6  1  0  0  0
  7  8  4  0  0  0
  7 11  4  0  0  0
 24  7  1  0  0  0
  8  9  4  0  0  0
 10  9  4  0  0  0
  9 18  1  0  0  0
 11 10  4  0  0  0
 10 12  1  0  0  0
 12 13  4  0  0  0
 12 17  4  0  0  0
 13 14  4  0  0  0
 14 15  4  0  0  0
 14 27  1  0  0  0
 16 15  4  0  0  0
 17 16  4  0  0  0
 18 19  1  0  0  0
 19 20  2  0  0  0
 19 21  1  0  0  0
 23 22  4  0  0  0
 22 26  4  0  0  0
 23 24  4  0  0  0
 24 25  4  0  0  0
 25 26  4  0  0  0
 27 28  1  0  0  0
 28 29  2  0  0  0
 28 30  1  0  0  0
  1 33  1  0  0  0
  2 34  1  0  0  0
  3 35  1  0  0  0
  8 36  1  0  0  0
 13 37  1  0  0  0
 15 38  1  0  0  0
 16 39  1  0  0  0
 17 40  1  0  0  0
 18 41  1  0  0  0
 21 42  1  0  0  0
 22 43  1  0  0  0
 25 44  1  0  0  0
 26 45  1  0  0  0
 27 46  1  0  0  0
 27 47  1  0  0  0
 30 48  1  0  0  0
 30 49  1  0  0  0
M  END
$$$$
