3avf_ligand
  -I-interpret- 

132132  0  0  0  0  0  0  0  0999 V2000
  -41.5470   34.8860   -3.7070 N   0  0  0  0  0
  -41.0870   35.4560   -4.9720 C   0  0  0  0  0
  -40.6400   34.3000   -5.8960 C   0  0  0  0  0
  -40.0430   34.5150   -6.9690 O   0  0  0  0  0
  -39.9320   36.4230   -4.5610 C   0  0  0  0  0
  -39.3860   37.2790   -5.6980 C   0  0  0  0  0
  -40.1140   37.5000   -6.6900 O   0  0  0  0  0
  -38.2100   37.7440   -5.5660 O   0  0  0  0  0
  -40.9160   33.0650   -5.4630 N   0  0  0  0  0
  -40.5200   31.7870   -6.1510 C   0  0  0  0  0
  -39.0030   31.6250   -6.2760 C   0  0  0  0  0
  -38.4870   31.0240   -7.2530 O   0  0  0  0  0
  -41.2030   31.6170   -7.5350 C   0  0  0  0  0
  -42.0580   30.3500   -7.7470 C   0  0  0  0  0
  -43.2920   30.4010   -6.7610 C   0  0  0  0  0
  -42.5020   30.1700   -9.2070 C   0  0  0  0  0
  -38.2860   32.1100   -5.2650 N   0  0  0  0  0
  -36.8200   32.0120   -5.2790 C   0  0  0  0  0
  -36.5070   31.2240   -4.0420 C   0  0  0  0  0
  -37.2860   31.2970   -3.0610 O   0  0  0  0  0
  -36.2370   33.4260   -5.1300 C   0  0  0  0  0
  -36.6240   34.4030   -6.2350 C   0  0  0  0  0
  -36.0410   33.9200   -7.5400 C   0  0  0  0  0
  -36.7190   34.8390   -8.5900 C   0  0  0  0  0
  -36.1360   34.7480   -9.9360 N   0  3  0  0  0
  -35.3700   30.5020   -4.0270 N   0  0  0  0  0
  -34.9490   29.7180   -2.8340 C   0  0  0  0  0
  -34.8420   30.6250   -1.6000 C   0  0  0  0  0
  -35.1330   30.1760   -0.4700 O   0  0  0  0  0
  -33.5930   28.8870   -3.0690 C   0  0  0  0  0
  -33.7030   27.4480   -2.5660 C   0  0  0  0  0
  -32.4410   29.4500   -2.2750 C   0  0  0  0  0
  -34.5050   26.5490   -3.4240 C   0  0  0  0  0
  -34.4370   31.8970   -1.8100 N   0  0  0  0  0
  -34.1120   32.7880   -0.6840 C   0  0  0  0  0
  -35.2690   33.6950   -0.4250 C   0  0  0  0  0
  -35.1520   34.6040    0.4170 O   0  0  0  0  0
  -32.8120   33.6410   -0.9280 C   0  0  0  0  0
  -32.7800   34.3390   -2.2470 C   0  0  0  0  0
  -31.8540   35.1730   -2.4510 O   0  0  0  0  0
  -33.6490   34.1040   -3.0980 O   0  0  0  0  0
  -36.3300   33.5220   -1.2280 N   0  0  0  0  0
  -37.5890   34.2710   -1.0130 C   0  0  0  0  0
  -38.7040   33.4720   -1.6490 C   0  0  0  0  0
  -39.0160   33.6000   -2.8400 O   0  0  0  0  0
  -37.5280   35.6830   -1.5810 C   0  0  0  0  0
  -38.7670   36.5240   -1.1490 C   0  0  0  0  0
  -39.8520   35.9910   -0.9610 O   0  0  0  0  0
  -38.5890   37.8260   -1.0200 N   0  0  0  0  0
  -39.2730   32.5700   -0.8690 N   0  0  0  0  0
  -40.1700   31.6040   -1.5030 C   0  0  0  0  0
  -41.4140   32.3360   -2.0610 C   0  0  0  0  0
  -41.9570   31.9380   -3.0980 O   0  0  0  0  0
  -40.5390   30.4940   -0.4700 C   0  0  0  0  0
  -39.4020   29.4670   -0.3030 C   0  0  0  0  0
  -39.8870   28.4860    0.7590 C   0  0  0  0  0
  -39.0410   28.6860   -1.5920 C   0  0  0  0  0
  -41.7850   33.4280   -1.4170 N   0  0  0  0  0
  -42.9460   34.2760   -1.8560 C   0  0  0  0  0
  -42.8110   34.7540   -3.2940 C   0  0  0  0  0
  -43.8100   34.9720   -3.9900 O   0  0  0  0  0
  -43.0690   35.5080   -0.9550 C   0  0  0  0  0
  -43.8570   35.2300    0.3060 C   0  0  0  0  0
  -44.4990   34.1580    0.3780 O   0  0  0  0  0
  -43.8160   36.0740    1.2280 O   0  0  0  0  0
  -40.8239   34.5524   -3.0696 H   0  0  0  0  0
  -41.8429   36.0047   -5.5339 H   0  0  0  0  0
  -39.1089   35.8027   -4.2063 H   0  0  0  0  0
  -40.3393   37.1063   -3.8157 H   0  0  0  0  0
  -37.8412   37.4463   -4.7312 H   0  0  0  0  0
  -41.4398   32.9826   -4.5917 H   0  0  0  0  0
  -40.8822   30.9894   -5.5023 H   0  0  0  0  0
  -40.3917   31.5518   -8.2600 H   0  0  0  0  0
  -41.8899   32.4578   -7.6319 H   0  0  0  0  0
  -41.4460   29.4763   -7.5229 H   0  0  0  0  0
  -42.9325   30.4381   -5.7327 H   0  0  0  0  0
  -43.8871   31.2896   -6.9715 H   0  0  0  0  0
  -43.9045   29.5103   -6.9012 H   0  0  0  0  0
  -43.0978   31.0300   -9.5129 H   0  0  0  0  0
  -41.6224   30.0901   -9.8457 H   0  0  0  0  0
  -43.0997   29.2627   -9.2944 H   0  0  0  0  0
  -38.7570   32.5524   -4.4758 H   0  0  0  0  0
  -36.4203   31.5618   -6.1877 H   0  0  0  0  0
  -35.1523   33.3243   -5.1658 H   0  0  0  0  0
  -36.6315   33.8323   -4.1987 H   0  0  0  0  0
  -36.2361   35.3948   -6.0026 H   0  0  0  0  0
  -37.7097   34.4585   -6.3144 H   0  0  0  0  0
  -36.2313   32.8620   -7.7206 H   0  0  0  0  0
  -34.9531   33.9833   -7.5645 H   0  0  0  0  0
  -36.5870   35.8665   -8.2511 H   0  0  0  0  0
  -37.7597   34.5246   -8.6683 H   0  0  0  0  0
  -36.6340   35.3786  -10.5643 H   0  0  0  0  0
  -35.1515   35.0121   -9.8974 H   0  0  0  0  0
  -36.2192   33.7904  -10.2772 H   0  0  0  0  0
  -34.7795   30.4923   -4.8586 H   0  0  0  0  0
  -35.7275   28.9761   -2.6562 H   0  0  0  0  0
  -33.4301   28.9422   -4.1453 H   0  0  0  0  0
  -34.2022   27.4891   -1.5979 H   0  0  0  0  0
  -32.6912   27.0432   -2.5431 H   0  0  0  0  0
  -32.2646   30.4828   -2.5756 H   0  0  0  0  0
  -32.6824   29.4156   -1.2126 H   0  0  0  0  0
  -31.5463   28.8571   -2.4650 H   0  0  0  0  0
  -35.5220   26.9337   -3.5006 H   0  0  0  0  0
  -34.0574   26.5015   -4.4167 H   0  0  0  0  0
  -34.5246   25.5516   -2.9848 H   0  0  0  0  0
  -34.3551   32.2458   -2.7650 H   0  0  0  0  0
  -33.9149   32.1563    0.1821 H   0  0  0  0  0
  -31.9664   32.9536   -0.9062 H   0  0  0  0  0
  -32.7807   34.4094   -0.1556 H   0  0  0  0  0
  -31.2854   35.2135   -1.6785 H   0  0  0  0  0
  -36.2680   32.8610   -2.0024 H   0  0  0  0  0
  -37.7631   34.3932    0.0560 H   0  0  0  0  0
  -37.5161   35.6181   -2.6690 H   0  0  0  0  0
  -36.6297   36.1701   -1.2016 H   0  0  0  0  0
  -39.3717   38.4240   -0.7551 H   0  0  0  0  0
  -37.6688   38.2338   -1.1853 H   0  0  0  0  0
  -39.0940   32.5481    0.1349 H   0  0  0  0  0
  -39.6794   31.1191   -2.3470 H   0  0  0  0  0
  -41.4238   29.9699   -0.8315 H   0  0  0  0  0
  -40.7161   30.9691    0.4949 H   0  0  0  0  0
  -38.4903   29.9999   -0.0330 H   0  0  0  0  0
  -40.0771   29.0231    1.6882 H   0  0  0  0  0
  -40.8063   28.0094    0.4188 H   0  0  0  0  0
  -39.1230   27.7268    0.9265 H   0  0  0  0  0
  -39.9156   28.1355   -1.9387 H   0  0  0  0  0
  -38.7224   29.3875   -2.3631 H   0  0  0  0  0
  -38.2320   27.9877   -1.3776 H   0  0  0  0  0
  -41.2619   33.7075   -0.5872 H   0  0  0  0  0
  -43.8326   33.6462   -1.7825 H   0  0  0  0  0
  -43.5940   36.2820   -1.5149 H   0  0  0  0  0
  -42.0638   35.8113   -0.6624 H   0  0  0  0  0
  -44.3904   33.6658   -0.4390 H   0  0  0  0  0
  1  2  1  0  0  0
  1 60  1  0  0  0
  2  3  1  0  0  0
  2  5  1  0  0  0
  3  4  2  0  0  0
  3  9  1  0  0  0
  5  6  1  0  0  0
  6  7  2  0  0  0
  6  8  1  0  0  0
  9 10  1  0  0  0
 10 11  1  0  0  0
 10 13  1  0  0  0
 11 12  2  0  0  0
 11 17  1  0  0  0
 13 14  1  0  0  0
 14 15  1  0  0  0
 14 16  1  0  0  0
 17 18  1  0  0  0
 18 19  1  0  0  0
 18 21  1  0  0  0
 19 20  2  0  0  0
 19 26  1  0  0  0
 21 22  1  0  0  0
 22 23  1  0  0  0
 23 24  1  0  0  0
 24 25  1  0  0  0
 26 27  1  0  0  0
 27 28  1  0  0  0
 27 30  1  0  0  0
 28 29  2  0  0  0
 28 34  1  0  0  0
 30 31  1  0  0  0
 30 32  1  0  0  0
 31 33  1  0  0  0
 34 35  1  0  0  0
 35 36  1  0  0  0
 35 38  1  0  0  0
 36 37  2  0  0  0
 36 42  1  0  0  0
 38 39  1  0  0  0
 39 40  1  0  0  0
 39 41  2  0  0  0
 42 43  1  0  0  0
 43 44  1  0  0  0
 43 46  1  0  0  0
 44 45  2  0  0  0
 44 50  1  0  0  0
 46 47  1  0  0  0
 47 48  2  0  0  0
 47 49  1  0  0  0
 50 51  1  0  0  0
 51 52  1  0  0  0
 51 54  1  0  0  0
 52 53  2  0  0  0
 52 58  1  0  0  0
 54 55  1  0  0  0
 55 56  1  0  0  0
 55 57  1  0  0  0
 58 59  1  0  0  0
 59 60  1  0  0  0
 59 62  1  0  0  0
 60 61  2  0  0  0
 62 63  1  0  0  0
 63 64  1  0  0  0
 63 65  2  0  0  0
  1 66  1  0  0  0
  2 67  1  0  0  0
  5 68  1  0  0  0
  5 69  1  0  0  0
  8 70  1  0  0  0
  9 71  1  0  0  0
 10 72  1  0  0  0
 13 73  1  0  0  0
 13 74  1  0  0  0
 14 75  1  0  0  0
 15 76  1  0  0  0
 15 77  1  0  0  0
 15 78  1  0  0  0
 16 79  1  0  0  0
 16 80  1  0  0  0
 16 81  1  0  0  0
 17 82  1  0  0  0
 18 83  1  0  0  0
 21 84  1  0  0  0
 21 85  1  0  0  0
 22 86  1  0  0  0
 22 87  1  0  0  0
 23 88  1  0  0  0
 23 89  1  0  0  0
 24 90  1  0  0  0
 24 91  1  0  0  0
 25 92  1  0  0  0
 25 93  1  0  0  0
 25 94  1  0  0  0
 26 95  1  0  0  0
 27 96  1  0  0  0
 30 97  1  0  0  0
 31 98  1  0  0  0
 31 99  1  0  0  0
 32100  1  0  0  0
 32101  1  0  0  0
 32102  1  0  0  0
 33103  1  0  0  0
 33104  1  0  0  0
 33105  1  0  0  0
 34106  1  0  0  0
 35107  1  0  0  0
 38108  1  0  0  0
 38109  1  0  0  0
 40110  1  0  0  0
 42111  1  0  0  0
 43112  1  0  0  0
 46113  1  0  0  0
 46114  1  0  0  0
 49115  1  0  0  0
 49116  1  0  0  0
 50117  1  0  0  0
 51118  1  0  0  0
 54119  1  0  0  0
 54120  1  0  0  0
 55121  1  0  0  0
 56122  1  0  0  0
 56123  1  0  0  0
 56124  1  0  0  0
 57125  1  0  0  0
 57126  1  0  0  0
 57127  1  0  0  0
 58128  1  0  0  0
 59129  1  0  0  0
 62130  1  0  0  0
 62131  1  0  0  0
 64132  1  0  0  0
M  END
$$$$
