4wk1_ligand
  -I-interpret- 

 68 74  0  0  0  0  0  0  0  0999 V2000
   14.2380  -28.8170   12.4460 P   0  0  0  0  0
   14.8480  -29.2450   11.1400 O   0  0  0  0  0
   13.5950  -27.4050   12.1870 O   0  0  0  0  0
   13.1680  -29.9470   12.7910 O   0  0  0  0  0
   12.3660  -29.7820   13.9380 C   0  0  0  0  0
   11.5180  -31.0560   14.0760 C   0  0  0  0  0
   10.8440  -31.1710   12.9270 O   0  0  0  0  0
   12.4170  -32.2640   14.1970 C   0  0  0  0  0
   12.6810  -32.5410   15.5230 O   0  0  0  0  0
   11.4720  -33.3470   13.5460 C   0  0  0  0  0
   10.5860  -33.8690   14.5750 O   0  0  0  0  0
   10.7630  -32.7430   12.6270 C   0  0  0  0  0
   11.2290  -33.0640   11.3190 N   0  0  0  0  0
   12.1160  -32.1740   10.8130 C   0  0  0  0  0
   12.4900  -32.6030    9.5600 N   0  0  0  0  0
   11.8160  -33.7740    9.3180 C   0  0  0  0  0
   11.7870  -34.6800    8.2250 C   0  0  0  0  0
   12.4520  -34.7030    6.9690 N   0  0  0  0  0
   11.0160  -35.7640    8.2720 N   0  0  0  0  0
   10.2440  -36.0220    9.3630 C   0  0  0  0  0
   10.2620  -35.1500   10.4440 N   0  0  0  0  0
   11.0450  -34.0370   10.3830 C   0  0  0  0  0
   14.1740  -33.0660   15.8580 P   0  0  0  0  0
   14.3710  -34.3840   15.1230 O   0  0  0  0  0
   14.4560  -33.3460   17.3280 O   0  0  0  0  0
   15.2150  -31.9770   15.1050 O   0  0  0  0  0
   15.6240  -30.9450   15.9650 C   0  0  0  0  0
   16.6730  -30.1200   15.2730 C   0  0  0  0  0
   17.8190  -30.7130   15.3350 O   0  0  0  0  0
   16.3450  -29.8880   13.6540 C   0  0  0  0  0
   15.5380  -28.6670   13.4880 O   0  0  0  0  0
   17.4840  -29.7410   13.1150 C   0  0  0  0  0
   17.9480  -28.3090   13.2660 O   0  0  0  0  0
   18.4900  -30.6210   13.9570 C   0  0  0  0  0
   18.6920  -31.8300   13.4580 N   0  0  0  0  0
   17.8390  -32.8730   13.2930 C   0  0  0  0  0
   18.5470  -33.9070   12.7550 N   0  0  0  0  0
   19.8420  -33.4960   12.5980 C   0  0  0  0  0
   20.9780  -34.1520   12.0980 C   0  0  0  0  0
   20.9750  -35.5150   11.6130 N   0  0  0  0  0
   22.1750  -33.4980   12.0530 N   0  0  0  0  0
   22.2640  -32.2070   12.4970 C   0  0  0  0  0
   21.1460  -31.5640   12.9850 N   0  0  0  0  0
   19.9350  -32.2210   13.0370 C   0  0  0  0  0
   13.1895  -27.0860   12.9965 H   0  0  0  0  0
   11.7297  -28.9022   13.8419 H   0  0  0  0  0
   12.9835  -29.6305   14.8233 H   0  0  0  0  0
   10.8707  -30.9990   14.9511 H   0  0  0  0  0
   13.4016  -32.1782   13.7373 H   0  0  0  0  0
   12.0452  -34.1665   13.1124 H   0  0  0  0  0
   10.0053  -34.5298   14.1906 H   0  0  0  0  0
    9.7253  -33.0750   12.6589 H   0  0  0  0  0
   12.4723  -31.2730   11.3124 H   0  0  0  0  0
   13.0995  -33.9549    6.7210 H   0  0  0  0  0
   12.2817  -35.4676    6.3157 H   0  0  0  0  0
    9.6133  -36.9106    9.3883 H   0  0  0  0  0
   14.3434  -32.5379   17.8339 H   0  0  0  0  0
   16.0349  -31.3701   16.8807 H   0  0  0  0  0
   14.7699  -30.3170   16.2186 H   0  0  0  0  0
   16.6811  -29.1578   15.7850 H   0  0  0  0  0
   15.7859  -30.7122   13.2111 H   0  0  0  0  0
   17.4384  -30.0137   12.0607 H   0  0  0  0  0
   18.8099  -28.2081   12.8554 H   0  0  0  0  0
   19.4832  -30.1721   13.9706 H   0  0  0  0  0
   16.7786  -32.8824   13.5452 H   0  0  0  0  0
   20.1114  -36.0576   11.6220 H   0  0  0  0  0
   21.8365  -35.9333   11.2620 H   0  0  0  0  0
   23.2207  -31.6856   12.4649 H   0  0  0  0  0
  1  2  2  0  0  0
  1  3  1  0  0  0
  1  4  1  0  0  0
  1 31  1  0  0  0
  4  5  1  0  0  0
  5  6  1  0  0  0
  6  7  1  0  0  0
  6  8  1  0  0  0
  7 12  1  0  0  0
  8  9  1  0  0  0
  8 10  1  0  0  0
  9 23  1  0  0  0
 10 11  1  0  0  0
 10 12  1  0  0  0
 12 13  1  0  0  0
 13 14  4  0  0  0
 13 22  4  0  0  0
 14 15  4  0  0  0
 15 16  4  0  0  0
 16 17  4  0  0  0
 16 22  4  0  0  0
 17 18  1  0  0  0
 17 19  4  0  0  0
 19 20  4  0  0  0
 20 21  4  0  0  0
 21 22  4  0  0  0
 23 24  2  0  0  0
 23 25  1  0  0  0
 23 26  1  0  0  0
 26 27  1  0  0  0
 27 28  1  0  0  0
 28 29  1  0  0  0
 28 30  1  0  0  0
 29 34  1  0  0  0
 30 31  1  0  0  0
 30 32  1  0  0  0
 32 33  1  0  0  0
 32 34  1  0  0  0
 34 35  1  0  0  0
 35 36  4  0  0  0
 35 44  4  0  0  0
 36 37  4  0  0  0
 37 38  4  0  0  0
 38 39  4  0  0  0
 38 44  4  0  0  0
 39 40  1  0  0  0
 39 41  4  0  0  0
 41 42  4  0  0  0
 42 43  4  0  0  0
 43 44  4  0  0  0
  3 45  1  0  0  0
  5 46  1  0  0  0
  5 47  1  0  0  0
  6 48  1  0  0  0
  8 49  1  0  0  0
 10 50  1  0  0  0
 11 51  1  0  0  0
 12 52  1  0  0  0
 14 53  1  0  0  0
 18 54  1  0  0  0
 18 55  1  0  0  0
 20 56  1  0  0  0
 25 57  1  0  0  0
 27 58  1  0  0  0
 27 59  1  0  0  0
 28 60  1  0  0  0
 30 61  1  0  0  0
 32 62  1  0  0  0
 33 63  1  0  0  0
 34 64  1  0  0  0
 36 65  1  0  0  0
 40 66  1  0  0  0
 40 67  1  0  0  0
 42 68  1  0  0  0
M  END
$$$$
