4ycu_ligand
  -I-interpret- 

 41 43  0  0  0  0  0  0  0  0999 V2000
   12.0660    4.7950   26.1600 O   0  0  0  0  0
   12.3790    3.6330   25.9600 C   0  0  0  0  0
   12.9240    2.7720   27.0560 C   0  0  0  0  0
   13.1790    1.3500   26.7510 C   0  0  0  0  0
   13.6840    0.5300   27.7530 C   0  0  0  0  0
   13.9460    1.0340   29.0280 C   0  0  0  0  0
   14.4400    0.1950   29.9810 O   0  0  0  0  0
   13.7160    2.3720   29.3570 C   0  0  0  0  0
   13.2130    3.2690   28.4210 C   0  0  0  0  0
   12.9930    4.5720   28.7510 O   0  0  0  0  0
   12.2250    3.0570   24.6310 O   0  0  0  0  0
   11.8340    1.6790   24.6570 C   0  0  0  0  0
   12.8900    0.8230   25.3610 C   0  0  0  0  0
   11.6400    1.1780   23.2310 C   0  0  0  0  0
   10.4830    1.9010   22.5500 C   0  0  0  0  0
    9.2350    1.4040   23.0370 O   0  0  0  0  0
    9.0710    0.0030   22.8180 C   0  0  0  0  0
    7.7760   -0.4640   23.4720 C   0  0  0  0  0
    9.0610   -0.2840   21.3220 C   0  0  0  0  0
   10.3290    0.2430   20.6630 C   0  0  0  0  0
   10.5690    1.7000   21.0410 C   0  0  0  0  0
   13.8782   -0.5213   27.5403 H   0  0  0  0  0
   14.5680    0.6814   30.7987 H   0  0  0  0  0
   13.9350    2.7195   30.3666 H   0  0  0  0  0
   13.2347    4.7136   29.6692 H   0  0  0  0  0
   10.8985    1.5962   25.2102 H   0  0  0  0  0
   12.5137   -0.1965   25.4453 H   0  0  0  0  0
   13.8102    0.8537   24.7775 H   0  0  0  0  0
   11.4158    0.1118   23.2626 H   0  0  0  0  0
   12.5525    1.3690   22.6662 H   0  0  0  0  0
   10.5480    2.9654   22.7757 H   0  0  0  0  0
    9.9018   -0.5423   23.2657 H   0  0  0  0  0
    7.8190   -0.2651   24.5428 H   0  0  0  0  0
    6.9350    0.0741   23.0347 H   0  0  0  0  0
    7.6511   -1.5338   23.3046 H   0  0  0  0  0
    8.1996    0.2116   20.8743 H   0  0  0  0  0
    9.0078   -1.3622   21.1708 H   0  0  0  0  0
   10.2178    0.1740   19.5809 H   0  0  0  0  0
   11.1760   -0.3528   21.0032 H   0  0  0  0  0
   11.5672    1.9852   20.7089 H   0  0  0  0  0
    9.8039    2.3130   20.5647 H   0  0  0  0  0
  1  2  2  0  0  0
  2  3  1  0  0  0
  2 11  1  0  0  0
  3  4  4  0  0  0
  3  9  4  0  0  0
  4  5  4  0  0  0
  4 13  1  0  0  0
  5  6  4  0  0  0
  6  7  1  0  0  0
  6  8  4  0  0  0
  8  9  4  0  0  0
  9 10  1  0  0  0
 11 12  1  0  0  0
 12 13  1  0  0  0
 12 14  1  0  0  0
 14 15  1  0  0  0
 15 16  1  0  0  0
 15 21  1  0  0  0
 16 17  1  0  0  0
 17 18  1  0  0  0
 17 19  1  0  0  0
 19 20  1  0  0  0
 20 21  1  0  0  0
  5 22  1  0  0  0
  7 23  1  0  0  0
  8 24  1  0  0  0
 10 25  1  0  0  0
 12 26  1  0  0  0
 13 27  1  0  0  0
 13 28  1  0  0  0
 14 29  1  0  0  0
 14 30  1  0  0  0
 15 31  1  0  0  0
 17 32  1  0  0  0
 18 33  1  0  0  0
 18 34  1  0  0  0
 18 35  1  0  0  0
 19 36  1  0  0  0
 19 37  1  0  0  0
 20 38  1  0  0  0
 20 39  1  0  0  0
 21 40  1  0  0  0
 21 41  1  0  0  0
M  END
$$$$
