3t8w_ligand
  -I-interpret- 

144148  0  0  0  0  0  0  0  0999 V2000
   76.5630   62.7420   32.0840 C   0  0  0  0  0
   83.2310   63.8050   30.3610 N   0  0  0  0  0
   82.4700   62.5250   32.0460 O   0  0  0  0  0
   77.4740   63.6510   31.7780 C   0  0  0  0  0
   89.3820   62.5000   28.3330 N   0  0  0  0  0
   89.8290   60.4720   29.2050 O   0  0  0  0  0
   78.7990   63.2450   31.1730 C   0  0  0  0  0
   91.6270   63.6140   29.4950 N   0  0  0  0  0
   87.5030   66.1150   34.5460 O   0  0  0  0  0
   79.9370   63.6830   32.0910 C   0  0  0  0  0
   88.9960   70.3760   30.5470 N   0  0  0  0  0
   92.5970   63.4310   27.4930 O   0  0  0  0  0
   81.0770   64.3290   31.3050 C   0  0  0  0  0
   88.8860   73.7290   30.9320 N   0  0  0  0  0
   93.1380   66.1190   29.5470 O   0  0  0  0  0
   82.3220   63.4630   31.2750 C   0  0  0  0  0
   84.7250   75.8400   30.2110 N   0  3  0  0  0
   90.6310   68.2580   31.1320 O   0  0  0  0  0
   84.4970   63.1240   30.1560 C   0  0  0  0  0
   89.3490   61.8950   25.5120 N   0  0  0  0  0
   88.6790   71.4410   32.5060 O   0  0  0  0  0
   85.0840   63.4500   28.7850 C   0  0  0  0  0
   87.6900   73.2930   29.0520 O   0  0  0  0  0
   86.5940   63.6580   28.8340 C   0  0  0  0  0
   87.4020   76.1220   29.4620 O   0  0  0  0  0
   87.2410   63.3020   27.4990 C   0  0  0  0  0
   87.7340   60.4430   26.0420 O   0  0  0  0  0
   88.1650   62.0990   27.6510 C   0  0  0  0  0
   90.1180   61.6520   29.0540 C   0  0  0  0  0
   91.3400   62.2010   29.7420 C   0  0  0  0  0
   91.1590   61.9720   31.2460 C   0  0  0  0  0
   90.1280   62.9350   31.8130 C   0  0  0  0  0
   88.7800   62.5690   31.9250 C   0  0  0  0  0
   87.8440   63.4800   32.4250 C   0  0  0  0  0
   88.2570   64.7570   32.8140 C   0  0  0  0  0
   87.2990   65.7480   33.4020 C   0  0  0  0  0
   86.1340   66.2910   32.6140 C   0  0  0  0  0
   84.9100   66.5580   33.2410 C   0  0  0  0  0
   83.8170   67.0450   32.5180 C   0  0  0  0  0
   83.9680   67.3210   31.1580 C   0  0  0  0  0
   85.1910   67.0790   30.5290 C   0  0  0  0  0
   86.2720   66.5660   31.2530 C   0  0  0  0  0
   89.6010   65.1150   32.7220 C   0  0  0  0  0
   90.5330   64.2130   32.2120 C   0  0  0  0  0
   92.2370   64.1230   28.4290 C   0  0  0  0  0
   92.4330   65.6320   28.4020 C   0  0  0  0  0
   92.2880   66.6170   30.5790 C   0  0  0  0  0
   91.4900   67.8170   30.0900 C   0  0  0  0  0
   89.2840   67.9260   30.8120 C   0  0  0  0  0
   88.3570   69.1310   30.9380 C   0  0  0  0  0
   89.1250   71.4130   31.3700 C   0  0  0  0  0
   89.7950   72.6220   30.7900 C   0  0  0  0  0
   91.1160   72.9220   31.4880 C   0  0  0  0  0
   92.1910   72.0220   30.9270 C   0  0  0  0  0
   92.3280   71.8510   29.5420 C   0  0  0  0  0
   93.2970   70.9790   29.0450 C   0  0  0  0  0
   94.1690   70.3340   29.9200 C   0  0  0  0  0
   95.1510   69.4730   29.4140 C   0  0  0  0  0
   96.0070   68.8000   30.2900 C   0  0  0  0  0
   95.8930   68.9990   31.6710 C   0  0  0  0  0
   94.8920   69.8350   32.1790 C   0  0  0  0  0
   94.0400   70.5160   31.3050 C   0  0  0  0  0
   93.0570   71.3740   31.8080 C   0  0  0  0  0
   87.8920   73.9340   30.0730 C   0  0  0  0  0
   87.0310   75.1020   30.3910 C   0  0  0  0  0
   85.5640   74.6680   30.3320 C   0  0  0  0  0
   85.2180   74.0130   31.6670 C   0  0  0  0  0
   84.2130   72.8920   31.5310 C   0  0  0  0  0
   83.0060   72.9470   32.2450 C   0  0  0  0  0
   82.0840   71.8880   32.1630 C   0  0  0  0  0
   82.3820   70.7760   31.3700 C   0  0  0  0  0
   83.6070   70.7030   30.6910 C   0  0  0  0  0
   84.5190   71.7630   30.7620 C   0  0  0  0  0
   88.4070   61.4210   26.3320 C   0  0  0  0  0
   76.7633   61.6864   31.9005 H   0  0  0  0  0
   75.6120   63.0486   32.5196 H   0  0  0  0  0
   83.0215   64.6036   29.7620 H   0  0  0  0  0
   77.2671   64.7049   31.9641 H   0  0  0  0  0
   89.6873   63.4703   28.2580 H   0  0  0  0  0
   78.9143   63.7227   30.2001 H   0  0  0  0  0
   78.8261   62.1618   31.0542 H   0  0  0  0  0
   91.3293   64.2750   30.2125 H   0  0  0  0  0
   80.3264   62.8020   32.6011 H   0  0  0  0  0
   79.5470   64.4160   32.7972 H   0  0  0  0  0
   89.3622   70.4585   29.5986 H   0  0  0  0  0
   81.3322   65.2698   31.7927 H   0  0  0  0  0
   80.7404   64.4714   30.2781 H   0  0  0  0  0
   89.0077   74.3738   31.7129 H   0  0  0  0  0
   83.7468   75.5538   30.1715 H   0  0  0  0  0
   84.8708   76.4459   31.0185 H   0  0  0  0  0
   84.9678   76.3439   29.3580 H   0  0  0  0  0
   84.3271   62.0489   30.2149 H   0  0  0  0  0
   85.1981   63.4551   30.9221 H   0  0  0  0  0
   89.5223   61.4386   24.6164 H   0  0  0  0  0
   89.8950   62.7134   25.7814 H   0  0  0  0  0
   84.6272   64.3753   28.4338 H   0  0  0  0  0
   84.8807   62.6088   28.1223 H   0  0  0  0  0
   87.0103   63.0117   29.6067 H   0  0  0  0  0
   86.7947   64.7073   29.0501 H   0  0  0  0  0
   86.8731   76.9070   29.6223 H   0  0  0  0  0
   87.8262   64.1540   27.1530 H   0  0  0  0  0
   86.4574   63.0558   26.7825 H   0  0  0  0  0
   87.6825   61.3456   28.2737 H   0  0  0  0  0
   92.1976   61.6725   29.3257 H   0  0  0  0  0
   92.1126   62.1403   31.7464 H   0  0  0  0  0
   90.8157   60.9504   31.4092 H   0  0  0  0  0
   88.4602   61.5721   31.6218 H   0  0  0  0  0
   86.7955   63.1947   32.5110 H   0  0  0  0  0
   84.8080   66.3829   34.3120 H   0  0  0  0  0
   82.8582   67.2073   33.0105 H   0  0  0  0  0
   83.1318   67.7251   30.5874 H   0  0  0  0  0
   85.3040   67.2915   29.4659 H   0  0  0  0  0
   87.2231   66.3809   30.7537 H   0  0  0  0  0
   89.9239   66.1031   33.0498 H   0  0  0  0  0
   91.5797   64.5041   32.1239 H   0  0  0  0  0
   93.0219   65.8767   27.5180 H   0  0  0  0  0
   91.4471   66.0969   28.3940 H   0  0  0  0  0
   92.9042   66.9253   31.4236 H   0  0  0  0  0
   91.5940   65.8297   30.8731 H   0  0  0  0  0
   92.1705   68.6211   29.8100 H   0  0  0  0  0
   90.8970   67.5340   29.2203 H   0  0  0  0  0
   88.9456   67.1596   31.5092 H   0  0  0  0  0
   89.2535   67.5773   29.7797 H   0  0  0  0  0
   87.5072   68.9693   30.2749 H   0  0  0  0  0
   88.0651   69.2198   31.9844 H   0  0  0  0  0
   90.0303   72.4447   29.7406 H   0  0  0  0  0
   91.0123   72.7440   32.5584 H   0  0  0  0  0
   91.3886   73.9642   31.3218 H   0  0  0  0  0
   91.6800   72.3972   28.8565 H   0  0  0  0  0
   93.3720   70.8022   27.9721 H   0  0  0  0  0
   95.2475   69.3280   28.3380 H   0  0  0  0  0
   96.7634   68.1201   29.8980 H   0  0  0  0  0
   96.5846   68.5023   32.3515 H   0  0  0  0  0
   94.7769   69.9550   33.2562 H   0  0  0  0  0
   92.9679   71.5355   32.8823 H   0  0  0  0  0
   87.1636   75.4987   31.3976 H   0  0  0  0  0
   85.4102   73.9931   29.4900 H   0  0  0  0  0
   84.7788   74.7772   32.3082 H   0  0  0  0  0
   86.1349   73.5895   32.0769 H   0  0  0  0  0
   82.7821   73.8144   32.8659 H   0  0  0  0  0
   81.1444   71.9340   32.7135 H   0  0  0  0  0
   81.6607   69.9639   31.2792 H   0  0  0  0  0
   83.8503   69.8166   30.1051 H   0  0  0  0  0
   85.4635   71.7093   30.2206 H   0  0  0  0  0
  4  1  2  0  0  0
  2 16  1  0  0  0
 19  2  1  0  0  0
 16  3  2  0  0  0
  7  4  1  0  0  0
  5 28  1  0  0  0
 29  5  1  0  0  0
 29  6  2  0  0  0
 10  7  1  0  0  0
  8 30  1  0  0  0
 45  8  1  0  0  0
 36  9  2  0  0  0
 13 10  1  0  0  0
 11 50  1  0  0  0
 51 11  1  0  0  0
 45 12  2  0  0  0
 16 13  1  0  0  0
 14 52  1  0  0  0
 64 14  1  0  0  0
 15 46  1  0  0  0
 47 15  1  0  0  0
 66 17  1  0  0  0
 18 48  1  0  0  0
 49 18  1  0  0  0
 22 19  1  0  0  0
 74 20  1  0  0  0
 51 21  2  0  0  0
 24 22  1  0  0  0
 64 23  2  0  0  0
 26 24  1  0  0  0
 65 25  1  0  0  0
 28 26  1  0  0  0
 74 27  2  0  0  0
 28 74  1  0  0  0
 30 29  1  0  0  0
 30 31  1  0  0  0
 31 32  1  0  0  0
 32 33  4  0  0  0
 32 44  4  0  0  0
 33 34  4  0  0  0
 34 35  4  0  0  0
 35 36  1  0  0  0
 43 35  4  0  0  0
 36 37  1  0  0  0
 37 38  4  0  0  0
 37 42  4  0  0  0
 38 39  4  0  0  0
 39 40  4  0  0  0
 41 40  4  0  0  0
 42 41  4  0  0  0
 44 43  4  0  0  0
 46 45  1  0  0  0
 48 47  1  0  0  0
 50 49  1  0  0  0
 52 51  1  0  0  0
 52 53  1  0  0  0
 53 54  1  0  0  0
 54 55  4  0  0  0
 54 63  4  0  0  0
 55 56  4  0  0  0
 56 57  4  0  0  0
 57 58  4  0  0  0
 62 57  4  0  0  0
 58 59  4  0  0  0
 60 59  4  0  0  0
 61 60  4  0  0  0
 62 61  4  0  0  0
 63 62  4  0  0  0
 65 64  1  0  0  0
 65 66  1  0  0  0
 66 67  1  0  0  0
 67 68  1  0  0  0
 68 69  4  0  0  0
 68 73  4  0  0  0
 69 70  4  0  0  0
 70 71  4  0  0  0
 71 72  4  0  0  0
 72 73  4  0  0  0
  1 75  1  0  0  0
  1 76  1  0  0  0
  2 77  1  0  0  0
  4 78  1  0  0  0
  5 79  1  0  0  0
  7 80  1  0  0  0
  7 81  1  0  0  0
  8 82  1  0  0  0
 10 83  1  0  0  0
 10 84  1  0  0  0
 11 85  1  0  0  0
 13 86  1  0  0  0
 13 87  1  0  0  0
 14 88  1  0  0  0
 17 89  1  0  0  0
 17 90  1  0  0  0
 17 91  1  0  0  0
 19 92  1  0  0  0
 19 93  1  0  0  0
 20 94  1  0  0  0
 20 95  1  0  0  0
 22 96  1  0  0  0
 22 97  1  0  0  0
 24 98  1  0  0  0
 24 99  1  0  0  0
 25100  1  0  0  0
 26101  1  0  0  0
 26102  1  0  0  0
 28103  1  0  0  0
 30104  1  0  0  0
 31105  1  0  0  0
 31106  1  0  0  0
 33107  1  0  0  0
 34108  1  0  0  0
 38109  1  0  0  0
 39110  1  0  0  0
 40111  1  0  0  0
 41112  1  0  0  0
 42113  1  0  0  0
 43114  1  0  0  0
 44115  1  0  0  0
 46116  1  0  0  0
 46117  1  0  0  0
 47118  1  0  0  0
 47119  1  0  0  0
 48120  1  0  0  0
 48121  1  0  0  0
 49122  1  0  0  0
 49123  1  0  0  0
 50124  1  0  0  0
 50125  1  0  0  0
 52126  1  0  0  0
 53127  1  0  0  0
 53128  1  0  0  0
 55129  1  0  0  0
 56130  1  0  0  0
 58131  1  0  0  0
 59132  1  0  0  0
 60133  1  0  0  0
 61134  1  0  0  0
 63135  1  0  0  0
 65136  1  0  0  0
 66137  1  0  0  0
 67138  1  0  0  0
 67139  1  0  0  0
 69140  1  0  0  0
 70141  1  0  0  0
 71142  1  0  0  0
 72143  1  0  0  0
 73144  1  0  0  0
M  END
$$$$
