### 
### Created by X-TOOL on Mon Sep 10 21:13:05 2018
### 

@<TRIPOS>MOLECULE
3t8w_ligand
  144   148     1     0     0
SMALL
GAST_HUCK


@<TRIPOS>ATOM
      1 C1         76.5630   62.7420   32.0840 C.2       1 DGZ        -0.1175
      2 N1         83.2310   63.8050   30.3610 N.am      1 DGZ        -0.2870
      3 O1         82.4700   62.5250   32.0460 O.2       1 DGZ        -0.3971
      4 C2         77.4740   63.6510   31.7780 C.2       1 DGZ        -0.0891
      5 N2         89.3820   62.5000   28.3330 N.am      1 DGZ        -0.2636
      6 O2         89.8290   60.4720   29.2050 O.2       1 DGZ        -0.3942
      7 C3         78.7990   63.2450   31.1730 C.3       1 DGZ        -0.0229
      8 N3         91.6270   63.6140   29.4950 N.am      1 DGZ        -0.2618
      9 O3         87.5030   66.1150   34.5460 O.2       1 DGZ        -0.3706
     10 C4         79.9370   63.6830   32.0910 C.3       1 DGZ        -0.0257
     11 N4         88.9960   70.3760   30.5470 N.am      1 DGZ        -0.2827
     12 O4         92.5970   63.4310   27.4930 O.2       1 DGZ        -0.3944
     13 C5         81.0770   64.3290   31.3050 C.3       1 DGZ         0.0393
     14 N5         88.8860   73.7290   30.9320 N.am      1 DGZ        -0.2615
     15 O5         93.1380   66.1190   29.5470 O.3       1 DGZ        -0.3572
     16 C6         82.3220   63.4630   31.2750 C.2       1 DGZ         0.1761
     17 N6         84.7250   75.8400   30.2110 N.4       1 DGZ         0.2258
     18 O6         90.6310   68.2580   31.1320 O.3       1 DGZ        -0.3755
     19 C7         84.4970   63.1240   30.1560 C.3       1 DGZ         0.0309
     20 N7         89.3490   61.8950   25.5120 N.am      1 DGZ        -0.2990
     21 O7         88.6790   71.4410   32.5060 O.2       1 DGZ        -0.3943
     22 C8         85.0840   63.4500   28.7850 C.3       1 DGZ        -0.0325
     23 O8         87.6900   73.2930   29.0520 O.2       1 DGZ        -0.3938
     24 C9         86.5940   63.6580   28.8340 C.3       1 DGZ        -0.0470
     25 O9         87.4020   76.1220   29.4620 O.3       1 DGZ        -0.3664
     26 C10        87.2410   63.3020   27.4990 C.3       1 DGZ        -0.0123
     27 O10        87.7340   60.4430   26.0420 O.2       1 DGZ        -0.3947
     28 C11        88.1650   62.0990   27.6510 C.3       1 DGZ         0.1306
     29 C12        90.1180   61.6520   29.0540 C.2       1 DGZ         0.2061
     30 C13        91.3400   62.2010   29.7420 C.3       1 DGZ         0.1411
     31 C14        91.1590   61.9720   31.2460 C.3       1 DGZ         0.0237
     32 C15        90.1280   62.9350   31.8130 C.ar      1 DGZ        -0.0336
     33 C16        88.7800   62.5690   31.9250 C.ar      1 DGZ        -0.0540
     34 C17        87.8440   63.4800   32.4250 C.ar      1 DGZ        -0.0499
     35 C18        88.2570   64.7570   32.8140 C.ar      1 DGZ         0.0271
     36 C19        87.2990   65.7480   33.4020 C.2       1 DGZ         0.1555
     37 C20        86.1340   66.2910   32.6140 C.ar      1 DGZ         0.0329
     38 C21        84.9100   66.5580   33.2410 C.ar      1 DGZ        -0.0435
     39 C22        83.8170   67.0450   32.5180 C.ar      1 DGZ        -0.0561
     40 C23        83.9680   67.3210   31.1580 C.ar      1 DGZ        -0.0574
     41 C24        85.1910   67.0790   30.5290 C.ar      1 DGZ        -0.0561
     42 C25        86.2720   66.5660   31.2530 C.ar      1 DGZ        -0.0435
     43 C26        89.6010   65.1150   32.7220 C.ar      1 DGZ        -0.0499
     44 C27        90.5330   64.2130   32.2120 C.ar      1 DGZ        -0.0540
     45 C28        92.2370   64.1230   28.4290 C.2       1 DGZ         0.2045
     46 C29        92.4330   65.6320   28.4020 C.3       1 DGZ         0.1368
     47 C30        92.2880   66.6170   30.5790 C.3       1 DGZ         0.0740
     48 C31        91.4900   67.8170   30.0900 C.3       1 DGZ         0.0713
     49 C32        89.2840   67.9260   30.8120 C.3       1 DGZ         0.0678
     50 C33        88.3570   69.1310   30.9380 C.3       1 DGZ         0.0543
     51 C34        89.1250   71.4130   31.3700 C.2       1 DGZ         0.2038
     52 C35        89.7950   72.6220   30.7900 C.3       1 DGZ         0.1404
     53 C36        91.1160   72.9220   31.4880 C.3       1 DGZ         0.0216
     54 C37        92.1910   72.0220   30.9270 C.ar      1 DGZ        -0.0377
     55 C38        92.3280   71.8510   29.5420 C.ar      1 DGZ        -0.0564
     56 C39        93.2970   70.9790   29.0450 C.ar      1 DGZ        -0.0567
     57 C40        94.1690   70.3340   29.9200 C.ar      1 DGZ        -0.0222
     58 C41        95.1510   69.4730   29.4140 C.ar      1 DGZ        -0.0568
     59 C42        96.0070   68.8000   30.2900 C.ar      1 DGZ        -0.0634
     60 C43        95.8930   68.9990   31.6710 C.ar      1 DGZ        -0.0637
     61 C44        94.8920   69.8350   32.1790 C.ar      1 DGZ        -0.0578
     62 C45        94.0400   70.5160   31.3050 C.ar      1 DGZ        -0.0259
     63 C46        93.0570   71.3740   31.8080 C.ar      1 DGZ        -0.0547
     64 C47        87.8920   73.9340   30.0730 C.2       1 DGZ         0.2131
     65 C48        87.0310   75.1020   30.3910 C.3       1 DGZ         0.1882
     66 C49        85.5640   74.6680   30.3320 C.3       1 DGZ         0.0291
     67 C50        85.2180   74.0130   31.6670 C.3       1 DGZ         0.0287
     68 C51        84.2130   72.8920   31.5310 C.ar      1 DGZ        -0.0374
     69 C52        83.0060   72.9470   32.2450 C.ar      1 DGZ        -0.0601
     70 C53        82.0840   71.8880   32.1630 C.ar      1 DGZ        -0.0686
     71 C54        82.3820   70.7760   31.3700 C.ar      1 DGZ        -0.0687
     72 C55        83.6070   70.7030   30.6910 C.ar      1 DGZ        -0.0686
     73 C56        84.5190   71.7630   30.7620 C.ar      1 DGZ        -0.0601
     74 C57        88.4070   61.4210   26.3320 C.2       1 DGZ         0.1992
     75 H          76.7633   61.6864   31.9005 H         1 DGZ         0.0290
     76 H          75.6120   63.0486   32.5196 H         1 DGZ         0.0290
     77 H          83.0215   64.6036   29.7620 H         1 DGZ         0.1850
     78 H          77.2671   64.7049   31.9641 H         1 DGZ         0.0672
     79 H          89.6873   63.4703   28.2580 H         1 DGZ         0.1883
     80 H          78.9143   63.7227   30.2001 H         1 DGZ         0.0444
     81 H          78.8261   62.1618   31.0542 H         1 DGZ         0.0444
     82 H          91.3293   64.2750   30.2125 H         1 DGZ         0.1885
     83 H          80.3264   62.8020   32.6011 H         1 DGZ         0.0315
     84 H          79.5470   64.4160   32.7972 H         1 DGZ         0.0315
     85 H          89.3622   70.4585   29.5986 H         1 DGZ         0.1852
     86 H          81.3322   65.2698   31.7927 H         1 DGZ         0.0504
     87 H          80.7404   64.4714   30.2781 H         1 DGZ         0.0504
     88 H          89.0077   74.3738   31.7129 H         1 DGZ         0.1885
     89 H          83.7468   75.5538   30.1715 H         1 DGZ         0.2001
     90 H          84.8708   76.4459   31.0185 H         1 DGZ         0.2001
     91 H          84.9678   76.3439   29.3580 H         1 DGZ         0.2001
     92 H          84.3271   62.0489   30.2149 H         1 DGZ         0.0520
     93 H          85.1981   63.4551   30.9221 H         1 DGZ         0.0520
     94 H          89.5223   61.4386   24.6164 H         1 DGZ         0.1815
     95 H          89.8950   62.7134   25.7814 H         1 DGZ         0.1815
     96 H          84.6272   64.3753   28.4338 H         1 DGZ         0.0285
     97 H          84.8807   62.6088   28.1223 H         1 DGZ         0.0285
     98 H          87.0103   63.0117   29.6067 H         1 DGZ         0.0268
     99 H          86.7947   64.7073   29.0501 H         1 DGZ         0.0268
    100 H          87.2495   75.8092   28.5673 H         1 DGZ         0.2136
    101 H          87.8262   64.1540   27.1530 H         1 DGZ         0.0312
    102 H          86.4574   63.0558   26.7825 H         1 DGZ         0.0312
    103 H          87.6825   61.3456   28.2737 H         1 DGZ         0.0800
    104 H          92.1976   61.6725   29.3257 H         1 DGZ         0.0825
    105 H          92.1126   62.1403   31.7464 H         1 DGZ         0.0484
    106 H          90.8157   60.9504   31.4092 H         1 DGZ         0.0484
    107 H          88.4602   61.5721   31.6218 H         1 DGZ         0.0571
    108 H          86.7955   63.1947   32.5110 H         1 DGZ         0.0653
    109 H          84.8080   66.3829   34.3120 H         1 DGZ         0.0670
    110 H          82.8582   67.2073   33.0105 H         1 DGZ         0.0630
    111 H          83.1318   67.7251   30.5874 H         1 DGZ         0.0654
    112 H          85.3040   67.2915   29.4659 H         1 DGZ         0.0630
    113 H          87.2231   66.3809   30.7537 H         1 DGZ         0.0670
    114 H          89.9239   66.1031   33.0498 H         1 DGZ         0.0653
    115 H          91.5797   64.5041   32.1239 H         1 DGZ         0.0571
    116 H          93.0219   65.8767   27.5180 H         1 DGZ         0.0804
    117 H          91.4471   66.0969   28.3940 H         1 DGZ         0.0804
    118 H          92.9042   66.9253   31.4236 H         1 DGZ         0.0585
    119 H          91.5940   65.8297   30.8731 H         1 DGZ         0.0585
    120 H          92.1705   68.6211   29.8100 H         1 DGZ         0.0583
    121 H          90.8970   67.5340   29.2203 H         1 DGZ         0.0583
    122 H          88.9456   67.1596   31.5092 H         1 DGZ         0.0580
    123 H          89.2535   67.5773   29.7797 H         1 DGZ         0.0580
    124 H          87.5072   68.9693   30.2749 H         1 DGZ         0.0543
    125 H          88.0651   69.2198   31.9844 H         1 DGZ         0.0543
    126 H          90.0303   72.4447   29.7406 H         1 DGZ         0.0824
    127 H          91.0123   72.7440   32.5584 H         1 DGZ         0.0476
    128 H          91.3886   73.9642   31.3218 H         1 DGZ         0.0476
    129 H          91.6800   72.3972   28.8565 H         1 DGZ         0.0586
    130 H          93.3720   70.8022   27.9721 H         1 DGZ         0.0620
    131 H          95.2475   69.3280   28.3380 H         1 DGZ         0.0619
    132 H          96.7634   68.1201   29.8980 H         1 DGZ         0.0598
    133 H          96.5846   68.5023   32.3515 H         1 DGZ         0.0611
    134 H          94.7769   69.9550   33.2562 H         1 DGZ         0.0603
    135 H          92.9679   71.5355   32.8823 H         1 DGZ         0.0531
    136 H          87.1636   75.4987   31.3976 H         1 DGZ         0.0898
    137 H          85.4102   73.9931   29.4900 H         1 DGZ         0.0926
    138 H          84.7788   74.7772   32.3082 H         1 DGZ         0.0484
    139 H          86.1349   73.5895   32.0769 H         1 DGZ         0.0484
    140 H          82.7821   73.8144   32.8659 H         1 DGZ         0.0557
    141 H          81.1444   71.9340   32.7135 H         1 DGZ         0.0599
    142 H          81.6607   69.9639   31.2792 H         1 DGZ         0.0559
    143 H          83.8503   69.8166   30.1051 H         1 DGZ         0.0599
    144 H          85.4635   71.7093   30.2206 H         1 DGZ         0.0557
@<TRIPOS>BOND
     1    4    1 2  
     2    2   16 am 
     3   19    2 1  
     4   16    3 2  
     5    7    4 1  
     6    5   28 1  
     7   29    5 am 
     8   29    6 2  
     9   10    7 1  
    10    8   30 1  
    11   45    8 am 
    12   36    9 2  
    13   13   10 1  
    14   11   50 1  
    15   51   11 am 
    16   45   12 2  
    17   16   13 1  
    18   14   52 1  
    19   64   14 am 
    20   15   46 1  
    21   47   15 1  
    22   66   17 1  
    23   18   48 1  
    24   49   18 1  
    25   22   19 1  
    26   74   20 am 
    27   51   21 2  
    28   24   22 1  
    29   64   23 2  
    30   26   24 1  
    31   65   25 1  
    32   28   26 1  
    33   74   27 2  
    34   28   74 1  
    35   30   29 1  
    36   30   31 1  
    37   31   32 1  
    38   32   33 ar 
    39   32   44 ar 
    40   33   34 ar 
    41   34   35 ar 
    42   35   36 1  
    43   43   35 ar 
    44   36   37 1  
    45   37   38 ar 
    46   37   42 ar 
    47   38   39 ar 
    48   39   40 ar 
    49   41   40 ar 
    50   42   41 ar 
    51   44   43 ar 
    52   46   45 1  
    53   48   47 1  
    54   50   49 1  
    55   52   51 1  
    56   52   53 1  
    57   53   54 1  
    58   54   55 ar 
    59   54   63 ar 
    60   55   56 ar 
    61   56   57 ar 
    62   57   58 ar 
    63   62   57 ar 
    64   58   59 ar 
    65   60   59 ar 
    66   61   60 ar 
    67   62   61 ar 
    68   63   62 ar 
    69   65   64 1  
    70   65   66 1  
    71   66   67 1  
    72   67   68 1  
    73   68   69 ar 
    74   68   73 ar 
    75   69   70 ar 
    76   70   71 ar 
    77   71   72 ar 
    78   72   73 ar 
    79    1   75 1  
    80    1   76 1  
    81    2   77 1  
    82    4   78 1  
    83    5   79 1  
    84    7   80 1  
    85    7   81 1  
    86    8   82 1  
    87   10   83 1  
    88   10   84 1  
    89   11   85 1  
    90   13   86 1  
    91   13   87 1  
    92   14   88 1  
    93   17   89 1  
    94   17   90 1  
    95   17   91 1  
    96   19   92 1  
    97   19   93 1  
    98   20   94 1  
    99   20   95 1  
   100   22   96 1  
   101   22   97 1  
   102   24   98 1  
   103   24   99 1  
   104   25  100 1  
   105   26  101 1  
   106   26  102 1  
   107   28  103 1  
   108   30  104 1  
   109   31  105 1  
   110   31  106 1  
   111   33  107 1  
   112   34  108 1  
   113   38  109 1  
   114   39  110 1  
   115   40  111 1  
   116   41  112 1  
   117   42  113 1  
   118   43  114 1  
   119   44  115 1  
   120   46  116 1  
   121   46  117 1  
   122   47  118 1  
   123   47  119 1  
   124   48  120 1  
   125   48  121 1  
   126   49  122 1  
   127   49  123 1  
   128   50  124 1  
   129   50  125 1  
   130   52  126 1  
   131   53  127 1  
   132   53  128 1  
   133   55  129 1  
   134   56  130 1  
   135   58  131 1  
   136   59  132 1  
   137   60  133 1  
   138   61  134 1  
   139   63  135 1  
   140   65  136 1  
   141   66  137 1  
   142   67  138 1  
   143   67  139 1  
   144   69  140 1  
   145   70  141 1  
   146   71  142 1  
   147   72  143 1  
   148   73  144 1  
@<TRIPOS>SUBSTRUCTURE
     1 DGZ         1

