1b6m_ligand
  -I-interpret- 

 92 94  0  0  0  0  0  0  0  0999 V2000
    2.8080    1.9690   12.1240 O   0  0  0  0  0
    3.8350   -0.0320   12.0460 O   0  0  0  0  0
    1.0770    0.3200   12.6340 C   0  0  0  0  0
    0.5560    2.4860   11.5390 C   0  0  0  0  0
    1.8090    0.7650   10.2580 C   0  0  0  0  0
    1.5870    1.3710   11.6460 C   0  0  0  0  0
    3.8210    1.1580   12.3990 C   0  0  0  0  0
    4.8280    1.7130   13.0680 N   0  0  0  0  0
    6.0330    0.9660   13.4470 C   0  0  0  0  0
    7.2750    1.8050   13.1830 C   0  0  0  0  0
    7.4750    2.1320   11.7460 C   0  0  0  0  0
    7.8650    1.1460   10.8500 C   0  0  0  0  0
    7.2350    3.4170   11.2760 C   0  0  0  0  0
    8.0170    1.4350    9.5080 C   0  0  0  0  0
    7.3850    3.7170    9.9340 C   0  0  0  0  0
    7.7720    2.7230    9.0460 C   0  0  0  0  0
    6.0080    0.5390   14.9040 C   0  0  0  0  0
    7.2050   -0.1890   15.1920 O   0  0  0  0  0
    4.8040   -0.3490   15.1870 C   0  0  0  0  0
    4.8920   -0.7540   16.6000 N   0  3  0  0  0
    4.6730   -2.2010   16.8610 C   0  0  0  0  0
    3.2670   -2.6540   16.4460 C   0  0  0  0  0
    3.1210   -4.1510   16.5700 C   0  0  0  0  0
    3.0910   -4.7670   17.8230 C   0  0  0  0  0
    3.1310   -6.1480   17.9420 C   0  0  0  0  0
    3.1690   -4.9630   15.4390 C   0  0  0  0  0
    3.2090   -6.3390   15.5470 C   0  0  0  0  0
    3.1980   -6.9280   16.7950 C   0  0  0  0  0
    3.3050   -8.2960   16.8630 O   0  0  0  0  0
    3.7900   -8.9410   18.0290 C   0  0  0  0  0
    5.6890   -3.1860   16.2910 C   0  0  0  0  0
    5.9960   -3.1750   15.0970 O   0  0  0  0  0
    6.1870   -4.0500   17.1690 N   0  0  0  0  0
    7.1520   -5.1000   16.8150 C   0  0  0  0  0
    6.9120   -6.1780   17.8650 C   0  0  0  0  0
    7.0470   -5.9220   19.0640 O   0  0  0  0  0
    8.6280   -4.6370   16.8950 C   0  0  0  0  0
    8.8980   -3.5650   15.8390 C   0  0  0  0  0
    9.5670   -5.8310   16.6960 C   0  0  0  0  0
   10.3440   -3.3980   15.4840 C   0  0  0  0  0
    6.5080   -7.3620   17.4150 N   0  0  0  0  0
    6.2540   -8.4570   18.3350 C   0  0  0  0  0
    5.2130   -9.4540   17.8450 C   0  0  0  0  0
    0.1306   -0.0849   12.2755 H   0  0  0  0  0
    1.8089   -0.4834   12.7179 H   0  0  0  0  0
    0.9294    0.7821   13.6101 H   0  0  0  0  0
    0.9215    3.2528   10.8560 H   0  0  0  0  0
   -0.3811    2.0775   11.1608 H   0  0  0  0  0
    0.3920    2.9232   12.5239 H   0  0  0  0  0
    0.8677    0.3623    9.8840 H   0  0  0  0  0
    2.1704    1.5375    9.5792 H   0  0  0  0  0
    2.5465   -0.0348   10.3259 H   0  0  0  0  0
    4.7599    2.6970   13.3279 H   0  0  0  0  0
    6.0579    0.0638   12.8358 H   0  0  0  0  0
    8.1379    1.2251   13.5104 H   0  0  0  0  0
    7.1550    2.7461   13.7197 H   0  0  0  0  0
    8.0530    0.1341   11.2090 H   0  0  0  0  0
    6.9253    4.1968   11.9718 H   0  0  0  0  0
    8.3283    0.6552    8.8130 H   0  0  0  0  0
    7.2001    4.7296    9.5755 H   0  0  0  0  0
    7.8838    2.9523    7.9863 H   0  0  0  0  0
    5.9394    1.4278   15.5312 H   0  0  0  0  0
    7.1979   -0.4633   16.1120 H   0  0  0  0  0
    4.8061   -1.2219   14.5343 H   0  0  0  0  0
    3.8748    0.1880   14.9964 H   0  0  0  0  0
    4.1534   -0.2531   17.0939 H   0  0  0  0  0
    5.8418   -0.5426   16.9058 H   0  0  0  0  0
    4.8089   -2.2438   17.9417 H   0  0  0  0  0
    3.1020   -2.3720   15.4061 H   0  0  0  0  0
    2.5386   -2.1766   17.1015 H   0  0  0  0  0
    3.0353   -4.1526   18.7216 H   0  0  0  0  0
    3.1101   -6.6166   18.9259 H   0  0  0  0  0
    3.1751   -4.5036   14.4506 H   0  0  0  0  0
    3.2491   -6.9574   14.6503 H   0  0  0  0  0
    3.1445   -9.7932   18.2415 H   0  0  0  0  0
    3.7904   -8.2176   18.8444 H   0  0  0  0  0
    5.8833   -3.9807   18.1403 H   0  0  0  0  0
    7.0063   -5.4216   15.7838 H   0  0  0  0  0
    8.8126   -4.2107   17.8811 H   0  0  0  0  0
    8.5579   -2.6154   16.2523 H   0  0  0  0  0
    8.3786   -3.8717   14.9311 H   0  0  0  0  0
    9.3814   -6.5712   17.4743 H   0  0  0  0  0
    9.3841   -6.2764   15.7181 H   0  0  0  0  0
   10.6013   -5.4919   16.7545 H   0  0  0  0  0
   10.9054   -3.1168   16.3750 H   0  0  0  0  0
   10.7311   -4.3380   15.0907 H   0  0  0  0  0
   10.4437   -2.6182   14.7290 H   0  0  0  0  0
    6.3751   -7.5029   16.4136 H   0  0  0  0  0
    7.1907   -9.0017   18.4535 H   0  0  0  0  0
    5.8720   -8.0202   19.2577 H   0  0  0  0  0
    5.3779   -9.6196   16.7804 H   0  0  0  0  0
    5.3207  -10.3692   18.4272 H   0  0  0  0  0
  7  1  1  0  0  0
  1  6  1  0  0  0
  6  3  1  0  0  0
  6  4  1  0  0  0
  6  5  1  0  0  0
  7  2  2  0  0  0
  7  8  1  0  0  0
  8  9  1  0  0  0
  9 17  1  0  0  0
  9 10  1  0  0  0
 10 11  1  0  0  0
 11 13  4  0  0  0
 11 12  4  0  0  0
 12 14  4  0  0  0
 14 16  4  0  0  0
 16 15  4  0  0  0
 13 15  4  0  0  0
 17 19  1  0  0  0
 17 18  1  0  0  0
 19 20  1  0  0  0
 20 21  1  0  0  0
 21 31  1  0  0  0
 21 22  1  0  0  0
 22 23  1  0  0  0
 23 26  4  0  0  0
 23 24  4  0  0  0
 24 25  4  0  0  0
 25 28  4  0  0  0
 28 29  1  0  0  0
 28 27  4  0  0  0
 27 26  4  0  0  0
 29 30  1  0  0  0
 30 43  1  0  0  0
 43 42  1  0  0  0
 42 41  1  0  0  0
 41 35  1  0  0  0
 35 36  2  0  0  0
 35 34  1  0  0  0
 34 37  1  0  0  0
 34 33  1  0  0  0
 33 31  1  0  0  0
 31 32  2  0  0  0
 37 39  1  0  0  0
 37 38  1  0  0  0
 38 40  1  0  0  0
  3 44  1  0  0  0
  3 45  1  0  0  0
  3 46  1  0  0  0
  4 47  1  0  0  0
  4 48  1  0  0  0
  4 49  1  0  0  0
  5 50  1  0  0  0
  5 51  1  0  0  0
  5 52  1  0  0  0
  8 53  1  0  0  0
  9 54  1  0  0  0
 10 55  1  0  0  0
 10 56  1  0  0  0
 12 57  1  0  0  0
 13 58  1  0  0  0
 14 59  1  0  0  0
 15 60  1  0  0  0
 16 61  1  0  0  0
 17 62  1  0  0  0
 18 63  1  0  0  0
 19 64  1  0  0  0
 19 65  1  0  0  0
 20 66  1  0  0  0
 20 67  1  0  0  0
 21 68  1  0  0  0
 22 69  1  0  0  0
 22 70  1  0  0  0
 24 71  1  0  0  0
 25 72  1  0  0  0
 26 73  1  0  0  0
 27 74  1  0  0  0
 30 75  1  0  0  0
 30 76  1  0  0  0
 33 77  1  0  0  0
 34 78  1  0  0  0
 37 79  1  0  0  0
 38 80  1  0  0  0
 38 81  1  0  0  0
 39 82  1  0  0  0
 39 83  1  0  0  0
 39 84  1  0  0  0
 40 85  1  0  0  0
 40 86  1  0  0  0
 40 87  1  0  0  0
 41 88  1  0  0  0
 42 89  1  0  0  0
 42 90  1  0  0  0
 43 91  1  0  0  0
 43 92  1  0  0  0
M  END
$$$$
