5e3a_ligand
  -I-interpret- 

 78 79  0  0  0  0  0  0  0  0999 V2000
  140.8350  -18.0170   89.2820 N   0  3  0  0  0
  140.5290  -19.2720   88.6050 C   0  0  0  0  0
  139.0980  -19.2800   88.0860 C   0  0  0  0  0
  138.1500  -19.1120   88.8520 O   0  0  0  0  0
  140.7550  -20.4560   89.5460 C   0  0  0  0  0
  142.1990  -20.6480   89.9410 C   0  0  0  0  0
  143.2200  -20.4620   89.0190 C   0  0  0  0  0
  142.5440  -21.0040   91.2380 C   0  0  0  0  0
  144.5440  -20.6340   89.3750 C   0  0  0  0  0
  143.8640  -21.1780   91.6030 C   0  0  0  0  0
  144.8600  -20.9910   90.6680 C   0  0  0  0  0
  146.1770  -21.1620   91.0280 O   0  0  0  0  0
  138.9500  -19.4700   86.7800 N   0  0  0  0  0
  137.6380  -19.5170   86.1620 C   0  0  0  0  0
  137.2330  -20.9310   85.7970 C   0  0  0  0  0
  138.0810  -21.7810   85.5230 O   0  0  0  0  0
  135.9290  -21.1840   85.7970 N   0  0  0  0  0
  135.4070  -22.4920   85.4520 C   0  0  0  0  0
  134.4370  -22.4300   84.2890 C   0  0  0  0  0
  133.3210  -21.9280   84.4220 O   0  0  0  0  0
  134.8700  -22.9380   83.1410 N   0  0  0  0  0
  134.0250  -22.9720   81.9570 C   0  0  0  0  0
  133.4300  -24.3650   81.7870 C   0  0  0  0  0
  133.9360  -25.3310   82.3610 O   0  0  0  0  0
  134.8200  -22.5600   80.7170 C   0  0  0  0  0
  135.3930  -21.1720   80.8010 C   0  0  0  0  0
  134.6620  -20.0790   80.3650 C   0  0  0  0  0
  136.6570  -20.9600   81.3260 C   0  0  0  0  0
  135.1840  -18.8000   80.4460 C   0  0  0  0  0
  137.1850  -19.6850   81.4100 C   0  0  0  0  0
  136.4470  -18.6030   80.9690 C   0  0  0  0  0
  132.3580  -24.4510   80.9990 N   0  0  0  0  0
  131.5770  -25.6770   80.8280 C   0  0  0  0  0
  130.9700  -26.1170   82.1600 C   0  0  0  0  0
  129.7770  -25.9330   82.3970 O   0  0  0  0  0
  132.4350  -26.7970   80.2200 C   0  0  0  0  0
  131.7650  -28.1030   79.7780 C   0  0  0  0  0
  132.5220  -28.7010   78.6020 C   0  0  0  0  0
  131.6800  -29.1170   80.9150 C   0  0  0  0  0
  131.6470  -26.6600   83.0330 O   0  0  0  0  0
  140.6790  -17.2393   88.6407 H   0  0  0  0  0
  140.2291  -17.9147   90.0961 H   0  0  0  0  0
  141.8102  -18.0223   89.5810 H   0  0  0  0  0
  141.2015  -19.3655   87.7523 H   0  0  0  0  0
  140.4380  -21.3564   89.0198 H   0  0  0  0  0
  140.1903  -20.2609   90.4577 H   0  0  0  0  0
  142.9730  -20.1754   87.9968 H   0  0  0  0  0
  141.7593  -21.1485   91.9806 H   0  0  0  0  0
  145.3335  -20.4882   88.6378 H   0  0  0  0  0
  144.1174  -21.4616   92.6245 H   0  0  0  0  0
  146.2249  -21.4075   91.9548 H   0  0  0  0  0
  139.7789  -19.5857   86.1970 H   0  0  0  0  0
  137.6705  -18.9248   85.2475 H   0  0  0  0  0
  136.9112  -19.1274   86.8748 H   0  0  0  0  0
  135.2782  -20.4391   86.0461 H   0  0  0  0  0
  134.8747  -22.8850   86.3182 H   0  0  0  0  0
  136.2445  -23.1269   85.1628 H   0  0  0  0  0
  135.8170  -23.3131   83.0880 H   0  0  0  0  0
  133.2099  -22.2591   82.0815 H   0  0  0  0  0
  134.1353  -22.5796   79.8691 H   0  0  0  0  0
  135.6560  -23.2528   80.6203 H   0  0  0  0  0
  133.6638  -20.2282   79.9533 H   0  0  0  0  0
  137.2430  -21.8092   81.6774 H   0  0  0  0  0
  134.5990  -17.9489   80.0974 H   0  0  0  0  0
  138.1821  -19.5334   81.8235 H   0  0  0  0  0
  136.8607  -17.5966   81.0338 H   0  0  0  0  0
  132.0665  -23.6178   80.4879 H   0  0  0  0  0
  130.7631  -25.4671   80.1340 H   0  0  0  0  0
  133.1148  -27.0909   81.0198 H   0  0  0  0  0
  132.8404  -26.3691   79.3031 H   0  0  0  0  0
  130.7452  -27.8643   79.4760 H   0  0  0  0  0
  132.5174  -27.9949   77.7717 H   0  0  0  0  0
  133.5501  -28.9066   78.9000 H   0  0  0  0  0
  132.0391  -29.6286   78.2945 H   0  0  0  0  0
  132.6847  -29.3518   81.2665 H   0  0  0  0  0
  131.0966  -28.6952   81.7335 H   0  0  0  0  0
  131.1982  -30.0258   80.5544 H   0  0  0  0  0
  132.5530  -26.7450   82.7272 H   0  0  0  0  0
  1  2  1  0  0  0
  2  3  1  0  0  0
  2  5  1  0  0  0
  3  4  2  0  0  0
  3 13  1  0  0  0
  5  6  1  0  0  0
  6  7  4  0  0  0
  6  8  4  0  0  0
  7  9  4  0  0  0
  8 10  4  0  0  0
  9 11  4  0  0  0
 10 11  4  0  0  0
 11 12  1  0  0  0
 13 14  1  0  0  0
 14 15  1  0  0  0
 15 16  2  0  0  0
 15 17  1  0  0  0
 17 18  1  0  0  0
 18 19  1  0  0  0
 19 20  2  0  0  0
 19 21  1  0  0  0
 21 22  1  0  0  0
 22 23  1  0  0  0
 22 25  1  0  0  0
 23 24  2  0  0  0
 23 32  1  0  0  0
 25 26  1  0  0  0
 26 27  4  0  0  0
 26 28  4  0  0  0
 27 29  4  0  0  0
 28 30  4  0  0  0
 29 31  4  0  0  0
 30 31  4  0  0  0
 32 33  1  0  0  0
 33 34  1  0  0  0
 33 36  1  0  0  0
 34 35  2  0  0  0
 34 40  1  0  0  0
 36 37  1  0  0  0
 37 38  1  0  0  0
 37 39  1  0  0  0
  1 41  1  0  0  0
  1 42  1  0  0  0
  1 43  1  0  0  0
  2 44  1  0  0  0
  5 45  1  0  0  0
  5 46  1  0  0  0
  7 47  1  0  0  0
  8 48  1  0  0  0
  9 49  1  0  0  0
 10 50  1  0  0  0
 12 51  1  0  0  0
 13 52  1  0  0  0
 14 53  1  0  0  0
 14 54  1  0  0  0
 17 55  1  0  0  0
 18 56  1  0  0  0
 18 57  1  0  0  0
 21 58  1  0  0  0
 22 59  1  0  0  0
 25 60  1  0  0  0
 25 61  1  0  0  0
 27 62  1  0  0  0
 28 63  1  0  0  0
 29 64  1  0  0  0
 30 65  1  0  0  0
 31 66  1  0  0  0
 32 67  1  0  0  0
 33 68  1  0  0  0
 36 69  1  0  0  0
 36 70  1  0  0  0
 37 71  1  0  0  0
 38 72  1  0  0  0
 38 73  1  0  0  0
 38 74  1  0  0  0
 39 75  1  0  0  0
 39 76  1  0  0  0
 39 77  1  0  0  0
 40 78  1  0  0  0
M  END
$$$$
