3r17_ligand
  -I-interpret- 

 31 32  0  0  0  0  0  0  0  0999 V2000
   16.0140    2.0450   15.7920 C   0  0  0  0  0
   14.8980    5.1530   14.3660 F   0  0  0  0  0
   15.8390   -0.7040   16.1370 N   0  0  0  0  0
   15.7850    0.8270   18.0890 O   0  0  0  0  0
   15.3160    0.7160   16.7340 S   0  0  0  0  0
   15.1790    3.0880   15.4280 C   0  0  0  0  0
   13.8810    0.8000   16.7290 O   0  0  0  0  0
   15.6950    4.1430   14.7010 C   0  0  0  0  0
   17.0250    4.1580   14.3310 C   0  0  0  0  0
   17.8670    3.1140   14.6870 C   0  0  0  0  0
   17.3550    2.0610   15.4310 C   0  0  0  0  0
   17.4860    5.2730   13.5690 N   0  0  0  0  0
   18.8510    5.6800   13.4880 C   0  0  0  0  0
   19.7380    5.0880   14.0770 O   0  0  0  0  0
   19.1620    6.8700   12.6580 C   0  0  0  0  0
   20.0610    7.8250   13.3260 C   0  0  0  0  0
   21.2760    8.3030   12.8710 C   0  0  0  0  0
   21.9110    9.1880   13.7300 C   0  0  0  0  0
   21.2460    9.4630   14.9120 C   0  0  0  0  0
   19.8070    8.5390   14.8600 S   0  0  0  0  0
   16.3978   -1.3274   16.7197 H   0  0  0  0  0
   15.6081   -0.9710   15.1800 H   0  0  0  0  0
   14.1267    3.0766   15.7119 H   0  0  0  0  0
   18.9148    3.1212   14.3866 H   0  0  0  0  0
   18.0081    1.2425   15.7336 H   0  0  0  0  0
   16.7951    5.8138   13.0488 H   0  0  0  0  0
   18.2234    7.3861   12.4563 H   0  0  0  0  0
   19.6634    6.5208   11.7553 H   0  0  0  0  0
   21.7017    8.0075   11.9121 H   0  0  0  0  0
   22.8737    9.6387   13.4890 H   0  0  0  0  0
   21.5714   10.1299   15.7104 H   0  0  0  0  0
  1  5  1  0  0  0
  6  1  4  0  0  0
  1 11  4  0  0  0
  8  2  1  0  0  0
  5  3  1  0  0  0
  5  4  2  0  0  0
  5  7  2  0  0  0
  6  8  4  0  0  0
  8  9  4  0  0  0
  9 10  4  0  0  0
  9 12  1  0  0  0
 10 11  4  0  0  0
 12 13  1  0  0  0
 13 14  2  0  0  0
 13 15  1  0  0  0
 15 16  1  0  0  0
 16 17  4  0  0  0
 16 20  4  0  0  0
 17 18  4  0  0  0
 18 19  4  0  0  0
 19 20  4  0  0  0
  3 21  1  0  0  0
  3 22  1  0  0  0
  6 23  1  0  0  0
 10 24  1  0  0  0
 11 25  1  0  0  0
 12 26  1  0  0  0
 15 27  1  0  0  0
 15 28  1  0  0  0
 17 29  1  0  0  0
 18 30  1  0  0  0
 19 31  1  0  0  0
M  END
$$$$
