4tmp_ligand
  -I-interpret- 

142141  0  0  0  0  0  0  0  0999 V2000
    5.9760   24.6550   -9.0950 N   0  3  0  0  0
    6.2190   23.7950   -7.9410 C   0  0  0  0  0
    6.4230   24.6120   -6.6580 C   0  0  0  0  0
    6.9880   25.7140   -6.6690 O   0  0  0  0  0
    7.4640   22.8740   -8.1520 C   0  0  0  0  0
    7.6520   21.9980   -7.0090 O   0  0  0  0  0
    8.7550   23.7240   -8.4130 C   0  0  0  0  0
    5.9450   24.0560   -5.5490 N   0  0  0  0  0
    6.1010   24.6690   -4.2460 C   0  0  0  0  0
    7.4640   24.3470   -3.6180 C   0  0  0  0  0
    7.8500   24.9170   -2.5910 O   0  0  0  0  0
    4.9880   24.1890   -3.2980 C   0  0  0  0  0
    3.5680   24.5740   -3.6740 C   0  0  0  0  0
    2.5860   24.2950   -2.5280 C   0  0  0  0  0
    1.2000   24.8990   -2.7980 C   0  0  0  0  0
    0.4660   24.2400   -3.9410 N   0  3  0  0  0
    8.1750   23.4010   -4.2100 N   0  0  0  0  0
    9.3250   22.8000   -3.5470 C   0  0  0  0  0
   10.5840   23.6050   -3.7330 C   0  0  0  0  0
   10.7830   24.2470   -4.7530 O   0  0  0  0  0
    9.5810   21.3770   -4.0640 C   0  0  0  0  0
    8.9220   20.2770   -3.2570 C   0  0  0  0  0
    9.4810   18.8810   -3.6030 C   0  0  0  0  0
   10.7200   18.6180   -3.6370 O   0  0  0  0  0
    8.5710   17.9950   -3.8810 N   0  0  0  0  0
   11.4290   23.5380   -2.7220 N   0  0  0  0  0
   12.7600   24.0370   -2.7970 C   0  0  0  0  0
   13.5760   23.1490   -3.7340 C   0  0  0  0  0
   13.1120   22.1050   -4.2220 O   0  0  0  0  0
   13.4230   24.0380   -1.4070 C   0  0  0  0  0
   13.6410   22.6880   -0.9790 O   0  0  0  0  0
   12.5440   24.7390   -0.3980 C   0  0  0  0  0
   14.8160   23.5560   -3.9520 N   0  0  0  0  0
   15.7830   22.7080   -4.6210 C   0  0  0  0  0
   15.9850   21.4380   -3.8160 C   0  0  0  0  0
   15.7100   21.4210   -2.6240 O   0  0  0  0  0
   17.0910   23.4240   -4.7690 C   0  0  0  0  0
   16.5400   20.4100   -4.4640 N   0  0  0  0  0
   16.8310   19.1430   -3.8100 C   0  0  0  0  0
   18.2920   18.8670   -3.8850 C   0  0  0  0  0
   18.9360   19.3870   -4.7590 O   0  0  0  0  0
   16.0530   18.0090   -4.4800 C   0  0  0  0  0
   14.5520   18.2190   -4.3640 C   0  0  0  0  0
   13.7920   17.1020   -5.0020 C   0  0  0  0  0
   13.9820   15.8480   -4.2840 N   0  0  0  0  0
   13.2160   15.4130   -3.2950 C   0  0  0  0  0
   12.1860   16.1430   -2.8690 N   0  0  0  0  0
   13.5090   14.2480   -2.7090 N   0  0  0  0  0
   19.9090   20.6150    3.6460 O   0  0  0  0  0
   20.9570   19.9260    3.8500 C   0  0  0  0  0
   21.9350   20.2520    4.9460 C   0  0  0  0  0
   21.3160   18.8670    3.0590 N   0  0  0  0  0
   20.5000   18.4260    1.9590 C   0  0  0  0  0
   21.1840   18.4170    0.6060 C   0  0  0  0  0
   20.2970   17.8720   -0.4870 C   0  0  0  0  0
   21.0630   17.8330   -1.7740 C   0  0  0  0  0
   20.1810   17.5750   -3.0070 C   0  0  0  0  0
   18.8000   18.0250   -2.9890 N   0  0  0  0  0
   20.2140   16.0800   -3.2150 C   0  0  0  0  0
   19.2180   15.3650   -3.0930 O   0  0  0  0  0
   21.3800   15.5490   -3.5720 N   0  0  0  0  0
   21.4920   14.0790   -3.6840 C   0  0  0  0  0
   22.9040   13.5350   -3.4690 C   0  0  0  0  0
   23.9020   14.2430   -3.6550 O   0  0  0  0  0
   20.9640   13.6030   -5.0510 C   0  0  0  0  0
   21.2680   14.5470   -6.0780 O   0  0  0  0  0
   22.9700   12.2670   -3.0600 N   0  0  0  0  0
    5.1580   25.2377   -8.9170 H   0  0  0  0  0
    6.7902   25.2488   -9.2524 H   0  0  0  0  0
    5.8106   24.0773   -9.9192 H   0  0  0  0  0
    5.3292   23.1742   -7.8365 H   0  0  0  0  0
    7.2816   22.2582   -9.0327 H   0  0  0  0  0
    6.8527   21.4863   -6.8646 H   0  0  0  0  0
    8.9729   24.3307   -7.5341 H   0  0  0  0  0
    9.5936   23.0568   -8.6125 H   0  0  0  0  0
    8.5931   24.3734   -9.2733 H   0  0  0  0  0
    5.4510   23.1663   -5.6182 H   0  0  0  0  0
    6.0359   25.7476   -4.3894 H   0  0  0  0  0
    5.1851   24.6619   -2.3359 H   0  0  0  0  0
    5.0218   23.0997   -3.3187 H   0  0  0  0  0
    3.2673   23.9811   -4.5378 H   0  0  0  0  0
    3.5469   25.6414   -3.8940 H   0  0  0  0  0
    2.9842   24.7480   -1.6201 H   0  0  0  0  0
    2.4741   23.2152   -2.4304 H   0  0  0  0  0
    1.3458   25.9461   -3.0635 H   0  0  0  0  0
    0.6005   24.7564   -1.8989 H   0  0  0  0  0
   -0.4419   24.6884   -4.0640 H   0  0  0  0  0
    1.0133   24.3374   -4.7962 H   0  0  0  0  0
    0.3324   23.2506   -3.7323 H   0  0  0  0  0
    7.9140   23.0876   -5.1449 H   0  0  0  0  0
    9.0774   22.7765   -2.4858 H   0  0  0  0  0
   10.6565   21.2092   -4.0069 H   0  0  0  0  0
    9.1613   21.3260   -5.0687 H   0  0  0  0  0
    7.8566   20.2810   -3.4871 H   0  0  0  0  0
    9.1185   20.4678   -2.2020 H   0  0  0  0  0
    8.8444   17.0466   -4.1385 H   0  0  0  0  0
    7.5837   18.2483   -3.8416 H   0  0  0  0  0
   11.1155   23.1109   -1.8504 H   0  0  0  0  0
   12.7273   25.0598   -3.1723 H   0  0  0  0  0
   14.3734   24.5670   -1.4777 H   0  0  0  0  0
   14.0543   22.6910   -0.1125 H   0  0  0  0  0
   12.3822   25.7699   -0.7131 H   0  0  0  0  0
   11.5860   24.2232   -0.3322 H   0  0  0  0  0
   13.0318   24.7279    0.5767 H   0  0  0  0  0
   15.0976   24.4863   -3.6427 H   0  0  0  0  0
   15.4066   22.4575   -5.6128 H   0  0  0  0  0
   16.9437   24.3291   -5.3583 H   0  0  0  0  0
   17.4723   23.6890   -3.7829 H   0  0  0  0  0
   17.8051   22.7729   -5.2732 H   0  0  0  0  0
   16.7679   20.5170   -5.4524 H   0  0  0  0  0
   16.5270   19.2054   -2.7651 H   0  0  0  0  0
   16.3102   17.0734   -3.9835 H   0  0  0  0  0
   16.3178   17.9860   -5.5371 H   0  0  0  0  0
   14.2929   19.1476   -4.8726 H   0  0  0  0  0
   14.2892   18.2559   -3.3068 H   0  0  0  0  0
   14.1562   16.9747   -6.0214 H   0  0  0  0  0
   12.7313   17.3522   -4.9850 H   0  0  0  0  0
   14.7662   15.2594   -4.5651 H   0  0  0  0  0
   11.9835   17.0426   -3.3050 H   0  0  0  0  0
   12.9425   13.9122   -1.9301 H   0  0  0  0  0
   14.2991   13.6947   -3.0407 H   0  0  0  0  0
   22.3333   21.2545    4.7895 H   0  0  0  0  0
   21.4271   20.2078    5.9094 H   0  0  0  0  0
   22.7506   19.5291    4.9303 H   0  0  0  0  0
   22.1882   18.3761    3.2557 H   0  0  0  0  0
   19.6709   19.1296    1.8843 H   0  0  0  0  0
   20.2192   17.3948    2.1731 H   0  0  0  0  0
   22.0622   17.7753    0.6776 H   0  0  0  0  0
   21.4381   19.4458    0.3510 H   0  0  0  0  0
   19.4236   18.5139   -0.6018 H   0  0  0  0  0
   19.9726   16.8649   -0.2251 H   0  0  0  0  0
   21.7769   17.0122   -1.7050 H   0  0  0  0  0
   21.5316   18.8083   -1.9054 H   0  0  0  0  0
   20.6019   18.1823   -3.8083 H   0  0  0  0  0
   18.1878   17.6773   -2.2509 H   0  0  0  0  0
   22.1839   16.1462   -3.7654 H   0  0  0  0  0
   20.8813   13.6810   -2.8736 H   0  0  0  0  0
   19.8813   13.4941   -4.9874 H   0  0  0  0  0
   21.4411   12.6545   -5.2975 H   0  0  0  0  0
   20.9285   14.2261   -6.9167 H   0  0  0  0  0
   23.8768   11.8344   -2.8842 H   0  0  0  0  0
   22.1136   11.7301   -2.9230 H   0  0  0  0  0
  2  1  1  0  0  0
  3  2  1  0  0  0
  2  5  1  0  0  0
  3  4  2  0  0  0
  8  3  1  0  0  0
  5  6  1  0  0  0
  5  7  1  0  0  0
  9  8  1  0  0  0
 10  9  1  0  0  0
  9 12  1  0  0  0
 10 11  2  0  0  0
 17 10  1  0  0  0
 12 13  1  0  0  0
 13 14  1  0  0  0
 14 15  1  0  0  0
 15 16  1  0  0  0
 18 17  1  0  0  0
 19 18  1  0  0  0
 18 21  1  0  0  0
 19 20  2  0  0  0
 26 19  1  0  0  0
 21 22  1  0  0  0
 22 23  1  0  0  0
 23 24  2  0  0  0
 23 25  1  0  0  0
 27 26  1  0  0  0
 28 27  1  0  0  0
 27 30  1  0  0  0
 28 29  2  0  0  0
 33 28  1  0  0  0
 30 31  1  0  0  0
 30 32  1  0  0  0
 34 33  1  0  0  0
 35 34  1  0  0  0
 34 37  1  0  0  0
 35 36  2  0  0  0
 38 35  1  0  0  0
 39 38  1  0  0  0
 40 39  1  0  0  0
 39 42  1  0  0  0
 40 41  2  0  0  0
 58 40  1  0  0  0
 42 43  1  0  0  0
 43 44  1  0  0  0
 44 45  1  0  0  0
 45 46  1  0  0  0
 46 47  2  0  0  0
 46 48  1  0  0  0
 50 49  2  0  0  0
 50 51  1  0  0  0
 52 50  1  0  0  0
 53 52  1  0  0  0
 54 53  1  0  0  0
 55 54  1  0  0  0
 56 55  1  0  0  0
 57 56  1  0  0  0
 57 58  1  0  0  0
 57 59  1  0  0  0
 59 60  2  0  0  0
 59 61  1  0  0  0
 61 62  1  0  0  0
 62 63  1  0  0  0
 62 65  1  0  0  0
 63 64  2  0  0  0
 63 67  1  0  0  0
 65 66  1  0  0  0
  1 68  1  0  0  0
  1 69  1  0  0  0
  1 70  1  0  0  0
  2 71  1  0  0  0
  5 72  1  0  0  0
  6 73  1  0  0  0
  7 74  1  0  0  0
  7 75  1  0  0  0
  7 76  1  0  0  0
  8 77  1  0  0  0
  9 78  1  0  0  0
 12 79  1  0  0  0
 12 80  1  0  0  0
 13 81  1  0  0  0
 13 82  1  0  0  0
 14 83  1  0  0  0
 14 84  1  0  0  0
 15 85  1  0  0  0
 15 86  1  0  0  0
 16 87  1  0  0  0
 16 88  1  0  0  0
 16 89  1  0  0  0
 17 90  1  0  0  0
 18 91  1  0  0  0
 21 92  1  0  0  0
 21 93  1  0  0  0
 22 94  1  0  0  0
 22 95  1  0  0  0
 25 96  1  0  0  0
 25 97  1  0  0  0
 26 98  1  0  0  0
 27 99  1  0  0  0
 30100  1  0  0  0
 31101  1  0  0  0
 32102  1  0  0  0
 32103  1  0  0  0
 32104  1  0  0  0
 33105  1  0  0  0
 34106  1  0  0  0
 37107  1  0  0  0
 37108  1  0  0  0
 37109  1  0  0  0
 38110  1  0  0  0
 39111  1  0  0  0
 42112  1  0  0  0
 42113  1  0  0  0
 43114  1  0  0  0
 43115  1  0  0  0
 44116  1  0  0  0
 44117  1  0  0  0
 45118  1  0  0  0
 47119  1  0  0  0
 48120  1  0  0  0
 48121  1  0  0  0
 51122  1  0  0  0
 51123  1  0  0  0
 51124  1  0  0  0
 52125  1  0  0  0
 53126  1  0  0  0
 53127  1  0  0  0
 54128  1  0  0  0
 54129  1  0  0  0
 55130  1  0  0  0
 55131  1  0  0  0
 56132  1  0  0  0
 56133  1  0  0  0
 57134  1  0  0  0
 58135  1  0  0  0
 61136  1  0  0  0
 62137  1  0  0  0
 65138  1  0  0  0
 65139  1  0  0  0
 66140  1  0  0  0
 67141  1  0  0  0
 67142  1  0  0  0
M  END
$$$$
