### 
### Created by X-TOOL on Mon Sep 10 21:13:17 2018
### 

@<TRIPOS>MOLECULE
4tmp_ligand
  143   142     1     0     0
SMALL
GAST_HUCK


@<TRIPOS>ATOM
      1 N           5.9760   24.6550   -9.0950 N.4       1 THR         0.2398
      2 CA          6.2190   23.7950   -7.9410 C.3       1 THR         0.0910
      3 C           6.4230   24.6120   -6.6580 C.2       1 THR         0.2293
      4 O           6.9880   25.7140   -6.6690 O.2       1 THR        -0.3906
      5 CB          7.4640   22.8740   -8.1520 C.3       1 THR         0.1120
      6 OG1         7.6520   21.9980   -7.0090 O.3       1 THR        -0.3840
      7 CG2         8.7550   23.7240   -8.4130 C.3       1 THR        -0.0314
      8 N           5.9450   24.0560   -5.5490 N.am      1 LYS        -0.2609
      9 CA          6.1010   24.6690   -4.2460 C.3       1 LYS         0.1311
     10 C           7.4640   24.3470   -3.6180 C.2       1 LYS         0.2039
     11 O           7.8500   24.9170   -2.5910 O.2       1 LYS        -0.3944
     12 CB          4.9880   24.1890   -3.2980 C.3       1 LYS        -0.0122
     13 CG          3.5680   24.5740   -3.6740 C.3       1 LYS        -0.0440
     14 CD          2.5860   24.2950   -2.5280 C.3       1 LYS        -0.0124
     15 CE          1.2000   24.8990   -2.7980 C.3       1 LYS        -0.0354
     16 NZ          0.4660   24.2400   -3.9410 N.4       1 LYS         0.2185
     17 N           8.1750   23.4010   -4.2100 N.am      1 GLN        -0.2636
     18 CA          9.3250   22.8000   -3.5470 C.3       1 GLN         0.1330
     19 C          10.5840   23.6050   -3.7330 C.2       1 GLN         0.2041
     20 O          10.7830   24.2470   -4.7530 O.2       1 GLN        -0.3944
     21 CB          9.5810   21.3770   -4.0640 C.3       1 GLN         0.0045
     22 CG          8.9220   20.2770   -3.2570 C.3       1 GLN         0.0412
     23 CD          9.4810   18.8810   -3.6030 C.2       1 GLN         0.1737
     24 OE1        10.7200   18.6180   -3.6370 O.2       1 GLN        -0.3973
     25 NE2         8.5710   17.9950   -3.8810 N.am      1 GLN        -0.3009
     26 N          11.4290   23.5380   -2.7220 N.am      1 THR        -0.2613
     27 CA         12.7600   24.0370   -2.7970 C.3       1 THR         0.1565
     28 C          13.5760   23.1490   -3.7340 C.2       1 THR         0.2065
     29 O          13.1120   22.1050   -4.2220 O.2       1 THR        -0.3943
     30 CB         13.4230   24.0380   -1.4070 C.3       1 THR         0.0924
     31 OG1        13.6410   22.6880   -0.9790 O.3       1 THR        -0.3874
     32 CG2        12.5440   24.7390   -0.3980 C.3       1 THR        -0.0346
     33 N          14.8160   23.5560   -3.9520 N.am      1 ALA        -0.2639
     34 CA         15.7830   22.7080   -4.6210 C.3       1 ALA         0.1282
     35 C          15.9850   21.4380   -3.8160 C.2       1 ALA         0.2036
     36 O          15.7100   21.4210   -2.6240 O.2       1 ALA        -0.3944
     37 CB         17.0910   23.4240   -4.7690 C.3       1 ALA        -0.0244
     38 N          16.5400   20.4100   -4.4640 N.am      1 ARG        -0.2637
     39 CA         16.8310   19.1430   -3.8100 C.3       1 ARG         0.1311
     40 C          18.2920   18.8670   -3.8850 C.2       1 ARG         0.2039
     41 O          18.9360   19.3870   -4.7590 O.2       1 ARG        -0.3944
     42 CB         16.0530   18.0090   -4.4800 C.3       1 ARG        -0.0092
     43 CG         14.5520   18.2190   -4.3640 C.3       1 ARG        -0.0156
     44 CD         13.7920   17.1020   -5.0020 C.3       1 ARG         0.0627
     45 NE         13.9820   15.8480   -4.2840 N.pl3     1 ARG        -0.2723
     46 CZ         13.2160   15.4130   -3.2950 C.cat     1 ARG         0.2882
     47 NH1        12.1860   16.1430   -2.8690 N.pl3     1 ARG        -0.2849
     48 NH2        13.5090   14.2480   -2.7090 N.pl3     1 ARG        -0.2849
     49 OH         19.9090   20.6150    3.6460 O.2       1 ALY        -0.3974
     50 CH         20.9570   19.9260    3.8500 C.2       1 ALY         0.1729
     51 CH3        21.9350   20.2520    4.9460 C.3       1 ALY         0.0256
     52 NZ         21.3160   18.8670    3.0590 N.am      1 ALY        -0.2872
     53 CE         20.5000   18.4260    1.9590 C.3       1 ALY         0.0309
     54 CD         21.1840   18.4170    0.6060 C.3       1 ALY        -0.0325
     55 CG         20.2970   17.8720   -0.4870 C.3       1 ALY        -0.0470
     56 CB         21.0630   17.8330   -1.7740 C.3       1 ALY        -0.0123
     57 CA         20.1810   17.5750   -3.0070 C.3       1 ALY         0.1310
     58 N          18.8000   18.0250   -2.9890 N.am      1 ALY        -0.2637
     59 C          20.2140   16.0800   -3.2150 C.2       1 ALY         0.2040
     60 O          19.2180   15.3650   -3.0930 O.2       1 ALY        -0.3944
     61 N          21.3800   15.5490   -3.5720 N.am      1 SER        -0.2616
     62 CA         21.4920   14.0790   -3.6840 C.3       1 SER         0.1536
     63 C          22.9040   13.5350   -3.4690 C.2       1 SER         0.2015
     64 O          23.9020   14.2430   -3.6550 O.2       1 SER        -0.3947
     65 CB         20.9640   13.6030   -5.0510 C.3       1 SER         0.0843
     66 OG         21.2680   14.5470   -6.0780 O.3       1 SER        -0.3903
     67 N          22.9700   12.2670   -3.0600 N.am      1 THR        -0.2989
     68 H           5.1677   25.2314   -8.9202 H         1 THR         0.2016
     69 H           5.8123   24.0852   -9.9102 H         1 THR         0.2016
     70 H           6.7800   25.2424   -9.2515 H         1 THR         0.2016
     71 H           5.3342   23.1552   -7.8076 H         1 THR         0.1125
     72 H           7.2809   22.2486   -9.0382 H         1 THR         0.0674
     73 H           8.4119   21.4469   -7.1554 H         1 THR         0.2102
     74 H           9.6136   23.0517   -8.5576 H         1 THR         0.0258
     75 H           8.9436   24.3790   -7.5496 H         1 THR         0.0258
     76 H           8.6139   24.3377   -9.3149 H         1 THR         0.0258
     77 H           5.4606   23.1838   -5.6168 H         1 LYS         0.1884
     78 H           6.0207   25.7595   -4.3660 H         1 LYS         0.0800
     79 H           5.1948   24.6055   -2.3011 H         1 LYS         0.0312
     80 H           5.0364   23.0910   -3.2539 H         1 LYS         0.0312
     81 H           3.2619   23.9925   -4.5561 H         1 LYS         0.0269
     82 H           3.5406   25.6470   -3.9145 H         1 LYS         0.0269
     83 H           2.9886   24.7302   -1.6014 H         1 LYS         0.0317
     84 H           2.4816   23.2067   -2.4068 H         1 LYS         0.0317
     85 H           1.3256   25.9659   -3.0344 H         1 LYS         0.0813
     86 H           0.5916   24.7943   -1.8876 H         1 LYS         0.0813
     87 H          -0.4314   24.6823   -4.0635 H         1 LYS         0.1994
     88 H           0.3334   23.2621   -3.7358 H         1 LYS         0.1994
     89 H           1.0060   24.3357   -4.7868 H         1 LYS         0.1994
     90 H           7.9191   23.0938   -5.1266 H         1 GLN         0.1883
     91 H           9.1032   22.7480   -2.4708 H         1 GLN         0.0801
     92 H          10.6669   21.2014   -4.0580 H         1 GLN         0.0337
     93 H           9.2053   21.3156   -5.0960 H         1 GLN         0.0337
     94 H           7.8415   20.2862   -3.4628 H         1 GLN         0.0504
     95 H           9.0933   20.4715   -2.1880 H         1 GLN         0.0504
     96 H           8.8384   17.0609   -4.1175 H         1 GLN         0.1814
     97 H           7.6037   18.2477   -3.8584 H         1 GLN         0.1814
     98 H          11.1216   23.1192   -1.8675 H         1 THR         0.1884
     99 H          12.7391   25.0646   -3.1889 H         1 THR         0.0826
    100 H          14.3884   24.5614   -1.4699 H         1 THR         0.0639
    101 H          14.2090   22.2477   -1.6005 H         1 THR         0.2101
    102 H          13.0352   24.7285    0.5862 H         1 THR         0.0257
    103 H          11.5768   24.2194   -0.3306 H         1 THR         0.0257
    104 H          12.3800   25.7795   -0.7148 H         1 THR         0.0257
    105 H          15.0920   24.4681   -3.6488 H         1 ALA         0.1883
    106 H          15.4021   22.4470   -5.6194 H         1 ALA         0.0797
    107 H          17.8126   22.7679   -5.2777 H         1 ALA         0.0277
    108 H          17.4769   23.6920   -3.7744 H         1 ALA         0.0277
    109 H          16.9437   24.3376   -5.3636 H         1 ALA         0.0277
    110 H          16.7634   20.5149   -5.4331 H         1 ARG         0.1883
    111 H          16.5304   19.2074   -2.7538 H         1 ARG         0.0800
    112 H          16.3193   17.0579   -3.9957 H         1 ARG         0.0313
    113 H          16.3269   17.9678   -5.5445 H         1 ARG         0.0313
    114 H          14.2837   19.1632   -4.8605 H         1 ARG         0.0301
    115 H          14.2800   18.2742   -3.2996 H         1 ARG         0.0301
    116 H          14.1416   16.9774   -6.0375 H         1 ARG         0.0689
    117 H          12.7212   17.3538   -5.0043 H         1 ARG         0.0689
    118 H          14.7739   15.2536   -4.5679 H         1 ARG         0.2642
    119 H          11.5942   15.7989   -2.0994 H         1 ARG         0.2615
    120 H          11.9815   17.0514   -3.3093 H         1 ARG         0.2615
    121 H          14.3068   13.6893   -3.0440 H         1 ARG         0.2615
    122 H          12.9369   13.9089   -1.9224 H         1 ARG         0.2615
    123 H          22.7587   19.5231    4.9312 H         1 ALY         0.0467
    124 H          21.4237   20.2077    5.9189 H         1 ALY         0.0467
    125 H          22.3377   21.2635    4.7892 H         1 ALY         0.0467
    126 H          22.1711   18.3857    3.2518 H         1 ALY         0.1850
    127 H          19.6280   19.0933    1.8942 H         1 ALY         0.0520
    128 H          20.1626   17.4017    2.1757 H         1 ALY         0.0520
    129 H          22.0871   17.7924    0.6715 H         1 ALY         0.0285
    130 H          21.4688   19.4477    0.3479 H         1 ALY         0.0285
    131 H          19.4164   18.5209   -0.6032 H         1 ALY         0.0268
    132 H          19.9710   16.8552   -0.2227 H         1 ALY         0.0268
    133 H          21.8126   17.0307   -1.7085 H         1 ALY         0.0312
    134 H          21.5711   18.7997   -1.9059 H         1 ALY         0.0312
    135 H          20.6616   18.0716   -3.8628 H         1 ALY         0.0800
    136 H          18.1998   17.6841   -2.2654 H         1 ALY         0.1883
    137 H          22.1682   16.1345   -3.7616 H         1 SER         0.1884
    138 H          20.8522   13.6456   -2.9012 H         1 SER         0.0823
    139 H          19.8729   13.4774   -4.9905 H         1 SER         0.0606
    140 H          21.4309   12.6387   -5.3002 H         1 SER         0.0606
    141 H          20.8637   15.3811   -5.8697 H         1 SER         0.2097
    142 H          23.8594   11.8397   -2.8974 H         1 THR         0.1815
    143 H          22.1301   11.7437   -2.9160 H         1 THR         0.1815
@<TRIPOS>BOND
     1    2    1 1  
     2    3    2 1  
     3    2    5 1  
     4    3    4 2  
     5    8    3 am 
     6    5    6 1  
     7    5    7 1  
     8    9    8 1  
     9   10    9 1  
    10    9   12 1  
    11   10   11 2  
    12   17   10 am 
    13   12   13 1  
    14   13   14 1  
    15   14   15 1  
    16   15   16 1  
    17   18   17 1  
    18   19   18 1  
    19   18   21 1  
    20   19   20 2  
    21   26   19 am 
    22   21   22 1  
    23   22   23 1  
    24   23   24 2  
    25   23   25 am 
    26   27   26 1  
    27   28   27 1  
    28   27   30 1  
    29   28   29 2  
    30   33   28 am 
    31   30   31 1  
    32   30   32 1  
    33   34   33 1  
    34   35   34 1  
    35   34   37 1  
    36   35   36 2  
    37   38   35 am 
    38   39   38 1  
    39   40   39 1  
    40   39   42 1  
    41   40   41 2  
    42   58   40 am 
    43   42   43 1  
    44   43   44 1  
    45   44   45 1  
    46   45   46 ar 
    47   46   47 ar 
    48   46   48 ar 
    49   50   49 2  
    50   50   51 1  
    51   52   50 am 
    52   53   52 1  
    53   54   53 1  
    54   55   54 1  
    55   56   55 1  
    56   57   56 1  
    57   57   58 1  
    58   57   59 1  
    59   59   60 2  
    60   59   61 am 
    61   61   62 1  
    62   62   63 1  
    63   62   65 1  
    64   63   64 2  
    65   63   67 am 
    66   65   66 1  
    67    1   68 1  
    68    1   69 1  
    69    1   70 1  
    70    2   71 1  
    71    5   72 1  
    72    6   73 1  
    73    7   74 1  
    74    7   75 1  
    75    7   76 1  
    76    8   77 1  
    77    9   78 1  
    78   12   79 1  
    79   12   80 1  
    80   13   81 1  
    81   13   82 1  
    82   14   83 1  
    83   14   84 1  
    84   15   85 1  
    85   15   86 1  
    86   16   87 1  
    87   16   88 1  
    88   16   89 1  
    89   17   90 1  
    90   18   91 1  
    91   21   92 1  
    92   21   93 1  
    93   22   94 1  
    94   22   95 1  
    95   25   96 1  
    96   25   97 1  
    97   26   98 1  
    98   27   99 1  
    99   30  100 1  
   100   31  101 1  
   101   32  102 1  
   102   32  103 1  
   103   32  104 1  
   104   33  105 1  
   105   34  106 1  
   106   37  107 1  
   107   37  108 1  
   108   37  109 1  
   109   38  110 1  
   110   39  111 1  
   111   42  112 1  
   112   42  113 1  
   113   43  114 1  
   114   43  115 1  
   115   44  116 1  
   116   44  117 1  
   117   45  118 1  
   118   47  119 1  
   119   47  120 1  
   120   48  121 1  
   121   48  122 1  
   122   51  123 1  
   123   51  124 1  
   124   51  125 1  
   125   52  126 1  
   126   53  127 1  
   127   53  128 1  
   128   54  129 1  
   129   54  130 1  
   130   55  131 1  
   131   55  132 1  
   132   56  133 1  
   133   56  134 1  
   134   57  135 1  
   135   58  136 1  
   136   61  137 1  
   137   62  138 1  
   138   65  139 1  
   139   65  140 1  
   140   66  141 1  
   141   67  142 1  
   142   67  143 1  
@<TRIPOS>SUBSTRUCTURE
     1 THR         1

