6f28_ligand
  -I-interpret- 

 34 35  0  0  0  0  0  0  0  0999 V2000
  -44.6000  -22.9970  -20.6090 O   0  0  0  0  0
  -48.3450  -21.4950  -16.3200 N   0  3  0  0  0
  -47.1110  -20.9780  -16.9410 C   0  0  0  0  0
  -48.7100  -22.7860  -16.9360 C   0  0  0  0  0
  -42.2680  -20.2170  -18.4300 C   0  0  0  0  0
  -43.4160  -21.1810  -18.1000 C   0  0  0  0  0
  -48.3110  -21.4990  -14.8630 C   0  0  0  0  0
  -46.4630  -24.0020  -19.7780 N   0  0  0  0  0
  -45.7000  -21.9200  -18.8630 N   0  0  0  0  0
  -44.7360  -20.8430  -18.8550 C   0  0  0  0  0
  -47.6640  -22.9890  -17.9880 C   0  0  0  0  0
  -47.5600  -24.0990  -18.9150 C   0  0  0  0  0
  -45.5250  -22.9690  -19.7970 C   0  0  0  0  0
  -46.7800  -21.9990  -17.9980 C   0  0  0  0  0
  -43.6120  -21.1830  -16.6410 N   0  3  0  0  0
  -48.3270  -25.0580  -18.9770 O   0  0  0  0  0
  -41.6340  -19.7000  -17.4840 O   0  0  0  0  0
  -42.0160  -19.9890  -19.6300 O   0  0  0  0  0
  -49.1035  -20.8429  -16.5199 H   0  0  0  0  0
  -46.3046  -20.8553  -16.2180 H   0  0  0  0  0
  -47.2450  -19.9799  -17.3581 H   0  0  0  0  0
  -49.7183  -22.7777  -17.3499 H   0  0  0  0  0
  -48.7326  -23.5997  -16.2111 H   0  0  0  0  0
  -43.1411  -22.1780  -18.4444 H   0  0  0  0  0
  -49.2962  -21.7631  -14.4786 H   0  0  0  0  0
  -47.5780  -22.2291  -14.5200 H   0  0  0  0  0
  -48.0335  -20.5077  -14.5046 H   0  0  0  0  0
  -46.3375  -24.7548  -20.4548 H   0  0  0  0  0
  -44.4720  -20.6373  -19.8923 H   0  0  0  0  0
  -45.1967  -20.0001  -18.3399 H   0  0  0  0  0
  -42.7297  -21.4074  -16.1809 H   0  0  0  0  0
  -43.9287  -20.2612  -16.3404 H   0  0  0  0  0
  -44.3129  -21.8818  -16.3943 H   0  0  0  0  0
  -41.9935  -20.0127  -16.6506 H   0  0  0  0  0
 13  1  2  0  0  0
  3  2  1  0  0  0
  2  4  1  0  0  0
  2  7  1  0  0  0
 14  3  1  0  0  0
  4 11  1  0  0  0
  6  5  1  0  0  0
  5 17  1  0  0  0
  5 18  2  0  0  0
 10  6  1  0  0  0
  6 15  1  0  0  0
  8 12  1  0  0  0
 13  8  1  0  0  0
  9 10  1  0  0  0
  9 13  1  0  0  0
  9 14  1  0  0  0
 11 12  1  0  0  0
 11 14  2  0  0  0
 12 16  2  0  0  0
  2 19  1  0  0  0
  3 20  1  0  0  0
  3 21  1  0  0  0
  4 22  1  0  0  0
  4 23  1  0  0  0
  6 24  1  0  0  0
  7 25  1  0  0  0
  7 26  1  0  0  0
  7 27  1  0  0  0
  8 28  1  0  0  0
 10 29  1  0  0  0
 10 30  1  0  0  0
 15 31  1  0  0  0
 15 32  1  0  0  0
 15 33  1  0  0  0
 17 34  1  0  0  0
M  END
$$$$
