### 
### Created by X-TOOL on Mon Sep 10 21:13:27 2018
### 

@<TRIPOS>MOLECULE
5jnl_ligand
   44    44     1     0     0
SMALL
GAST_HUCK


@<TRIPOS>ATOM
      1 O12         3.7100   14.9300   20.8080 O.2       1 L54        -0.3968
      2 C4          3.2900   13.8890   20.3260 C.2       1 L54         0.2014
      3 N9          3.8410   13.3800   19.1910 N.am      1 L54        -0.1538
      4 O10         4.9090   14.0450   18.6000 O.3       1 L54        -0.2694
      5 C11         3.3380   12.1380   18.5680 C.3       1 L54         0.0516
      6 C3          2.0870   13.2290   20.9770 C.3       1 L54         0.0432
      7 C2          0.8070   13.9830   20.5470 C.3       1 L54        -0.0090
      8 C1         -0.0980   14.2580   21.7450 C.3       1 L54         0.0245
      9 P5         -0.8320   15.9070   21.5850 P.3       1 L54         0.0583
     10 O7          0.0050   16.8860   22.3500 O.co2     1 L54        -0.5622
     11 O6         -2.2160   15.8710   22.1460 O.co2     1 L54        -0.5622
     12 O8         -0.8890   16.3060   20.1460 O.co2     1 L54        -0.5622
     13 C13         0.0440   13.2240   19.4250 C.3       1 L54        -0.0443
     14 C14        -0.5590   11.8810   19.9260 C.3       1 L54        -0.0380
     15 C15        -1.1190   11.0570   18.7530 C.3       1 L54        -0.0038
     16 C16        -0.0340   10.7960   17.7410 C.ar      1 L54        -0.0113
     17 C17         0.9110    9.8150   17.9820 C.ar      1 L54        -0.0282
     18 C19         1.9220    9.5880   17.0660 C.ar      1 L54        -0.0372
     19 C18         0.0370   11.5650   16.5850 C.ar      1 L54        -0.0282
     20 C20         1.0510   11.3460   15.6690 C.ar      1 L54        -0.0372
     21 C21         1.9930   10.3510   15.9040 C.ar      1 L54         0.0385
     22 C22         3.1040   10.1050   14.9080 C.3       1 L54         0.3684
     23 F25         3.4070    8.7990   14.8940 F         1 L54        -0.2274
     24 F23         2.7100   10.4920   13.6740 F         1 L54        -0.2274
     25 F24         4.1860   10.8040   15.2680 F         1 L54        -0.2274
     26 H1          5.1831   13.5732   17.8224 H         1 L54         0.2492
     27 H2          3.9276   11.9152   17.6665 H         1 L54         0.0514
     28 H3          2.2812   12.2681   18.2921 H         1 L54         0.0514
     29 H4          3.4309   11.3061   19.2816 H         1 L54         0.0514
     30 H5          2.1901   13.2712   22.0713 H         1 L54         0.0505
     31 H6          2.0227   12.1792   20.6549 H         1 L54         0.0505
     32 H7          1.1178   14.9547   20.1357 H         1 L54         0.0339
     33 H8          0.4945   14.2091   22.6705 H         1 L54         0.0455
     34 H9         -0.8974   13.5033   21.7811 H         1 L54         0.0455
     35 H10         0.7430   13.0128   18.6023 H         1 L54         0.0272
     36 H11        -0.7724   13.8631   19.0576 H         1 L54         0.0272
     37 H12        -1.3715   12.0941   20.6363 H         1 L54         0.0296
     38 H13         0.2267   11.3000   20.4311 H         1 L54         0.0296
     39 H14        -1.9371   11.6149   18.2739 H         1 L54         0.0499
     40 H15        -1.5018   10.0979   19.1318 H         1 L54         0.0499
     41 H16         0.8591    9.2239   18.8892 H         1 L54         0.0652
     42 H17         2.6593    8.8157   17.2530 H         1 L54         0.0836
     43 H18        -0.7021   12.3364   16.4011 H         1 L54         0.0652
     44 H19         1.1106   11.9490   14.7702 H         1 L54         0.0836
@<TRIPOS>BOND
     1    1    2 2  
     2    2    3 am 
     3    2    6 1  
     4    3    4 1  
     5    3    5 1  
     6    6    7 1  
     7    7    8 1  
     8    7   13 1  
     9    8    9 1  
    10    9   10 ar 
    11    9   11 ar 
    12    9   12 ar 
    13   13   14 1  
    14   14   15 1  
    15   15   16 1  
    16   16   17 ar 
    17   16   19 ar 
    18   17   18 ar 
    19   18   21 ar 
    20   19   20 ar 
    21   20   21 ar 
    22   21   22 1  
    23   22   23 1  
    24   22   24 1  
    25   22   25 1  
    26    4   26 1  
    27    5   27 1  
    28    5   28 1  
    29    5   29 1  
    30    6   30 1  
    31    6   31 1  
    32    7   32 1  
    33    8   33 1  
    34    8   34 1  
    35   13   35 1  
    36   13   36 1  
    37   14   37 1  
    38   14   38 1  
    39   15   39 1  
    40   15   40 1  
    41   17   41 1  
    42   18   42 1  
    43   19   43 1  
    44   20   44 1  
@<TRIPOS>SUBSTRUCTURE
     1 L54         1

