5jnl_ligand
  -I-interpret- 

 46 46  0  0  0  0  0  0  0  0999 V2000
    3.7100   14.9300   20.8080 O   0  0  0  0  0
    3.2900   13.8890   20.3260 C   0  0  0  0  0
    3.8410   13.3800   19.1910 N   0  0  0  0  0
    4.9090   14.0450   18.6000 O   0  0  0  0  0
    3.3380   12.1380   18.5680 C   0  0  0  0  0
    2.0870   13.2290   20.9770 C   0  0  0  0  0
    0.8070   13.9830   20.5470 C   0  0  0  0  0
   -0.0980   14.2580   21.7450 C   0  0  0  0  0
   -0.8320   15.9070   21.5850 P   0  0  0  0  0
    0.0050   16.8860   22.3500 O   0  0  0  0  0
   -2.2160   15.8710   22.1460 O   0  0  0  0  0
   -0.8890   16.3060   20.1460 O   0  0  0  0  0
    0.0440   13.2240   19.4250 C   0  0  0  0  0
   -0.5590   11.8810   19.9260 C   0  0  0  0  0
   -1.1190   11.0570   18.7530 C   0  0  0  0  0
   -0.0340   10.7960   17.7410 C   0  0  0  0  0
    0.9110    9.8150   17.9820 C   0  0  0  0  0
    1.9220    9.5880   17.0660 C   0  0  0  0  0
    0.0370   11.5650   16.5850 C   0  0  0  0  0
    1.0510   11.3460   15.6690 C   0  0  0  0  0
    1.9930   10.3510   15.9040 C   0  0  0  0  0
    3.1040   10.1050   14.9080 C   0  0  0  0  0
    3.4070    8.7990   14.8940 F   0  0  0  0  0
    2.7100   10.4920   13.6740 F   0  0  0  0  0
    4.1860   10.8040   15.2680 F   0  0  0  0  0
    5.1211   14.8276   19.1139 H   0  0  0  0  0
    3.0004   12.3526   17.5541 H   0  0  0  0  0
    4.1383   11.3986   18.5370 H   0  0  0  0  0
    2.5056   11.7499   19.1550 H   0  0  0  0  0
    2.1890   13.2657   22.0616 H   0  0  0  0  0
    2.0237   12.1872   20.6627 H   0  0  0  0  0
    1.1161   14.9436   20.1350 H   0  0  0  0  0
    0.4896   14.2101   22.6618 H   0  0  0  0  0
   -0.8904   13.5103   21.7800 H   0  0  0  0  0
    0.8919   16.9025   21.9829 H   0  0  0  0  0
    0.0006   16.3290   19.7860 H   0  0  0  0  0
    0.7515   13.0001   18.6266 H   0  0  0  0  0
   -0.7758   13.8571   19.0856 H   0  0  0  0  0
   -1.3711   12.0992   20.6195 H   0  0  0  0  0
    0.2271   11.3051   20.4144 H   0  0  0  0  0
   -1.9262   11.6139   18.2772 H   0  0  0  0  0
   -1.4934   10.1054   19.1302 H   0  0  0  0  0
    0.8588    9.2207   18.8942 H   0  0  0  0  0
    2.6634    8.8114   17.2541 H   0  0  0  0  0
   -0.7062   12.3406   16.4001 H   0  0  0  0  0
    1.1109   11.9524   14.7652 H   0  0  0  0  0
  1  2  2  0  0  0
  2  3  1  0  0  0
  2  6  1  0  0  0
  3  4  1  0  0  0
  3  5  1  0  0  0
  6  7  1  0  0  0
  7  8  1  0  0  0
  7 13  1  0  0  0
  8  9  1  0  0  0
  9 10  1  0  0  0
  9 11  2  0  0  0
  9 12  1  0  0  0
 13 14  1  0  0  0
 14 15  1  0  0  0
 15 16  1  0  0  0
 16 17  4  0  0  0
 16 19  4  0  0  0
 17 18  4  0  0  0
 18 21  4  0  0  0
 19 20  4  0  0  0
 20 21  4  0  0  0
 21 22  1  0  0  0
 22 23  1  0  0  0
 22 24  1  0  0  0
 22 25  1  0  0  0
  4 26  1  0  0  0
  5 27  1  0  0  0
  5 28  1  0  0  0
  5 29  1  0  0  0
  6 30  1  0  0  0
  6 31  1  0  0  0
  7 32  1  0  0  0
  8 33  1  0  0  0
  8 34  1  0  0  0
 10 35  1  0  0  0
 12 36  1  0  0  0
 13 37  1  0  0  0
 13 38  1  0  0  0
 14 39  1  0  0  0
 14 40  1  0  0  0
 15 41  1  0  0  0
 15 42  1  0  0  0
 17 43  1  0  0  0
 18 44  1  0  0  0
 19 45  1  0  0  0
 20 46  1  0  0  0
M  END
$$$$
