4j3e_ligand
  -I-interpret- 

 70 74  0  0  0  0  0  0  0  0999 V2000
    7.9740   27.2330   34.4680 O   0  0  0  0  0
    8.0030   26.7450   35.6050 C   0  0  0  0  0
    7.7840   27.4960   36.7240 N   0  0  0  0  0
    7.0940   28.7840   36.5830 C   0  0  0  0  0
    8.0740   29.8910   36.8040 C   0  0  0  0  0
    8.1960   30.8610   36.0510 O   0  0  0  0  0
    8.8410   29.7670   37.8890 N   0  0  0  0  0
    8.6910   28.5980   38.7800 C   0  0  0  0  0
    8.5940   27.2970   37.9560 C   0  0  0  0  0
    8.3720   25.3900   35.7790 N   0  0  0  0  0
    8.1970   24.5780   36.9140 C   0  0  0  0  0
    7.1070   24.7980   37.8810 C   0  0  0  0  0
    7.3190   24.5280   39.2500 C   0  0  0  0  0
    6.3090   24.7440   40.1850 C   0  0  0  0  0
    5.8240   25.2650   37.4780 C   0  0  0  0  0
    5.5800   25.4340   36.1700 O   0  0  0  0  0
    4.3130   26.0090   35.8240 C   0  0  0  0  0
    4.4280   26.7620   34.4950 C   0  0  0  0  0
    3.2260   24.9320   35.7160 C   0  0  0  0  0
    4.8050   25.5130   38.4030 C   0  0  0  0  0
    5.0630   25.2340   39.7460 C   0  0  0  0  0
    4.0870   25.4200   40.6480 O   0  0  0  0  0
    4.4110   25.0410   41.9830 C   0  0  0  0  0
    9.3620   24.7990   34.8830 C   0  0  0  0  0
    8.6530   24.1230   33.7240 C   0  0  0  0  0
    7.2780   23.8420   33.8210 C   0  0  0  0  0
    6.6180   23.1770   32.7980 C   0  0  0  0  0
    7.3510   22.7790   31.6470 C   0  0  0  0  0
    6.5860   21.9100   30.4430 Cl  0  0  0  0  0
    8.7260   23.1060   31.5160 C   0  0  0  0  0
    9.3600   23.7730   32.5570 C   0  0  0  0  0
   10.0410   23.7850   35.8420 C   0  0  0  0  0
    9.1040   23.6340   36.9600 N   0  0  0  0  0
   10.4210   22.4690   35.2130 C   0  0  0  0  0
   11.7680   22.2420   34.8740 C   0  0  0  0  0
   12.1540   21.0710   34.2600 C   0  0  0  0  0
   11.1720   20.0950   33.9660 C   0  0  0  0  0
   11.6110   18.7210   33.1300 Cl  0  0  0  0  0
    9.8190   20.2830   34.3560 C   0  0  0  0  0
    9.4600   21.4720   34.9750 C   0  0  0  0  0
    6.2918   28.8525   37.3178 H   0  0  0  0  0
    6.6693   28.8647   35.5824 H   0  0  0  0  0
    9.5346   30.4832   38.1044 H   0  0  0  0  0
    7.7789   28.7145   39.3654 H   0  0  0  0  0
    9.5609   28.5381   39.4340 H   0  0  0  0  0
    9.6000   26.9952   37.6646 H   0  0  0  0  0
    8.1129   26.5340   38.5679 H   0  0  0  0  0
    8.2850   24.1457   39.5799 H   0  0  0  0  0
    6.4803   24.5368   41.2413 H   0  0  0  0  0
    4.0290   26.7032   36.6149 H   0  0  0  0  0
    5.1693   27.5552   34.5913 H   0  0  0  0  0
    4.7351   26.0691   33.7117 H   0  0  0  0  0
    3.4611   27.1956   34.2397 H   0  0  0  0  0
    3.5042   24.2128   34.9456 H   0  0  0  0  0
    3.1266   24.4206   36.6734 H   0  0  0  0  0
    2.2775   25.4000   35.4525 H   0  0  0  0  0
    3.8412   25.9110   38.0857 H   0  0  0  0  0
    4.6582   23.9797   42.0082 H   0  0  0  0  0
    5.2661   25.6228   42.3271 H   0  0  0  0  0
    3.5557   25.2316   42.6312 H   0  0  0  0  0
   10.0658   25.4892   34.4178 H   0  0  0  0  0
    6.7257   24.1499   34.7088 H   0  0  0  0  0
    5.5521   22.9626   32.8757 H   0  0  0  0  0
    9.2755   22.8382   30.6135 H   0  0  0  0  0
   10.4161   24.0282   32.4697 H   0  0  0  0  0
   11.0109   24.1648   36.1631 H   0  0  0  0  0
   12.5153   23.0026   35.1002 H   0  0  0  0  0
   13.1995   20.8986   34.0045 H   0  0  0  0  0
    9.0759   19.5070   34.1723 H   0  0  0  0  0
    8.4257   21.6335   35.2786 H   0  0  0  0  0
  1  2  2  0  0  0
  2  3  1  0  0  0
  2 10  1  0  0  0
  3  4  1  0  0  0
  3  9  1  0  0  0
  4  5  1  0  0  0
  5  6  2  0  0  0
  5  7  1  0  0  0
  7  8  1  0  0  0
  8  9  1  0  0  0
 10 11  1  0  0  0
 10 24  1  0  0  0
 11 12  1  0  0  0
 11 33  2  0  0  0
 12 13  4  0  0  0
 12 15  4  0  0  0
 13 14  4  0  0  0
 14 21  4  0  0  0
 15 16  1  0  0  0
 15 20  4  0  0  0
 16 17  1  0  0  0
 17 18  1  0  0  0
 17 19  1  0  0  0
 20 21  4  0  0  0
 21 22  1  0  0  0
 22 23  1  0  0  0
 24 25  1  0  0  0
 24 32  1  0  0  0
 25 26  4  0  0  0
 25 31  4  0  0  0
 26 27  4  0  0  0
 27 28  4  0  0  0
 28 29  1  0  0  0
 28 30  4  0  0  0
 30 31  4  0  0  0
 32 33  1  0  0  0
 32 34  1  0  0  0
 34 35  4  0  0  0
 34 40  4  0  0  0
 35 36  4  0  0  0
 36 37  4  0  0  0
 37 38  1  0  0  0
 37 39  4  0  0  0
 39 40  4  0  0  0
  4 41  1  0  0  0
  4 42  1  0  0  0
  7 43  1  0  0  0
  8 44  1  0  0  0
  8 45  1  0  0  0
  9 46  1  0  0  0
  9 47  1  0  0  0
 13 48  1  0  0  0
 14 49  1  0  0  0
 17 50  1  0  0  0
 18 51  1  0  0  0
 18 52  1  0  0  0
 18 53  1  0  0  0
 19 54  1  0  0  0
 19 55  1  0  0  0
 19 56  1  0  0  0
 20 57  1  0  0  0
 23 58  1  0  0  0
 23 59  1  0  0  0
 23 60  1  0  0  0
 24 61  1  0  0  0
 26 62  1  0  0  0
 27 63  1  0  0  0
 30 64  1  0  0  0
 31 65  1  0  0  0
 32 66  1  0  0  0
 35 67  1  0  0  0
 36 68  1  0  0  0
 39 69  1  0  0  0
 40 70  1  0  0  0
M  END
$$$$
