4a6v_ligand
  -I-interpret- 

 26 27  0  0  0  0  0  0  0  0999 V2000
   10.5040   -1.6960   -1.5380 F   0  0  0  0  0
   11.6750   -1.1510   -1.4130 C   0  0  0  0  0
   12.4820   -1.9550   -2.0270 F   0  0  0  0  0
   11.9530   -1.1320   -0.1170 F   0  0  0  0  0
   11.7390    0.1700   -2.0570 C   0  0  0  0  0
   12.8510    0.4890   -2.8530 C   0  0  0  0  0
   12.8130    1.6820   -3.5610 C   0  0  0  0  0
   11.7670    2.5920   -3.4630 C   0  0  0  0  0
   10.6530    2.3090   -2.6970 C   0  0  0  0  0
   10.6610    1.0900   -1.9690 C   0  0  0  0  0
    9.5270    0.9470   -1.0370 C   0  0  0  0  0
    9.5080    0.5620    0.1950 N   0  0  0  0  0
    8.3340    1.3870   -1.3780 O   0  0  0  0  0
    7.5060    1.2120   -0.2100 C   0  0  0  0  0
    8.3550    0.6580    0.7020 C   0  0  0  0  0
    7.9790    0.3060    2.1010 C   0  0  0  0  0
    6.7950    0.1110    2.4090 O   0  0  0  0  0
    8.9210    0.1730    3.1010 N   0  0  0  0  0
    8.5090   -0.1150    4.3330 O   0  0  0  0  0
   13.7125   -0.1761   -2.9126 H   0  0  0  0  0
   13.6439    1.9168   -4.2263 H   0  0  0  0  0
   11.8265    3.5403   -3.9970 H   0  0  0  0  0
    9.8045    2.9919   -2.6533 H   0  0  0  0  0
    6.4525    1.4628   -0.0859 H   0  0  0  0  0
    9.9137    0.2931    2.8995 H   0  0  0  0  0
    9.2684   -0.1762    4.9171 H   0  0  0  0  0
  1  2  1  0  0  0
  2  3  1  0  0  0
  2  4  1  0  0  0
  2  5  1  0  0  0
  5  6  4  0  0  0
  5 10  4  0  0  0
  6  7  4  0  0  0
  7  8  4  0  0  0
  8  9  4  0  0  0
  9 10  4  0  0  0
 10 11  1  0  0  0
 11 12  4  0  0  0
 11 13  4  0  0  0
 12 15  4  0  0  0
 13 14  4  0  0  0
 14 15  4  0  0  0
 15 16  1  0  0  0
 16 17  2  0  0  0
 16 18  1  0  0  0
 18 19  1  0  0  0
  6 20  1  0  0  0
  7 21  1  0  0  0
  8 22  1  0  0  0
  9 23  1  0  0  0
 14 24  1  0  0  0
 18 25  1  0  0  0
 19 26  1  0  0  0
M  END
$$$$
