4wuy_ligand
  -I-interpret- 

 87 92  0  0  0  0  0  0  0  0999 V2000
  -19.7840  -23.3530   28.6170 C   0  0  0  0  0
  -17.4660  -31.5720   35.5290 C   0  0  0  0  0
  -17.1050  -26.4070   24.2690 C   0  0  0  0  0
  -19.1320  -23.6060   30.9220 C   0  0  0  0  0
  -15.4040  -30.9260   34.4080 C   0  0  0  0  0
  -19.7350  -22.8480   29.9180 C   0  0  0  0  0
  -16.1150  -31.1950   35.5770 C   0  0  0  0  0
  -16.0150  -31.0200   33.1530 C   0  0  0  0  0
  -18.5860  -24.8570   30.6180 C   0  0  0  0  0
  -18.1810  -25.5160   26.2750 C   0  0  0  0  0
  -19.4890  -25.8270   24.2580 C   0  0  0  0  0
  -20.5230  -24.9440   26.2620 C   0  0  0  0  0
  -19.4530  -31.9440   32.4800 C   0  0  0  0  0
  -18.2700  -25.9140   24.9400 C   0  0  0  0  0
  -18.1040  -31.6740   34.2750 C   0  0  0  0  0
  -19.2350  -24.6030   28.3170 C   0  0  0  0  0
  -19.3130  -25.0410   26.9410 C   0  0  0  0  0
  -20.6140  -25.3340   24.9280 C   0  0  0  0  0
  -19.4220  -32.0180   33.8540 C   0  0  0  0  0
  -17.3630  -31.3980   33.1220 C   0  0  0  0  0
  -18.6210  -25.3560   29.3170 C   0  0  0  0  0
  -21.9050  -25.2260   24.2730 C   0  0  0  0  0
  -27.0600  -28.5490   27.4160 C   0  0  0  0  0
  -27.4480  -27.1180   27.7790 C   0  0  0  0  0
  -26.0050  -28.4170   26.3200 C   0  0  0  0  0
  -26.3080  -26.2950   27.2010 C   0  0  0  0  0
  -19.0440  -27.5900   28.4920 C   0  0  0  0  0
  -17.2050  -27.1990   30.0730 C   0  0  0  0  0
  -18.3510  -28.8600   27.9990 C   0  0  0  0  0
  -16.5740  -28.5190   29.6130 C   0  0  0  0  0
  -20.5590  -32.3890   34.7230 C   0  0  0  0  0
  -24.7140  -27.0940   23.8260 C   0  0  0  0  0
  -17.8430  -31.3760   30.6480 C   0  0  0  0  0
  -24.8550  -26.5350   25.2490 C   0  0  0  0  0
  -18.3930  -30.0610   30.0980 C   0  0  0  0  0
  -23.6570  -26.4040   22.9530 C   0  0  0  0  0
  -16.1600  -26.8040   23.7250 N   0  0  0  0  0
  -18.2060  -31.5710   32.0490 N   0  0  0  0  0
  -18.0880  -26.6230   29.0490 N   0  0  0  0  0
  -26.0720  -27.0010   25.9380 N   0  3  0  0  0
  -17.5450  -29.4770   29.0600 N   0  3  0  0  0
  -22.3750  -26.3620   23.6190 N   0  0  0  0  0
  -22.5560  -24.1600   24.3110 O   0  0  0  0  0
  -20.2549  -22.7668   27.8278 H   0  0  0  0  0
  -18.0142  -31.7829   36.4472 H   0  0  0  0  0
  -19.0865  -23.2238   31.9418 H   0  0  0  0  0
  -14.3548  -30.6377   34.4731 H   0  0  0  0  0
  -20.1633  -21.8721   30.1466 H   0  0  0  0  0
  -15.6145  -31.1113   36.5416 H   0  0  0  0  0
  -15.4642  -30.8077   32.2367 H   0  0  0  0  0
  -18.1269  -25.4499   31.4091 H   0  0  0  0  0
  -17.2268  -25.5760   26.7984 H   0  0  0  0  0
  -19.5612  -26.1399   23.2164 H   0  0  0  0  0
  -21.4043  -24.5609   26.7764 H   0  0  0  0  0
  -20.3165  -32.1462   31.8463 H   0  0  0  0  0
  -27.9215  -29.1233   27.0754 H   0  0  0  0  0
  -26.6745  -29.0907   28.2797 H   0  0  0  0  0
  -27.5700  -26.9737   28.8525 H   0  0  0  0  0
  -28.4204  -26.8305   27.3791 H   0  0  0  0  0
  -26.1952  -29.0832   25.4785 H   0  0  0  0  0
  -25.0120  -28.7078   26.6627 H   0  0  0  0  0
  -25.4317  -26.2376   27.8466 H   0  0  0  0  0
  -26.5424  -25.2374   27.0800 H   0  0  0  0  0
  -19.7457  -27.8677   29.2785 H   0  0  0  0  0
  -19.5456  -27.1239   27.6439 H   0  0  0  0  0
  -16.4023  -26.4882   30.2691 H   0  0  0  0  0
  -17.8013  -27.3989   30.9633 H   0  0  0  0  0
  -17.6913  -28.5957   27.1725 H   0  0  0  0  0
  -19.1148  -29.5719   27.6863 H   0  0  0  0  0
  -16.1179  -28.9845   30.4867 H   0  0  0  0  0
  -15.8626  -28.2822   28.8219 H   0  0  0  0  0
  -21.3753  -31.6825   34.5725 H   0  0  0  0  0
  -20.8955  -33.3943   34.4695 H   0  0  0  0  0
  -20.2416  -32.3628   35.7654 H   0  0  0  0  0
  -25.6743  -26.9408   23.3336 H   0  0  0  0  0
  -24.4043  -28.1341   23.9282 H   0  0  0  0  0
  -16.7557  -31.3498   30.5759 H   0  0  0  0  0
  -18.2670  -32.1948   30.0667 H   0  0  0  0  0
  -24.9137  -25.4492   25.1731 H   0  0  0  0  0
  -23.9966  -26.8793   25.8257 H   0  0  0  0  0
  -18.4440  -29.3511   30.9236 H   0  0  0  0  0
  -19.3666  -30.2681   29.6539 H   0  0  0  0  0
  -23.9809  -25.3818   22.7573 H   0  0  0  0  0
  -23.5492  -26.9678   22.0264 H   0  0  0  0  0
  -26.8113  -26.8274   25.2570 H   0  0  0  0  0
  -17.0109  -30.2415   28.6467 H   0  0  0  0  0
  -21.7910  -27.1982   23.6096 H   0  0  0  0  0
  1  6  4  0  0  0
 16  1  4  0  0  0
  2  7  4  0  0  0
 15  2  4  0  0  0
 14  3  1  0  0  0
  3 37  3  0  0  0
  6  4  4  0  0  0
  9  4  4  0  0  0
  5  7  4  0  0  0
  8  5  4  0  0  0
 20  8  4  0  0  0
 21  9  4  0  0  0
 14 10  4  0  0  0
 17 10  4  0  0  0
 11 14  4  0  0  0
 18 11  4  0  0  0
 12 17  4  0  0  0
 18 12  4  0  0  0
 13 19  4  0  0  0
 38 13  4  0  0  0
 15 19  4  0  0  0
 20 15  4  0  0  0
 17 16  1  0  0  0
 16 21  4  0  0  0
 22 18  1  0  0  0
 19 31  1  0  0  0
 38 20  4  0  0  0
 21 39  1  0  0  0
 42 22  1  0  0  0
 22 43  2  0  0  0
 24 23  1  0  0  0
 25 23  1  0  0  0
 26 24  1  0  0  0
 40 25  1  0  0  0
 40 26  1  0  0  0
 27 29  1  0  0  0
 39 27  1  0  0  0
 28 30  1  0  0  0
 39 28  1  0  0  0
 29 41  1  0  0  0
 30 41  1  0  0  0
 32 34  1  0  0  0
 36 32  1  0  0  0
 35 33  1  0  0  0
 33 38  1  0  0  0
 34 40  1  0  0  0
 41 35  1  0  0  0
 36 42  1  0  0  0
  1 44  1  0  0  0
  2 45  1  0  0  0
  4 46  1  0  0  0
  5 47  1  0  0  0
  6 48  1  0  0  0
  7 49  1  0  0  0
  8 50  1  0  0  0
  9 51  1  0  0  0
 10 52  1  0  0  0
 11 53  1  0  0  0
 12 54  1  0  0  0
 13 55  1  0  0  0
 23 56  1  0  0  0
 23 57  1  0  0  0
 24 58  1  0  0  0
 24 59  1  0  0  0
 25 60  1  0  0  0
 25 61  1  0  0  0
 26 62  1  0  0  0
 26 63  1  0  0  0
 27 64  1  0  0  0
 27 65  1  0  0  0
 28 66  1  0  0  0
 28 67  1  0  0  0
 29 68  1  0  0  0
 29 69  1  0  0  0
 30 70  1  0  0  0
 30 71  1  0  0  0
 31 72  1  0  0  0
 31 73  1  0  0  0
 31 74  1  0  0  0
 32 75  1  0  0  0
 32 76  1  0  0  0
 33 77  1  0  0  0
 33 78  1  0  0  0
 34 79  1  0  0  0
 34 80  1  0  0  0
 35 81  1  0  0  0
 35 82  1  0  0  0
 36 83  1  0  0  0
 36 84  1  0  0  0
 40 85  1  0  0  0
 41 86  1  0  0  0
 42 87  1  0  0  0
M  END
$$$$
