5wbr_ligand
  -I-interpret- 

 56 58  0  0  0  0  0  0  0  0999 V2000
  -10.3060   -1.2160   22.7760 N   0  3  0  0  0
   -4.8660   -0.4080   19.5700 C   0  0  0  0  0
   -7.5640   -0.8230   21.9450 N   0  0  0  0  0
   -9.9750   -0.5330   21.5120 C   0  0  0  0  0
   -8.6130    0.1560   21.6000 C   0  0  0  0  0
   -7.9010   -1.4540   23.2290 C   0  0  0  0  0
   -3.9140    2.7320   17.9060 C   0  0  0  0  0
   -9.2340   -2.1700   23.1140 C   0  0  0  0  0
   -1.7230   -1.8910   18.7920 N   0  0  0  0  0
   -2.7780   -1.7390   19.2180 C   0  0  0  0  0
   -4.2990   -0.0160   17.2640 C   0  0  0  0  0
   -3.9260   -3.9800   20.8260 C   0  0  0  0  0
   -5.7600   -2.3650   21.3520 C   0  0  0  0  0
   -4.5850   -2.5860   20.6630 C   0  0  0  0  0
   -4.0710   -1.6040   19.7830 C   0  0  0  0  0
   -6.0400   -0.1720   20.2840 N   0  0  0  0  0
   -6.5090   -1.1030   21.2000 C   0  0  0  0  0
  -11.6410   -1.8510   22.7210 C   0  0  0  0  0
  -12.0290   -2.6790   23.9420 C   0  0  0  0  0
  -13.4080   -3.0200   23.9490 O   0  0  0  0  0
   -4.5520    0.4590   18.6250 N   0  0  0  0  0
   -4.9610    1.8700   18.5880 C   0  0  0  0  0
   -3.4320    2.1110   16.5910 C   0  0  0  0  0
   -3.0370    0.6370   16.7240 C   0  0  0  0  0
   -2.7600   -0.0330   15.3880 C   0  0  0  0  0
   -2.3730   -1.3980   15.5330 O   0  0  0  0  0
   -4.0120   -4.5060   22.0600 F   0  0  0  0  0
   -4.5480   -4.8740   20.0790 F   0  0  0  0  0
   -2.6190   -4.0790   20.5130 F   0  0  0  0  0
  -10.3614   -0.5258   23.5249 H   0  0  0  0  0
  -10.7359    0.2218   21.3134 H   0  0  0  0  0
   -9.9404   -1.2741   20.7134 H   0  0  0  0  0
   -8.3779    0.6034   20.6343 H   0  0  0  0  0
   -8.6519    0.9229   22.3736 H   0  0  0  0  0
   -7.9684   -0.6876   24.0011 H   0  0  0  0  0
   -7.1260   -2.1741   23.4917 H   0  0  0  0  0
   -3.0582    2.8239   18.5748 H   0  0  0  0  0
   -4.3610    3.7008   17.6831 H   0  0  0  0  0
   -9.1661   -2.9197   22.3257 H   0  0  0  0  0
   -9.4668   -2.6399   24.0696 H   0  0  0  0  0
   -5.1436    0.2444   16.6261 H   0  0  0  0  0
   -4.1709   -1.0984   17.2755 H   0  0  0  0  0
   -6.1416   -3.1367   22.0206 H   0  0  0  0  0
  -11.6219   -2.5380   21.8750 H   0  0  0  0  0
  -12.3665   -1.0402   22.6541 H   0  0  0  0  0
  -11.8242   -2.0839   24.8320 H   0  0  0  0  0
  -11.4529   -3.6041   23.9191 H   0  0  0  0  0
  -13.6043   -3.5386   24.7327 H   0  0  0  0  0
   -5.8918    1.9461   18.0260 H   0  0  0  0  0
   -5.0853    2.2215   19.6123 H   0  0  0  0  0
   -2.5466    2.6613   16.2726 H   0  0  0  0  0
   -4.2555    2.1678   15.8792 H   0  0  0  0  0
   -2.1363    0.5456   17.3310 H   0  0  0  0  0
   -1.9399    0.5004   14.9073 H   0  0  0  0  0
   -3.6772   -0.0036   14.7998 H   0  0  0  0  0
   -2.2095   -1.7769   14.6662 H   0  0  0  0  0
  4  1  1  0  0  0
  8  1  1  0  0  0
  1 18  1  0  0  0
  2 15  4  0  0  0
  2 16  4  0  0  0
 21  2  1  0  0  0
  3  5  1  0  0  0
  3  6  1  0  0  0
 17  3  1  0  0  0
  5  4  1  0  0  0
  6  8  1  0  0  0
 22  7  1  0  0  0
  7 23  1  0  0  0
 10  9  3  0  0  0
 15 10  1  0  0  0
 21 11  1  0  0  0
 11 24  1  0  0  0
 14 12  1  0  0  0
 12 27  1  0  0  0
 12 28  1  0  0  0
 12 29  1  0  0  0
 14 13  4  0  0  0
 17 13  4  0  0  0
 15 14  4  0  0  0
 16 17  4  0  0  0
 18 19  1  0  0  0
 19 20  1  0  0  0
 21 22  1  0  0  0
 23 24  1  0  0  0
 24 25  1  0  0  0
 25 26  1  0  0  0
  1 30  1  0  0  0
  4 31  1  0  0  0
  4 32  1  0  0  0
  5 33  1  0  0  0
  5 34  1  0  0  0
  6 35  1  0  0  0
  6 36  1  0  0  0
  7 37  1  0  0  0
  7 38  1  0  0  0
  8 39  1  0  0  0
  8 40  1  0  0  0
 11 41  1  0  0  0
 11 42  1  0  0  0
 13 43  1  0  0  0
 18 44  1  0  0  0
 18 45  1  0  0  0
 19 46  1  0  0  0
 19 47  1  0  0  0
 20 48  1  0  0  0
 22 49  1  0  0  0
 22 50  1  0  0  0
 23 51  1  0  0  0
 23 52  1  0  0  0
 24 53  1  0  0  0
 25 54  1  0  0  0
 25 55  1  0  0  0
 26 56  1  0  0  0
M  END
$$$$
