6ej2_ligand
  -I-interpret- 

 54 58  0  0  0  0  0  0  0  0999 V2000
  -15.1560  -32.8610  -11.6810 C   0  0  0  0  0
  -16.2090  -34.9720  -11.0180 C   0  0  0  0  0
  -17.6330  -37.3460   -9.8130 C   0  0  0  0  0
  -16.5190  -37.4990  -10.8740 C   0  0  0  0  0
  -16.3570  -36.2830  -11.8170 C   0  0  0  0  0
  -15.1250  -36.5280  -12.7070 C   0  0  0  0  0
  -19.0410  -37.4580  -10.4720 C   0  0  0  0  0
  -19.9420  -38.0220   -9.3810 C   0  0  0  0  0
  -21.3360  -37.9960   -9.2540 C   0  0  0  0  0
  -21.9550  -38.5920   -8.1580 C   0  0  0  0  0
  -21.1740  -39.2040   -7.1550 C   0  0  0  0  0
  -17.6970  -38.5280   -8.7970 C   0  0  0  0  0
  -17.1810  -39.9070   -9.2880 C   0  0  0  0  0
  -16.2460  -39.3730   -7.2910 C   0  0  0  0  0
  -16.8790  -38.2910   -7.5990 N   0  0  0  0  0
  -23.4890  -41.3260   -5.1160 N   0  0  0  0  0
  -23.0080  -40.6430   -6.1540 C   0  0  0  0  0
  -16.1820  -33.8410  -11.9160 O   0  0  0  0  0
  -17.3830  -34.7710  -10.0360 C   0  0  0  0  0
  -17.5240  -35.9800   -9.0880 C   0  0  0  0  0
  -19.7710  -39.2380   -7.3000 C   0  0  0  0  0
  -19.1550  -38.6510   -8.4080 C   0  0  0  0  0
  -16.4590  -40.4000   -8.1290 O   0  0  0  0  0
  -15.4240  -39.4470   -6.2010 N   0  0  0  0  0
  -21.8080  -39.9170   -6.0060 C   0  0  0  0  0
  -21.1620  -40.0180   -4.7590 C   0  0  0  0  0
  -21.6970  -40.7350   -3.7770 N   0  0  0  0  0
  -22.8510  -41.3650   -3.9520 C   0  0  0  0  0
  -15.2746  -32.4455  -10.6803 H   0  0  0  0  0
  -14.1775  -33.3337  -11.7660 H   0  0  0  0  0
  -15.2410  -32.0636  -12.4193 H   0  0  0  0  0
  -15.2767  -35.0424  -10.4576 H   0  0  0  0  0
  -16.7881  -38.3517  -11.4974 H   0  0  0  0  0
  -15.5786  -37.6108  -10.3343 H   0  0  0  0  0
  -17.2481  -36.1760  -12.4355 H   0  0  0  0  0
  -14.2407  -36.6373  -12.0791 H   0  0  0  0  0
  -15.2738  -37.4377  -13.2888 H   0  0  0  0  0
  -14.9913  -35.6819  -13.3811 H   0  0  0  0  0
  -19.0248  -38.0982  -11.3541 H   0  0  0  0  0
  -19.3971  -36.4926  -10.8315 H   0  0  0  0  0
  -21.9405  -37.5064  -10.0175 H   0  0  0  0  0
  -23.0418  -38.5856   -8.0752 H   0  0  0  0  0
  -16.5606  -39.8385  -10.1816 H   0  0  0  0  0
  -17.9811  -40.5738   -9.6094 H   0  0  0  0  0
  -16.8206  -37.4089   -7.0902 H   0  0  0  0  0
  -23.5363  -40.6453   -7.1074 H   0  0  0  0  0
  -18.3043  -34.6667  -10.6091 H   0  0  0  0  0
  -17.1910  -33.8793   -9.4393 H   0  0  0  0  0
  -16.6249  -36.0131   -8.4727 H   0  0  0  0  0
  -18.4461  -35.8407   -8.5238 H   0  0  0  0  0
  -19.1617  -39.7271   -6.5400 H   0  0  0  0  0
  -15.2961  -38.6311   -5.6024 H   0  0  0  0  0
  -20.2147  -39.5034   -4.5980 H   0  0  0  0  0
  -23.2843  -41.9259   -3.1239 H   0  0  0  0  0
 18  1  1  0  0  0
  5  2  1  0  0  0
  2 18  1  0  0  0
  2 19  1  0  0  0
  3  4  1  0  0  0
  7  3  1  0  0  0
 12  3  1  0  0  0
  3 20  1  0  0  0
  4  5  1  0  0  0
  5  6  1  0  0  0
  8  7  1  0  0  0
  9  8  4  0  0  0
  8 22  4  0  0  0
 10  9  4  0  0  0
 11 10  4  0  0  0
 11 21  4  0  0  0
 25 11  1  0  0  0
 12 13  1  0  0  0
 12 15  1  0  0  0
 22 12  1  0  0  0
 13 23  1  0  0  0
 15 14  1  0  0  0
 14 23  1  0  0  0
 14 24  2  0  0  0
 17 16  4  0  0  0
 16 28  4  0  0  0
 17 25  4  0  0  0
 19 20  1  0  0  0
 21 22  4  0  0  0
 25 26  4  0  0  0
 26 27  4  0  0  0
 27 28  4  0  0  0
  1 29  1  0  0  0
  1 30  1  0  0  0
  1 31  1  0  0  0
  2 32  1  0  0  0
  4 33  1  0  0  0
  4 34  1  0  0  0
  5 35  1  0  0  0
  6 36  1  0  0  0
  6 37  1  0  0  0
  6 38  1  0  0  0
  7 39  1  0  0  0
  7 40  1  0  0  0
  9 41  1  0  0  0
 10 42  1  0  0  0
 13 43  1  0  0  0
 13 44  1  0  0  0
 15 45  1  0  0  0
 17 46  1  0  0  0
 19 47  1  0  0  0
 19 48  1  0  0  0
 20 49  1  0  0  0
 20 50  1  0  0  0
 21 51  1  0  0  0
 24 52  1  0  0  0
 26 53  1  0  0  0
 28 54  1  0  0  0
M  END
$$$$
