4ge6_ligand
  -I-interpret- 

109112  0  0  0  0  0  0  0  0999 V2000
   18.3510    1.6590   -2.4280 C   0  0  0  0  0
   18.9960    2.4940   -3.2820 C   0  0  0  0  0
   19.7740    1.9130   -4.2670 C   0  0  0  0  0
   20.4650    2.6200   -5.2150 C   0  0  0  0  0
   20.3710    4.0100   -5.1780 C   0  0  0  0  0
   19.6080    4.6220   -4.2070 C   0  0  0  0  0
   18.9300    3.8740   -3.2750 C   0  0  0  0  0
   21.2790    1.8510   -6.2450 C   0  0  0  0  0
   18.5760    1.7400   -1.2330 O   0  0  0  0  0
   21.2470    5.1410   -6.4170 Br  0  0  0  0  0
   17.4350    0.6960   -2.7710 N   0  0  0  0  0
   16.5630   -0.1720   -1.9980 C   0  0  0  0  0
   16.6970   -1.6440   -2.4190 C   0  0  0  0  0
   16.8330   -2.5350   -1.6150 O   0  0  0  0  0
   15.1100    0.3750   -2.1920 C   0  0  0  0  0
   14.1540   -0.2920   -1.2130 C   0  0  0  0  0
   14.1680   -0.0040    0.1400 C   0  0  0  0  0
   13.2420   -1.2200   -1.6770 C   0  0  0  0  0
   13.2940   -0.6320    0.9980 C   0  0  0  0  0
   12.3740   -1.8420   -0.8210 C   0  0  0  0  0
   12.3770   -1.5670    0.5330 C   0  0  0  0  0
   11.4040   -2.2790    1.4640 C   0  0  0  0  0
   11.8510   -2.2590    2.7590 F   0  0  0  0  0
   11.2310   -3.6010    1.1190 F   0  0  0  0  0
    9.7190   -1.5070    1.5090 P   0  0  0  0  0
    9.6540   -0.3790    2.4780 O   0  0  0  0  0
    9.3430   -0.9950    0.0190 O   0  0  0  0  0
    8.7150   -2.6630    1.9900 O   0  0  0  0  0
   16.6650   -1.8380   -3.7860 N   0  0  0  0  0
   14.9570   -2.3750   -8.8700 N   0  0  0  0  0
   16.1880   -3.0560   -4.4810 C   0  0  0  0  0
   17.1080   -4.3080   -4.4460 C   0  0  0  0  0
   15.9930   -2.6910   -5.9760 C   0  0  0  0  0
   14.5200   -2.6800   -6.4530 C   0  0  0  0  0
   14.3690   -3.2810   -7.8660 C   0  0  0  0  0
   15.7960   -2.6930   -9.9170 C   0  0  0  0  0
   15.8570   -2.0230  -11.1150 C   0  0  0  0  0
   16.2520   -0.7010  -11.2160 C   0  0  0  0  0
   16.2990   -0.0550  -12.4330 C   0  0  0  0  0
   15.9480   -0.7200  -13.5870 C   0  0  0  0  0
   15.5500   -2.0380  -13.5140 C   0  0  0  0  0
   15.5060   -2.6780  -12.2940 C   0  0  0  0  0
   18.1920   -4.3010   -4.9910 O   0  0  0  0  0
   16.5260   -3.6470   -9.7200 O   0  0  0  0  0
   14.9960   -3.0900  -15.3270 I   0  0  0  0  0
   16.6270   -5.4170   -3.7880 N   0  0  0  0  0
   18.3400   -8.4080   -2.1700 N   0  0  0  0  0
   17.4070   -6.1350   -2.7550 C   0  0  0  0  0
   16.7040   -6.1010   -1.3810 C   0  0  0  0  0
   17.6690   -7.6050   -3.2210 C   0  0  0  0  0
   18.0350   -9.7050   -1.7980 C   0  0  0  0  0
   19.1080  -10.7860   -2.0360 C   0  0  0  0  0
   18.8700  -12.1140   -1.3100 C   0  0  0  0  0
   18.6820  -13.2860   -2.0260 C   0  0  0  0  0
   18.4700  -14.5160   -1.4140 C   0  0  0  0  0
   18.4490  -14.5580   -0.0240 C   0  0  0  0  0
   18.6350  -13.3990    0.6980 C   0  0  0  0  0
   18.8450  -12.1930    0.0740 C   0  0  0  0  0
   16.9520  -15.9660   -2.5310 C   0  0  0  0  0
   17.0120   -6.8240   -0.4660 O   0  0  0  0  0
   16.9530   -9.9520   -1.3100 O   0  0  0  0  0
   18.2920  -15.6700   -2.1690 O   0  0  0  0  0
   18.2470  -15.7380    0.6270 O   0  0  0  0  0
   15.7010   -5.1810   -1.2450 N   0  0  0  0  0
   19.8414    0.8253   -4.2903 H   0  0  0  0  0
   19.5418    5.7096   -4.1782 H   0  0  0  0  0
   18.3299    4.3779   -2.5173 H   0  0  0  0  0
   22.0357    1.2539   -5.7360 H   0  0  0  0  0
   20.6184    1.1956   -6.8126 H   0  0  0  0  0
   21.7641    2.5545   -6.9217 H   0  0  0  0  0
   17.3484    0.5617   -3.7784 H   0  0  0  0  0
   16.8368   -0.1597   -0.9430 H   0  0  0  0  0
   14.7831    0.1588   -3.2091 H   0  0  0  0  0
   15.1092    1.4499   -2.0111 H   0  0  0  0  0
   14.8771    0.7263    0.5298 H   0  0  0  0  0
   13.2133   -1.4602   -2.7398 H   0  0  0  0  0
   13.3216   -0.3918    2.0608 H   0  0  0  0  0
   11.6652   -2.5699   -1.2159 H   0  0  0  0  0
    9.3895   -1.7331   -0.5930 H   0  0  0  0  0
    8.7509   -3.3949    1.3699 H   0  0  0  0  0
   17.0006   -1.0724   -4.3706 H   0  0  0  0  0
   14.7123   -1.3890   -8.7784 H   0  0  0  0  0
   15.2861   -3.3442   -3.9410 H   0  0  0  0  0
   16.5093   -3.4539   -6.5586 H   0  0  0  0  0
   16.3766   -1.6793   -6.1081 H   0  0  0  0  0
   14.1779   -1.6455   -6.4830 H   0  0  0  0  0
   13.9318   -3.2822   -5.7606 H   0  0  0  0  0
   14.8869   -4.2394   -7.9034 H   0  0  0  0  0
   13.3098   -3.4169   -8.0847 H   0  0  0  0  0
   16.5323   -0.1581  -10.3133 H   0  0  0  0  0
   16.6154    0.9869  -12.4822 H   0  0  0  0  0
   15.9845   -0.2090  -14.5491 H   0  0  0  0  0
   15.1895   -3.7201  -12.2504 H   0  0  0  0  0
   15.6946   -5.7582   -4.0218 H   0  0  0  0  0
   19.1059   -7.9571   -1.6695 H   0  0  0  0  0
   18.3634   -5.6271   -2.6309 H   0  0  0  0  0
   16.7082   -8.0689   -3.4439 H   0  0  0  0  0
   18.3193   -7.5753   -4.0953 H   0  0  0  0  0
   20.0464  -10.3845   -1.6535 H   0  0  0  0  0
   19.0976  -11.0070   -3.1033 H   0  0  0  0  0
   18.7012  -13.2412   -3.1149 H   0  0  0  0  0
   18.6151  -13.4399    1.7871 H   0  0  0  0  0
   18.9928  -11.2929    0.6707 H   0  0  0  0  0
   16.3531  -16.0938   -1.6293 H   0  0  0  0  0
   16.5476  -15.1458   -3.1241 H   0  0  0  0  0
   16.9298  -16.8850   -3.1167 H   0  0  0  0  0
   18.2626  -15.5860    1.5748 H   0  0  0  0  0
   15.2010   -5.0987   -0.3598 H   0  0  0  0  0
   15.4530   -4.5772   -2.0288 H   0  0  0  0  0
  1  2  1  0  0  0
  1  9  2  0  0  0
 11  1  1  0  0  0
  2  3  4  0  0  0
  2  7  4  0  0  0
  3  4  4  0  0  0
  4  5  4  0  0  0
  4  8  1  0  0  0
  6  5  4  0  0  0
  5 10  1  0  0  0
  7  6  4  0  0  0
 12 11  1  0  0  0
 13 12  1  0  0  0
 12 15  1  0  0  0
 13 14  2  0  0  0
 29 13  1  0  0  0
 15 16  1  0  0  0
 16 17  4  0  0  0
 16 18  4  0  0  0
 17 19  4  0  0  0
 18 20  4  0  0  0
 19 21  4  0  0  0
 20 21  4  0  0  0
 21 22  1  0  0  0
 22 23  1  0  0  0
 22 24  1  0  0  0
 22 25  1  0  0  0
 25 26  2  0  0  0
 25 27  1  0  0  0
 25 28  1  0  0  0
 31 29  1  0  0  0
 35 30  1  0  0  0
 30 36  1  0  0  0
 32 31  1  0  0  0
 31 33  1  0  0  0
 32 43  2  0  0  0
 46 32  1  0  0  0
 33 34  1  0  0  0
 34 35  1  0  0  0
 36 37  1  0  0  0
 36 44  2  0  0  0
 37 38  4  0  0  0
 37 42  4  0  0  0
 38 39  4  0  0  0
 39 40  4  0  0  0
 41 40  4  0  0  0
 42 41  4  0  0  0
 41 45  1  0  0  0
 48 46  1  0  0  0
 50 47  1  0  0  0
 47 51  1  0  0  0
 48 49  1  0  0  0
 48 50  1  0  0  0
 49 60  2  0  0  0
 49 64  1  0  0  0
 51 52  1  0  0  0
 51 61  2  0  0  0
 52 53  1  0  0  0
 53 54  4  0  0  0
 53 58  4  0  0  0
 54 55  4  0  0  0
 55 56  4  0  0  0
 55 62  1  0  0  0
 56 57  4  0  0  0
 56 63  1  0  0  0
 57 58  4  0  0  0
 62 59  1  0  0  0
  3 65  1  0  0  0
  6 66  1  0  0  0
  7 67  1  0  0  0
  8 68  1  0  0  0
  8 69  1  0  0  0
  8 70  1  0  0  0
 11 71  1  0  0  0
 12 72  1  0  0  0
 15 73  1  0  0  0
 15 74  1  0  0  0
 17 75  1  0  0  0
 18 76  1  0  0  0
 19 77  1  0  0  0
 20 78  1  0  0  0
 27 79  1  0  0  0
 28 80  1  0  0  0
 29 81  1  0  0  0
 30 82  1  0  0  0
 31 83  1  0  0  0
 33 84  1  0  0  0
 33 85  1  0  0  0
 34 86  1  0  0  0
 34 87  1  0  0  0
 35 88  1  0  0  0
 35 89  1  0  0  0
 38 90  1  0  0  0
 39 91  1  0  0  0
 40 92  1  0  0  0
 42 93  1  0  0  0
 46 94  1  0  0  0
 47 95  1  0  0  0
 48 96  1  0  0  0
 50 97  1  0  0  0
 50 98  1  0  0  0
 52 99  1  0  0  0
 52100  1  0  0  0
 54101  1  0  0  0
 57102  1  0  0  0
 58103  1  0  0  0
 59104  1  0  0  0
 59105  1  0  0  0
 59106  1  0  0  0
 63107  1  0  0  0
 64108  1  0  0  0
 64109  1  0  0  0
M  END
$$$$
