### 
### Created by X-TOOL on Mon Sep 10 21:13:10 2018
### 

@<TRIPOS>MOLECULE
4ge6_ligand
  107   110     1     0     0
SMALL
GAST_HUCK


@<TRIPOS>ATOM
      1 C23        18.3510    1.6590   -2.4280 C.2       1 B26         0.2076
      2 C24        18.9960    2.4940   -3.2820 C.ar      1 B26         0.0460
      3 C25        19.7740    1.9130   -4.2670 C.ar      1 B26        -0.0383
      4 C26        20.4650    2.6200   -5.2150 C.ar      1 B26        -0.0312
      5 C27        20.3710    4.0100   -5.1780 C.ar      1 B26         0.0178
      6 C28        19.6080    4.6220   -4.2070 C.ar      1 B26        -0.0536
      7 C29        18.9300    3.8740   -3.2750 C.ar      1 B26        -0.0463
      8 C30        21.2790    1.8510   -6.2450 C.3       1 B26        -0.0289
      9 O6         18.5760    1.7400   -1.2330 O.2       1 B26        -0.3834
     10 BR         21.2470    5.1410   -6.4170 Br        1 B26        -0.0526
     11 N1         17.4350    0.6960   -2.7710 N.am      1 B26        -0.2621
     12 C9         16.5630   -0.1720   -1.9980 C.3       1 B26         0.1447
     13 C10        16.6970   -1.6440   -2.4190 C.2       1 B26         0.2068
     14 O4         16.8330   -2.5350   -1.6150 O.2       1 B26        -0.3941
     15 C8         15.1100    0.3750   -2.1920 C.3       1 B26         0.0366
     16 C5         14.1540   -0.2920   -1.2130 C.ar      1 B26        -0.0068
     17 C6         14.1680   -0.0040    0.1400 C.ar      1 B26        -0.0280
     18 C4         13.2420   -1.2200   -1.6770 C.ar      1 B26        -0.0280
     19 C7         13.2940   -0.6320    0.9980 C.ar      1 B26        -0.0385
     20 C3         12.3740   -1.8420   -0.8210 C.ar      1 B26        -0.0385
     21 C2         12.3770   -1.5670    0.5330 C.ar      1 B26         0.0219
     22 C1         11.4040   -2.2790    1.4640 C.3       1 B26         0.2931
     23 F1         11.8510   -2.2590    2.7590 F         1 B26        -0.2419
     24 F2         11.2310   -3.6010    1.1190 F         1 B26        -0.2419
     25 P1          9.7190   -1.5070    1.5090 P.3       1 B26         0.0966
     26 O2          9.6540   -0.3790    2.4780 O.co2     1 B26        -0.5668
     27 O3          9.3430   -0.9950    0.0190 O.co2     1 B26        -0.5668
     28 O1          8.7150   -2.6630    1.9900 O.co2     1 B26        -0.5668
     29 N2         16.6650   -1.8380   -3.7860 N.am      1 B26        -0.2635
     30 N3         14.9570   -2.3750   -8.8700 N.am      1 B26        -0.2861
     31 C11        16.1880   -3.0560   -4.4810 C.3       1 B26         0.1310
     32 C12        17.1080   -4.3080   -4.4460 C.2       1 B26         0.2039
     33 C13        15.9930   -2.6910   -5.9760 C.3       1 B26        -0.0106
     34 C14        14.5200   -2.6800   -6.4530 C.3       1 B26        -0.0286
     35 C15        14.3690   -3.2810   -7.8660 C.3       1 B26         0.0306
     36 C16        15.7960   -2.6930   -9.9170 C.2       1 B26         0.2055
     37 C17        15.8570   -2.0230  -11.1150 C.ar      1 B26         0.0528
     38 C18        16.2520   -0.7010  -11.2160 C.ar      1 B26        -0.0394
     39 C19        16.2990   -0.0550  -12.4330 C.ar      1 B26        -0.0533
     40 C20        15.9480   -0.7200  -13.5870 C.ar      1 B26        -0.0465
     41 C21        15.5500   -2.0380  -13.5140 C.ar      1 B26         0.0151
     42 C22        15.5060   -2.6780  -12.2940 C.ar      1 B26        -0.0308
     43 O7         18.1920   -4.3010   -4.9910 O.2       1 B26        -0.3944
     44 O5         16.5260   -3.6470   -9.7200 O.2       1 B26        -0.3847
     45 I          14.9960   -3.0900  -15.3270 I         1 B26        -0.0481
     46 N4         16.6270   -5.4170   -3.7880 N.am      1 B26        -0.2618
     47 N6         18.3400   -8.4080   -2.1700 N.am      1 B26        -0.2810
     48 C31        17.4070   -6.1350   -2.7550 C.3       1 B26         0.1506
     49 C32        16.7040   -6.1010   -1.3810 C.2       1 B26         0.2012
     50 C33        17.6690   -7.6050   -3.2210 C.3       1 B26         0.0711
     51 C34        18.0350   -9.7050   -1.7980 C.2       1 B26         0.1858
     52 C35        19.1080  -10.7860   -2.0360 C.3       1 B26         0.0630
     53 C36        18.8700  -12.1140   -1.3100 C.ar      1 B26        -0.0439
     54 C37        18.6820  -13.2860   -2.0260 C.ar      1 B26        -0.0375
     55 C38        18.4700  -14.5160   -1.4140 C.ar      1 B26         0.1134
     56 C39        18.4490  -14.5580   -0.0240 C.ar      1 B26         0.1094
     57 C40        18.6350  -13.3990    0.6980 C.ar      1 B26        -0.0477
     58 C41        18.8450  -12.1930    0.0740 C.ar      1 B26        -0.0777
     59 C42        16.9520  -15.9660   -2.5310 C.3       1 B26         0.0568
     60 O8         17.0120   -6.8240   -0.4660 O.2       1 B26        -0.3947
     61 O9         16.9530   -9.9520   -1.3100 O.2       1 B26        -0.3945
     62 O10        18.2920  -15.6700   -2.1690 O.3       1 B26        -0.3265
     63 O11        18.2470  -15.7380    0.6270 O.3       1 B26        -0.3412
     64 N5         15.7010   -5.1810   -1.2450 N.am      1 B26        -0.2989
     65 H          19.8414    0.8253   -4.2903 H         1 B26         0.0614
     66 H          19.5418    5.7096   -4.1782 H         1 B26         0.0637
     67 H          18.3299    4.3779   -2.5173 H         1 B26         0.0617
     68 H          20.9058    2.0774   -7.2438 H         1 B26         0.0399
     69 H          22.3261    2.1449   -6.1717 H         1 B26         0.0399
     70 H          21.1863    0.7817   -6.0548 H         1 B26         0.0399
     71 H          17.3484    0.5617   -3.7784 H         1 B26         0.1879
     72 H          16.8368   -0.1597   -0.9430 H         1 B26         0.0833
     73 H          14.7831    0.1588   -3.2091 H         1 B26         0.0547
     74 H          15.1092    1.4499   -2.0111 H         1 B26         0.0547
     75 H          14.8771    0.7263    0.5298 H         1 B26         0.0652
     76 H          13.2133   -1.4602   -2.7398 H         1 B26         0.0652
     77 H          13.3216   -0.3918    2.0608 H         1 B26         0.0835
     78 H          11.6652   -2.5699   -1.2159 H         1 B26         0.0835
     79 H          17.0006   -1.0724   -4.3706 H         1 B26         0.1883
     80 H          14.7123   -1.3890   -8.7784 H         1 B26         0.1845
     81 H          15.2861   -3.3442   -3.9410 H         1 B26         0.0800
     82 H          16.5093   -3.4539   -6.5586 H         1 B26         0.0313
     83 H          16.3766   -1.6793   -6.1081 H         1 B26         0.0313
     84 H          14.1779   -1.6455   -6.4830 H         1 B26         0.0287
     85 H          13.9318   -3.2822   -5.7606 H         1 B26         0.0287
     86 H          14.8869   -4.2394   -7.9034 H         1 B26         0.0519
     87 H          13.3098   -3.4169   -8.0847 H         1 B26         0.0519
     88 H          16.5323   -0.1581  -10.3133 H         1 B26         0.0690
     89 H          16.6154    0.9869  -12.4822 H         1 B26         0.0636
     90 H          15.9845   -0.2090  -14.5491 H         1 B26         0.0681
     91 H          15.1895   -3.7201  -12.2504 H         1 B26         0.0698
     92 H          15.6946   -5.7582   -4.0218 H         1 B26         0.1884
     93 H          19.1059   -7.9571   -1.6695 H         1 B26         0.1854
     94 H          18.3634   -5.6271   -2.6309 H         1 B26         0.0820
     95 H          16.7082   -8.0689   -3.4439 H         1 B26         0.0568
     96 H          18.3193   -7.5753   -4.0953 H         1 B26         0.0568
     97 H          20.0464  -10.3845   -1.6535 H         1 B26         0.0637
     98 H          19.0976  -11.0070   -3.1033 H         1 B26         0.0637
     99 H          18.7012  -13.2412   -3.1149 H         1 B26         0.0454
    100 H          18.6151  -13.4399    1.7871 H         1 B26         0.0493
    101 H          18.9928  -11.2929    0.6707 H         1 B26         0.0440
    102 H          16.3531  -16.0938   -1.6293 H         1 B26         0.0573
    103 H          16.5476  -15.1458   -3.1241 H         1 B26         0.0573
    104 H          16.9298  -16.8850   -3.1167 H         1 B26         0.0573
    105 H          18.1359  -16.4421   -0.0161 H         1 B26         0.2421
    106 H          15.2010   -5.0987   -0.3598 H         1 B26         0.1815
    107 H          15.4530   -4.5772   -2.0288 H         1 B26         0.1815
@<TRIPOS>BOND
     1    1    2 1  
     2    1    9 2  
     3   11    1 am 
     4    2    3 ar 
     5    2    7 ar 
     6    3    4 ar 
     7    4    5 ar 
     8    4    8 1  
     9    6    5 ar 
    10    5   10 1  
    11    7    6 ar 
    12   12   11 1  
    13   13   12 1  
    14   12   15 1  
    15   13   14 2  
    16   29   13 am 
    17   15   16 1  
    18   16   17 ar 
    19   16   18 ar 
    20   17   19 ar 
    21   18   20 ar 
    22   19   21 ar 
    23   20   21 ar 
    24   21   22 1  
    25   22   23 1  
    26   22   24 1  
    27   22   25 1  
    28   25   26 ar 
    29   25   27 ar 
    30   25   28 ar 
    31   31   29 1  
    32   35   30 1  
    33   30   36 am 
    34   32   31 1  
    35   31   33 1  
    36   32   43 2  
    37   46   32 am 
    38   33   34 1  
    39   34   35 1  
    40   36   37 1  
    41   36   44 2  
    42   37   38 ar 
    43   37   42 ar 
    44   38   39 ar 
    45   39   40 ar 
    46   41   40 ar 
    47   42   41 ar 
    48   41   45 1  
    49   48   46 1  
    50   50   47 1  
    51   47   51 am 
    52   48   49 1  
    53   48   50 1  
    54   49   60 2  
    55   49   64 am 
    56   51   52 1  
    57   51   61 2  
    58   52   53 1  
    59   53   54 ar 
    60   53   58 ar 
    61   54   55 ar 
    62   55   56 ar 
    63   55   62 1  
    64   56   57 ar 
    65   56   63 1  
    66   57   58 ar 
    67   62   59 1  
    68    3   65 1  
    69    6   66 1  
    70    7   67 1  
    71    8   68 1  
    72    8   69 1  
    73    8   70 1  
    74   11   71 1  
    75   12   72 1  
    76   15   73 1  
    77   15   74 1  
    78   17   75 1  
    79   18   76 1  
    80   19   77 1  
    81   20   78 1  
    82   29   79 1  
    83   30   80 1  
    84   31   81 1  
    85   33   82 1  
    86   33   83 1  
    87   34   84 1  
    88   34   85 1  
    89   35   86 1  
    90   35   87 1  
    91   38   88 1  
    92   39   89 1  
    93   40   90 1  
    94   42   91 1  
    95   46   92 1  
    96   47   93 1  
    97   48   94 1  
    98   50   95 1  
    99   50   96 1  
   100   52   97 1  
   101   52   98 1  
   102   54   99 1  
   103   57  100 1  
   104   58  101 1  
   105   59  102 1  
   106   59  103 1  
   107   59  104 1  
   108   63  105 1  
   109   64  106 1  
   110   64  107 1  
@<TRIPOS>SUBSTRUCTURE
     1 B26         1

