4g1f_ligand
  -I-interpret- 

 41 43  0  0  0  0  0  0  0  0999 V2000
   46.2790   -0.6950   13.4330 C   0  0  0  0  0
   44.8760   -0.3800   13.1320 N   0  0  0  0  0
   44.2490    0.6510   13.8210 C   0  0  0  0  0
   44.9040    1.3400   14.7430 N   0  0  0  0  0
   44.3330    2.3150   15.4360 C   0  0  0  0  0
   45.0890    2.9910   16.3810 N   0  0  0  0  0
   42.9990    2.6660   15.2380 C   0  0  0  0  0
   42.4020    3.7770   16.0670 C   0  0  0  0  0
   41.8760    3.2090   17.3140 N   0  3  0  0  0
   42.2440    1.9790   14.2710 C   0  0  0  0  0
   40.8110    2.3300   14.0670 C   0  0  0  0  0
   40.4140    3.4020   13.2600 C   0  0  0  0  0
   39.0670    3.6890   13.1190 C   0  0  0  0  0
   38.1090    2.9250   13.7700 C   0  0  0  0  0
   38.4940    1.8650   14.5710 C   0  0  0  0  0
   39.8370    1.5650   14.7270 C   0  0  0  0  0
   40.3520    0.1080   15.8240 Br  0  0  0  0  0
   42.8900    0.9410   13.5440 C   0  0  0  0  0
   42.2150    0.1330   12.5130 C   0  0  0  0  0
   41.0620    0.3580   12.2100 O   0  0  0  0  0
   42.9090   -0.8670   11.9020 N   0  0  0  0  0
   42.2450   -1.6920   10.8790 C   0  0  0  0  0
   44.2000   -1.1120   12.2200 C   0  0  0  0  0
   44.7910   -2.0130   11.6480 O   0  0  0  0  0
   46.3482   -1.7155   13.8097 H   0  0  0  0  0
   46.8742   -0.6004   12.5248 H   0  0  0  0  0
   46.6519   -0.0019   14.1871 H   0  0  0  0  0
   46.0647    2.7348   16.5318 H   0  0  0  0  0
   44.6696    3.7446   16.9255 H   0  0  0  0  0
   41.5965    4.2586   15.5127 H   0  0  0  0  0
   43.1670    4.5195   16.2940 H   0  0  0  0  0
   41.4703    3.9536   17.8808 H   0  0  0  0  0
   41.1589    2.5174   17.0953 H   0  0  0  0  0
   42.6346    2.7626   17.8294 H   0  0  0  0  0
   41.1605    4.0072   12.7457 H   0  0  0  0  0
   38.7560    4.5234   12.4904 H   0  0  0  0  0
   37.0515    3.1604   13.6500 H   0  0  0  0  0
   37.7395    1.2652   15.0800 H   0  0  0  0  0
   41.3843   -2.1937   11.3212 H   0  0  0  0  0
   41.9140   -1.0548   10.0589 H   0  0  0  0  0
   42.9469   -2.4360   10.5023 H   0  0  0  0  0
  1  2  1  0  0  0
  2  3  1  0  0  0
  2 23  1  0  0  0
  3  4  4  0  0  0
  3 18  4  0  0  0
  4  5  4  0  0  0
  5  6  1  0  0  0
  5  7  4  0  0  0
  7  8  1  0  0  0
  7 10  4  0  0  0
  8  9  1  0  0  0
 10 11  1  0  0  0
 10 18  4  0  0  0
 11 12  4  0  0  0
 11 16  4  0  0  0
 12 13  4  0  0  0
 13 14  4  0  0  0
 14 15  4  0  0  0
 15 16  4  0  0  0
 16 17  1  0  0  0
 18 19  1  0  0  0
 19 20  2  0  0  0
 19 21  1  0  0  0
 21 22  1  0  0  0
 21 23  1  0  0  0
 23 24  2  0  0  0
  1 25  1  0  0  0
  1 26  1  0  0  0
  1 27  1  0  0  0
  6 28  1  0  0  0
  6 29  1  0  0  0
  8 30  1  0  0  0
  8 31  1  0  0  0
  9 32  1  0  0  0
  9 33  1  0  0  0
  9 34  1  0  0  0
 12 35  1  0  0  0
 13 36  1  0  0  0
 14 37  1  0  0  0
 15 38  1  0  0  0
 22 39  1  0  0  0
 22 40  1  0  0  0
 22 41  1  0  0  0
M  END
$$$$
