5yia_ligand
  -I-interpret- 

 94 98  0  0  0  0  0  0  0  0999 V2000
   22.8710  -20.3510  -25.6260 C   0  0  0  0  0
   20.8500  -18.9500  -27.1170 C   0  0  0  0  0
   22.3990  -19.1780  -25.1880 C   0  0  0  0  0
   21.3100  -18.4290  -25.9910 C   0  0  0  0  0
   22.3360  -20.9580  -26.9320 C   0  0  0  0  0
   16.3030  -22.9500  -27.8100 C   0  0  0  0  0
   15.5210  -22.0990  -27.1600 C   0  0  0  0  0
   22.8860  -22.3240  -27.4590 C   0  0  0  0  0
   21.8150  -23.4610  -27.3100 C   0  0  0  0  0
   12.3040  -23.1140  -18.3870 C   0  0  0  0  0
   19.3590  -26.1490  -19.7660 S   0  0  0  0  0
   23.1190  -27.5420  -26.5730 S   0  0  0  0  0
   12.5730  -25.4670  -18.3290 O   0  0  0  0  0
   16.7990  -24.0330  -20.0900 O   0  0  0  0  0
   17.7720  -28.4890  -24.6300 O   0  0  0  0  0
   16.0510  -27.9460  -22.6040 O   0  0  0  0  0
   20.2460  -24.7630  -24.3740 O   0  0  0  0  0
   20.7410  -23.4180  -27.8340 O   0  0  0  0  0
   20.7960  -17.1920  -25.5270 O   0  0  0  0  0
   17.5090  -26.4920  -21.5340 N   0  0  0  0  0
   14.8570  -25.0020  -19.3970 N   0  0  0  0  0
   18.8100  -26.0800  -25.6700 N   0  0  0  0  0
   22.1570  -24.6210  -26.5020 N   0  0  0  0  0
   16.7750  -26.4240  -20.2800 C   0  0  0  0  0
   17.7880  -26.9410  -19.2340 C   0  0  0  0  0
   14.2760  -23.8350  -18.9910 C   0  0  0  0  0
   18.7780  -25.6940  -21.4230 C   0  0  0  0  0
   16.1940  -25.0340  -19.9570 C   0  0  0  0  0
   13.1620  -24.0980  -18.0430 C   0  0  0  0  0
   17.9270  -28.4680  -19.4020 C   0  0  0  0  0
   17.4620  -26.5420  -17.7770 C   0  0  0  0  0
   13.4980  -23.1310  -20.2940 C   0  0  0  0  0
   12.2200  -22.7150  -19.7330 C   0  0  0  0  0
   17.0810  -27.3300  -22.6660 C   0  0  0  0  0
   17.9810  -27.3330  -23.9200 C   0  0  0  0  0
   17.6940  -26.0450  -24.7460 C   0  0  0  0  0
   13.7230  -22.9100  -21.6030 C   0  0  0  0  0
   11.2000  -21.9950  -20.7520 C   0  0  0  0  0
   16.3440  -26.1060  -25.4700 C   0  0  0  0  0
   12.9270  -22.3370  -22.3960 C   0  0  0  0  0
   11.6840  -21.8490  -22.1590 C   0  0  0  0  0
   16.0410  -24.6770  -26.0620 C   0  0  0  0  0
   21.1920  -25.6690  -26.3660 C   0  0  0  0  0
   15.1360  -23.6990  -25.3090 C   0  0  0  0  0
   16.5830  -24.3390  -27.2100 C   0  0  0  0  0
   21.8160  -26.8300  -25.6500 C   0  0  0  0  0
   14.8940  -22.4880  -25.8370 C   0  0  0  0  0
   22.5890  -27.9760  -28.2010 C   0  0  0  0  0
   21.3950  -20.3050  -27.6300 C   0  0  0  0  0
   20.0650  -25.3830  -25.3750 C   0  0  0  0  0
   23.6364  -20.8768  -25.0552 H   0  0  0  0  0
   20.0840  -18.4228  -27.6857 H   0  0  0  0  0
   22.7832  -18.7491  -24.2625 H   0  0  0  0  0
   16.7455  -22.6669  -28.7651 H   0  0  0  0  0
   15.3279  -21.1122  -27.5808 H   0  0  0  0  0
   23.7650  -22.5946  -26.8740 H   0  0  0  0  0
   23.1343  -22.2155  -28.5148 H   0  0  0  0  0
   12.6641  -22.2323  -17.8569 H   0  0  0  0  0
   11.3163  -23.5105  -18.1517 H   0  0  0  0  0
   13.2036  -26.1448  -18.0751 H   0  0  0  0  0
   18.3321  -28.4900  -25.4097 H   0  0  0  0  0
   21.2305  -16.9545  -24.7045 H   0  0  0  0  0
   14.3367  -25.8744  -19.3039 H   0  0  0  0  0
   18.7202  -26.6000  -26.5429 H   0  0  0  0  0
   23.0651  -24.6861  -26.0422 H   0  0  0  0  0
   15.8677  -27.0274  -20.3084 H   0  0  0  0  0
   15.0651  -23.2241  -18.5526 H   0  0  0  0  0
   19.4987  -25.9140  -22.2106 H   0  0  0  0  0
   18.6284  -24.6219  -21.5506 H   0  0  0  0  0
   13.4299  -24.1016  -16.9864 H   0  0  0  0  0
   18.1254  -28.7006  -20.4483 H   0  0  0  0  0
   18.7518  -28.8264  -18.7861 H   0  0  0  0  0
   17.0017  -28.9523  -19.0900 H   0  0  0  0  0
   18.2694  -26.8702  -17.1224 H   0  0  0  0  0
   17.3580  -25.4589  -17.7129 H   0  0  0  0  0
   16.5294  -27.0165  -17.4717 H   0  0  0  0  0
   19.0369  -27.3182  -23.6497 H   0  0  0  0  0
   17.6185  -25.1332  -24.1535 H   0  0  0  0  0
   14.6727  -23.2552  -22.0116 H   0  0  0  0  0
   10.2201  -21.6374  -20.4357 H   0  0  0  0  0
   15.5576  -26.3991  -24.7745 H   0  0  0  0  0
   16.3802  -26.8445  -26.2708 H   0  0  0  0  0
   13.2896  -22.2170  -23.4169 H   0  0  0  0  0
   11.0809  -21.3836  -22.9386 H   0  0  0  0  0
   20.8424  -25.8133  -27.3883 H   0  0  0  0  0
   14.6926  -23.9823  -24.3544 H   0  0  0  0  0
   17.2297  -25.0410  -27.7364 H   0  0  0  0  0
   22.2236  -26.4697  -24.7055 H   0  0  0  0  0
   21.0495  -27.5900  -25.4988 H   0  0  0  0  0
   14.2463  -21.7849  -25.3134 H   0  0  0  0  0
   21.7744  -28.6973  -28.1363 H   0  0  0  0  0
   22.2438  -27.0817  -28.7198 H   0  0  0  0  0
   23.4229  -28.4159  -28.7480 H   0  0  0  0  0
   21.0138  -20.7288  -28.5591 H   0  0  0  0  0
  1  3  4  0  0  0
  5  1  4  0  0  0
  2  4  4  0  0  0
 49  2  4  0  0  0
  3  4  4  0  0  0
  4 19  1  0  0  0
  8  5  1  0  0  0
  5 49  4  0  0  0
  6  7  4  0  0  0
 45  6  4  0  0  0
  7 47  4  0  0  0
  9  8  1  0  0  0
  9 18  2  0  0  0
 23  9  1  0  0  0
 29 10  1  0  0  0
 33 10  1  0  0  0
 11 25  1  0  0  0
 27 11  1  0  0  0
 46 12  1  0  0  0
 12 48  1  0  0  0
 29 13  1  0  0  0
 28 14  2  0  0  0
 35 15  1  0  0  0
 34 16  2  0  0  0
 50 17  2  0  0  0
 20 24  1  0  0  0
 20 27  1  0  0  0
 34 20  1  0  0  0
 21 26  1  0  0  0
 28 21  1  0  0  0
 22 36  1  0  0  0
 50 22  1  0  0  0
 43 23  1  0  0  0
 24 25  1  0  0  0
 24 28  1  0  0  0
 25 30  1  0  0  0
 25 31  1  0  0  0
 26 29  1  0  0  0
 26 32  1  0  0  0
 32 33  4  0  0  0
 32 37  4  0  0  0
 33 38  4  0  0  0
 35 34  1  0  0  0
 36 35  1  0  0  0
 36 39  1  0  0  0
 37 40  4  0  0  0
 38 41  4  0  0  0
 39 42  1  0  0  0
 40 41  4  0  0  0
 42 44  4  0  0  0
 42 45  4  0  0  0
 43 46  1  0  0  0
 43 50  1  0  0  0
 44 47  4  0  0  0
  1 51  1  0  0  0
  2 52  1  0  0  0
  3 53  1  0  0  0
  6 54  1  0  0  0
  7 55  1  0  0  0
  8 56  1  0  0  0
  8 57  1  0  0  0
 10 58  1  0  0  0
 10 59  1  0  0  0
 13 60  1  0  0  0
 15 61  1  0  0  0
 19 62  1  0  0  0
 21 63  1  0  0  0
 22 64  1  0  0  0
 23 65  1  0  0  0
 24 66  1  0  0  0
 26 67  1  0  0  0
 27 68  1  0  0  0
 27 69  1  0  0  0
 29 70  1  0  0  0
 30 71  1  0  0  0
 30 72  1  0  0  0
 30 73  1  0  0  0
 31 74  1  0  0  0
 31 75  1  0  0  0
 31 76  1  0  0  0
 35 77  1  0  0  0
 36 78  1  0  0  0
 37 79  1  0  0  0
 38 80  1  0  0  0
 39 81  1  0  0  0
 39 82  1  0  0  0
 40 83  1  0  0  0
 41 84  1  0  0  0
 43 85  1  0  0  0
 44 86  1  0  0  0
 45 87  1  0  0  0
 46 88  1  0  0  0
 46 89  1  0  0  0
 47 90  1  0  0  0
 48 91  1  0  0  0
 48 92  1  0  0  0
 48 93  1  0  0  0
 49 94  1  0  0  0
M  END
$$$$
