5jao_ligand
  -I-interpret- 

 27 28  0  0  0  0  0  0  0  0999 V2000
   13.9620    7.6970   -6.5170 C   0  0  0  0  0
   15.2870    7.3510   -5.8860 C   0  0  0  0  0
   15.4910    6.0540   -5.4210 C   0  0  0  0  0
   17.7340    6.6040   -4.7250 C   0  0  0  0  0
   17.5330    7.8940   -5.1990 C   0  0  0  0  0
   16.3260    8.2890   -5.7740 C   0  0  0  0  0
   16.8390   10.0990   -7.4240 C   0  0  0  0  0
   16.7430   11.4040   -7.8720 C   0  0  0  0  0
   16.0230   12.3360   -7.1550 C   0  0  0  0  0
   15.3960   11.9710   -5.9800 C   0  0  0  0  0
   15.4910   10.6670   -5.5330 C   0  0  0  0  0
   16.6950    5.6820   -4.8470 C   0  0  0  0  0
   18.9250    6.2500   -4.1490 N   0  0  0  0  0
   16.2080    9.7070   -6.2440 C   0  0  0  0  0
   14.6910   10.2360   -4.0610 Cl  0  0  0  0  0
   13.7994    7.0628   -7.3884 H   0  0  0  0  0
   13.1630    7.5345   -5.7936 H   0  0  0  0  0
   13.9691    8.7430   -6.8235 H   0  0  0  0  0
   14.6901    5.3201   -5.5104 H   0  0  0  0  0
   18.3430    8.6190   -5.1190 H   0  0  0  0  0
   17.4125    9.3712   -7.9980 H   0  0  0  0  0
   17.2393   11.6973   -8.7971 H   0  0  0  0  0
   15.9487   13.3618   -7.5160 H   0  0  0  0  0
   14.8298   12.7068   -5.4089 H   0  0  0  0  0
   16.8315    4.6618   -4.4882 H   0  0  0  0  0
   19.6748    6.9364   -4.0649 H   0  0  0  0  0
   19.0623    5.2999   -3.8041 H   0  0  0  0  0
  2  1  1  0  0  0
  2  3  4  0  0  0
  6  2  4  0  0  0
  3 12  4  0  0  0
  5  4  4  0  0  0
  4 12  4  0  0  0
  4 13  1  0  0  0
  6  5  4  0  0  0
 14  6  1  0  0  0
  7  8  4  0  0  0
  7 14  4  0  0  0
  8  9  4  0  0  0
  9 10  4  0  0  0
 10 11  4  0  0  0
 11 14  4  0  0  0
 11 15  1  0  0  0
  1 16  1  0  0  0
  1 17  1  0  0  0
  1 18  1  0  0  0
  3 19  1  0  0  0
  5 20  1  0  0  0
  7 21  1  0  0  0
  8 22  1  0  0  0
  9 23  1  0  0  0
 10 24  1  0  0  0
 12 25  1  0  0  0
 13 26  1  0  0  0
 13 27  1  0  0  0
M  END
$$$$
