4fzg_ligand
  -I-interpret- 

 83 83  0  0  0  0  0  0  0  0999 V2000
   58.7260 -134.5790   35.3740 C   0  0  0  0  0
   58.3840 -135.3340   36.2910 O   0  0  0  0  0
   57.6460 -133.9070   34.6030 C   0  0  0  0  0
   56.3220 -134.0450   34.8340 C   0  0  0  0  0
   55.3170 -133.3650   33.9950 C   0  0  0  0  0
   53.9800 -133.4270   34.1480 C   0  0  0  0  0
   53.0960 -132.6930   33.1600 C   0  0  0  0  0
   51.6120 -133.1300   33.1930 C   0  0  0  0  0
   50.8250 -132.3580   32.0920 C   0  0  0  0  0
   49.3150 -132.7310   32.0290 C   0  0  0  0  0
   48.6320 -131.9540   30.8580 C   0  0  0  0  0
   47.1110 -132.2630   30.6700 C   0  0  0  0  0
   46.5460 -131.4590   29.4540 C   0  0  0  0  0
   60.0590 -134.3290   35.0350 N   0  0  0  0  0
   61.2470 -134.9280   35.7180 C   0  0  0  0  0
   61.0560 -134.9680   37.2510 C   0  0  0  0  0
   60.6980 -133.9480   37.8510 O   0  0  0  0  0
   62.5910 -134.1980   35.3940 C   0  0  0  0  0
   62.5310 -132.8930   35.9550 O   0  0  0  0  0
   62.8420 -134.0920   33.8740 C   0  0  0  0  0
   61.2710 -136.1600   37.8550 N   0  0  0  0  0
   61.0990 -136.3570   39.2880 C   0  0  0  0  0
   62.3890 -136.2010   40.0600 C   0  0  0  0  0
   63.4700 -136.3180   39.4690 O   0  0  0  0  0
   60.5710 -137.7960   39.5830 C   0  0  0  0  0
   59.3270 -137.8440   40.5050 C   0  0  0  0  0
   58.2860 -137.1230   39.8270 O   0  0  0  0  0
   58.8880 -139.3060   40.8090 C   0  0  0  0  0
   59.5910 -139.9340   42.0660 C   0  0  0  0  0
   60.9640 -139.4570   42.2490 N   0  0  0  0  0
   62.2500 -135.9630   41.3960 N   0  0  0  0  0
   63.3810 -135.8220   42.2960 C   0  0  0  0  0
   63.5420 -134.3330   42.6560 C   0  0  0  0  0
   63.1480 -136.7070   43.5720 C   0  0  0  0  0
   62.8220 -138.1980   43.2470 C   0  0  0  0  0
   61.3580 -138.5890   43.2480 C   0  0  0  0  0
   60.5990 -138.1210   44.1080 O   0  0  0  0  0
   57.9468 -133.2507   33.7863 H   0  0  0  0  0
   55.9885 -134.6736   35.6597 H   0  0  0  0  0
   55.6918 -132.7545   33.1734 H   0  0  0  0  0
   53.5416 -133.9953   34.9683 H   0  0  0  0  0
   53.4750 -132.9144   32.1623 H   0  0  0  0  0
   53.1265 -131.6359   33.4238 H   0  0  0  0  0
   51.1867 -132.9059   34.1713 H   0  0  0  0  0
   51.5425 -134.2020   33.0082 H   0  0  0  0  0
   51.2668 -132.6190   31.1303 H   0  0  0  0  0
   50.8900 -131.2957   32.3275 H   0  0  0  0  0
   48.8358 -132.4621   32.9704 H   0  0  0  0  0
   49.2133 -133.8031   31.8604 H   0  0  0  0  0
   49.1339 -132.2582   29.9395 H   0  0  0  0  0
   48.7141 -130.8923   31.0907 H   0  0  0  0  0
   46.5727 -131.9725   31.5722 H   0  0  0  0  0
   46.9828 -133.3294   30.4845 H   0  0  0  0  0
   46.6754 -130.3918   29.6340 H   0  0  0  0  0
   47.0841 -131.7441   28.5500 H   0  0  0  0  0
   45.4860 -131.6825   29.3332 H   0  0  0  0  0
   60.2351 -133.6880   34.2614 H   0  0  0  0  0
   61.3172 -135.9415   35.3229 H   0  0  0  0  0
   63.4123 -134.7752   35.8189 H   0  0  0  0  0
   63.3489 -132.4270   35.7667 H   0  0  0  0  0
   62.8858 -135.0925   33.4436 H   0  0  0  0  0
   62.0299 -133.5312   33.4112 H   0  0  0  0  0
   63.7868 -133.5777   33.6981 H   0  0  0  0  0
   61.5653 -136.9522   37.2838 H   0  0  0  0  0
   60.3903 -135.5922   39.6058 H   0  0  0  0  0
   61.3702 -138.3314   40.0956 H   0  0  0  0  0
   60.2784 -138.2317   38.6277 H   0  0  0  0  0
   59.5529 -137.3935   41.4715 H   0  0  0  0  0
   57.4917 -137.1276   40.3661 H   0  0  0  0  0
   59.1636 -139.9130   39.9466 H   0  0  0  0  0
   57.8173 -139.2872   41.0122 H   0  0  0  0  0
   59.6302 -141.0136   41.9209 H   0  0  0  0  0
   59.0179 -139.6450   42.9470 H   0  0  0  0  0
   61.6748 -139.7874   41.5963 H   0  0  0  0  0
   61.3088 -135.8803   41.7804 H   0  0  0  0  0
   64.2998 -136.1638   41.8195 H   0  0  0  0  0
   63.7171 -133.7576   41.7470 H   0  0  0  0  0
   62.6337 -133.9780   43.1429 H   0  0  0  0  0
   64.3887 -134.2134   43.3320 H   0  0  0  0  0
   62.2914 -136.2937   44.1045 H   0  0  0  0  0
   64.0706 -136.6931   44.1523 H   0  0  0  0  0
   63.2911 -138.7871   44.0351 H   0  0  0  0  0
   63.1783 -138.3692   42.2312 H   0  0  0  0  0
  1  2  2  0  0  0
  1  3  1  0  0  0
  1 14  1  0  0  0
  3  4  2  0  0  0
  4  5  1  0  0  0
  5  6  2  0  0  0
  6  7  1  0  0  0
  7  8  1  0  0  0
  8  9  1  0  0  0
  9 10  1  0  0  0
 10 11  1  0  0  0
 11 12  1  0  0  0
 12 13  1  0  0  0
 14 15  1  0  0  0
 15 16  1  0  0  0
 15 18  1  0  0  0
 16 17  2  0  0  0
 16 21  1  0  0  0
 18 19  1  0  0  0
 18 20  1  0  0  0
 21 22  1  0  0  0
 22 23  1  0  0  0
 22 25  1  0  0  0
 23 24  2  0  0  0
 23 31  1  0  0  0
 25 26  1  0  0  0
 26 27  1  0  0  0
 26 28  1  0  0  0
 28 29  1  0  0  0
 29 30  1  0  0  0
 30 36  1  0  0  0
 31 32  1  0  0  0
 32 33  1  0  0  0
 32 34  1  0  0  0
 34 35  1  0  0  0
 35 36  1  0  0  0
 36 37  2  0  0  0
  3 38  1  0  0  0
  4 39  1  0  0  0
  5 40  1  0  0  0
  6 41  1  0  0  0
  7 42  1  0  0  0
  7 43  1  0  0  0
  8 44  1  0  0  0
  8 45  1  0  0  0
  9 46  1  0  0  0
  9 47  1  0  0  0
 10 48  1  0  0  0
 10 49  1  0  0  0
 11 50  1  0  0  0
 11 51  1  0  0  0
 12 52  1  0  0  0
 12 53  1  0  0  0
 13 54  1  0  0  0
 13 55  1  0  0  0
 13 56  1  0  0  0
 14 57  1  0  0  0
 15 58  1  0  0  0
 18 59  1  0  0  0
 19 60  1  0  0  0
 20 61  1  0  0  0
 20 62  1  0  0  0
 20 63  1  0  0  0
 21 64  1  0  0  0
 22 65  1  0  0  0
 25 66  1  0  0  0
 25 67  1  0  0  0
 26 68  1  0  0  0
 27 69  1  0  0  0
 28 70  1  0  0  0
 28 71  1  0  0  0
 29 72  1  0  0  0
 29 73  1  0  0  0
 30 74  1  0  0  0
 31 75  1  0  0  0
 32 76  1  0  0  0
 33 77  1  0  0  0
 33 78  1  0  0  0
 33 79  1  0  0  0
 34 80  1  0  0  0
 34 81  1  0  0  0
 35 82  1  0  0  0
 35 83  1  0  0  0
M  END
$$$$
