5uzj_ligand
  -I-interpret- 

 40 42  0  0  0  0  0  0  0  0999 V2000
   49.5570  109.3720   35.5590 C   0  0  0  0  0
   48.4220  106.1930   35.8980 C   0  0  0  0  0
   49.4560  104.4140   34.6360 C   0  0  0  0  0
   51.8450  104.6500   33.8170 C   0  0  0  0  0
   51.5790  104.0740   31.4360 N   0  0  0  0  0
   51.3970  104.2250   30.0540 C   0  0  0  0  0
   50.6310  102.6950   25.5950 C   0  0  0  0  0
   50.5680  101.7260   24.6060 C   0  0  0  0  0
   51.1300  100.0720   26.1270 C   0  0  0  0  0
   49.6720  108.2080   36.3990 O   0  0  0  0  0
   49.5920  106.9680   35.8220 C   0  0  0  0  0
   48.3450  104.9420   35.2800 C   0  0  0  0  0
   50.6350  105.1660   34.5680 C   0  0  0  0  0
   50.6990  106.4350   35.1530 C   0  0  0  0  0
   51.6940  105.0640   32.3660 C   0  0  0  0  0
   51.6520  106.2540   32.0760 O   0  0  0  0  0
   51.2380  103.1940   29.2650 N   0  0  0  0  0
   51.0330  103.4290   27.9770 C   0  0  0  0  0
   51.0250  104.7560   27.6840 C   0  0  0  0  0
   51.3190  105.7390   29.1280 S   0  0  0  0  0
   50.9150  102.3500   26.9360 C   0  0  0  0  0
   50.8140  100.4580   24.8910 N   0  0  0  0  0
   51.2030  100.9920   27.1940 C   0  0  0  0  0
   51.3620   98.7150   26.3310 N   0  0  0  0  0
   50.3534  109.3616   34.8148 H   0  0  0  0  0
   48.5892  109.3624   35.0575 H   0  0  0  0  0
   49.6417  110.2700   36.1710 H   0  0  0  0  0
   47.5611  106.5737   36.4476 H   0  0  0  0  0
   49.4106  103.4218   34.1869 H   0  0  0  0  0
   51.9091  103.5649   33.8984 H   0  0  0  0  0
   52.7602  105.0662   34.2382 H   0  0  0  0  0
   51.6312  103.1167   31.7843 H   0  0  0  0  0
   50.4589  103.7394   25.3346 H   0  0  0  0  0
   50.3137  102.0112   23.5852 H   0  0  0  0  0
   47.4114  104.3799   35.3036 H   0  0  0  0  0
   51.6201  107.0140   35.0870 H   0  0  0  0  0
   50.8588  105.1638   26.6869 H   0  0  0  0  0
   51.4759  100.6615   28.1962 H   0  0  0  0  0
   51.2873   98.0619   25.5511 H   0  0  0  0  0
   51.6067   98.3735   27.2605 H   0  0  0  0  0
 10  1  1  0  0  0
 11  2  4  0  0  0
 12  2  4  0  0  0
  3 12  4  0  0  0
 13  3  4  0  0  0
  4 13  1  0  0  0
 15  4  1  0  0  0
  6  5  1  0  0  0
  5 15  1  0  0  0
 17  6  4  0  0  0
  6 20  4  0  0  0
  7  8  4  0  0  0
 21  7  4  0  0  0
  8 22  4  0  0  0
 22  9  4  0  0  0
  9 23  4  0  0  0
  9 24  1  0  0  0
 11 10  1  0  0  0
 14 11  4  0  0  0
 13 14  4  0  0  0
 15 16  2  0  0  0
 18 17  4  0  0  0
 18 19  4  0  0  0
 18 21  1  0  0  0
 19 20  4  0  0  0
 21 23  4  0  0  0
  1 25  1  0  0  0
  1 26  1  0  0  0
  1 27  1  0  0  0
  2 28  1  0  0  0
  3 29  1  0  0  0
  4 30  1  0  0  0
  4 31  1  0  0  0
  5 32  1  0  0  0
  7 33  1  0  0  0
  8 34  1  0  0  0
 12 35  1  0  0  0
 14 36  1  0  0  0
 19 37  1  0  0  0
 23 38  1  0  0  0
 24 39  1  0  0  0
 24 40  1  0  0  0
M  END
$$$$
