6nrj_ligand
  -I-interpret- 

 53 57  0  0  0  0  0  0  0  0999 V2000
   25.8570   -5.7350   11.1700 N   0  0  0  0  0
   26.4670   -4.6490   11.6430 C   0  0  0  0  0
   26.0220   -4.0270   12.6470 O   0  0  0  0  0
   27.7150   -4.1770   10.9470 C   0  0  0  0  0
   26.1370   -8.0330    7.4450 C   0  0  0  0  0
   25.3020   -9.0960    7.1500 C   0  0  0  0  0
   25.5420   -9.9040    6.0410 C   0  0  0  0  0
   24.6950  -11.1170    5.8060 C   0  0  0  0  0
   28.4820   -3.1950   11.5820 C   0  0  0  0  0
   29.6230   -2.6740   10.9890 C   0  0  0  0  0
   30.0240   -3.1000    9.7350 C   0  0  0  0  0
   29.2780   -4.0790    9.0860 C   0  0  0  0  0
   29.4870   -4.7990    7.8220 C   0  0  0  0  0
   28.4300   -5.8080    7.8050 C   0  0  0  0  0
   28.2680   -6.7410    6.8670 C   0  0  0  0  0
   27.2460   -7.7510    6.6520 C   0  0  0  0  0
   25.1720  -12.0400    4.9650 N   0  0  0  0  0
   30.3090   -4.5720    6.9100 O   0  0  0  0  0
   23.6270  -11.2560    6.3940 O   0  0  0  0  0
   24.4250  -13.2440    4.6140 C   0  0  0  0  0
   25.2750  -14.4930    4.7470 C   0  0  0  0  0
   25.4820  -14.8870    6.1680 C   0  0  0  0  0
   25.0160  -16.0550    6.6720 N   0  0  0  0  0
   25.3880  -16.1020    8.0020 C   0  0  0  0  0
   25.2140  -17.0560    8.9960 C   0  0  0  0  0
   25.7730  -16.8120   10.2440 C   0  0  0  0  0
   26.4670  -15.6330   10.4940 C   0  0  0  0  0
   26.6350  -14.6810    9.4950 C   0  0  0  0  0
   26.0910  -14.9220    8.2350 C   0  0  0  0  0
   26.1360  -14.1680    7.0610 N   0  0  0  0  0
   26.6240   -9.5990    5.2190 C   0  0  0  0  0
   27.4670   -8.5500    5.5270 C   0  0  0  0  0
   27.6430   -5.6750    8.9400 O   0  0  0  0  0
   28.1540   -4.6340    9.6980 C   0  0  0  0  0
   25.0102   -6.0815   11.6209 H   0  0  0  0  0
   26.2368   -6.2199   10.3570 H   0  0  0  0  0
   25.9234   -7.4069    8.3113 H   0  0  0  0  0
   24.4465   -9.3036    7.7928 H   0  0  0  0  0
   28.1770   -2.8314   12.5633 H   0  0  0  0  0
   30.2094   -1.9215   11.5162 H   0  0  0  0  0
   30.9101   -2.6754    9.2631 H   0  0  0  0  0
   29.0562   -6.7475    6.1142 H   0  0  0  0  0
   26.0939  -11.8975    4.5524 H   0  0  0  0  0
   24.1035  -13.1573    3.5761 H   0  0  0  0  0
   23.5778  -13.3321    5.2942 H   0  0  0  0  0
   26.2509  -14.2862    4.3078 H   0  0  0  0  0
   24.7584  -15.3090    4.2416 H   0  0  0  0  0
   24.6542  -17.9710    8.8023 H   0  0  0  0  0
   25.6665  -17.5529   11.0363 H   0  0  0  0  0
   26.8841  -15.4533   11.4849 H   0  0  0  0  0
   27.1837  -13.7605    9.6942 H   0  0  0  0  0
   26.8070  -10.1940    4.3242 H   0  0  0  0  0
   28.3200   -8.3413    4.8813 H   0  0  0  0  0
  2  1  1  0  0  0
  2  3  2  0  0  0
  4  2  1  0  0  0
  4  9  4  0  0  0
 34  4  4  0  0  0
  5  6  4  0  0  0
 16  5  4  0  0  0
  6  7  4  0  0  0
  7  8  1  0  0  0
  7 31  4  0  0  0
  8 17  1  0  0  0
  8 19  2  0  0  0
 10  9  4  0  0  0
 11 10  4  0  0  0
 12 11  4  0  0  0
 13 12  1  0  0  0
 12 34  4  0  0  0
 14 13  1  0  0  0
 13 18  2  0  0  0
 15 14  2  0  0  0
 14 33  1  0  0  0
 15 16  1  0  0  0
 16 32  4  0  0  0
 17 20  1  0  0  0
 20 21  1  0  0  0
 21 22  1  0  0  0
 22 23  4  0  0  0
 22 30  4  0  0  0
 23 24  4  0  0  0
 24 25  4  0  0  0
 24 29  4  0  0  0
 25 26  4  0  0  0
 26 27  4  0  0  0
 27 28  4  0  0  0
 28 29  4  0  0  0
 29 30  4  0  0  0
 31 32  4  0  0  0
 33 34  1  0  0  0
  1 35  1  0  0  0
  1 36  1  0  0  0
  5 37  1  0  0  0
  6 38  1  0  0  0
  9 39  1  0  0  0
 10 40  1  0  0  0
 11 41  1  0  0  0
 15 42  1  0  0  0
 17 43  1  0  0  0
 20 44  1  0  0  0
 20 45  1  0  0  0
 21 46  1  0  0  0
 21 47  1  0  0  0
 25 48  1  0  0  0
 26 49  1  0  0  0
 27 50  1  0  0  0
 28 51  1  0  0  0
 31 52  1  0  0  0
 32 53  1  0  0  0
M  END
$$$$
