5mra_ligand
  -I-interpret- 

 69 73  0  0  0  0  0  0  0  0999 V2000
  -18.2970  -31.7060   17.8250 C   0  0  0  0  0
  -17.2610  -31.3010   18.6470 C   0  0  0  0  0
  -15.9270  -31.4100   18.2420 C   0  0  0  0  0
  -15.5540  -31.9220   17.0140 C   0  0  0  0  0
  -14.2280  -32.0070   16.6930 O   0  0  0  0  0
  -16.6130  -32.3690   16.0890 C   0  0  0  0  0
  -16.2920  -32.9310   14.7470 C   0  0  0  0  0
  -15.1150  -33.0490   14.3510 O   0  0  0  0  0
  -17.4010  -33.3670   13.8630 C   0  0  0  0  0
  -17.1030  -33.9330   12.5110 C   0  0  0  0  0
  -15.8130  -34.0560   12.0850 O   0  0  0  0  0
  -18.2380  -34.3670   11.6430 C   0  0  0  0  0
  -18.0730  -34.9650   10.2940 C   0  0  0  0  0
  -18.3850  -36.3770   10.3570 O   0  0  0  0  0
  -19.0470  -34.2940    9.3090 C   0  0  0  0  0
  -20.4830  -34.0030    9.8300 C   0  0  0  0  0
  -21.4150  -34.6170    8.9360 O   0  0  0  0  0
  -20.7780  -32.4980    9.8150 C   0  0  0  0  0
  -20.5680  -31.8810    8.7800 O   0  0  0  0  0
  -21.3370  -31.6780   10.9740 C   0  0  0  0  0
  -20.2860  -31.0910   11.7540 O   0  0  0  0  0
  -20.7420  -34.6750   11.1900 C   0  0  0  0  0
  -19.6360  -34.2410   12.1260 C   0  0  0  0  0
  -19.9280  -33.6710   13.4610 C   0  0  0  0  0
  -21.2120  -33.5610   13.8760 O   0  0  0  0  0
  -18.8140  -33.2320   14.3400 C   0  0  0  0  0
  -19.1240  -32.6680   15.6860 C   0  0  0  0  0
  -20.3020  -32.5610   16.0860 O   0  0  0  0  0
  -18.0200  -32.2330   16.5650 C   0  0  0  0  0
  -13.5690  -30.9210   16.0660 C   0  0  0  0  0
  -17.4130  -37.3500   10.7970 C   0  0  0  0  0
  -17.4170  -37.5790   12.3180 C   0  0  0  0  0
  -18.7330  -38.1830   12.7990 C   0  0  0  0  0
  -18.6760  -38.4050   14.2330 N   0  3  0  0  0
  -19.0140  -39.4830   12.0410 C   0  0  0  0  0
  -18.0900  -40.4980   12.4590 O   0  0  0  0  0
  -18.9260  -39.2510   10.5220 C   0  0  0  0  0
  -17.6790  -38.6190   10.1620 O   0  0  0  0  0
  -19.1090  -40.5450    9.7230 C   0  0  0  0  0
  -19.3293  -31.6130   18.1624 H   0  0  0  0  0
  -17.4889  -30.8887   19.6299 H   0  0  0  0  0
  -15.1465  -31.0761   18.9256 H   0  0  0  0  0
  -15.8033  -34.4340   11.2026 H   0  0  0  0  0
  -17.0459  -34.8185    9.9599 H   0  0  0  0  0
  -19.1652  -34.9940    8.4819 H   0  0  0  0  0
  -18.6120  -33.3228    9.0734 H   0  0  0  0  0
  -22.3091  -34.4479    9.2419 H   0  0  0  0  0
  -21.9180  -32.3389   11.6173 H   0  0  0  0  0
  -21.9540  -30.8774   10.5660 H   0  0  0  0  0
  -20.6683  -30.5830   12.4733 H   0  0  0  0  0
  -20.7502  -35.7599   11.0850 H   0  0  0  0  0
  -21.7143  -34.3788   11.5838 H   0  0  0  0  0
  -21.2311  -33.1759   14.7552 H   0  0  0  0  0
  -14.0529  -30.7050   15.1135 H   0  0  0  0  0
  -13.6240  -30.0434   16.7102 H   0  0  0  0  0
  -12.5248  -31.1819   15.8936 H   0  0  0  0  0
  -16.4381  -36.9487   10.5201 H   0  0  0  0  0
  -17.2837  -36.6151   12.8091 H   0  0  0  0  0
  -16.6130  -38.2737   12.5611 H   0  0  0  0  0
  -19.5515  -37.4921   12.5972 H   0  0  0  0  0
  -19.5579  -38.8086   14.5487 H   0  0  0  0  0
  -17.9117  -39.0458   14.4465 H   0  0  0  0  0
  -18.5185  -37.5159   14.7075 H   0  0  0  0  0
  -20.0258  -39.8175   12.2702 H   0  0  0  0  0
  -18.2709  -41.3104   11.9806 H   0  0  0  0  0
  -19.7482  -38.5837   10.2636 H   0  0  0  0  0
  -18.3309  -41.2556   10.0016 H   0  0  0  0  0
  -20.0878  -40.9712    9.9432 H   0  0  0  0  0
  -19.0381  -40.3258    8.6576 H   0  0  0  0  0
  1  2  4  0  0  0
  1 29  4  0  0  0
  2  3  4  0  0  0
  3  4  4  0  0  0
  4  5  1  0  0  0
  4  6  4  0  0  0
  5 30  1  0  0  0
  6  7  1  0  0  0
  6 29  4  0  0  0
  7  8  2  0  0  0
  7  9  1  0  0  0
  9 10  4  0  0  0
  9 26  4  0  0  0
 10 11  1  0  0  0
 10 12  4  0  0  0
 12 13  1  0  0  0
 12 23  4  0  0  0
 13 14  1  0  0  0
 13 15  1  0  0  0
 14 31  1  0  0  0
 15 16  1  0  0  0
 16 17  1  0  0  0
 16 18  1  0  0  0
 16 22  1  0  0  0
 18 19  2  0  0  0
 18 20  1  0  0  0
 20 21  1  0  0  0
 22 23  1  0  0  0
 23 24  4  0  0  0
 24 25  1  0  0  0
 24 26  4  0  0  0
 26 27  1  0  0  0
 27 28  2  0  0  0
 27 29  1  0  0  0
 31 32  1  0  0  0
 31 38  1  0  0  0
 32 33  1  0  0  0
 33 34  1  0  0  0
 33 35  1  0  0  0
 35 36  1  0  0  0
 35 37  1  0  0  0
 37 38  1  0  0  0
 37 39  1  0  0  0
  1 40  1  0  0  0
  2 41  1  0  0  0
  3 42  1  0  0  0
 11 43  1  0  0  0
 13 44  1  0  0  0
 15 45  1  0  0  0
 15 46  1  0  0  0
 17 47  1  0  0  0
 20 48  1  0  0  0
 20 49  1  0  0  0
 21 50  1  0  0  0
 22 51  1  0  0  0
 22 52  1  0  0  0
 25 53  1  0  0  0
 30 54  1  0  0  0
 30 55  1  0  0  0
 30 56  1  0  0  0
 31 57  1  0  0  0
 32 58  1  0  0  0
 32 59  1  0  0  0
 33 60  1  0  0  0
 34 61  1  0  0  0
 34 62  1  0  0  0
 34 63  1  0  0  0
 35 64  1  0  0  0
 36 65  1  0  0  0
 37 66  1  0  0  0
 39 67  1  0  0  0
 39 68  1  0  0  0
 39 69  1  0  0  0
M  END
$$$$
