1j14_ligand
  -I-interpret- 

 17 17  0  0  0  0  0  0  0  0999 V2000
    7.7230   50.4040   55.5330 C   0  0  0  0  0
    7.7130   49.2610   54.7110 C   0  0  0  0  0
    7.8590   47.9780   55.2700 C   0  0  0  0  0
    8.0070   47.8330   56.6610 C   0  0  0  0  0
    8.0120   48.9710   57.4870 C   0  0  0  0  0
    7.8750   50.2500   56.9220 C   0  0  0  0  0
    7.5690   51.7870   54.9280 C   0  0  0  0  0
    7.2160   52.7920   55.6900 N   0  0  0  0  0
    7.8020   51.9530   53.6580 N   0  0  0  0  0
    7.5912   49.3708   53.6334 H   0  0  0  0  0
    7.8574   47.0984   54.6263 H   0  0  0  0  0
    8.1176   46.8405   57.0979 H   0  0  0  0  0
    8.1222   48.8608   58.5658 H   0  0  0  0  0
    7.8867   51.1296   57.5656 H   0  0  0  0  0
    7.1192   53.7255   55.2905 H   0  0  0  0  0
    7.0379   52.6412   56.6829 H   0  0  0  0  0
    7.7107   52.8787   53.2395 H   0  0  0  0  0
  1  7  1  0  0  0
  1  6  4  0  0  0
  1  2  4  0  0  0
  2  3  4  0  0  0
  3  4  4  0  0  0
  4  5  4  0  0  0
  5  6  4  0  0  0
  7  9  2  0  0  0
  7  8  1  0  0  0
  2 10  1  0  0  0
  3 11  1  0  0  0
  4 12  1  0  0  0
  5 13  1  0  0  0
  6 14  1  0  0  0
  8 15  1  0  0  0
  8 16  1  0  0  0
  9 17  1  0  0  0
M  END
$$$$
