6d5h_ligand
  -I-interpret- 

 59 63  0  0  0  0  0  0  0  0999 V2000
   36.4600   29.4790   23.1980 N   0  0  0  0  0
   36.8480   26.7740   18.9630 N   0  3  0  0  0
   32.9860   29.0480   22.1100 C   0  0  0  0  0
   35.5380   28.9860   22.3390 C   0  0  0  0  0
   35.7290   29.9830   24.2930 C   0  0  0  0  0
   36.1720   30.6370   25.4570 C   0  0  0  0  0
   35.2050   30.9800   26.3900 C   0  0  0  0  0
   33.3870   30.1010   25.0060 C   0  0  0  0  0
   38.4180   30.3080   26.4560 C   0  0  0  0  0
   40.3130   31.6270   25.7270 C   0  0  0  0  0
   38.1540   32.0020   24.8080 C   0  0  0  0  0
   37.3010   28.1630   19.1410 C   0  0  0  0  0
   37.2760   28.4980   20.6370 C   0  0  0  0  0
   33.4500   31.5070   21.5230 C   0  0  0  0  0
   33.9300   33.9280   21.0840 C   0  0  0  0  0
   32.1020   33.6760   18.9820 F   0  0  0  0  0
   32.3070   32.6000   19.7290 C   0  0  0  0  0
   31.6120   31.4090   19.4280 C   0  0  0  0  0
   30.6010   31.4450   18.3440 C   0  0  0  0  0
   33.2150   32.6610   20.7700 C   0  0  0  0  0
   32.7810   30.3050   21.2420 C   0  0  0  0  0
   31.8690   30.2610   20.1820 C   0  0  0  0  0
   34.2460   29.1660   22.8070 N   0  0  0  0  0
   34.3590   29.7590   24.0780 C   0  0  0  0  0
   33.8540   30.6860   26.1470 C   0  0  0  0  0
   32.6670   31.0260   27.3870 Cl  0  0  0  0  0
   37.5810   30.9930   25.5790 C   0  0  0  0  0
   37.2340   32.9740   23.7220 Cl  0  0  0  0  0
   39.5000   32.3300   24.8600 C   0  0  0  0  0
   39.7680   30.6280   26.5220 C   0  0  0  0  0
   35.9120   28.3580   21.1360 N   0  0  0  0  0
   35.5110   26.5010   19.5400 C   0  0  0  0  0
   35.5250   26.9230   21.0310 C   0  0  0  0  0
   37.5156   26.1726   19.4457 H   0  0  0  0  0
   36.7869   26.6007   17.9597 H   0  0  0  0  0
   32.9943   28.1596   21.4785 H   0  0  0  0  0
   32.1721   28.9584   22.8295 H   0  0  0  0  0
   35.4948   31.4793   27.3146 H   0  0  0  0  0
   32.3263   29.9159   24.8363 H   0  0  0  0  0
   38.0135   29.5200   27.0912 H   0  0  0  0  0
   41.3771   31.8553   25.7868 H   0  0  0  0  0
   36.6422   28.8406   18.5980 H   0  0  0  0  0
   38.3131   28.2759   18.7523 H   0  0  0  0  0
   37.6183   29.5216   20.7889 H   0  0  0  0  0
   37.9348   27.8171   21.1759 H   0  0  0  0  0
   34.1662   31.5409   22.3439 H   0  0  0  0  0
   33.6958   34.2326   22.1040 H   0  0  0  0  0
   35.0043   33.7708   20.9879 H   0  0  0  0  0
   33.6116   34.7052   20.3892 H   0  0  0  0  0
   29.8259   32.1689   18.5957 H   0  0  0  0  0
   31.0818   31.7356   17.4100 H   0  0  0  0  0
   30.1547   30.4569   18.2322 H   0  0  0  0  0
   31.3574   29.3285   19.9436 H   0  0  0  0  0
   39.9064   33.1230   24.2322 H   0  0  0  0  0
   40.4126   30.0836   27.2121 H   0  0  0  0  0
   35.2784   25.4395   19.4554 H   0  0  0  0  0
   34.7501   27.0648   19.0003 H   0  0  0  0  0
   34.5323   26.7817   21.4585 H   0  0  0  0  0
   36.2444   26.3114   21.5755 H   0  0  0  0  0
  4  1  4  0  0  0
  1  5  4  0  0  0
 12  2  1  0  0  0
  2 32  1  0  0  0
 21  3  1  0  0  0
  3 23  1  0  0  0
 23  4  4  0  0  0
  4 31  1  0  0  0
  5  6  4  0  0  0
  5 24  4  0  0  0
  6  7  4  0  0  0
  6 27  1  0  0  0
  7 25  4  0  0  0
 24  8  4  0  0  0
  8 25  4  0  0  0
 27  9  4  0  0  0
  9 30  4  0  0  0
 29 10  4  0  0  0
 30 10  4  0  0  0
 27 11  4  0  0  0
 11 28  1  0  0  0
 11 29  4  0  0  0
 13 12  1  0  0  0
 31 13  1  0  0  0
 20 14  4  0  0  0
 14 21  4  0  0  0
 20 15  1  0  0  0
 17 16  1  0  0  0
 17 18  4  0  0  0
 17 20  4  0  0  0
 18 19  1  0  0  0
 18 22  4  0  0  0
 21 22  4  0  0  0
 23 24  4  0  0  0
 25 26  1  0  0  0
 31 33  1  0  0  0
 32 33  1  0  0  0
  2 34  1  0  0  0
  2 35  1  0  0  0
  3 36  1  0  0  0
  3 37  1  0  0  0
  7 38  1  0  0  0
  8 39  1  0  0  0
  9 40  1  0  0  0
 10 41  1  0  0  0
 12 42  1  0  0  0
 12 43  1  0  0  0
 13 44  1  0  0  0
 13 45  1  0  0  0
 14 46  1  0  0  0
 15 47  1  0  0  0
 15 48  1  0  0  0
 15 49  1  0  0  0
 19 50  1  0  0  0
 19 51  1  0  0  0
 19 52  1  0  0  0
 22 53  1  0  0  0
 29 54  1  0  0  0
 30 55  1  0  0  0
 32 56  1  0  0  0
 32 57  1  0  0  0
 33 58  1  0  0  0
 33 59  1  0  0  0
M  END
$$$$
