1dwc_ligand
  -I-interpret- 

 71 73  0  0  0  0  0  0  0  0999 V2000
   29.5620   11.9600   25.3330 C   0  0  0  0  0
   29.3790   11.3580   24.1210 C   0  0  0  0  0
   30.1090   10.2040   23.8000 C   0  0  0  0  0
   31.0580    9.6760   24.6800 C   0  0  0  0  0
   31.3110   10.3570   25.8650 C   0  0  0  0  0
   32.2630    9.8270   26.8440 C   0  0  0  0  0
   32.8640   10.9560   27.6000 C   0  0  0  0  0
   31.7960   11.7570   28.2400 C   0  0  0  0  0
   30.8260   12.2470   27.3000 N   0  0  0  0  0
   30.5960   11.5460   26.2180 C   0  0  0  0  0
   28.7520   13.5130   25.6380 S   0  0  0  0  0
   29.7320   14.8200   25.1830 N   0  0  0  0  0
   30.4930   14.8340   23.9360 C   0  0  0  0  0
   31.8340   14.1520   24.1210 C   0  0  0  0  0
   32.5200   14.2960   25.1110 O   0  0  0  0  0
   30.7090   16.2410   23.4460 C   0  0  0  0  0
   30.9130   17.1700   24.5960 C   0  0  0  0  0
   31.3610   18.5140   24.0090 C   0  0  0  0  0
   31.5800   19.5010   25.0670 N   0  0  0  0  0
   32.8380   19.8780   25.3590 C   0  0  0  0  0
   33.8690   19.3020   24.6870 N   0  0  0  0  0
   33.0480   20.7010   26.4060 N   0  0  0  0  0
   33.7940   10.4240   28.6730 C   0  0  0  0  0
   28.5540   13.6490   27.0570 O   0  0  0  0  0
   27.6690   13.3990   24.6800 O   0  0  0  0  0
   32.3370   13.5310   23.0090 N   0  0  0  0  0
   31.6320   13.5940   21.7350 C   0  0  0  0  0
   31.5630   12.2080   21.0910 C   0  0  0  0  0
   32.9310   11.6240   21.0310 C   0  0  0  0  0
   33.5710   11.5970   22.4090 C   0  0  0  0  0
   33.6280   12.9300   23.0790 C   0  0  0  0  0
   32.2420   14.6520   20.8170 C   0  0  0  0  0
   31.8780   14.5770   19.6490 O   0  0  0  0  0
   32.5180   15.7230   21.3050 O   0  0  0  0  0
   32.8000   10.2190   20.4830 C   0  0  0  0  0
   28.6685   11.7726   23.4059 H   0  0  0  0  0
   29.9326    9.7090   22.8450 H   0  0  0  0  0
   31.5867    8.7528   24.4428 H   0  0  0  0  0
   33.0474    9.2724   26.3290 H   0  0  0  0  0
   31.7461    9.1589   27.5329 H   0  0  0  0  0
   33.4268   11.5815   26.9071 H   0  0  0  0  0
   32.2650   12.6189   28.7146 H   0  0  0  0  0
   31.2765   11.1131   28.9497 H   0  0  0  0  0
   30.3281   13.1206   27.4715 H   0  0  0  0  0
   29.7925   15.6272   25.8036 H   0  0  0  0  0
   29.9120   14.2899   23.1914 H   0  0  0  0  0
   29.8301   16.5594   22.8854 H   0  0  0  0  0
   31.5953   16.2628   22.8119 H   0  0  0  0  0
   31.6643   16.7777   25.2814 H   0  0  0  0  0
   29.9922   17.2855   25.1678 H   0  0  0  0  0
   30.5807   18.8824   23.3430 H   0  0  0  0  0
   32.2966   18.3658   23.4697 H   0  0  0  0  0
   30.7900   19.8976   25.5759 H   0  0  0  0  0
   34.8307   19.4884   24.9714 H   0  0  0  0  0
   33.6813   18.6832   23.8982 H   0  0  0  0  0
   32.2591   21.0285   26.9635 H   0  0  0  0  0
   34.2361   11.2595   29.2157 H   0  0  0  0  0
   33.2291    9.7984   29.3641 H   0  0  0  0  0
   34.5830    9.8330   28.2078 H   0  0  0  0  0
   30.6043   13.9088   21.9161 H   0  0  0  0  0
   31.1588   12.2943   20.0824 H   0  0  0  0  0
   30.9164   11.5618   21.6847 H   0  0  0  0  0
   33.5710   12.2304   20.3901 H   0  0  0  0  0
   34.5982   11.2553   22.2815 H   0  0  0  0  0
   32.9613   10.9462   23.0357 H   0  0  0  0  0
   33.9246   12.8089   24.1209 H   0  0  0  0  0
   34.3600   13.5648   22.5798 H   0  0  0  0  0
   31.7015   13.6595   19.4283 H   0  0  0  0  0
   32.1620    9.6310   21.1428 H   0  0  0  0  0
   32.3573   10.2584   19.4877 H   0  0  0  0  0
   33.7867    9.7595   20.4252 H   0  0  0  0  0
  1  2  4  0  0  0
  1 10  4  0  0  0
  1 11  1  0  0  0
  2  3  4  0  0  0
  3  4  4  0  0  0
  4  5  4  0  0  0
  5  6  1  0  0  0
  5 10  4  0  0  0
  6  7  1  0  0  0
  7  8  1  0  0  0
  7 23  1  0  0  0
  8  9  1  0  0  0
  9 10  1  0  0  0
 11 12  1  0  0  0
 11 24  2  0  0  0
 11 25  2  0  0  0
 12 13  1  0  0  0
 13 14  1  0  0  0
 13 16  1  0  0  0
 14 15  2  0  0  0
 14 26  1  0  0  0
 16 17  1  0  0  0
 17 18  1  0  0  0
 18 19  1  0  0  0
 19 20  1  0  0  0
 20 21  1  0  0  0
 20 22  2  0  0  0
 26 27  1  0  0  0
 26 31  1  0  0  0
 27 28  1  0  0  0
 27 32  1  0  0  0
 28 29  1  0  0  0
 29 30  1  0  0  0
 29 35  1  0  0  0
 30 31  1  0  0  0
 32 33  1  0  0  0
 32 34  2  0  0  0
  2 36  1  0  0  0
  3 37  1  0  0  0
  4 38  1  0  0  0
  6 39  1  0  0  0
  6 40  1  0  0  0
  7 41  1  0  0  0
  8 42  1  0  0  0
  8 43  1  0  0  0
  9 44  1  0  0  0
 12 45  1  0  0  0
 13 46  1  0  0  0
 16 47  1  0  0  0
 16 48  1  0  0  0
 17 49  1  0  0  0
 17 50  1  0  0  0
 18 51  1  0  0  0
 18 52  1  0  0  0
 19 53  1  0  0  0
 21 54  1  0  0  0
 21 55  1  0  0  0
 22 56  1  0  0  0
 23 57  1  0  0  0
 23 58  1  0  0  0
 23 59  1  0  0  0
 27 60  1  0  0  0
 28 61  1  0  0  0
 28 62  1  0  0  0
 29 63  1  0  0  0
 30 64  1  0  0  0
 30 65  1  0  0  0
 31 66  1  0  0  0
 31 67  1  0  0  0
 33 68  1  0  0  0
 35 69  1  0  0  0
 35 70  1  0  0  0
 35 71  1  0  0  0
M  END
$$$$
