5t8o_ligand
  -I-interpret- 

 40 42  0  0  0  0  0  0  0  0999 V2000
   42.2620   19.4780    2.0390 C   0  0  0  0  0
   42.9550   17.1650   -0.6530 C   0  0  0  0  0
   42.5740   18.3830    1.4240 C   0  0  0  0  0
   42.9130   17.2430    2.1360 C   0  0  0  0  0
   43.0270   16.9060   -4.2100 C   0  0  0  0  0
   43.2660   16.0690    1.4790 C   0  0  0  0  0
   43.2930   16.0190    0.0820 C   0  0  0  0  0
   44.4910   14.7600   -1.6210 C   0  0  0  0  0
   43.6080   14.9400   -2.8490 C   0  0  0  0  0
   42.6370   18.2100   -3.9820 C   0  0  0  0  0
   42.9260   17.2400   -2.0490 C   0  0  0  0  0
   42.5880   18.3810   -2.6680 N   0  0  0  0  0
   42.0070   20.4840   -4.4100 N   0  0  0  0  0
   42.0060   20.5130    2.5640 C   0  0  0  0  0
   42.3360   19.0690   -6.1340 O   0  0  0  0  0
   42.3140   19.2920   -4.9350 C   0  0  0  0  0
   43.2000   16.3310   -3.0100 N   0  0  0  0  0
   43.6400   14.8170   -0.4870 O   0  0  0  0  0
   42.6050   18.3390    0.0400 C   0  0  0  0  0
   41.7570   21.7940    3.2580 C   0  0  0  0  0
   42.2930   21.7590    4.5810 O   0  0  0  0  0
   40.2640   22.0350    3.3790 C   0  0  0  0  0
   42.4380   22.9230    2.4990 C   0  0  0  0  0
   42.9028   17.2669    3.2257 H   0  0  0  0  0
   43.1679   16.4325   -5.1816 H   0  0  0  0  0
   43.5234   15.1817    2.0573 H   0  0  0  0  0
   45.2500   15.5409   -1.5736 H   0  0  0  0  0
   45.0176   13.8065   -1.6608 H   0  0  0  0  0
   42.7141   14.3285   -2.7259 H   0  0  0  0  0
   44.1749   14.6407   -3.7306 H   0  0  0  0  0
   41.7747   21.2663   -5.0220 H   0  0  0  0  0
   42.0053   20.6103   -3.3979 H   0  0  0  0  0
   42.3522   19.2354   -0.5263 H   0  0  0  0  0
   42.1226   22.5975    5.0164 H   0  0  0  0  0
   39.8216   22.0731    2.3836 H   0  0  0  0  0
   39.8112   21.2233    3.9484 H   0  0  0  0  0
   40.0904   22.9811    3.8916 H   0  0  0  0  0
   43.5108   22.7349    2.4561 H   0  0  0  0  0
   42.0359   22.9732    1.4871 H   0  0  0  0  0
   42.2535   23.8669    3.0119 H   0  0  0  0  0
  3  1  1  0  0  0
  1 14  3  0  0  0
  7  2  4  0  0  0
  2 11  1  0  0  0
  2 19  4  0  0  0
  4  3  4  0  0  0
 19  3  4  0  0  0
  6  4  4  0  0  0
  5 10  4  0  0  0
 17  5  4  0  0  0
  7  6  4  0  0  0
 18  7  1  0  0  0
  9  8  1  0  0  0
  8 18  1  0  0  0
  9 17  1  0  0  0
 10 12  4  0  0  0
 10 16  1  0  0  0
 11 12  4  0  0  0
 11 17  4  0  0  0
 16 13  1  0  0  0
 14 20  1  0  0  0
 16 15  2  0  0  0
 20 21  1  0  0  0
 20 22  1  0  0  0
 20 23  1  0  0  0
  4 24  1  0  0  0
  5 25  1  0  0  0
  6 26  1  0  0  0
  8 27  1  0  0  0
  8 28  1  0  0  0
  9 29  1  0  0  0
  9 30  1  0  0  0
 13 31  1  0  0  0
 13 32  1  0  0  0
 19 33  1  0  0  0
 21 34  1  0  0  0
 22 35  1  0  0  0
 22 36  1  0  0  0
 22 37  1  0  0  0
 23 38  1  0  0  0
 23 39  1  0  0  0
 23 40  1  0  0  0
M  END
$$$$
