5jin_ligand
  -I-interpret- 

132131  0  0  0  0  0  0  0  0999 V2000
   92.3300   19.3780   56.3080 N   0  3  0  0  0
   92.6750   19.3290   57.7740 C   0  0  0  0  0
   94.1490   19.0700   58.0300 C   0  0  0  0  0
   94.8800   18.6290   57.1320 O   0  0  0  0  0
   91.8630   18.2360   58.4950 C   0  0  0  0  0
   90.3520   18.4060   58.3650 C   0  0  0  0  0
   89.5510   17.6310   59.4070 C   0  0  0  0  0
   88.0890   18.0560   59.3630 C   0  0  0  0  0
   87.2020   17.3130   60.3030 N   0  3  0  0  0
   94.5690   19.3140   59.2710 N   0  0  0  0  0
   95.9520   19.1330   59.6780 C   0  0  0  0  0
   96.3050   17.6600   59.9600 C   0  0  0  0  0
   97.4710   17.2900   59.8870 O   0  0  0  0  0
   96.2850   20.0210   60.9150 C   0  0  0  0  0
   96.0700   21.5300   60.6930 C   0  0  0  0  0
   96.4370   22.0170   59.2590 C   0  0  0  0  0
   95.6200   22.6360   58.5260 O   0  0  0  0  0
   97.6740   21.7170   58.8430 N   0  0  0  0  0
   95.3270   16.8250   60.3000 N   0  0  0  0  0
   95.6460   15.4340   60.6290 C   0  0  0  0  0
   94.8410   14.5360   59.7480 C   0  0  0  0  0
   93.7590   14.9080   59.2750 O   0  0  0  0  0
   95.3770   15.1010   62.0850 C   0  0  0  0  0
   94.0690   15.5810   62.4350 O   0  0  0  0  0
   96.4430   15.6910   63.0080 C   0  0  0  0  0
   95.3920   13.3540   59.5230 N   0  0  0  0  0
   94.6910   12.2610   58.7790 C   0  0  0  0  0
   93.4470   11.8020   59.5650 C   0  0  0  0  0
   93.5360   11.6360   60.7670 O   0  0  0  0  0
   95.6510   11.0820   58.6140 C   0  0  0  0  0
   92.3290   11.6070   58.8860 N   0  0  0  0  0
   91.1460   11.1310   59.5150 C   0  0  0  0  0
   90.5600   10.0740   58.6130 C   0  0  0  0  0
   90.3030   10.3140   57.4010 O   0  0  0  0  0
   90.0640   12.2570   59.6940 C   0  0  0  0  0
   90.5270   13.6130   60.1790 C   0  0  0  0  0
   90.9840   13.5880   61.6040 C   0  0  0  0  0
   91.4400   14.9300   61.9980 N   0  0  0  0  0
   90.6730   15.9350   62.4090 C   0  0  0  0  0
   89.3680   15.8200   62.5020 N   0  0  0  0  0
   91.2490   17.0800   62.7320 N   0  0  0  0  0
   90.2260    8.9490   59.2280 N   0  0  0  0  0
   89.3430    7.9820   58.6060 C   0  0  0  0  0
   87.9460    8.5530   58.6480 C   0  0  0  0  0
   87.5760    9.3430   59.5750 O   0  0  0  0  0
   89.3600    6.6830   59.3950 C   0  0  0  0  0
   90.7600    6.0970   59.5580 C   0  0  0  0  0
   90.7370    4.7280   60.7760 S   0  0  0  0  0
   92.2780    4.9590   61.6110 C   0  0  0  0  0
   87.1300    8.1590   57.6990 N   0  0  0  0  0
   85.8520    8.7990   57.5570 C   0  0  0  0  0
   84.9860    7.8760   56.7360 C   0  0  0  0  0
   85.5190    7.1060   56.0210 O   0  0  0  0  0
   86.0600   10.1870   56.8890 C   0  0  0  0  0
   86.3470   10.0200   55.5190 O   0  0  0  0  0
   83.6650    7.9070   56.9140 N   0  0  0  0  0
   82.7350    7.0300   56.1980 C   0  0  0  0  0
   82.6820    7.3420   54.7190 C   0  0  0  0  0
   82.6380    8.5160   54.3550 O   0  0  0  0  0
   81.3100    7.2430   56.6940 C   0  0  0  0  0
   81.0090    8.6410   56.6010 O   0  0  0  0  0
   81.1430    6.7900   58.1430 C   0  0  0  0  0
   82.6840    6.4150   53.9100 O   0  0  0  0  0
   92.8798   20.1079   55.8548 H   0  0  0  0  0
   92.5410   18.4765   55.8800 H   0  0  0  0  0
   91.3366   19.5826   56.2004 H   0  0  0  0  0
   92.4250   20.3151   58.1654 H   0  0  0  0  0
   92.1071   18.2956   59.5556 H   0  0  0  0  0
   92.1237   17.2817   58.0373 H   0  0  0  0  0
   90.0657   18.0232   57.3854 H   0  0  0  0  0
   90.1313   19.4639   58.5073 H   0  0  0  0  0
   89.9552   17.8396   60.3976 H   0  0  0  0  0
   89.6208   16.5646   59.1923 H   0  0  0  0  0
   87.7275   17.8531   58.3549 H   0  0  0  0  0
   88.0528   19.1063   59.6523 H   0  0  0  0  0
   86.2462   17.6570   60.2103 H   0  0  0  0  0
   87.2297   16.3181   60.0800 H   0  0  0  0  0
   87.5254   17.4574   61.2596 H   0  0  0  0  0
   93.8934   19.6405   59.9619 H   0  0  0  0  0
   96.5675   19.4495   58.8359 H   0  0  0  0  0
   97.3429   19.8781   61.1353 H   0  0  0  0  0
   95.6121   19.7170   61.7168 H   0  0  0  0  0
   96.7220   22.0560   61.3903 H   0  0  0  0  0
   95.0091   21.7312   60.8416 H   0  0  0  0  0
   97.9783   21.9907   57.9087 H   0  0  0  0  0
   98.3120   21.2148   59.4604 H   0  0  0  0  0
   94.3611   17.1514   60.3314 H   0  0  0  0  0
   96.7132   15.2865   60.4635 H   0  0  0  0  0
   95.4183   14.0194   62.2138 H   0  0  0  0  0
   93.8894   15.3749   63.3552 H   0  0  0  0  0
   97.4190   15.2873   62.7384 H   0  0  0  0  0
   96.4548   16.7756   62.9007 H   0  0  0  0  0
   96.2128   15.4293   64.0408 H   0  0  0  0  0
   96.3348   13.1805   59.8716 H   0  0  0  0  0
   94.3769   12.6286   57.8021 H   0  0  0  0  0
   96.5291   11.4056   58.0551 H   0  0  0  0  0
   95.9563   10.7233   59.5970 H   0  0  0  0  0
   95.1495   10.2797   58.0727 H   0  0  0  0  0
   92.3150   11.8032   57.8851 H   0  0  0  0  0
   91.4076   10.7569   60.5048 H   0  0  0  0  0
   89.3872   11.8888   60.4650 H   0  0  0  0  0
   89.6569   12.4289   58.6976 H   0  0  0  0  0
   89.6842   14.3006   60.1086 H   0  0  0  0  0
   91.3706   13.9206   59.5611 H   0  0  0  0  0
   91.8062   12.8802   61.7089 H   0  0  0  0  0
   90.1567   13.2833   62.2450 H   0  0  0  0  0
   92.4435   15.1068   61.9512 H   0  0  0  0  0
   88.9147   14.9402   62.2553 H   0  0  0  0  0
   90.6806   17.8649   63.0503 H   0  0  0  0  0
   92.2619   17.1787   62.6630 H   0  0  0  0  0
   90.5979    8.7593   60.1586 H   0  0  0  0  0
   89.6627    7.7823   57.5832 H   0  0  0  0  0
   88.7593    5.9563   58.8480 H   0  0  0  0  0
   88.9732    6.8966   60.3914 H   0  0  0  0  0
   91.4339    6.8773   59.9117 H   0  0  0  0  0
   91.0995    5.7125   58.5962 H   0  0  0  0  0
   93.0942    4.8803   60.8929 H   0  0  0  0  0
   92.2942    5.9453   62.0748 H   0  0  0  0  0
   92.3923    4.1933   62.3783 H   0  0  0  0  0
   87.4008    7.4050   57.0678 H   0  0  0  0  0
   85.3607    8.9787   58.5133 H   0  0  0  0  0
   86.8930   10.6979   57.3718 H   0  0  0  0  0
   85.1509   10.7786   56.9970 H   0  0  0  0  0
   86.4743   10.8804   55.1127 H   0  0  0  0  0
   83.2823    8.5754   57.5828 H   0  0  0  0  0
   83.0950    6.0163   56.3737 H   0  0  0  0  0
   80.6325    6.6498   56.0797 H   0  0  0  0  0
   80.1132    8.7955   56.9098 H   0  0  0  0  0
   81.3788    5.7286   58.2200 H   0  0  0  0  0
   81.8180    7.3607   58.7808 H   0  0  0  0  0
   80.1134    6.9586   58.4587 H   0  0  0  0  0
   82.7217    5.5799   54.3820 H   0  0  0  0  0
  1  2  1  0  0  0
  2  3  1  0  0  0
  2  5  1  0  0  0
  3  4  2  0  0  0
  3 10  1  0  0  0
  5  6  1  0  0  0
  6  7  1  0  0  0
  7  8  1  0  0  0
  8  9  1  0  0  0
 10 11  1  0  0  0
 11 12  1  0  0  0
 11 14  1  0  0  0
 12 13  2  0  0  0
 12 19  1  0  0  0
 14 15  1  0  0  0
 15 16  1  0  0  0
 16 17  2  0  0  0
 16 18  1  0  0  0
 19 20  1  0  0  0
 20 21  1  0  0  0
 20 23  1  0  0  0
 21 22  2  0  0  0
 21 26  1  0  0  0
 23 24  1  0  0  0
 23 25  1  0  0  0
 26 27  1  0  0  0
 27 28  1  0  0  0
 27 30  1  0  0  0
 28 29  2  0  0  0
 28 31  1  0  0  0
 31 32  1  0  0  0
 32 33  1  0  0  0
 32 35  1  0  0  0
 33 34  2  0  0  0
 33 42  1  0  0  0
 35 36  1  0  0  0
 36 37  1  0  0  0
 37 38  1  0  0  0
 38 39  1  0  0  0
 39 40  2  0  0  0
 39 41  1  0  0  0
 42 43  1  0  0  0
 43 44  1  0  0  0
 43 46  1  0  0  0
 44 45  2  0  0  0
 44 50  1  0  0  0
 46 47  1  0  0  0
 47 48  1  0  0  0
 48 49  1  0  0  0
 50 51  1  0  0  0
 51 52  1  0  0  0
 51 54  1  0  0  0
 52 53  2  0  0  0
 52 56  1  0  0  0
 54 55  1  0  0  0
 56 57  1  0  0  0
 57 58  1  0  0  0
 57 60  1  0  0  0
 58 59  2  0  0  0
 58 63  1  0  0  0
 60 61  1  0  0  0
 60 62  1  0  0  0
  1 64  1  0  0  0
  1 65  1  0  0  0
  1 66  1  0  0  0
  2 67  1  0  0  0
  5 68  1  0  0  0
  5 69  1  0  0  0
  6 70  1  0  0  0
  6 71  1  0  0  0
  7 72  1  0  0  0
  7 73  1  0  0  0
  8 74  1  0  0  0
  8 75  1  0  0  0
  9 76  1  0  0  0
  9 77  1  0  0  0
  9 78  1  0  0  0
 10 79  1  0  0  0
 11 80  1  0  0  0
 14 81  1  0  0  0
 14 82  1  0  0  0
 15 83  1  0  0  0
 15 84  1  0  0  0
 18 85  1  0  0  0
 18 86  1  0  0  0
 19 87  1  0  0  0
 20 88  1  0  0  0
 23 89  1  0  0  0
 24 90  1  0  0  0
 25 91  1  0  0  0
 25 92  1  0  0  0
 25 93  1  0  0  0
 26 94  1  0  0  0
 27 95  1  0  0  0
 30 96  1  0  0  0
 30 97  1  0  0  0
 30 98  1  0  0  0
 31 99  1  0  0  0
 32100  1  0  0  0
 35101  1  0  0  0
 35102  1  0  0  0
 36103  1  0  0  0
 36104  1  0  0  0
 37105  1  0  0  0
 37106  1  0  0  0
 38107  1  0  0  0
 40108  1  0  0  0
 41109  1  0  0  0
 41110  1  0  0  0
 42111  1  0  0  0
 43112  1  0  0  0
 46113  1  0  0  0
 46114  1  0  0  0
 47115  1  0  0  0
 47116  1  0  0  0
 49117  1  0  0  0
 49118  1  0  0  0
 49119  1  0  0  0
 50120  1  0  0  0
 51121  1  0  0  0
 54122  1  0  0  0
 54123  1  0  0  0
 55124  1  0  0  0
 56125  1  0  0  0
 57126  1  0  0  0
 60127  1  0  0  0
 61128  1  0  0  0
 62129  1  0  0  0
 62130  1  0  0  0
 62131  1  0  0  0
 63132  1  0  0  0
M  END
$$$$
