### 
### Created by X-TOOL on Mon Sep 10 21:13:28 2018
### 

@<TRIPOS>MOLECULE
5jin_ligand
  132   131     1     0     0
SMALL
GAST_HUCK


@<TRIPOS>ATOM
      1 N          92.3300   19.3780   56.3080 N.4       1 LYS         0.2379
      2 CA         92.6750   19.3290   57.7740 C.3       1 LYS         0.0650
      3 C          94.1490   19.0700   58.0300 C.2       1 LYS         0.2267
      4 O          94.8800   18.6290   57.1320 O.2       1 LYS        -0.3907
      5 CB         91.8630   18.2360   58.4950 C.3       1 LYS         0.0080
      6 CG         90.3520   18.4060   58.3650 C.3       1 LYS        -0.0410
      7 CD         89.5510   17.6310   59.4070 C.3       1 LYS        -0.0123
      8 CE         88.0890   18.0560   59.3630 C.3       1 LYS        -0.0354
      9 NZ         87.2020   17.3130   60.3030 N.4       1 LYS         0.2185
     10 N          94.5690   19.3140   59.2710 N.am      1 GLN        -0.2609
     11 CA         95.9520   19.1330   59.6780 C.3       1 GLN         0.1331
     12 C          96.3050   17.6600   59.9600 C.2       1 GLN         0.2041
     13 O          97.4710   17.2900   59.8870 O.2       1 GLN        -0.3944
     14 CB         96.2850   20.0210   60.9150 C.3       1 GLN         0.0045
     15 CG         96.0700   21.5300   60.6930 C.3       1 GLN         0.0412
     16 CD         96.4370   22.0170   59.2590 C.2       1 GLN         0.1737
     17 OE1        95.6200   22.6360   58.5260 O.2       1 GLN        -0.3973
     18 NE2        97.6740   21.7170   58.8430 N.am      1 GLN        -0.3009
     19 N          95.3270   16.8250   60.3000 N.am      1 THR        -0.2613
     20 CA         95.6460   15.4340   60.6290 C.3       1 THR         0.1565
     21 C          94.8410   14.5360   59.7480 C.2       1 THR         0.2065
     22 O          93.7590   14.9080   59.2750 O.2       1 THR        -0.3943
     23 CB         95.3770   15.1010   62.0850 C.3       1 THR         0.0924
     24 OG1        94.0690   15.5810   62.4350 O.3       1 THR        -0.3874
     25 CG2        96.4430   15.6910   63.0080 C.3       1 THR        -0.0346
     26 N          95.3920   13.3540   59.5230 N.am      1 ALA        -0.2639
     27 CA         94.6910   12.2610   58.7790 C.3       1 ALA         0.1282
     28 C          93.4470   11.8020   59.5650 C.2       1 ALA         0.2036
     29 O          93.5360   11.6360   60.7670 O.2       1 ALA        -0.3944
     30 CB         95.6510   11.0820   58.6140 C.3       1 ALA        -0.0244
     31 N          92.3290   11.6070   58.8860 N.am      1 ARG        -0.2637
     32 CA         91.1460   11.1310   59.5150 C.3       1 ARG         0.1311
     33 C          90.5600   10.0740   58.6130 C.2       1 ARG         0.2039
     34 O          90.3030   10.3140   57.4010 O.2       1 ARG        -0.3944
     35 CB         90.0640   12.2570   59.6940 C.3       1 ARG        -0.0092
     36 CG         90.5270   13.6130   60.1790 C.3       1 ARG        -0.0156
     37 CD         90.9840   13.5880   61.6040 C.3       1 ARG         0.0627
     38 NE         91.4400   14.9300   61.9980 N.pl3     1 ARG        -0.2723
     39 CZ         90.6730   15.9350   62.4090 C.cat     1 ARG         0.2882
     40 NH1        89.3680   15.8200   62.5020 N.pl3     1 ARG        -0.2849
     41 NH2        91.2490   17.0800   62.7320 N.pl3     1 ARG        -0.2849
     42 N          90.2260    8.9490   59.2280 N.am      1 MET        -0.2637
     43 CA         89.3430    7.9820   58.6060 C.3       1 MET         0.1317
     44 C          87.9460    8.5530   58.6480 C.2       1 MET         0.2040
     45 O          87.5760    9.3430   59.5750 O.2       1 MET        -0.3944
     46 CB         89.3600    6.6830   59.3950 C.3       1 MET        -0.0034
     47 CG         90.7600    6.0970   59.5580 C.3       1 MET        -0.0024
     48 SD         90.7370    4.7280   60.7760 S.3       1 MET        -0.1639
     49 CE         92.2780    4.9590   61.6110 C.3       1 MET        -0.0181
     50 N          87.1300    8.1590   57.6990 N.am      1 SER        -0.2616
     51 CA         85.8520    8.7990   57.5570 C.3       1 SER         0.1539
     52 C          84.9860    7.8760   56.7360 C.2       1 SER         0.2057
     53 O          85.5190    7.1060   56.0210 O.2       1 SER        -0.3943
     54 CB         86.0600   10.1870   56.8890 C.3       1 SER         0.0843
     55 OG         86.3470   10.0200   55.5190 O.3       1 SER        -0.3903
     56 N          83.6650    7.9070   56.9140 N.am      1 THR        -0.2669
     57 CA         82.7350    7.0300   56.1980 C.3       1 THR         0.1198
     58 C          82.6820    7.3420   54.7190 C.2       1 THR         0.0626
     59 O          82.6380    8.5160   54.3550 O.co2     1 THR        -0.5665
     60 CB         81.3100    7.2430   56.6940 C.3       1 THR         0.0869
     61 OG1        81.0090    8.6410   56.6010 O.3       1 THR        -0.3880
     62 CG2        81.1430    6.7900   58.1430 C.3       1 THR        -0.0352
     63 OXT        82.6840    6.4150   53.9100 O.co2     1 THR        -0.5665
     64 H1         91.3429   19.5520   56.2008 H         1 LYS         0.2015
     65 H2         92.5645   18.4970   55.8780 H         1 LYS         0.2015
     66 H3         92.8516   20.1178   55.8646 H         1 LYS         0.2015
     67 H4         92.4164   20.3049   58.2108 H         1 LYS         0.1098
     68 H5         92.1239   18.2577   59.5634 H         1 LYS         0.0346
     69 H6         92.1402   17.2602   58.0696 H         1 LYS         0.0346
     70 H7         90.0489   18.0584   57.3664 H         1 LYS         0.0270
     71 H8         90.1134   19.4747   58.4693 H         1 LYS         0.0270
     72 H9         89.9599   17.8363   60.4073 H         1 LYS         0.0317
     73 H10        89.6236   16.5541   59.1951 H         1 LYS         0.0317
     74 H11        87.7156   17.8979   58.3405 H         1 LYS         0.0813
     75 H12        88.0343   19.1260   59.6120 H         1 LYS         0.0813
     76 H13        86.2571   17.6522   60.2123 H         1 LYS         0.1994
     77 H14        87.5206   17.4550   61.2487 H         1 LYS         0.1994
     78 H15        87.2285   16.3295   60.0836 H         1 LYS         0.1994
     79 H16        93.9066   19.6341   59.9484 H         1 GLN         0.1885
     80 H17        96.5854   19.4684   58.8436 H         1 GLN         0.0801
     81 H18        97.3403   19.8595   61.1801 H         1 GLN         0.0337
     82 H19        95.6441   19.7017   61.7500 H         1 GLN         0.0337
     83 H20        96.6932   22.0783   61.4148 H         1 GLN         0.0504
     84 H21        95.0097   21.7591   60.8755 H         1 GLN         0.0504
     85 H22        97.9774   21.9986   57.9327 H         1 GLN         0.1814
     86 H23        98.2943   21.2113   59.4426 H         1 GLN         0.1814
     87 H24        94.3801   17.1450   60.3308 H         1 THR         0.1884
     88 H25        96.7148   15.2663   60.4300 H         1 THR         0.0826
     89 H26        95.3930   14.0073   62.2015 H         1 THR         0.0639
     90 H27        93.8912   15.3770   63.3457 H         1 THR         0.2101
     91 H28        96.2118   15.4275   64.0506 H         1 THR         0.0257
     92 H29        96.4559   16.7857   62.9007 H         1 THR         0.0257
     93 H30        97.4285   15.2844   62.7370 H         1 THR         0.0257
     94 H31        96.3163   13.1839   59.8647 H         1 ALA         0.1883
     95 H32        94.3831   12.6287   57.7891 H         1 ALA         0.0797
     96 H33        95.1460   10.2716   58.0679 H         1 ALA         0.0277
     97 H34        95.9598   10.7190   59.6054 H         1 ALA         0.0277
     98 H35        96.5376   11.4072   58.0500 H         1 ALA         0.0277
     99 H36        92.3153   11.7993   57.9048 H         1 ARG         0.1883
    100 H37        91.3971   10.7047   60.4975 H         1 ARG         0.0800
    101 H38        89.3221   11.8865   60.4167 H         1 ARG         0.0313
    102 H39        89.5814   12.4059   58.7168 H         1 ARG         0.0313
    103 H40        89.6921   14.3236   60.0890 H         1 ARG         0.0301
    104 H41        91.3627   13.9471   59.5466 H         1 ARG         0.0301
    105 H42        91.8135   12.8734   61.7103 H         1 ARG         0.0689
    106 H43        90.1495   13.2800   62.2511 H         1 ARG         0.0689
    107 H44        92.4533   15.1085   61.9508 H         1 ARG         0.2642
    108 H45        88.8023   16.6182   62.8241 H         1 ARG         0.2615
    109 H46        88.9102   14.9316   62.2529 H         1 ARG         0.2615
    110 H47        92.2718   17.1797   62.6623 H         1 ARG         0.2615
    111 H48        90.6751   17.8726   63.0534 H         1 ARG         0.2615
    112 H49        90.5907    8.7630   60.1404 H         1 MET         0.1883
    113 H50        89.6528    7.7959   57.5671 H         1 MET         0.0800
    114 H51        88.7319    5.9474   58.8711 H         1 MET         0.0320
    115 H52        88.9430    6.8755   60.3945 H         1 MET         0.0320
    116 H53        91.4443    6.8836   59.9088 H         1 MET         0.0378
    117 H54        91.1085    5.7138   58.5876 H         1 MET         0.0378
    118 H55        92.3946    4.1868   62.3857 H         1 MET         0.0340
    119 H56        92.2956    5.9540   62.0796 H         1 MET         0.0340
    120 H57        93.1027    4.8798   60.8874 H         1 MET         0.0340
    121 H58        87.3955    7.4197   57.0801 H         1 SER         0.1884
    122 H59        85.3909    8.9450   58.5450 H         1 SER         0.0823
    123 H60        86.8986   10.7051   57.3771 H         1 SER         0.0606
    124 H61        85.1443   10.7864   56.9997 H         1 SER         0.0606
    125 H62        87.1382    9.5031   55.4231 H         1 SER         0.2097
    126 H63        83.2898    8.5623   57.5697 H         1 THR         0.1876
    127 H64        83.0411    5.9847   56.3515 H         1 THR         0.0752
    128 H65        80.6172    6.6718   56.0586 H         1 THR         0.0632
    129 H66        81.0861    8.9209   55.6965 H         1 THR         0.2100
    130 H67        80.1043    6.9596   58.4628 H         1 THR         0.0256
    131 H68        81.8237    7.3652   58.7878 H         1 THR         0.0256
    132 H69        81.3807    5.7189   58.2221 H         1 THR         0.0256
@<TRIPOS>BOND
     1    1    2 1  
     2    2    3 1  
     3    2    5 1  
     4    3    4 2  
     5    3   10 am 
     6    5    6 1  
     7    6    7 1  
     8    7    8 1  
     9    8    9 1  
    10   10   11 1  
    11   11   12 1  
    12   11   14 1  
    13   12   13 2  
    14   12   19 am 
    15   14   15 1  
    16   15   16 1  
    17   16   17 2  
    18   16   18 am 
    19   19   20 1  
    20   20   21 1  
    21   20   23 1  
    22   21   22 2  
    23   21   26 am 
    24   23   24 1  
    25   23   25 1  
    26   26   27 1  
    27   27   28 1  
    28   27   30 1  
    29   28   29 2  
    30   28   31 am 
    31   31   32 1  
    32   32   33 1  
    33   32   35 1  
    34   33   34 2  
    35   33   42 am 
    36   35   36 1  
    37   36   37 1  
    38   37   38 1  
    39   38   39 ar 
    40   39   40 ar 
    41   39   41 ar 
    42   42   43 1  
    43   43   44 1  
    44   43   46 1  
    45   44   45 2  
    46   44   50 am 
    47   46   47 1  
    48   47   48 1  
    49   48   49 1  
    50   50   51 1  
    51   51   52 1  
    52   51   54 1  
    53   52   53 2  
    54   52   56 am 
    55   54   55 1  
    56   56   57 1  
    57   57   58 1  
    58   57   60 1  
    59   58   59 ar 
    60   58   63 ar 
    61   60   61 1  
    62   60   62 1  
    63    1   64 1  
    64    1   65 1  
    65    1   66 1  
    66    2   67 1  
    67    5   68 1  
    68    5   69 1  
    69    6   70 1  
    70    6   71 1  
    71    7   72 1  
    72    7   73 1  
    73    8   74 1  
    74    8   75 1  
    75    9   76 1  
    76    9   77 1  
    77    9   78 1  
    78   10   79 1  
    79   11   80 1  
    80   14   81 1  
    81   14   82 1  
    82   15   83 1  
    83   15   84 1  
    84   18   85 1  
    85   18   86 1  
    86   19   87 1  
    87   20   88 1  
    88   23   89 1  
    89   24   90 1  
    90   25   91 1  
    91   25   92 1  
    92   25   93 1  
    93   26   94 1  
    94   27   95 1  
    95   30   96 1  
    96   30   97 1  
    97   30   98 1  
    98   31   99 1  
    99   32  100 1  
   100   35  101 1  
   101   35  102 1  
   102   36  103 1  
   103   36  104 1  
   104   37  105 1  
   105   37  106 1  
   106   38  107 1  
   107   40  108 1  
   108   40  109 1  
   109   41  110 1  
   110   41  111 1  
   111   42  112 1  
   112   43  113 1  
   113   46  114 1  
   114   46  115 1  
   115   47  116 1  
   116   47  117 1  
   117   49  118 1  
   118   49  119 1  
   119   49  120 1  
   120   50  121 1  
   121   51  122 1  
   122   54  123 1  
   123   54  124 1  
   124   55  125 1  
   125   56  126 1  
   126   57  127 1  
   127   60  128 1  
   128   61  129 1  
   129   62  130 1  
   130   62  131 1  
   131   62  132 1  
@<TRIPOS>SUBSTRUCTURE
     1 LYS         1

