### 
### Created by X-TOOL on Mon Sep 10 21:13:12 2018
### 

@<TRIPOS>MOLECULE
3v0p_ligand
   47    49     1     0     0
SMALL
GAST_HUCK


@<TRIPOS>ATOM
      1 CBD       -38.2520  -56.7010    2.6400 C.3       1 4GW         0.0843
      2 OAD       -38.5810  -57.3470    1.4770 O.3       1 4GW        -0.3820
      3 CBE       -37.1030  -55.7470    2.6570 C.2       1 4GW         0.0263
      4 SBB       -35.7760  -55.6700    1.5910 S.3       1 4GW        -0.0492
      5 CAP       -36.8810  -54.7510    3.6200 C.2       1 4GW        -0.0919
      6 CAQ       -35.6710  -54.0070    3.4340 C.2       1 4GW        -0.1003
      7 CBF       -34.9110  -54.4190    2.3310 C.2       1 4GW         0.0071
      8 CBG       -33.5970  -53.8210    1.8370 C.2       1 4GW         0.0648
      9 CAR       -33.1390  -52.6140    2.3820 C.2       1 4GW         0.0745
     10 CBH       -32.9310  -54.3620    0.7430 C.2       1 4GW         0.2015
     11 OAE       -33.3020  -55.4210    0.2360 O.2       1 4GW        -0.4029
     12 NAV       -31.8130  -53.7430    0.3110 N.am      1 4GW        -0.1827
     13 CBI       -31.3750  -52.6130    0.8850 C.2       1 4GW         0.3369
     14 OAF       -30.3550  -52.0070    0.4490 O.2       1 4GW        -0.3791
     15 NBS       -32.0230  -52.0650    1.9080 N.am      1 4GW        -0.1558
     16 C1'       -31.4910  -50.7830    2.5300 C.3       1 4GW         0.2080
     17 O4'       -31.9910  -50.6160    3.9270 O.3       1 4GW        -0.3357
     18 C2'       -31.8370  -49.5350    1.8050 C.3       1 4GW         0.1394
     19 O2'       -30.8140  -48.6280    1.8990 O.3       1 4GW        -0.3835
     20 C3'       -33.0390  -49.1360    2.5300 C.3       1 4GW         0.1150
     21 O3'       -33.3520  -47.7990    2.2890 O.3       1 4GW        -0.3864
     22 C4'       -32.6800  -49.4000    3.9500 C.3       1 4GW         0.1189
     23 C5'       -33.9000  -49.5730    4.8280 C.3       1 4GW         0.1132
     24 O5'       -34.8580  -50.4850    4.4120 O.3       1 4GW        -0.2436
     25 PBT       -36.2700  -49.9800    3.9020 P.3       1 4GW         0.3276
     26 OAN       -36.8390  -50.9980    2.9400 O.co2     1 4GW        -0.5556
     27 OAG       -36.1550  -48.6310    3.1720 O.co2     1 4GW        -0.5556
     28 OBA       -37.2840  -49.9330    5.0950 O.3       1 4GW        -0.1548
     29 PBU       -37.7140  -48.7700    5.9810 P.3       1 4GW         0.2069
     30 OAO       -38.9650  -49.1600    6.6630 O.co2     1 4GW        -0.5891
     31 OAH       -36.6380  -48.5190    7.0720 O.co2     1 4GW        -0.5891
     32 O1        -38.0040  -47.5060    5.1840 O.co2     1 4GW        -0.5891
     33 H1        -38.0316  -57.4790    3.3857 H         1 4GW         0.0728
     34 H2        -39.1415  -56.1346    2.9529 H         1 4GW         0.0728
     35 H3        -39.3276  -57.9137    1.6312 H         1 4GW         0.2128
     36 H4        -37.5710  -54.5595    4.4405 H         1 4GW         0.0262
     37 H5        -35.3685  -53.1933    4.0915 H         1 4GW         0.0244
     38 H6        -33.6911  -52.1296    3.1860 H         1 4GW         0.1186
     39 H7        -31.3003  -54.1348   -0.4530 H         1 4GW         0.2264
     40 H8        -30.3945  -50.8672    2.5542 H         1 4GW         0.1007
     41 H9        -32.0570  -49.7248    0.7441 H         1 4GW         0.0677
     42 H10       -30.0270  -48.9994    1.5181 H         1 4GW         0.2101
     43 H11       -33.8958  -49.7580    2.2318 H         1 4GW         0.0648
     44 H12       -34.1365  -47.5665    2.7719 H         1 4GW         0.2100
     45 H13       -32.0487  -48.5897    4.3435 H         1 4GW         0.0651
     46 H14       -34.3908  -48.5919    4.9090 H         1 4GW         0.0648
     47 H15       -33.5501  -49.8911    5.8212 H         1 4GW         0.0648
@<TRIPOS>BOND
     1    1    2 1  
     2    1    3 1  
     3    3    4 1  
     4    3    5 2  
     5    4    7 1  
     6    5    6 1  
     7    6    7 2  
     8    7    8 1  
     9    8    9 2  
    10    8   10 1  
    11    9   15 1  
    12   10   11 2  
    13   10   12 am 
    14   12   13 am 
    15   13   14 2  
    16   13   15 am 
    17   15   16 1  
    18   16   17 1  
    19   16   18 1  
    20   17   22 1  
    21   18   19 1  
    22   18   20 1  
    23   20   21 1  
    24   20   22 1  
    25   22   23 1  
    26   23   24 1  
    27   24   25 1  
    28   25   26 ar 
    29   25   27 ar 
    30   25   28 1  
    31   28   29 1  
    32   29   30 ar 
    33   29   31 ar 
    34   29   32 ar 
    35    1   33 1  
    36    1   34 1  
    37    2   35 1  
    38    5   36 1  
    39    6   37 1  
    40    9   38 1  
    41   12   39 1  
    42   16   40 1  
    43   18   41 1  
    44   19   42 1  
    45   20   43 1  
    46   21   44 1  
    47   22   45 1  
    48   23   46 1  
    49   23   47 1  
@<TRIPOS>SUBSTRUCTURE
     1 4GW         1

