3v0p_ligand
  -I-interpret- 

 50 52  0  0  0  0  0  0  0  0999 V2000
  -38.2520  -56.7010    2.6400 C   0  0  0  0  0
  -38.5810  -57.3470    1.4770 O   0  0  0  0  0
  -37.1030  -55.7470    2.6570 C   0  0  0  0  0
  -35.7760  -55.6700    1.5910 S   0  0  0  0  0
  -36.8810  -54.7510    3.6200 C   0  0  0  0  0
  -35.6710  -54.0070    3.4340 C   0  0  0  0  0
  -34.9110  -54.4190    2.3310 C   0  0  0  0  0
  -33.5970  -53.8210    1.8370 C   0  0  0  0  0
  -33.1390  -52.6140    2.3820 C   0  0  0  0  0
  -32.9310  -54.3620    0.7430 C   0  0  0  0  0
  -33.3020  -55.4210    0.2360 O   0  0  0  0  0
  -31.8130  -53.7430    0.3110 N   0  0  0  0  0
  -31.3750  -52.6130    0.8850 C   0  0  0  0  0
  -30.3550  -52.0070    0.4490 O   0  0  0  0  0
  -32.0230  -52.0650    1.9080 N   0  0  0  0  0
  -31.4910  -50.7830    2.5300 C   0  0  0  0  0
  -31.9910  -50.6160    3.9270 O   0  0  0  0  0
  -31.8370  -49.5350    1.8050 C   0  0  0  0  0
  -30.8140  -48.6280    1.8990 O   0  0  0  0  0
  -33.0390  -49.1360    2.5300 C   0  0  0  0  0
  -33.3520  -47.7990    2.2890 O   0  0  0  0  0
  -32.6800  -49.4000    3.9500 C   0  0  0  0  0
  -33.9000  -49.5730    4.8280 C   0  0  0  0  0
  -34.8580  -50.4850    4.4120 O   0  0  0  0  0
  -36.2700  -49.9800    3.9020 P   0  0  0  0  0
  -36.8390  -50.9980    2.9400 O   0  0  0  0  0
  -36.1550  -48.6310    3.1720 O   0  0  0  0  0
  -37.2840  -49.9330    5.0950 O   0  0  0  0  0
  -37.7140  -48.7700    5.9810 P   0  0  0  0  0
  -38.9650  -49.1600    6.6630 O   0  0  0  0  0
  -36.6380  -48.5190    7.0720 O   0  0  0  0  0
  -38.0040  -47.5060    5.1840 O   0  0  0  0  0
  -37.9581  -57.4977    3.3234 H   0  0  0  0  0
  -39.1228  -56.0868    2.8692 H   0  0  0  0  0
  -39.3355  -57.9197    1.6328 H   0  0  0  0  0
  -37.5716  -54.5593    4.4412 H   0  0  0  0  0
  -35.3683  -53.1926    4.0921 H   0  0  0  0  0
  -33.6916  -52.1292    3.1868 H   0  0  0  0  0
  -31.2901  -54.1427   -0.4682 H   0  0  0  0  0
  -30.4096  -50.9124    2.4850 H   0  0  0  0  0
  -31.9959  -49.6312    0.7309 H   0  0  0  0  0
  -31.0529  -47.8277    1.4258 H   0  0  0  0  0
  -33.9349  -49.6778    2.2268 H   0  0  0  0  0
  -34.1447  -47.5641    2.7770 H   0  0  0  0  0
  -32.1064  -48.5656    4.3536 H   0  0  0  0  0
  -34.3985  -48.6037    4.8351 H   0  0  0  0  0
  -33.5273  -49.9500    5.7804 H   0  0  0  0  0
  -35.7945  -47.9737    3.7716 H   0  0  0  0  0
  -35.8129  -48.2633    6.6532 H   0  0  0  0  0
  -37.2068  -47.2268    4.7278 H   0  0  0  0  0
  1  2  1  0  0  0
  1  3  1  0  0  0
  3  4  4  0  0  0
  3  5  4  0  0  0
  4  7  4  0  0  0
  5  6  4  0  0  0
  6  7  4  0  0  0
  7  8  1  0  0  0
  8  9  2  0  0  0
  8 10  1  0  0  0
  9 15  1  0  0  0
 10 11  2  0  0  0
 10 12  1  0  0  0
 12 13  1  0  0  0
 13 14  2  0  0  0
 13 15  1  0  0  0
 15 16  1  0  0  0
 16 17  1  0  0  0
 16 18  1  0  0  0
 17 22  1  0  0  0
 18 19  1  0  0  0
 18 20  1  0  0  0
 20 21  1  0  0  0
 20 22  1  0  0  0
 22 23  1  0  0  0
 23 24  1  0  0  0
 24 25  1  0  0  0
 25 26  2  0  0  0
 25 27  1  0  0  0
 25 28  1  0  0  0
 28 29  1  0  0  0
 29 30  2  0  0  0
 29 31  1  0  0  0
 29 32  1  0  0  0
  1 33  1  0  0  0
  1 34  1  0  0  0
  2 35  1  0  0  0
  5 36  1  0  0  0
  6 37  1  0  0  0
  9 38  1  0  0  0
 12 39  1  0  0  0
 16 40  1  0  0  0
 18 41  1  0  0  0
 19 42  1  0  0  0
 20 43  1  0  0  0
 21 44  1  0  0  0
 22 45  1  0  0  0
 23 46  1  0  0  0
 23 47  1  0  0  0
 27 48  1  0  0  0
 31 49  1  0  0  0
 32 50  1  0  0  0
M  END
$$$$
