1llb_ligand
  -I-interpret- 

 46 47  0  0  0  0  0  0  0  0999 V2000
   78.4780    3.1490   29.0340 O   0  0  0  0  0
   77.6500    4.0720   29.4420 C   0  0  0  0  0
   78.1190    5.3790   30.0230 C   0  0  0  0  0
   77.9560    6.4710   28.9810 C   0  0  0  0  0
   78.8280    8.0660   29.4490 S   0  0  0  0  0
   79.7850    8.1370   27.8440 C   0  0  0  0  0
   81.1210    8.8530   28.1260 C   0  0  0  0  0
   78.9500    8.8680   26.8240 C   0  0  0  0  0
   79.9220    6.6460   27.5630 C   0  0  0  0  0
   80.4700    6.3160   26.1490 C   0  0  0  0  0
   81.6600    5.8970   26.0730 O   0  0  0  0  0
   79.6640    6.4960   25.2050 O   0  0  0  0  0
   78.5650    6.0830   27.6970 N   0  3  0  0  0
   79.4970    5.2040   30.4910 N   0  0  0  0  0
   79.9890    5.9290   31.6200 C   0  0  0  0  0
   79.1920    6.6270   32.3030 O   0  0  0  0  0
   81.4070    5.7420   31.8660 C   0  0  0  0  0
   82.4680    5.8250   30.9530 N   0  0  0  0  0
   82.1000    6.2100   29.5580 O   0  0  0  0  0
   83.2860    6.5860   28.8370 C   0  0  0  0  0
   81.8960    5.4350   33.1900 C   0  0  0  0  0
   81.2950    5.9180   34.4040 C   0  0  0  0  0
   82.0550    5.3660   35.7630 S   0  0  0  0  0
   83.1720    4.5420   34.8390 C   0  0  0  0  0
   82.8890    4.7240   33.5030 N   0  0  0  0  0
   84.2390    3.7660   35.3140 N   0  0  0  0  0
   76.5786    3.8894   29.3588 H   0  0  0  0  0
   77.5237    5.6855   30.8831 H   0  0  0  0  0
   76.8780    6.6165   28.9109 H   0  0  0  0  0
   81.6969    8.9215   27.2031 H   0  0  0  0  0
   80.9216    9.8548   28.5066 H   0  0  0  0  0
   81.6857    8.2871   28.8670 H   0  0  0  0  0
   78.7266    9.8701   27.1900 H   0  0  0  0  0
   79.5019    8.9369   25.8866 H   0  0  0  0  0
   78.0199    8.3238   26.6604 H   0  0  0  0  0
   80.6438    6.2234   28.2619 H   0  0  0  0  0
   82.0409    5.8572   26.9533 H   0  0  0  0  0
   77.9855    6.4424   26.9384 H   0  0  0  0  0
   78.6279    5.0656   27.6592 H   0  0  0  0  0
   80.1143    4.5547   30.0033 H   0  0  0  0  0
   83.7599    7.4316   29.3354 H   0  0  0  0  0
   83.9770    5.7434   28.8122 H   0  0  0  0  0
   83.0169    6.8670   27.8188 H   0  0  0  0  0
   80.4287    6.5791   34.4252 H   0  0  0  0  0
   84.3887    3.6648   36.3179 H   0  0  0  0  0
   84.8654    3.3028   34.6557 H   0  0  0  0  0
  1  2  2  0  0  0
  2  3  1  0  0  0
  3  4  1  0  0  0
  3 14  1  0  0  0
  4  5  1  0  0  0
  4 13  1  0  0  0
  5  6  1  0  0  0
  6  7  1  0  0  0
  6  8  1  0  0  0
  6  9  1  0  0  0
  9 10  1  0  0  0
  9 13  1  0  0  0
 10 11  1  0  0  0
 10 12  2  0  0  0
 14 15  1  0  0  0
 15 16  2  0  0  0
 15 17  1  0  0  0
 17 18  2  0  0  0
 17 21  1  0  0  0
 18 19  1  0  0  0
 19 20  1  0  0  0
 21 22  4  0  0  0
 21 25  4  0  0  0
 22 23  4  0  0  0
 23 24  4  0  0  0
 24 25  4  0  0  0
 24 26  1  0  0  0
  2 27  1  0  0  0
  3 28  1  0  0  0
  4 29  1  0  0  0
  7 30  1  0  0  0
  7 31  1  0  0  0
  7 32  1  0  0  0
  8 33  1  0  0  0
  8 34  1  0  0  0
  8 35  1  0  0  0
  9 36  1  0  0  0
 11 37  1  0  0  0
 13 38  1  0  0  0
 13 39  1  0  0  0
 14 40  1  0  0  0
 20 41  1  0  0  0
 20 42  1  0  0  0
 20 43  1  0  0  0
 22 44  1  0  0  0
 26 45  1  0  0  0
 26 46  1  0  0  0
M  END
$$$$
