4g69_ligand
  -I-interpret- 

101101  0  0  0  0  0  0  0  0999 V2000
    0.8920  -13.2240   26.2650 N   0  3  0  0  0
    0.1790  -14.3860   26.7800 C   0  0  0  0  0
   -1.0340  -14.7640   25.9410 C   0  0  0  0  0
   -1.2000  -15.9390   25.6150 O   0  0  0  0  0
   -0.2160  -14.1960   28.2440 C   0  0  0  0  0
    0.7680  -14.8250   29.2020 C   0  0  0  0  0
    0.7610  -16.1980   29.4340 C   0  0  0  0  0
    1.7110  -14.0510   29.8690 C   0  0  0  0  0
    1.6650  -16.7830   30.3100 C   0  0  0  0  0
    2.6230  -14.6290   30.7490 C   0  0  0  0  0
    2.5940  -15.9940   30.9640 C   0  0  0  0  0
    3.4930  -16.5710   31.8360 O   0  0  0  0  0
   -1.8740  -13.7820   25.6010 N   0  0  0  0  0
   -3.0340  -14.0190   24.7380 C   0  0  0  0  0
   -2.7520  -13.5670   23.3170 C   0  0  0  0  0
   -2.3320  -12.4270   23.0920 O   0  0  0  0  0
   -4.2690  -13.2780   25.2630 C   0  0  0  0  0
   -4.7560  -13.7250   26.6370 C   0  0  0  0  0
   -6.0080  -12.9450   27.0720 C   0  0  0  0  0
   -5.0080  -15.2320   26.6330 C   0  0  0  0  0
   -2.9610  -14.4660   22.3610 N   0  0  0  0  0
   -2.8490  -14.1150   20.9470 C   0  0  0  0  0
   -4.1020  -14.5600   20.1890 C   0  0  0  0  0
   -4.6110  -15.6520   20.4140 O   0  0  0  0  0
   -1.5950  -14.7380   20.2940 C   0  0  0  0  0
   -1.5450  -14.3880   18.8150 C   0  0  0  0  0
   -0.3340  -14.2450   20.9980 C   0  0  0  0  0
   -4.5920  -13.7240   19.2810 N   0  0  0  0  0
   -5.8500  -14.0100   18.5970 C   0  0  0  0  0
   -5.7460  -13.8200   17.0900 C   0  0  0  0  0
   -5.3250  -12.7580   16.6240 O   0  0  0  0  0
   -6.9860  -13.1220   19.1240 C   0  0  0  0  0
   -7.1080  -13.3080   20.5390 O   0  0  0  0  0
   -8.3230  -13.4900   18.4560 C   0  0  0  0  0
   -6.1220  -14.8570   16.3360 N   0  0  0  0  0
   -6.2130  -14.7520   14.8860 C   0  0  0  0  0
   -7.6110  -14.3150   14.4940 C   0  0  0  0  0
   -8.5930  -14.7590   15.0770 O   0  0  0  0  0
   -5.8590  -16.0800   14.2040 C   0  0  0  0  0
   -6.8010  -17.0860   14.5250 O   0  0  0  0  0
   -7.6850  -13.4310   13.5060 N   0  0  0  0  0
   -8.9500  -12.8790   13.0550 C   0  0  0  0  0
   -9.0140  -12.8540   11.5280 C   0  0  0  0  0
  -10.0380  -12.5000   10.9430 O   0  0  0  0  0
   -9.1610  -11.4550   13.6210 C   0  0  0  0  0
   -9.2510  -11.5010   15.1350 C   0  0  0  0  0
   -8.0390  -10.5140   13.1810 C   0  0  0  0  0
   -8.0340  -13.1950   10.8490 O   0  0  0  0  0
    1.1399  -13.3839   25.2886 H   0  0  0  0  0
    0.2935  -12.4010   26.3346 H   0  0  0  0  0
    1.7399  -13.0766   26.8126 H   0  0  0  0  0
    0.8790  -15.2189   26.7138 H   0  0  0  0  0
   -1.1824  -14.6773   28.3942 H   0  0  0  0  0
   -0.2414  -13.1253   28.4467 H   0  0  0  0  0
    0.0329  -16.8244   28.9187 H   0  0  0  0  0
    1.7370  -12.9744   29.7005 H   0  0  0  0  0
    1.6429  -17.8592   30.4817 H   0  0  0  0  0
    3.3554  -14.0083   31.2652 H   0  0  0  0  0
    4.0631  -15.8911   32.2024 H   0  0  0  0  0
   -1.7026  -12.8399   25.9525 H   0  0  0  0  0
   -3.2295  -15.0913   24.7435 H   0  0  0  0  0
   -5.0784  -13.4811   24.5618 H   0  0  0  0  0
   -3.9896  -12.2285   25.3553 H   0  0  0  0  0
   -3.9785  -13.5058   27.3688 H   0  0  0  0  0
   -5.7743  -11.8813   27.1172 H   0  0  0  0  0
   -6.8077  -13.1123   26.3504 H   0  0  0  0  0
   -6.3262  -13.2905   28.0556 H   0  0  0  0  0
   -5.7658  -15.4704   25.8867 H   0  0  0  0  0
   -4.0817  -15.7533   26.3915 H   0  0  0  0  0
   -5.3556  -15.5436   27.6180 H   0  0  0  0  0
   -3.2049  -15.4220   22.6199 H   0  0  0  0  0
   -2.7519  -13.0309   20.8892 H   0  0  0  0  0
   -1.6489  -15.8220   20.3944 H   0  0  0  0  0
   -2.4357  -14.7760   18.3208 H   0  0  0  0  0
   -1.5071  -13.3047   18.7004 H   0  0  0  0  0
   -0.6565  -14.8333   18.3674 H   0  0  0  0  0
   -0.2761  -13.1594   20.9189 H   0  0  0  0  0
   -0.3700  -14.5326   22.0487 H   0  0  0  0  0
    0.5417  -14.6921   20.5274 H   0  0  0  0  0
   -4.0820  -12.8693   19.0580 H   0  0  0  0  0
   -6.0711  -15.0570   18.8044 H   0  0  0  0  0
   -6.7515  -12.0829   18.8930 H   0  0  0  0  0
   -7.8175  -12.7545   20.8734 H   0  0  0  0  0
   -8.2394  -13.3515   17.3781 H   0  0  0  0  0
   -8.5613  -14.5314   18.6724 H   0  0  0  0  0
   -9.1118  -12.8468   18.8462 H   0  0  0  0  0
   -6.3507  -15.7431   16.7864 H   0  0  0  0  0
   -5.4916  -14.0069   14.5505 H   0  0  0  0  0
   -4.8765  -16.3991   14.5518 H   0  0  0  0  0
   -5.8644  -15.9295   13.1245 H   0  0  0  0  0
   -6.5560  -17.9040   14.0863 H   0  0  0  0  0
   -6.8245  -13.1297   13.0486 H   0  0  0  0  0
   -9.7487  -13.5208   13.4267 H   0  0  0  0  0
  -10.0987  -11.0670   13.2231 H   0  0  0  0  0
  -10.0909  -12.1305   15.4288 H   0  0  0  0  0
   -8.3270  -11.9134   15.5403 H   0  0  0  0  0
   -9.3995  -10.4920   15.5197 H   0  0  0  0  0
   -7.0841  -10.8950   13.5430 H   0  0  0  0  0
   -8.0200  -10.4573   12.0926 H   0  0  0  0  0
   -8.2159   -9.5213   13.5948 H   0  0  0  0  0
   -7.3131  -13.4439   11.4321 H   0  0  0  0  0
  1  2  1  0  0  0
  2  3  1  0  0  0
  2  5  1  0  0  0
  3  4  2  0  0  0
  3 13  1  0  0  0
  5  6  1  0  0  0
  6  7  4  0  0  0
  6  8  4  0  0  0
  7  9  4  0  0  0
  8 10  4  0  0  0
  9 11  4  0  0  0
 10 11  4  0  0  0
 11 12  1  0  0  0
 13 14  1  0  0  0
 14 15  1  0  0  0
 14 17  1  0  0  0
 15 16  2  0  0  0
 15 21  1  0  0  0
 17 18  1  0  0  0
 18 19  1  0  0  0
 18 20  1  0  0  0
 21 22  1  0  0  0
 22 23  1  0  0  0
 22 25  1  0  0  0
 23 24  2  0  0  0
 23 28  1  0  0  0
 25 26  1  0  0  0
 25 27  1  0  0  0
 28 29  1  0  0  0
 29 30  1  0  0  0
 29 32  1  0  0  0
 30 31  2  0  0  0
 30 35  1  0  0  0
 32 33  1  0  0  0
 32 34  1  0  0  0
 35 36  1  0  0  0
 36 37  1  0  0  0
 36 39  1  0  0  0
 37 38  2  0  0  0
 37 41  1  0  0  0
 39 40  1  0  0  0
 41 42  1  0  0  0
 42 43  1  0  0  0
 42 45  1  0  0  0
 43 44  2  0  0  0
 43 48  1  0  0  0
 45 46  1  0  0  0
 45 47  1  0  0  0
  1 49  1  0  0  0
  1 50  1  0  0  0
  1 51  1  0  0  0
  2 52  1  0  0  0
  5 53  1  0  0  0
  5 54  1  0  0  0
  7 55  1  0  0  0
  8 56  1  0  0  0
  9 57  1  0  0  0
 10 58  1  0  0  0
 12 59  1  0  0  0
 13 60  1  0  0  0
 14 61  1  0  0  0
 17 62  1  0  0  0
 17 63  1  0  0  0
 18 64  1  0  0  0
 19 65  1  0  0  0
 19 66  1  0  0  0
 19 67  1  0  0  0
 20 68  1  0  0  0
 20 69  1  0  0  0
 20 70  1  0  0  0
 21 71  1  0  0  0
 22 72  1  0  0  0
 25 73  1  0  0  0
 26 74  1  0  0  0
 26 75  1  0  0  0
 26 76  1  0  0  0
 27 77  1  0  0  0
 27 78  1  0  0  0
 27 79  1  0  0  0
 28 80  1  0  0  0
 29 81  1  0  0  0
 32 82  1  0  0  0
 33 83  1  0  0  0
 34 84  1  0  0  0
 34 85  1  0  0  0
 34 86  1  0  0  0
 35 87  1  0  0  0
 36 88  1  0  0  0
 39 89  1  0  0  0
 39 90  1  0  0  0
 40 91  1  0  0  0
 41 92  1  0  0  0
 42 93  1  0  0  0
 45 94  1  0  0  0
 46 95  1  0  0  0
 46 96  1  0  0  0
 46 97  1  0  0  0
 47 98  1  0  0  0
 47 99  1  0  0  0
 47100  1  0  0  0
 48101  1  0  0  0
M  END
$$$$
