5f5b_ligand
  -I-interpret- 

 74 73  0  0  0  0  0  0  0  0999 V2000
  -17.7720   -5.8960   -0.7800 C   0  0  0  0  0
  -18.0250   -7.0940   -1.0850 O   0  0  0  0  0
  -17.3930   -5.5000    0.6610 C   0  0  0  0  0
  -17.8000   -4.8650   -1.6370 N   0  0  0  0  0
  -18.0620   -4.9620   -3.0700 C   0  0  0  0  0
  -17.0980   -5.9870   -3.7090 C   0  0  0  0  0
  -16.0530   -6.2970   -3.1140 O   0  0  0  0  0
  -17.9050   -3.5940   -3.7680 C   0  0  0  0  0
  -18.3340   -3.7040   -5.1990 C   0  0  0  0  0
  -18.7740   -2.5300   -3.1360 C   0  0  0  0  0
  -17.4840   -6.5620   -4.8620 N   0  0  0  0  0
  -16.5870   -7.3850   -5.6720 C   0  0  0  0  0
  -16.5070   -6.8370   -7.0650 C   0  0  0  0  0
  -17.5130   -6.4040   -7.6090 O   0  0  0  0  0
  -17.0150   -8.8070   -5.6710 C   0  0  0  0  0
  -16.7910   -9.4290   -4.3230 C   0  0  0  0  0
  -17.1830  -10.8690   -4.4080 C   0  0  0  0  0
  -16.9920  -11.5150   -3.1280 N   0  0  0  0  0
  -15.8770  -12.1310   -2.7680 C   0  0  0  0  0
  -14.8200  -12.1940   -3.5870 N   0  0  0  0  0
  -15.8310  -12.6750   -1.5670 N   0  0  0  0  0
  -15.2900   -6.8030   -7.6240 N   0  0  0  0  0
  -15.0340   -6.1620   -8.9340 C   0  0  0  0  0
  -15.0360   -7.2480  -10.0000 C   0  0  0  0  0
  -14.4190   -8.3320   -9.8140 O   0  0  0  0  0
  -13.7390   -5.3470   -8.9810 C   0  0  0  0  0
  -13.5610   -4.4140   -7.7900 C   0  0  0  0  0
  -12.0860   -3.3400   -7.8570 S   0  0  0  0  0
  -10.8730   -4.5610   -8.4810 C   0  0  0  0  0
  -15.8130   -6.9550  -11.0610 N   0  0  0  0  0
  -16.0050   -7.8220  -12.1900 C   0  0  0  0  0
  -15.2590   -7.1030  -13.3060 C   0  0  0  0  0
  -15.6280   -6.0130  -13.7960 O   0  0  0  0  0
  -17.5050   -8.0060  -12.4850 C   0  0  0  0  0
  -14.2110   -7.5390  -13.8320 O   0  0  0  0  0
  -18.2075   -5.7645    1.3353 H   0  0  0  0  0
  -16.4881   -6.0311    0.9563 H   0  0  0  0  0
  -17.2163   -4.4254    0.7066 H   0  0  0  0  0
  -17.6235   -3.9355   -1.2559 H   0  0  0  0  0
  -19.0926   -5.2915   -3.2020 H   0  0  0  0  0
  -16.8554   -3.3150   -3.6751 H   0  0  0  0  0
  -19.3861   -3.9857   -5.2409 H   0  0  0  0  0
  -18.1939   -2.7430   -5.6939 H   0  0  0  0  0
  -17.7330   -4.4630   -5.6998 H   0  0  0  0  0
  -18.6279   -1.5852   -3.6595 H   0  0  0  0  0
  -19.8201   -2.8279   -3.2065 H   0  0  0  0  0
  -18.4982   -2.4127   -2.0880 H   0  0  0  0  0
  -18.4410   -6.4182   -5.1843 H   0  0  0  0  0
  -15.5904   -7.3508   -5.2319 H   0  0  0  0  0
  -16.4290   -9.3514   -6.4115 H   0  0  0  0  0
  -18.0778   -8.8548   -5.9084 H   0  0  0  0  0
  -17.3905   -8.9193   -3.5687 H   0  0  0  0  0
  -15.7430   -9.3402   -4.0367 H   0  0  0  0  0
  -16.5617  -11.3645   -5.1540 H   0  0  0  0  0
  -18.2341  -10.9367   -4.6885 H   0  0  0  0  0
  -17.7640  -11.4946   -2.4617 H   0  0  0  0  0
  -13.9679  -12.6661   -3.2846 H   0  0  0  0  0
  -14.8667  -11.7699   -4.5135 H   0  0  0  0  0
  -16.6392  -12.6133   -0.9479 H   0  0  0  0  0
  -14.5102   -7.2351   -7.1284 H   0  0  0  0  0
  -15.8273   -5.4367   -9.1153 H   0  0  0  0  0
  -13.7748   -4.7285   -9.8778 H   0  0  0  0  0
  -12.9084   -6.0528   -8.9698 H   0  0  0  0  0
  -13.4469   -5.0477   -6.9105 H   0  0  0  0  0
  -14.4283   -3.7539   -7.7773 H   0  0  0  0  0
  -10.7971   -5.3888   -7.7760 H   0  0  0  0  0
  -11.2027   -4.9363   -9.4498 H   0  0  0  0  0
   -9.8995   -4.0824   -8.5875 H   0  0  0  0  0
  -16.2974   -6.0573  -11.0626 H   0  0  0  0  0
  -15.6332   -8.8361  -12.0432 H   0  0  0  0  0
  -17.9938   -8.4451  -11.6153 H   0  0  0  0  0
  -17.9525   -7.0365  -12.7040 H   0  0  0  0  0
  -17.6268   -8.6662  -13.3437 H   0  0  0  0  0
  -13.9718   -8.3735  -13.4221 H   0  0  0  0  0
  1  2  2  0  0  0
  1  3  1  0  0  0
  1  4  1  0  0  0
  4  5  1  0  0  0
  5  6  1  0  0  0
  5  8  1  0  0  0
  6  7  2  0  0  0
  6 11  1  0  0  0
  8  9  1  0  0  0
  8 10  1  0  0  0
 11 12  1  0  0  0
 12 13  1  0  0  0
 12 15  1  0  0  0
 13 14  2  0  0  0
 13 22  1  0  0  0
 15 16  1  0  0  0
 16 17  1  0  0  0
 17 18  1  0  0  0
 18 19  1  0  0  0
 19 20  1  0  0  0
 19 21  2  0  0  0
 22 23  1  0  0  0
 23 24  1  0  0  0
 23 26  1  0  0  0
 24 25  2  0  0  0
 24 30  1  0  0  0
 26 27  1  0  0  0
 27 28  1  0  0  0
 28 29  1  0  0  0
 30 31  1  0  0  0
 31 32  1  0  0  0
 31 34  1  0  0  0
 32 33  2  0  0  0
 32 35  1  0  0  0
  3 36  1  0  0  0
  3 37  1  0  0  0
  3 38  1  0  0  0
  4 39  1  0  0  0
  5 40  1  0  0  0
  8 41  1  0  0  0
  9 42  1  0  0  0
  9 43  1  0  0  0
  9 44  1  0  0  0
 10 45  1  0  0  0
 10 46  1  0  0  0
 10 47  1  0  0  0
 11 48  1  0  0  0
 12 49  1  0  0  0
 15 50  1  0  0  0
 15 51  1  0  0  0
 16 52  1  0  0  0
 16 53  1  0  0  0
 17 54  1  0  0  0
 17 55  1  0  0  0
 18 56  1  0  0  0
 20 57  1  0  0  0
 20 58  1  0  0  0
 21 59  1  0  0  0
 22 60  1  0  0  0
 23 61  1  0  0  0
 26 62  1  0  0  0
 26 63  1  0  0  0
 27 64  1  0  0  0
 27 65  1  0  0  0
 29 66  1  0  0  0
 29 67  1  0  0  0
 29 68  1  0  0  0
 30 69  1  0  0  0
 31 70  1  0  0  0
 34 71  1  0  0  0
 34 72  1  0  0  0
 34 73  1  0  0  0
 35 74  1  0  0  0
M  END
$$$$
