1b2m_ligand
  -I-interpret- 

 36 38  0  0  0  0  0  0  0  0999 V2000
    4.0000   25.4710    3.6930 O   0  0  0  0  0
    3.8430   26.7000    2.9930 C   0  0  0  0  0
    5.1760   27.4360    2.8030 C   0  0  0  0  0
    5.7250   27.8660    4.0590 O   0  0  0  0  0
    6.2310   26.5610    2.1290 C   0  0  0  0  0
    6.9650   27.3510    1.1700 O   0  0  0  0  0
    7.1510   26.1500    3.2390 C   0  0  0  0  0
    8.4670   25.9580    2.7500 O   0  0  0  0  0
    7.0540   27.3140    4.2070 C   0  0  0  0  0
    7.3240   26.8890    5.6020 N   0  0  0  0  0
    8.3680   27.1870    6.4010 C   0  0  0  0  0
    8.4500   26.6700    7.5650 N   0  0  0  0  0
    7.2810   25.8950    7.5590 C   0  0  0  0  0
    6.7440   25.0900    8.5700 C   0  0  0  0  0
    7.1980   24.8890    9.6930 O   0  0  0  0  0
    5.5490   24.5150    8.1910 N   0  0  0  0  0
    4.9300   24.7060    6.9860 C   0  0  0  0  0
    3.7830   24.0920    6.7970 N   0  0  0  0  0
    5.4180   25.4680    6.0230 N   0  0  0  0  0
    6.5910   26.0400    6.3700 C   0  0  0  0  0
    7.0510   27.0080   -0.3950 P   0  0  0  0  0
    7.3140   25.5420   -0.5450 O   0  0  0  0  0
    8.0120   27.9420   -0.9840 O   0  0  0  0  0
    3.1441   25.0468    3.7884 H   0  0  0  0  0
    3.1832   27.3407    3.5781 H   0  0  0  0  0
    3.4356   26.4779    2.0067 H   0  0  0  0  0
    4.9438   28.2924    2.1699 H   0  0  0  0  0
    5.7960   25.7082    1.6078 H   0  0  0  0  0
    6.8881   25.2015    3.7074 H   0  0  0  0  0
    8.4766   25.2134    2.1441 H   0  0  0  0  0
    7.8084   28.0680    3.9825 H   0  0  0  0  0
    9.1428   27.8700    6.0527 H   0  0  0  0  0
    5.0906   23.8987    8.8621 H   0  0  0  0  0
    3.2820   24.2070    5.9160 H   0  0  0  0  0
    3.3940   23.5006    7.5314 H   0  0  0  0  0
    6.6123   25.0466   -0.1162 H   0  0  0  0  0
  1  2  1  0  0  0
  2  3  1  0  0  0
  3  4  1  0  0  0
  3  5  1  0  0  0
  4  9  1  0  0  0
  5  6  1  0  0  0
  5  7  1  0  0  0
  6 21  1  0  0  0
  7  8  1  0  0  0
  7  9  1  0  0  0
  9 10  1  0  0  0
 10 11  4  0  0  0
 10 20  4  0  0  0
 11 12  4  0  0  0
 12 13  4  0  0  0
 13 14  1  0  0  0
 13 20  4  0  0  0
 14 15  2  0  0  0
 14 16  1  0  0  0
 16 17  1  0  0  0
 17 18  1  0  0  0
 17 19  2  0  0  0
 19 20  1  0  0  0
 21 22  1  0  0  0
 21 23  2  0  0  0
  1 24  1  0  0  0
  2 25  1  0  0  0
  2 26  1  0  0  0
  3 27  1  0  0  0
  5 28  1  0  0  0
  7 29  1  0  0  0
  8 30  1  0  0  0
  9 31  1  0  0  0
 11 32  1  0  0  0
 16 33  1  0  0  0
 18 34  1  0  0  0
 18 35  1  0  0  0
 22 36  1  0  0  0
M  END
$$$$
