1o0f_ligand
  -I-interpret- 

 42 44  0  0  0  0  0  0  0  0999 V2000
   41.2350    6.2550   14.4910 P   0  0  0  0  0
   40.2730    6.5200   13.3460 O   0  0  0  0  0
   42.0870    5.0150   14.2710 O   0  0  0  0  0
   42.0660    7.4750   14.8500 O   0  0  0  0  0
   36.3990    3.1920   13.2220 P   0  0  0  0  0
   34.9040    3.4250   13.3170 O   0  0  0  0  0
   37.0620    3.9030   12.0590 O   0  0  0  0  0
   36.7820    1.7250   13.3210 O   0  0  0  0  0
   37.0120    3.8560   14.5760 O   0  0  0  0  0
   36.8490    5.2540   14.8460 C   0  0  0  0  0
   37.9140    5.7230   15.8040 C   0  0  0  0  0
   37.4580    5.5380   17.1740 O   0  0  0  0  0
   39.2600    5.0060   15.6940 C   0  0  0  0  0
   40.3250    5.9480   15.7870 O   0  0  0  0  0
   39.2520    4.0720   16.9040 C   0  0  0  0  0
   40.5480    3.7810   17.3870 O   0  0  0  0  0
   38.4750    4.9070   17.9190 C   0  0  0  0  0
   37.8650    4.1610   19.0230 N   0  0  0  0  0
   38.1130    2.8680   19.4250 C   0  0  0  0  0
   37.4410    2.5070   20.4910 N   0  0  0  0  0
   36.6900    3.6320   20.8080 C   0  0  0  0  0
   35.7800    3.9010   21.8480 C   0  0  0  0  0
   35.4630    3.0220   22.8050 N   0  0  0  0  0
   35.2020    5.1240   21.8760 N   0  0  0  0  0
   35.5270    6.0070   20.9220 C   0  0  0  0  0
   36.3730    5.8730   19.9000 N   0  0  0  0  0
   36.9290    4.6510   19.9020 C   0  0  0  0  0
   42.6743    4.8945   15.0208 H   0  0  0  0  0
   42.6554    7.2570   15.5757 H   0  0  0  0  0
   34.5541    2.9469   14.0724 H   0  0  0  0  0
   36.3343    1.3285   14.0720 H   0  0  0  0  0
   35.8682    5.4208   15.2913 H   0  0  0  0  0
   36.9357    5.8114   13.9133 H   0  0  0  0  0
   38.0746    6.7670   15.5351 H   0  0  0  0  0
   39.4003    4.4787   14.7504 H   0  0  0  0  0
   38.8270    3.0929   16.6830 H   0  0  0  0  0
   40.4820    3.1934   18.1433 H   0  0  0  0  0
   39.1749    5.5842   18.4086 H   0  0  0  0  0
   38.8046    2.2053   18.9047 H   0  0  0  0  0
   35.8891    2.0952   22.8077 H   0  0  0  0  0
   34.7952    3.2784   23.5321 H   0  0  0  0  0
   35.0282    6.9737   20.9913 H   0  0  0  0  0
  1  2  2  0  0  0
  1  3  1  0  0  0
  1  4  1  0  0  0
 14  1  1  0  0  0
  5  6  1  0  0  0
  5  7  2  0  0  0
  5  8  1  0  0  0
  9  5  1  0  0  0
 10  9  1  0  0  0
 11 10  1  0  0  0
 11 12  1  0  0  0
 13 11  1  0  0  0
 12 17  1  0  0  0
 13 14  1  0  0  0
 13 15  1  0  0  0
 15 16  1  0  0  0
 15 17  1  0  0  0
 17 18  1  0  0  0
 18 19  4  0  0  0
 18 27  4  0  0  0
 19 20  4  0  0  0
 20 21  4  0  0  0
 21 22  4  0  0  0
 21 27  4  0  0  0
 22 23  1  0  0  0
 22 24  4  0  0  0
 24 25  4  0  0  0
 25 26  4  0  0  0
 26 27  4  0  0  0
  3 28  1  0  0  0
  4 29  1  0  0  0
  6 30  1  0  0  0
  8 31  1  0  0  0
 10 32  1  0  0  0
 10 33  1  0  0  0
 11 34  1  0  0  0
 13 35  1  0  0  0
 15 36  1  0  0  0
 16 37  1  0  0  0
 17 38  1  0  0  0
 19 39  1  0  0  0
 23 40  1  0  0  0
 23 41  1  0  0  0
 25 42  1  0  0  0
M  END
$$$$
