4qmy_ligand
  -I-interpret- 

 65 72  0  0  0  0  0  0  0  0999 V2000
   23.2320   -2.5650   75.0350 O   0  0  0  0  0
   22.5800   -2.8520   73.7510 C   0  0  0  0  0
   23.2820   -3.9030   72.8600 C   0  0  0  0  0
   24.5000   -4.3610   73.5640 C   0  0  0  0  0
   25.3430   -3.1620   73.8510 C   0  0  0  0  0
   24.6070   -2.3150   74.9660 C   0  0  0  0  0
   25.0370   -2.8470   76.3260 C   0  0  0  0  0
   24.9980   -0.8520   74.7340 N   0  0  0  0  0
   24.2480   -0.0860   73.8980 C   0  0  0  0  0
   23.0980   -0.3930   73.1820 C   0  0  0  0  0
   22.4350    0.5870   72.3390 C   0  0  0  0  0
   23.0200    1.9510   72.2560 C   0  0  0  0  0
   24.1680    2.2740   72.9610 C   0  0  0  0  0
   24.8130    1.2450   73.8080 C   0  0  0  0  0
   26.0190    1.2460   74.6800 C   0  0  0  0  0
   26.1320   -0.0460   75.2460 C   0  0  0  0  0
   27.2450   -0.2830   76.1350 C   0  0  0  0  0
   28.1610    0.7330   76.4210 C   0  0  0  0  0
   28.0230    2.0140   75.8510 C   0  0  0  0  0
   26.9390    2.2670   74.9690 C   0  0  0  0  0
   24.4640    3.6580   72.6590 C   0  0  0  0  0
   23.5230    4.1220   71.7870 N   0  3  0  0  0
   22.6350    3.1440   71.5300 C   0  0  0  0  0
   21.5470    3.2100   70.7300 O   0  0  0  0  0
   21.2130   -0.1230   71.7150 C   0  0  0  0  0
   21.1990   -1.4790   72.2170 C   0  0  0  0  0
   20.1810   -2.3940   71.8210 C   0  0  0  0  0
   19.1650   -1.9630   70.9270 C   0  0  0  0  0
   19.1680   -0.6220   70.4340 C   0  0  0  0  0
   20.1930    0.2980   70.8230 C   0  0  0  0  0
   22.3620   -1.5880   73.0840 N   0  0  0  0  0
   25.4940   -2.3980   72.6730 O   0  0  0  0  0
   26.7660   -2.0850   72.1610 C   0  0  0  0  0
   25.2310   -5.3410   72.7540 N   0  3  0  0  0
   24.5300   -6.6150   72.7320 C   0  0  0  0  0
   21.6314   -3.3473   73.9581 H   0  0  0  0  0
   23.5463   -3.4642   71.8979 H   0  0  0  0  0
   22.6152   -4.7452   72.6754 H   0  0  0  0  0
   24.2325   -4.8568   74.4972 H   0  0  0  0  0
   26.3342   -3.4559   74.1963 H   0  0  0  0  0
   26.1212   -2.7790   76.4150 H   0  0  0  0  0
   24.5688   -2.2537   77.1114 H   0  0  0  0  0
   24.7278   -3.8878   76.4219 H   0  0  0  0  0
   27.3722   -1.2660   76.5884 H   0  0  0  0  0
   28.9940    0.5315   77.0946 H   0  0  0  0  0
   28.7396    2.8015   76.0842 H   0  0  0  0  0
   26.8213    3.2519   74.5171 H   0  0  0  0  0
   25.4555    3.7376   72.2133 H   0  0  0  0  0
   24.4473    4.2501   73.5740 H   0  0  0  0  0
   23.9743    4.4105   70.9190 H   0  0  0  0  0
   23.0412    4.9217   72.1979 H   0  0  0  0  0
   21.8331    3.4623   70.8639 H   0  0  0  0  0
   21.4827    4.0897   70.3511 H   0  0  0  0  0
   20.1820   -3.4157   72.2008 H   0  0  0  0  0
   18.3826   -2.6556   70.6169 H   0  0  0  0  0
   18.3809   -0.2960   69.7541 H   0  0  0  0  0
   20.1901    1.3170   70.4360 H   0  0  0  0  0
   27.3245   -1.5142   72.9029 H   0  0  0  0  0
   27.3009   -3.0067   71.9318 H   0  0  0  0  0
   26.6550   -1.4924   71.2529 H   0  0  0  0  0
   26.1560   -5.4806   73.1606 H   0  0  0  0  0
   25.3061   -4.9895   71.7994 H   0  0  0  0  0
   24.4388   -6.9957   73.7493 H   0  0  0  0  0
   23.5370   -6.4746   72.3049 H   0  0  0  0  0
   25.0906   -7.3263   72.1254 H   0  0  0  0  0
  1  2  1  0  0  0
  1  6  1  0  0  0
  2  3  1  0  0  0
  2 31  1  0  0  0
  3  4  1  0  0  0
  4  5  1  0  0  0
  4 34  1  0  0  0
  5  6  1  0  0  0
  5 32  1  0  0  0
  6  7  1  0  0  0
  6  8  1  0  0  0
  8  9  4  0  0  0
  8 16  4  0  0  0
  9 10  4  0  0  0
  9 14  4  0  0  0
 10 11  4  0  0  0
 10 31  4  0  0  0
 11 12  4  0  0  0
 11 25  4  0  0  0
 12 13  4  0  0  0
 12 23  1  0  0  0
 13 14  4  0  0  0
 13 21  1  0  0  0
 14 15  4  0  0  0
 15 16  4  0  0  0
 15 20  4  0  0  0
 16 17  4  0  0  0
 17 18  4  0  0  0
 18 19  4  0  0  0
 19 20  4  0  0  0
 21 22  1  0  0  0
 22 23  1  0  0  0
 23 24  1  0  0  0
 25 26  4  0  0  0
 25 30  4  0  0  0
 26 27  4  0  0  0
 26 31  4  0  0  0
 27 28  4  0  0  0
 28 29  4  0  0  0
 29 30  4  0  0  0
 32 33  1  0  0  0
 34 35  1  0  0  0
  2 36  1  0  0  0
  3 37  1  0  0  0
  3 38  1  0  0  0
  4 39  1  0  0  0
  5 40  1  0  0  0
  7 41  1  0  0  0
  7 42  1  0  0  0
  7 43  1  0  0  0
 17 44  1  0  0  0
 18 45  1  0  0  0
 19 46  1  0  0  0
 20 47  1  0  0  0
 21 48  1  0  0  0
 21 49  1  0  0  0
 22 50  1  0  0  0
 22 51  1  0  0  0
 23 52  1  0  0  0
 24 53  1  0  0  0
 27 54  1  0  0  0
 28 55  1  0  0  0
 29 56  1  0  0  0
 30 57  1  0  0  0
 33 58  1  0  0  0
 33 59  1  0  0  0
 33 60  1  0  0  0
 34 61  1  0  0  0
 34 62  1  0  0  0
 35 63  1  0  0  0
 35 64  1  0  0  0
 35 65  1  0  0  0
M  END
$$$$
