6hd6_ligand
  -I-interpret- 

 47 49  0  0  0  0  0  0  0  0999 V2000
   17.8890   38.2450   50.2180 C   0  0  0  0  0
   27.1640   48.3760   58.8420 C   0  0  0  0  0
   26.8000   47.3680   57.7110 C   0  0  0  0  0
   19.8210   42.1800   52.9740 C   0  0  0  0  0
   18.4250   41.9970   52.9260 C   0  0  0  0  0
   17.8180   41.1750   51.9530 C   0  0  0  0  0
   21.7610   43.1910   54.1830 C   0  0  0  0  0
   22.2810   44.0030   55.3570 C   0  0  0  0  0
   23.3380   44.9260   55.2080 C   0  0  0  0  0
   23.8270   45.6570   56.3150 C   0  0  0  0  0
   23.2410   45.4340   57.5720 C   0  0  0  0  0
   22.2010   44.5160   57.7380 C   0  0  0  0  0
   21.7310   43.7990   56.6330 C   0  0  0  0  0
   24.9800   46.6750   56.1220 C   0  0  0  0  0
   17.1550   38.0380   51.3360 F   0  0  0  0  0
   19.0320   37.5360   50.3410 F   0  0  0  0  0
   17.2490   37.7500   49.1320 F   0  0  0  0  0
   18.1050   39.6560   50.0140 O   0  0  0  0  0
   18.6210   40.4940   51.0160 C   0  0  0  0  0
   20.0100   40.6570   51.0820 C   0  0  0  0  0
   20.5970   41.4800   52.0530 C   0  0  0  0  0
   20.4230   42.9750   53.9910 N   0  0  0  0  0
   22.6320   42.7390   53.4490 O   0  0  0  0  0
   25.3790   47.5190   57.2890 N   0  3  0  0  0
   24.4030   47.6380   58.4160 C   0  0  0  0  0
   24.8560   48.6750   59.4750 C   0  0  0  0  0
   26.1910   48.3410   59.9140 O   0  0  0  0  0
   27.1774   49.3806   58.4193 H   0  0  0  0  0
   28.1376   48.1029   59.2490 H   0  0  0  0  0
   26.9445   46.3557   58.0883 H   0  0  0  0  0
   27.4404   47.5647   56.8512 H   0  0  0  0  0
   17.7976   42.5035   53.6594 H   0  0  0  0  0
   16.7337   41.0672   51.9261 H   0  0  0  0  0
   23.7840   45.0776   54.2250 H   0  0  0  0  0
   23.6055   45.9891   58.4364 H   0  0  0  0  0
   21.7589   44.3597   58.7220 H   0  0  0  0  0
   20.9283   43.0733   56.7637 H   0  0  0  0  0
   24.6212   47.3766   55.3689 H   0  0  0  0  0
   25.8585   46.0736   55.8882 H   0  0  0  0  0
   20.6455   40.1352   50.3664 H   0  0  0  0  0
   21.6824   41.5741   52.0881 H   0  0  0  0  0
   19.7892   43.4323   54.6464 H   0  0  0  0  0
   25.3247   48.4526   56.8817 H   0  0  0  0  0
   24.3274   46.6660   58.9035 H   0  0  0  0  0
   23.4487   47.9674   58.0051 H   0  0  0  0  0
   24.1731   48.6573   60.3244 H   0  0  0  0  0
   24.8501   49.6740   59.0391 H   0  0  0  0  0
  1 15  1  0  0  0
  1 16  1  0  0  0
  1 17  1  0  0  0
 18  1  1  0  0  0
  3  2  1  0  0  0
  2 27  1  0  0  0
 24  3  1  0  0  0
  5  4  4  0  0  0
  4 21  4  0  0  0
  4 22  1  0  0  0
  6  5  4  0  0  0
 19  6  4  0  0  0
  7  8  1  0  0  0
 22  7  1  0  0  0
  7 23  2  0  0  0
  8  9  4  0  0  0
  8 13  4  0  0  0
  9 10  4  0  0  0
 10 11  4  0  0  0
 10 14  1  0  0  0
 12 11  4  0  0  0
 13 12  4  0  0  0
 14 24  1  0  0  0
 18 19  1  0  0  0
 19 20  4  0  0  0
 20 21  4  0  0  0
 24 25  1  0  0  0
 25 26  1  0  0  0
 26 27  1  0  0  0
  2 28  1  0  0  0
  2 29  1  0  0  0
  3 30  1  0  0  0
  3 31  1  0  0  0
  5 32  1  0  0  0
  6 33  1  0  0  0
  9 34  1  0  0  0
 11 35  1  0  0  0
 12 36  1  0  0  0
 13 37  1  0  0  0
 14 38  1  0  0  0
 14 39  1  0  0  0
 20 40  1  0  0  0
 21 41  1  0  0  0
 22 42  1  0  0  0
 24 43  1  0  0  0
 25 44  1  0  0  0
 25 45  1  0  0  0
 26 46  1  0  0  0
 26 47  1  0  0  0
M  END
$$$$
