2clm_ligand
  -I-interpret- 

 32 32  0  0  0  0  0  0  0  0999 V2000
   51.3270   23.5870   15.1550 C   0  0  0  0  0
   49.9030   23.5790   15.3870 C   0  0  0  0  0
   49.1390   24.7910   15.2600 C   0  0  0  0  0
   49.7880   26.0320   14.8960 C   0  0  0  0  0
   51.2210   26.0450   14.6630 C   0  0  0  0  0
   51.9880   24.8250   14.7910 C   0  0  0  0  0
   52.1270   22.4740   15.2610 O   0  0  0  0  0
   52.1730   21.6710   14.0860 C   0  0  0  0  0
   50.9710   21.2260   13.7530 F   0  0  0  0  0
   52.9510   20.6170   14.2800 F   0  0  0  0  0
   52.6500   22.3460   13.0490 F   0  0  0  0  0
   48.9480   27.3140   14.7720 C   0  0  0  0  0
   49.3210   27.6400   13.5000 N   0  0  0  0  0
   47.7400   27.2130   14.9930 O   0  0  0  0  0
   49.3840   29.0460   13.0870 C   0  0  0  0  0
   49.8190   29.1250   11.6330 C   0  0  0  0  0
   49.0580   30.0500   10.9720 O   0  0  0  0  0
   47.8510   29.3390   10.1260 P   0  0  0  0  0
   46.7620   30.3580    9.8740 O   0  0  0  0  0
   47.3100   28.2380   11.0120 O   0  0  0  0  0
   48.5210   29.0100    8.8110 O   0  0  0  0  0
   49.4035   22.6495   15.6600 H   0  0  0  0  0
   48.0639   24.7745   15.4392 H   0  0  0  0  0
   51.7197   26.9753   14.3912 H   0  0  0  0  0
   53.0634   24.8366   14.6137 H   0  0  0  0  0
   49.5566   26.9036   12.8347 H   0  0  0  0  0
   50.1022   29.5773   13.7115 H   0  0  0  0  0
   48.4007   29.5029   13.1984 H   0  0  0  0  0
   49.6891   28.1496   11.1641 H   0  0  0  0  0
   50.8672   29.4201   11.5856 H   0  0  0  0  0
   46.3296   30.5743   10.7034 H   0  0  0  0  0
   46.9214   28.6248   11.8000 H   0  0  0  0  0
  1  2  4  0  0  0
  1  6  4  0  0  0
  1  7  1  0  0  0
  2  3  4  0  0  0
  3  4  4  0  0  0
  4  5  4  0  0  0
  4 12  1  0  0  0
  5  6  4  0  0  0
  7  8  1  0  0  0
  8  9  1  0  0  0
  8 10  1  0  0  0
  8 11  1  0  0  0
 12 13  1  0  0  0
 12 14  2  0  0  0
 13 15  1  0  0  0
 15 16  1  0  0  0
 16 17  1  0  0  0
 17 18  1  0  0  0
 18 19  1  0  0  0
 18 20  1  0  0  0
 18 21  2  0  0  0
  2 22  1  0  0  0
  3 23  1  0  0  0
  5 24  1  0  0  0
  6 25  1  0  0  0
 13 26  1  0  0  0
 15 27  1  0  0  0
 15 28  1  0  0  0
 16 29  1  0  0  0
 16 30  1  0  0  0
 19 31  1  0  0  0
 20 32  1  0  0  0
M  END
$$$$
