### 
### Created by X-TOOL on Mon Sep 10 21:12:56 2018
### 

@<TRIPOS>MOLECULE
2clm_ligand
   30    30     1     0     0
SMALL
GAST_HUCK


@<TRIPOS>ATOM
      1 C1         51.3270   23.5870   15.1550 C.ar      1 F6F         0.1060
      2 C2         49.9030   23.5790   15.3870 C.ar      1 F6F        -0.0266
      3 C3         49.1390   24.7910   15.2600 C.ar      1 F6F        -0.0504
      4 C4         49.7880   26.0320   14.8960 C.ar      1 F6F         0.0385
      5 C5         51.2210   26.0450   14.6630 C.ar      1 F6F        -0.0504
      6 C6         51.9880   24.8250   14.7910 C.ar      1 F6F        -0.0266
      7 O7         52.1270   22.4740   15.2610 O.3       1 F6F        -0.2218
      8 C8         52.1730   21.6710   14.0860 C.3       1 F6F         0.5476
      9 F9         50.9710   21.2260   13.7530 F         1 F6F        -0.1398
     10 F10        52.9510   20.6170   14.2800 F         1 F6F        -0.1398
     11 F11        52.6500   22.3460   13.0490 F         1 F6F        -0.1398
     12 C12        48.9480   27.3140   14.7720 C.2       1 F6F         0.1969
     13 N13        49.3210   27.6400   13.5000 N.am      1 F6F        -0.2852
     14 O14        47.7400   27.2130   14.9930 O.2       1 F6F        -0.3898
     15 C15        49.3840   29.0460   13.0870 C.3       1 F6F         0.0580
     16 C16        49.8190   29.1250   11.6330 C.3       1 F6F         0.0984
     17 O17        49.0580   30.0500   10.9720 O.3       1 F6F        -0.2741
     18 P18        47.8510   29.3390   10.1260 P.3       1 F6F         0.2008
     19 O19        46.7620   30.3580    9.8740 O.co2     1 F6F        -0.5537
     20 O20        47.3100   28.2380   11.0120 O.co2     1 F6F        -0.5537
     21 O21        48.5210   29.0100    8.8110 O.co2     1 F6F        -0.5537
     22 H1         49.4062   22.6546   15.6585 H         1 F6F         0.0556
     23 H2         48.0699   24.7746   15.4382 H         1 F6F         0.0642
     24 H3         51.7170   26.9702   14.3927 H         1 F6F         0.0642
     25 H4         53.0575   24.8365   14.6147 H         1 F6F         0.0556
     26 H5         49.5520   26.9180   12.8478 H         1 F6F         0.1842
     27 H6         50.1095   29.5816   13.7169 H         1 F6F         0.0545
     28 H7         48.3912   29.5064   13.1987 H         1 F6F         0.0545
     29 H8         49.6906   28.1406   11.1592 H         1 F6F         0.0632
     30 H9         50.8774   29.4204   11.5838 H         1 F6F         0.0632
@<TRIPOS>BOND
     1    1    2 ar 
     2    1    6 ar 
     3    1    7 1  
     4    2    3 ar 
     5    3    4 ar 
     6    4    5 ar 
     7    4   12 1  
     8    5    6 ar 
     9    7    8 1  
    10    8    9 1  
    11    8   10 1  
    12    8   11 1  
    13   12   13 am 
    14   12   14 2  
    15   13   15 1  
    16   15   16 1  
    17   16   17 1  
    18   17   18 1  
    19   18   19 ar 
    20   18   20 ar 
    21   18   21 ar 
    22    2   22 1  
    23    3   23 1  
    24    5   24 1  
    25    6   25 1  
    26   13   26 1  
    27   15   27 1  
    28   15   28 1  
    29   16   29 1  
    30   16   30 1  
@<TRIPOS>SUBSTRUCTURE
     1 F6F         1

