### 
### Created by X-TOOL on Sun Sep  9 21:51:20 2018
### 

@<TRIPOS>MOLECULE
3ipy_ligand
   50    54     1     0     0
SMALL
GAST_HUCK


@<TRIPOS>ATOM
      1 C1         10.1190    3.8720   17.3080 C.2       1 NON        -0.0900
      2 C2         10.3260    5.3080   16.8470 C.2       1 NON         0.0409
      3 N3         11.5540    5.7350   17.5230 N.am      1 NON        -0.1984
      4 C4         12.1180    4.7540   18.4460 C.2       1 NON         0.0409
      5 C5         11.1390    3.5890   18.4060 C.2       1 NON        -0.0900
      6 C6         12.1220    6.9230   17.3350 C.2       1 NON         0.2331
      7 O7         13.1290    7.2600   17.9420 O.2       1 NON        -0.3554
      8 C8         11.4730    7.8680   16.3420 C.3       1 NON         0.0020
      9 N9         12.2000    9.1250   16.2570 N.4       1 NON         0.4178
     10 C10        13.5050    9.1550   15.5920 C.3       1 NON        -0.0886
     11 C11        13.7030   10.5580   15.0310 C.3       1 NON         0.0136
     12 N12        13.6910   11.4560   16.1700 N.pl3     1 NON        -0.2921
     13 C13        12.6450   11.3830   17.1790 C.3       1 NON         0.0136
     14 C14        11.5870   10.3240   16.8310 C.3       1 NON        -0.0886
     15 C15        14.6950   12.4240   16.2990 C.ar      1 NON         0.1269
     16 C16        15.9060   12.2980   15.6160 C.ar      1 NON         0.0109
     17 C17        16.8790   13.2890   15.7710 C.ar      1 NON         0.0619
     18 N18        16.6160   14.3460   16.5760 N.ar      1 NON        -0.2822
     19 C19        15.4440   14.4550   17.2180 C.ar      1 NON         0.0666
     20 N20        14.4920   13.5140   17.0890 N.ar      1 NON        -0.2565
     21 C21        18.1980   13.2040   15.0500 C.2       1 NON         0.0594
     22 S22        19.2780   14.5330   15.4040 S.3       1 NON        -0.0289
     23 C23        20.5110   14.0070   14.4080 C.ar      1 NON         0.0418
     24 C24        20.0910   12.7540   13.7590 C.ar      1 NON        -0.0139
     25 C25        18.7620   12.3010   14.1310 C.2       1 NON        -0.0407
     26 C26        21.7440   14.6140   14.1900 C.ar      1 NON        -0.0465
     27 C27        22.6180   13.9780   13.3020 C.ar      1 NON        -0.0676
     28 C28        22.2500   12.7800   12.6690 C.ar      1 NON        -0.0685
     29 C29        21.0030   12.1680   12.8850 C.ar      1 NON        -0.0618
     30 H           9.3765    3.1729   16.9232 H         1 NON         0.0232
     31 H           9.7016    5.8878   16.1673 H         1 NON         0.0802
     32 H          13.0336    4.8372   19.0316 H         1 NON         0.0802
     33 H          11.1628    2.7086   19.0482 H         1 NON         0.0232
     34 H          10.4562    8.0767   16.6748 H         1 NON         0.0278
     35 H          11.4786    7.3965   15.3593 H         1 NON         0.0278
     36 H          13.5412    8.4163   14.7913 H         1 NON         0.0040
     37 H          14.2982    8.9125   16.2992 H         1 NON         0.0040
     38 H          12.9147   10.8122   14.3224 H         1 NON         0.0504
     39 H          14.6419   10.6324   14.4824 H         1 NON         0.0504
     40 H          12.1525   12.3540   17.2320 H         1 NON         0.0504
     41 H          13.1043   11.1084   18.1286 H         1 NON         0.0504
     42 H          11.0655   10.0421   17.7457 H         1 NON         0.0040
     43 H          10.9016   10.7476   16.0969 H         1 NON         0.0040
     44 H          16.0900   11.4388   14.9710 H         1 NON         0.0657
     45 H          15.2599   15.3203   17.8548 H         1 NON         0.1072
     46 H          18.2766   11.4001   13.7558 H         1 NON         0.0549
     47 H          22.0168   15.5439   14.6891 H         1 NON         0.0576
     48 H          23.5949   14.4171   13.0994 H         1 NON         0.0591
     49 H          22.9561   12.3078   11.9860 H         1 NON         0.0565
     50 H          20.7515   11.2401   12.3713 H         1 NON         0.0596
@<TRIPOS>BOND
     1    1    2 2  
     2    1    5 1  
     3    2    3 1  
     4    3    4 1  
     5    3    6 am 
     6    4    5 2  
     7    6    7 2  
     8    6    8 1  
     9    8    9 1  
    10    9   10 1  
    11    9   14 1  
    12   10   11 1  
    13   11   12 1  
    14   12   13 1  
    15   12   15 1  
    16   13   14 1  
    17   15   16 ar 
    18   15   20 ar 
    19   16   17 ar 
    20   17   18 ar 
    21   17   21 1  
    22   18   19 ar 
    23   19   20 ar 
    24   21   22 1  
    25   21   25 2  
    26   22   23 1  
    27   23   24 ar 
    28   23   26 ar 
    29   24   25 1  
    30   24   29 ar 
    31   26   27 ar 
    32   27   28 ar 
    33   28   29 ar 
    34    1   30 1  
    35    2   31 1  
    36    4   32 1  
    37    5   33 1  
    38    8   34 1  
    39    8   35 1  
    40   10   36 1  
    41   10   37 1  
    42   11   38 1  
    43   11   39 1  
    44   13   40 1  
    45   13   41 1  
    46   14   42 1  
    47   14   43 1  
    48   16   44 1  
    49   19   45 1  
    50   25   46 1  
    51   26   47 1  
    52   27   48 1  
    53   28   49 1  
    54   29   50 1  
@<TRIPOS>SUBSTRUCTURE
     1 NON         1

