3ipy_ligand
  -I-interpret- 

 51 55  0  0  0  0  0  0  0  0999 V2000
   10.1190    3.8720   17.3080 C   0  0  0  0  0
   10.3260    5.3080   16.8470 C   0  0  0  0  0
   11.5540    5.7350   17.5230 N   0  0  0  0  0
   12.1180    4.7540   18.4460 C   0  0  0  0  0
   11.1390    3.5890   18.4060 C   0  0  0  0  0
   12.1220    6.9230   17.3350 C   0  0  0  0  0
   13.1290    7.2600   17.9420 O   0  0  0  0  0
   11.4730    7.8680   16.3420 C   0  0  0  0  0
   12.2000    9.1250   16.2570 N   0  3  0  0  0
   13.5050    9.1550   15.5920 C   0  0  0  0  0
   13.7030   10.5580   15.0310 C   0  0  0  0  0
   13.6910   11.4560   16.1700 N   0  0  0  0  0
   12.6450   11.3830   17.1790 C   0  0  0  0  0
   11.5870   10.3240   16.8310 C   0  0  0  0  0
   14.6950   12.4240   16.2990 C   0  0  0  0  0
   15.9060   12.2980   15.6160 C   0  0  0  0  0
   16.8790   13.2890   15.7710 C   0  0  0  0  0
   16.6160   14.3460   16.5760 N   0  0  0  0  0
   15.4440   14.4550   17.2180 C   0  0  0  0  0
   14.4920   13.5140   17.0890 N   0  0  0  0  0
   18.1980   13.2040   15.0500 C   0  0  0  0  0
   19.2780   14.5330   15.4040 S   0  0  0  0  0
   20.5110   14.0070   14.4080 C   0  0  0  0  0
   20.0910   12.7540   13.7590 C   0  0  0  0  0
   18.7620   12.3010   14.1310 C   0  0  0  0  0
   21.7440   14.6140   14.1900 C   0  0  0  0  0
   22.6180   13.9780   13.3020 C   0  0  0  0  0
   22.2500   12.7800   12.6690 C   0  0  0  0  0
   21.0030   12.1680   12.8850 C   0  0  0  0  0
    9.3765    3.1729   16.9232 H   0  0  0  0  0
    9.7016    5.8878   16.1673 H   0  0  0  0  0
   13.0336    4.8372   19.0316 H   0  0  0  0  0
   11.1628    2.7086   19.0482 H   0  0  0  0  0
   10.4562    8.0767   16.6748 H   0  0  0  0  0
   11.4786    7.3965   15.3593 H   0  0  0  0  0
   12.9601    9.7989   16.3495 H   0  0  0  0  0
   13.5412    8.4163   14.7913 H   0  0  0  0  0
   14.2982    8.9125   16.2992 H   0  0  0  0  0
   12.9147   10.8122   14.3224 H   0  0  0  0  0
   14.6419   10.6324   14.4824 H   0  0  0  0  0
   12.1525   12.3540   17.2320 H   0  0  0  0  0
   13.1043   11.1084   18.1286 H   0  0  0  0  0
   11.0655   10.0421   17.7457 H   0  0  0  0  0
   10.9016   10.7476   16.0969 H   0  0  0  0  0
   16.0900   11.4388   14.9710 H   0  0  0  0  0
   15.2599   15.3203   17.8548 H   0  0  0  0  0
   18.2766   11.4001   13.7558 H   0  0  0  0  0
   22.0168   15.5439   14.6891 H   0  0  0  0  0
   23.5949   14.4171   13.0994 H   0  0  0  0  0
   22.9561   12.3078   11.9860 H   0  0  0  0  0
   20.7515   11.2401   12.3713 H   0  0  0  0  0
  1  2  4  0  0  0
  1  5  4  0  0  0
  2  3  4  0  0  0
  3  4  4  0  0  0
  3  6  1  0  0  0
  4  5  4  0  0  0
  6  7  2  0  0  0
  6  8  1  0  0  0
  8  9  1  0  0  0
  9 10  1  0  0  0
  9 14  1  0  0  0
 10 11  1  0  0  0
 11 12  1  0  0  0
 12 13  1  0  0  0
 12 15  1  0  0  0
 13 14  1  0  0  0
 15 16  4  0  0  0
 15 20  4  0  0  0
 16 17  4  0  0  0
 17 18  4  0  0  0
 17 21  1  0  0  0
 18 19  4  0  0  0
 19 20  4  0  0  0
 21 22  4  0  0  0
 21 25  4  0  0  0
 22 23  4  0  0  0
 23 24  4  0  0  0
 23 26  4  0  0  0
 24 25  4  0  0  0
 24 29  4  0  0  0
 26 27  4  0  0  0
 27 28  4  0  0  0
 28 29  4  0  0  0
  1 30  1  0  0  0
  2 31  1  0  0  0
  4 32  1  0  0  0
  5 33  1  0  0  0
  8 34  1  0  0  0
  8 35  1  0  0  0
  9 36  1  0  0  0
 10 37  1  0  0  0
 10 38  1  0  0  0
 11 39  1  0  0  0
 11 40  1  0  0  0
 13 41  1  0  0  0
 13 42  1  0  0  0
 14 43  1  0  0  0
 14 44  1  0  0  0
 16 45  1  0  0  0
 19 46  1  0  0  0
 25 47  1  0  0  0
 26 48  1  0  0  0
 27 49  1  0  0  0
 28 50  1  0  0  0
 29 51  1  0  0  0
M  END
$$$$
