6f1n_ligand
  -I-interpret- 

 50 52  0  0  0  0  0  0  0  0999 V2000
   67.9910   38.5030   27.0670 C   0  0  0  0  0
   64.9600   37.5300   19.3790 N   0  0  0  0  0
   63.3120   33.8250   25.0400 C   0  0  0  0  0
   64.6390   33.9000   25.5520 C   0  0  0  0  0
   65.0040   33.2640   26.8000 C   0  0  0  0  0
   63.8820   35.0790   23.1600 C   0  0  0  0  0
   65.2100   35.2700   23.5900 C   0  0  0  0  0
   65.9680   36.0870   22.6340 C   0  0  0  0  0
   69.1850   33.9460   25.8870 C   0  0  0  0  0
   67.9180   33.7440   25.3510 C   0  0  0  0  0
   66.9820   34.7920   25.3630 C   0  0  0  0  0
   67.3370   36.0160   25.9460 C   0  0  0  0  0
   68.3900   39.5670   28.0990 C   0  0  0  0  0
   68.9470   37.4240   27.0300 O   0  0  0  0  0
   63.6060   35.8960   21.6340 S   0  0  0  0  0
   65.2540   36.4880   21.5350 C   0  0  0  0  0
   65.7530   37.2610   20.4340 C   0  0  0  0  0
   62.3120   33.1600   25.7100 N   0  0  0  0  0
   62.9990   34.3720   23.8860 N   0  0  0  0  0
   65.3310   32.7680   27.7730 N   0  0  0  0  0
   67.3100   36.4370   22.7970 N   0  0  0  0  0
   68.6130   36.2220   26.4710 C   0  0  0  0  0
   69.5570   35.1800   26.4350 C   0  0  0  0  0
   65.6040   34.6410   24.8260 C   0  0  0  0  0
   70.8120   35.3990   26.9590 O   0  0  0  0  0
   71.8470   34.4060   26.9160 C   0  0  0  0  0
   66.9140   37.6480   20.3940 O   0  0  0  0  0
   69.5570   40.4340   27.6000 C   0  0  0  0  0
   69.1450   41.3760   26.4870 C   0  0  0  0  0
   68.5610   42.4080   26.7460 O   0  0  0  0  0
   69.4330   41.0750   25.2050 O   0  0  0  0  0
   67.9569   38.9701   26.0827 H   0  0  0  0  0
   67.0192   38.0960   27.3464 H   0  0  0  0  0
   65.3318   38.0419   18.5789 H   0  0  0  0  0
   63.9877   37.2218   19.3802 H   0  0  0  0  0
   69.9039   33.1267   25.8805 H   0  0  0  0  0
   67.6521   32.7772   24.9235 H   0  0  0  0  0
   66.6034   36.8210   25.9900 H   0  0  0  0  0
   68.7047   39.0597   29.0110 H   0  0  0  0  0
   67.5311   40.2150   28.2737 H   0  0  0  0  0
   62.5109   32.7027   26.5998 H   0  0  0  0  0
   61.3714   33.1241   25.3172 H   0  0  0  0  0
   67.8231   36.1213   23.6201 H   0  0  0  0  0
   67.7772   37.0084   22.0930 H   0  0  0  0  0
   71.5162   33.5149   27.4495 H   0  0  0  0  0
   72.0613   34.1511   25.8781 H   0  0  0  0  0
   72.7470   34.8004   27.3878 H   0  0  0  0  0
   70.3274   39.7689   27.2099 H   0  0  0  0  0
   69.9105   41.0363   28.4369 H   0  0  0  0  0
   69.8924   40.2327   25.1707 H   0  0  0  0  0
  1 13  1  0  0  0
 14  1  1  0  0  0
 17  2  1  0  0  0
  3  4  4  0  0  0
  3 18  1  0  0  0
 19  3  4  0  0  0
  4  5  1  0  0  0
 24  4  4  0  0  0
  5 20  3  0  0  0
  6  7  4  0  0  0
 15  6  4  0  0  0
  6 19  4  0  0  0
  8  7  4  0  0  0
  7 24  4  0  0  0
 16  8  4  0  0  0
  8 21  1  0  0  0
 10  9  4  0  0  0
  9 23  4  0  0  0
 11 10  4  0  0  0
 11 12  4  0  0  0
 24 11  1  0  0  0
 12 22  4  0  0  0
 13 28  1  0  0  0
 22 14  1  0  0  0
 16 15  4  0  0  0
 16 17  1  0  0  0
 17 27  2  0  0  0
 22 23  4  0  0  0
 23 25  1  0  0  0
 25 26  1  0  0  0
 28 29  1  0  0  0
 29 30  2  0  0  0
 29 31  1  0  0  0
  1 32  1  0  0  0
  1 33  1  0  0  0
  2 34  1  0  0  0
  2 35  1  0  0  0
  9 36  1  0  0  0
 10 37  1  0  0  0
 12 38  1  0  0  0
 13 39  1  0  0  0
 13 40  1  0  0  0
 18 41  1  0  0  0
 18 42  1  0  0  0
 21 43  1  0  0  0
 21 44  1  0  0  0
 26 45  1  0  0  0
 26 46  1  0  0  0
 26 47  1  0  0  0
 28 48  1  0  0  0
 28 49  1  0  0  0
 31 50  1  0  0  0
M  END
$$$$
