6s1s_ligand

Created by X-TOOL on Mon Aug  2 16:10:24 2021
 25 25  0  0  0  0  0  0  0  0999 V2000
   80.2240   41.3140  118.8180  O 0  0  0  1  0  1
   80.5240   42.3750  119.4550  C 0  5  0  1  0  3
   81.3480   43.2010  119.0030  O 0  0  0  1  0  1
   79.8040   42.6820  120.7530  C 0  0  0  2  0  3
   80.3590   43.2730  121.7840  C 0  0  0  2  0  3
   79.4470   43.5350  122.9860  C 0  0  0  1  0  3
   79.5450   44.7360  123.6260  C 0  0  0  2  0  3
   78.7170   44.9820  124.7210  C 0  0  0  2  0  3
   77.7650   44.0350  125.1100  C 0  0  0  2  0  3
   77.6510   42.8270  124.4740  C 0  0  0  2  0  4
   76.5170   41.7470  124.9160  B 0  0  0  1  0  3
   75.3740   42.2670  125.5190  O 0  0  0  3  0  3
   76.2620   40.7610  123.9540  O 0  0  0  3  0  3
   78.5090   42.5860  123.4160  C 0  0  0  2  0  3
   78.7573   42.3929  120.8349  H 0  0  0  1  0  1
   81.4092   43.5612  121.7852  H 0  0  0  1  0  1
   80.2530   45.4848  123.2898  H 0  0  0  1  0  1
   78.8119   45.9105  125.2723  H 0  0  0  1  0  1
   77.1003   44.2623  125.9356  H 0  0  0  1  0  1
   76.9192   42.0909  124.7867  H 0  0  0  1  0  1
   74.9012   41.5677  125.9548  H 0  0  0  1  0  1
   74.9012   41.5677  125.9548  H 0  0  0  1  0  1
   77.0844   40.4561  123.5890  H 0  0  0  1  0  1
   77.0844   40.4561  123.5890  H 0  0  0  1  0  1
   78.4543   41.6327  122.9029  H 0  0  0  1  0  1
  1  2  2  0  0  2
  2  3  2  0  0  2
  2  4  1  0  0  2
  4  5  2  0  0  2
  5  6  1  0  0  2
  6  7  4  0  0  1
  6 14  4  0  0  1
  7  8  4  0  0  1
  8  9  4  0  0  1
  9 10  4  0  0  1
 10 11  1  0  0  2
 10 14  4  0  0  1
 11 12  1  0  0  2
 11 13  1  0  0  2
  4 15  1  0  0  2
  5 16  1  0  0  2
  7 17  1  0  0  2
  8 18  1  0  0  2
  9 19  1  0  0  2
 10 20  1  0  0  2
 12 21  1  0  0  2
 12 22  1  0  0  2
 13 23  1  0  0  2
 13 24  1  0  0  2
 14 25  1  0  0  2
M  END
> <MOLECULAR_FORMULA>
C9H11O4B

> <MOLECULAR_WEIGHT>
193.9

> <NUM_HB_ATOMS>
4  

> <NUM_ROTOR>
1  

> <XLOGP2>
0.41 

$$$$
