#	Name:			6s1s_ligand
#	Creating user name:	wangrx
#	Creation time:		Thu Aug  5 18:12:48 2021

#	Modifying user name:	wangrx
#	Modification time:	Thu Aug  5 18:13:32 2021

@<TRIPOS>MOLECULE
6s1s_ligand
   24    24     1     0     0
SMALL
GAST_HUCK


@<TRIPOS>ATOM
      1 O01        80.2240   41.3140  118.8180 O.co2     1 KRT        -0.5946 
      2 C02        80.5240   42.3750  119.4550 C.2       1 KRT        -0.0225 
      3 O03        81.3480   43.2010  119.0030 O.co2     1 KRT        -0.5946 
      4 C04        79.8040   42.6820  120.7530 C.2       1 KRT        -0.1458 
      5 C05        80.3590   43.2730  121.7840 C.2       1 KRT        -0.1651 
      6 C06        79.4470   43.5350  122.9860 C.ar      1 KRT        -0.1146 
      7 C07        79.5450   44.7360  123.6260 C.ar      1 KRT        -0.1079 
      8 C08        78.7170   44.9820  124.7210 C.ar      1 KRT        -0.1051 
      9 C09        77.7650   44.0350  125.1100 C.ar      1 KRT        -0.0995 
     10 C10        77.6510   42.8270  124.4740 C.ar      1 KRT        -0.0722 
     11 B12        76.5170   41.7470  124.9160 B         1 KRT         3.0000 
     12 O13        75.3740   42.2670  125.5190 O.3       1 KRT        -0.4105 
     13 O14        76.2620   40.7610  123.9540 O.3       1 KRT        -0.4105 
     14 C11        78.5090   42.5860  123.4160 C.ar      1 KRT        -0.1014 
     15 H1         78.7573   42.3929  120.8349 H         1 KRT        -0.0242 
     16 H2         81.4092   43.5612  121.7852 H         1 KRT         0.0040 
     17 H3         80.2530   45.4848  123.2898 H         1 KRT         0.0341 
     18 H4         78.8119   45.9105  125.2723 H         1 KRT         0.0485 
     19 H5         77.1003   44.2623  125.9356 H         1 KRT         0.0262 
     20 H7         74.9012   41.5677  125.9548 H         1 KRT         0.2052 
     21 H8         74.9012   41.5677  125.9548 H         1 KRT         0.2052 
     22 H9         77.0844   40.4561  123.5890 H         1 KRT         0.2052 
     23 H10        77.0844   40.4561  123.5890 H         1 KRT         0.2052 
     24 H11        78.4543   41.6327  122.9029 H         1 KRT         0.0346 
@<TRIPOS>BOND
     1    1    2 ar   
     2    2    3 ar   
     3    2    4 1    
     4    4    5 2    
     5    5    6 1    
     6    6    7 ar   
     7    6   14 ar   
     8    7    8 ar   
     9    8    9 ar   
    10    9   10 ar   
    11   10   11 1    
    12   10   14 ar   
    13   11   12 1    
    14   11   13 1    
    15    4   15 1    
    16    5   16 1    
    17    7   17 1    
    18    8   18 1    
    19    9   19 1    
    20   12   20 1    
    21   12   21 1    
    22   13   22 1    
    23   13   23 1    
    24   14   24 1    
@<TRIPOS>SUBSTRUCTURE
     1 KRT         1 PERM              0 ****  ****    0 ROOT 
