6det_ligand
  -I-interpret- 

 27 26  0  0  0  0  0  0  0  0999 V2000
   22.8480   15.3190   10.6800 N   0  3  0  0  0
   22.9260   13.8960   11.1010 C   0  0  0  0  0
   24.2250   13.6660   11.8650 C   0  0  0  0  0
   25.1580   14.4760   11.7060 O   0  0  0  0  0
   22.8670   12.9610    9.8940 C   0  0  0  0  0
   21.5340   12.9690    9.1540 C   0  0  0  0  0
   21.5170   12.0950    7.9030 C   0  0  0  0  0
   21.6830   10.6990    8.2570 N   0  0  0  0  0
   22.7800    9.9820    8.0390 C   0  0  0  0  0
   22.7980    8.7160    8.4640 N   0  0  0  0  0
   23.8440   10.5110    7.4330 N   0  0  0  0  0
   24.3390   12.6800   12.6060 O   0  0  0  0  0
   22.8895   15.9188   11.5039 H   0  0  0  0  0
   23.6310   15.5330   10.0623 H   0  0  0  0  0
   21.9701   15.4785   10.1858 H   0  0  0  0  0
   22.0724   13.6775   11.7427 H   0  0  0  0  0
   24.8806   15.1670   11.1001 H   0  0  0  0  0
   23.0192   11.9481   10.2669 H   0  0  0  0  0
   23.6257   13.3011    9.1891 H   0  0  0  0  0
   21.3455   13.9944    8.8360 H   0  0  0  0  0
   20.7816   12.5735    9.8364 H   0  0  0  0  0
   22.3368   12.3948    7.2502 H   0  0  0  0  0
   20.5602   12.2206    7.3961 H   0  0  0  0  0
   20.8969   10.2312    8.7083 H   0  0  0  0  0
   23.6310    8.1436    8.3264 H   0  0  0  0  0
   21.9788    8.3215    8.9262 H   0  0  0  0  0
   23.8254   11.4839    7.1271 H   0  0  0  0  0
  1  2  1  0  0  0
  2  3  1  0  0  0
  2  5  1  0  0  0
  3  4  1  0  0  0
  3 12  2  0  0  0
  5  6  1  0  0  0
  6  7  1  0  0  0
  7  8  1  0  0  0
  8  9  1  0  0  0
  9 10  1  0  0  0
  9 11  2  0  0  0
  1 13  1  0  0  0
  1 14  1  0  0  0
  1 15  1  0  0  0
  2 16  1  0  0  0
  4 17  1  0  0  0
  5 18  1  0  0  0
  5 19  1  0  0  0
  6 20  1  0  0  0
  6 21  1  0  0  0
  7 22  1  0  0  0
  7 23  1  0  0  0
  8 24  1  0  0  0
 10 25  1  0  0  0
 10 26  1  0  0  0
 11 27  1  0  0  0
M  END
$$$$
