4nuc_ligand
  -I-interpret- 

 45 47  0  0  0  0  0  0  0  0999 V2000
  -15.2860   13.2230   -6.4670 C   0  0  0  0  0
  -15.8050   11.9990   -6.1170 C   0  0  0  0  0
  -15.3150   10.8030   -6.6030 C   0  0  0  0  0
  -14.1630   10.8270   -7.4010 C   0  0  0  0  0
  -13.5730   12.0650   -7.7230 C   0  0  0  0  0
  -14.1480   13.2570   -7.2370 C   0  0  0  0  0
  -13.5680   14.4690   -7.5620 O   0  0  0  0  0
  -12.3840   12.1140   -8.6080 C   0  0  0  0  0
  -15.8980    9.5870   -6.1690 N   0  0  0  0  0
  -15.3980    8.5140   -6.6350 N   0  0  0  0  0
  -15.8760    7.2620   -6.1850 C   0  0  0  0  0
  -15.3630    6.0910   -6.7700 C   0  0  0  0  0
  -15.7500    4.8480   -6.3670 C   0  0  0  0  0
  -16.6190    4.6840   -5.2740 C   0  0  0  0  0
  -17.0830    5.8880   -4.6470 C   0  0  0  0  0
  -16.6860    7.1590   -5.0840 C   0  0  0  0  0
  -16.9900    3.1580   -4.7460 S   0  0  0  0  0
  -17.2610    2.3180   -5.9240 O   0  0  0  0  0
  -18.0990    3.4170   -3.7990 O   0  0  0  0  0
  -15.7010    2.4440   -4.0310 N   0  0  0  0  0
  -15.1150    2.8310   -2.8890 C   0  0  0  0  0
  -13.9010    2.2750   -2.6020 N   0  0  0  0  0
  -13.2220    2.6100   -1.4960 C   0  0  0  0  0
  -13.7460    3.5700   -0.6160 C   0  0  0  0  0
  -14.9900    4.1590   -0.8940 C   0  0  0  0  0
  -15.6940    3.7920   -2.0410 C   0  0  0  0  0
  -15.9000   14.4970   -5.9510 C   0  0  0  0  0
  -16.6442   11.9713   -5.4220 H   0  0  0  0  0
  -13.7282    9.8975   -7.7686 H   0  0  0  0  0
  -12.7879   14.3151   -8.0999 H   0  0  0  0  0
  -11.5719   11.5451   -8.1552 H   0  0  0  0  0
  -12.6357   11.6823   -9.5767 H   0  0  0  0  0
  -12.0736   13.1505   -8.7403 H   0  0  0  0  0
  -14.6312    6.1803   -7.5728 H   0  0  0  0  0
  -15.3814    3.9705   -6.8984 H   0  0  0  0  0
  -17.7675    5.8117   -3.8021 H   0  0  0  0  0
  -17.0167    8.0532   -4.5557 H   0  0  0  0  0
  -15.3069    1.6278   -4.4988 H   0  0  0  0  0
  -12.2638    2.1374   -1.2801 H   0  0  0  0  0
  -13.1908    3.8563    0.2773 H   0  0  0  0  0
  -15.4054    4.9026   -0.2139 H   0  0  0  0  0
  -16.6622    4.2360   -2.2727 H   0  0  0  0  0
  -16.9384   14.5565   -6.2771 H   0  0  0  0  0
  -15.8589   14.5035   -4.8618 H   0  0  0  0  0
  -15.3457   15.3503   -6.3418 H   0  0  0  0  0
  1  2  4  0  0  0
  1  6  4  0  0  0
  1 27  1  0  0  0
  2  3  4  0  0  0
  3  4  4  0  0  0
  3  9  1  0  0  0
  4  5  4  0  0  0
  5  6  4  0  0  0
  5  8  1  0  0  0
  6  7  1  0  0  0
  9 10  2  0  0  0
 10 11  1  0  0  0
 11 12  4  0  0  0
 11 16  4  0  0  0
 12 13  4  0  0  0
 13 14  4  0  0  0
 14 15  4  0  0  0
 14 17  1  0  0  0
 15 16  4  0  0  0
 17 18  2  0  0  0
 17 19  2  0  0  0
 17 20  1  0  0  0
 20 21  1  0  0  0
 21 22  4  0  0  0
 21 26  4  0  0  0
 22 23  4  0  0  0
 23 24  4  0  0  0
 24 25  4  0  0  0
 25 26  4  0  0  0
  2 28  1  0  0  0
  4 29  1  0  0  0
  7 30  1  0  0  0
  8 31  1  0  0  0
  8 32  1  0  0  0
  8 33  1  0  0  0
 12 34  1  0  0  0
 13 35  1  0  0  0
 15 36  1  0  0  0
 16 37  1  0  0  0
 20 38  1  0  0  0
 23 39  1  0  0  0
 24 40  1  0  0  0
 25 41  1  0  0  0
 26 42  1  0  0  0
 27 43  1  0  0  0
 27 44  1  0  0  0
 27 45  1  0  0  0
M  END
$$$$
