4nj9_ligand
  -I-interpret- 

 42 45  0  0  0  0  0  0  0  0999 V2000
    5.7690   22.6200   55.5280 O   0  0  0  0  0
    5.9200   21.4590   54.6250 S   0  0  0  0  0
    7.3070   20.9700   54.4270 O   0  0  0  0  0
    5.4890   22.0230   53.3170 O   0  0  0  0  0
    4.9450   20.2600   55.1620 C   0  0  0  0  0
    3.7580   19.9710   54.4200 C   0  0  0  0  0
    2.7930   18.9630   54.7640 C   0  0  0  0  0
    1.4240   18.7140   53.8050 S   0  0  0  0  0
    1.4520   19.7360   52.7780 O   0  0  0  0  0
    1.4400   17.3520   53.3340 O   0  0  0  0  0
    0.2330   18.9160   54.6390 O   0  0  0  0  0
    3.0430   18.2180   55.9290 C   0  0  0  0  0
    2.1780   17.1880   56.3470 C   0  0  0  0  0
    2.4070   16.4330   57.4950 C   0  0  0  0  0
    5.1600   19.4860   56.3520 C   0  0  0  0  0
    4.2310   18.4570   56.7190 C   0  0  0  0  0
    4.4500   17.6600   57.8880 C   0  0  0  0  0
    3.5580   16.6580   58.2940 C   0  0  0  0  0
    6.3230   19.6630   57.1480 C   0  0  0  0  0
    6.5130   18.8950   58.2790 C   0  0  0  0  0
    5.5910   17.9110   58.6590 C   0  0  0  0  0
    5.8600   17.1700   59.8010 C   0  0  0  0  0
    7.0310   17.4960   60.4850 O   0  0  0  0  0
    7.7110   16.5320   61.3020 C   0  0  0  0  0
    4.9710   16.1580   60.2160 C   0  0  0  0  0
    3.7790   15.9100   59.4950 C   0  0  0  0  0
    2.7780   14.7170   60.0430 S   0  0  0  0  0
    1.3810   15.0640   60.2860 O   0  0  0  0  0
    2.8040   13.6090   59.0190 O   0  0  0  0  0
    3.3700   14.0950   61.2370 O   0  0  0  0  0
    5.5474   21.3431   52.6418 H   0  0  0  0  0
    3.5700   20.5612   53.5231 H   0  0  0  0  0
    0.2050   18.2433   55.3233 H   0  0  0  0  0
    1.2933   16.9729   55.7477 H   0  0  0  0  0
    1.6939   15.6605   57.7829 H   0  0  0  0  0
    7.0674   20.4073   56.8649 H   0  0  0  0  0
    7.4006   19.0578   58.8904 H   0  0  0  0  0
    7.0435   16.1939   62.0946 H   0  0  0  0  0
    8.0077   15.6818   60.6878 H   0  0  0  0  0
    8.5965   16.9906   61.7420 H   0  0  0  0  0
    5.2034   15.5622   61.0987 H   0  0  0  0  0
    3.7141   13.3611   58.8405 H   0  0  0  0  0
  1  2  2  0  0  0
  2  3  2  0  0  0
  2  4  1  0  0  0
  2  5  1  0  0  0
  5  6  4  0  0  0
  5 15  4  0  0  0
  6  7  4  0  0  0
  7  8  1  0  0  0
  7 12  4  0  0  0
  8  9  2  0  0  0
  8 10  2  0  0  0
  8 11  1  0  0  0
 12 13  4  0  0  0
 12 16  4  0  0  0
 13 14  4  0  0  0
 14 18  4  0  0  0
 15 16  4  0  0  0
 15 19  4  0  0  0
 16 17  4  0  0  0
 17 18  4  0  0  0
 17 21  4  0  0  0
 18 26  4  0  0  0
 19 20  4  0  0  0
 20 21  4  0  0  0
 21 22  4  0  0  0
 22 23  1  0  0  0
 22 25  4  0  0  0
 23 24  1  0  0  0
 25 26  4  0  0  0
 26 27  1  0  0  0
 27 28  2  0  0  0
 27 29  1  0  0  0
 27 30  2  0  0  0
  4 31  1  0  0  0
  6 32  1  0  0  0
 11 33  1  0  0  0
 13 34  1  0  0  0
 14 35  1  0  0  0
 19 36  1  0  0  0
 20 37  1  0  0  0
 24 38  1  0  0  0
 24 39  1  0  0  0
 24 40  1  0  0  0
 25 41  1  0  0  0
 29 42  1  0  0  0
M  END
$$$$
