5u5l_ligand
  -I-interpret- 

 47 50  0  0  0  0  0  0  0  0999 V2000
   -6.1350   28.6310  130.2270 C   0  0  0  0  0
   -8.8200   29.2460  129.9320 C   0  0  0  0  0
   -7.8500   30.6090  125.8520 C   0  0  0  0  0
   -8.6040   32.5890  125.3470 C   0  0  0  0  0
   -6.8250   33.4910  123.9790 C   0  0  0  0  0
   -8.7890   34.8340  124.4160 C   0  0  0  0  0
   -5.6700   30.6020  124.6850 C   0  0  0  0  0
   -6.9490   36.9490  123.7070 C   0  0  0  0  0
   -5.3340   31.8750  134.6980 N   0  0  0  0  0
   -6.0280   30.6510  134.5870 C   0  0  0  0  0
   -5.7690   30.0520  133.2790 C   0  0  0  0  0
   -4.7350   31.1080  132.4830 S   0  0  0  0  0
   -4.6120   32.2350  133.6520 C   0  0  0  0  0
   -3.9710   33.2270  133.5770 O   0  0  0  0  0
   -6.7170   30.1840  135.4290 O   0  0  0  0  0
   -6.3190   28.7230  132.7550 C   0  0  0  0  0
   -6.9220   28.8430  131.3510 C   0  0  0  0  0
   -6.6900   28.7320  128.9570 C   0  0  0  0  0
   -8.0360   29.0410  128.8080 C   0  0  0  0  0
   -8.2660   29.1450  131.1990 C   0  0  0  0  0
   -8.6250   29.1460  127.5360 O   0  0  0  0  0
   -7.7450   29.2040  126.4470 C   0  0  0  0  0
   -6.9330   31.1910  125.0930 N   0  0  0  0  0
   -7.3750   32.4370  124.7580 C   0  0  0  0  0
   -8.8730   31.4340  126.0210 N   0  0  0  0  0
   -7.5350   34.6780  123.8150 C   0  0  0  0  0
   -9.3290   33.8020  125.1800 C   0  0  0  0  0
   -6.9890   35.7150  123.0460 O   0  0  0  0  0
   -5.0793   28.3848  130.3410 H   0  0  0  0  0
   -9.8769   29.4877  129.8196 H   0  0  0  0  0
   -5.8483   33.3705  123.5103 H   0  0  0  0  0
   -9.3435   35.7634  124.2863 H   0  0  0  0  0
   -5.0809   30.3599  125.5696 H   0  0  0  0  0
   -5.8618   29.6931  124.1147 H   0  0  0  0  0
   -5.1226   31.3124  124.0655 H   0  0  0  0  0
   -7.9615   37.2466  123.9799 H   0  0  0  0  0
   -6.3407   36.8582  124.6069 H   0  0  0  0  0
   -6.5138   37.6994  123.0469 H   0  0  0  0  0
   -5.3870   32.4496  135.5391 H   0  0  0  0  0
   -6.1939   29.1397  132.8604 H   0  0  0  0  0
   -7.1096   28.3986  133.4316 H   0  0  0  0  0
   -5.4912   28.0158  132.7038 H   0  0  0  0  0
   -6.0683   28.5685  128.0767 H   0  0  0  0  0
   -8.8898   29.3037  132.0787 H   0  0  0  0  0
   -6.7238   28.9996  126.7685 H   0  0  0  0  0
   -8.0069   28.4522  125.7025 H   0  0  0  0  0
  -10.3053   33.9234  125.6492 H   0  0  0  0  0
  1 17  4  0  0  0
 18  1  4  0  0  0
 19  2  4  0  0  0
  2 20  4  0  0  0
  3 22  1  0  0  0
 23  3  4  0  0  0
 25  3  4  0  0  0
 24  4  4  0  0  0
  4 25  4  0  0  0
 27  4  4  0  0  0
  5 24  4  0  0  0
 26  5  4  0  0  0
 26  6  4  0  0  0
  6 27  4  0  0  0
 23  7  1  0  0  0
 28  8  1  0  0  0
 10  9  1  0  0  0
 13  9  1  0  0  0
 11 10  1  0  0  0
 10 15  2  0  0  0
 11 12  1  0  0  0
 16 11  1  0  0  0
 12 13  1  0  0  0
 13 14  2  0  0  0
 17 16  1  0  0  0
 20 17  4  0  0  0
 19 18  4  0  0  0
 21 19  1  0  0  0
 22 21  1  0  0  0
 24 23  4  0  0  0
 26 28  1  0  0  0
  1 29  1  0  0  0
  2 30  1  0  0  0
  5 31  1  0  0  0
  6 32  1  0  0  0
  7 33  1  0  0  0
  7 34  1  0  0  0
  7 35  1  0  0  0
  8 36  1  0  0  0
  8 37  1  0  0  0
  8 38  1  0  0  0
  9 39  1  0  0  0
 11 40  1  0  0  0
 16 41  1  0  0  0
 16 42  1  0  0  0
 18 43  1  0  0  0
 20 44  1  0  0  0
 22 45  1  0  0  0
 22 46  1  0  0  0
 27 47  1  0  0  0
M  END
$$$$
