5ntp_ligand
  -I-interpret- 

 66 69  0  0  0  0  0  0  0  0999 V2000
   19.4110   12.8310   23.6940 C   0  0  0  0  0
   20.7870   12.1880   23.3990 C   0  0  0  0  0
   25.9380   13.4580   23.7500 C   0  0  0  0  0
   22.6120   13.1800   22.0460 C   0  0  0  0  0
   20.2110   11.3430   20.2160 C   0  0  0  0  0
   14.9430   11.9850   19.9280 C   0  0  0  0  0
   14.3080   13.1820   19.5700 C   0  0  0  0  0
   14.6220   14.3530   20.2770 C   0  0  0  0  0
   15.5490   14.3470   21.3150 C   0  0  0  0  0
   16.1850   13.1550   21.6690 C   0  0  0  0  0
   15.8880   11.9640   20.9750 C   0  0  0  0  0
   16.5670   10.6170   21.3280 C   0  0  0  0  0
   17.1770   13.2460   22.8370 C   0  0  0  0  0
   14.4250    6.6930   16.2640 C   0  0  0  0  0
   14.9870    8.1190   18.0310 C   0  0  0  0  0
   14.5810    9.2370   17.2860 C   0  0  0  0  0
   14.1100    9.0140   15.9840 C   0  0  0  0  0
   18.5340   12.7640   22.4990 N   0  3  0  0  0
   21.3300   12.7160   22.1370 N   0  0  0  0  0
   20.4700   12.6990   20.9330 C   0  0  0  0  0
   19.1500   13.4220   21.3110 C   0  0  0  0  0
   24.9580   12.6040   22.9280 C   0  0  0  0  0
   23.5590   13.2160   23.2380 C   0  0  0  0  0
   23.8350   14.6520   23.7830 C   0  0  0  0  0
   25.3530   14.8730   23.5710 C   0  0  0  0  0
   23.0730   13.6020   20.9910 O   0  0  0  0  0
   13.8620   15.8690   19.8970 Cl  0  0  0  0  0
   14.7130   10.7580   19.2540 N   0  0  0  0  0
   14.8990    6.8760   17.5150 N   0  0  0  0  0
   14.0400    7.7480   15.5110 N   0  0  0  0  0
   14.3360    5.2820   15.6950 C   0  0  0  0  0
   14.7420   10.6040   17.9110 C   0  0  0  0  0
   14.9320   11.5380   17.1450 O   0  0  0  0  0
   19.5610   13.8766   23.9629 H   0  0  0  0  0
   18.9359   12.2876   24.5108 H   0  0  0  0  0
   20.6669   11.1080   23.3134 H   0  0  0  0  0
   21.4744   12.4240   24.2114 H   0  0  0  0  0
   26.9721   13.3718   23.4165 H   0  0  0  0  0
   26.0120   13.1490   24.7926 H   0  0  0  0  0
   21.1599   10.9223   19.8833 H   0  0  0  0  0
   19.7293   10.6532   20.9090 H   0  0  0  0  0
   19.5629   11.5067   19.3550 H   0  0  0  0  0
   13.5828   13.2031   18.7565 H   0  0  0  0  0
   15.7778   15.2689   21.8496 H   0  0  0  0  0
   15.8062    9.8944   21.6231 H   0  0  0  0  0
   17.1058   10.2440   20.4570 H   0  0  0  0  0
   17.2650   10.7682   22.1514 H   0  0  0  0  0
   16.7961   12.6147   23.6398 H   0  0  0  0  0
   17.2624   14.2971   23.1126 H   0  0  0  0  0
   15.3782    8.2570   19.0390 H   0  0  0  0  0
   13.8032    9.8525   15.3589 H   0  0  0  0  0
   18.4300   11.7900   22.2146 H   0  0  0  0  0
   21.0375   13.2123   20.1567 H   0  0  0  0  0
   19.3656   14.4638   21.5482 H   0  0  0  0  0
   18.4575   13.3690   20.4709 H   0  0  0  0  0
   25.0117   11.5482   23.1937 H   0  0  0  0  0
   25.1884   12.6264   21.8629 H   0  0  0  0  0
   23.0264   12.6235   23.9819 H   0  0  0  0  0
   23.5543   14.7480   24.8319 H   0  0  0  0  0
   23.2400   15.4035   23.2640 H   0  0  0  0  0
   25.5849   15.3059   22.5979 H   0  0  0  0  0
   25.7759   15.5962   24.2683 H   0  0  0  0  0
   14.5118    9.9350   19.8219 H   0  0  0  0  0
   15.3306    4.8366   15.6741 H   0  0  0  0  0
   13.6797    4.6792   16.3227 H   0  0  0  0  0
   13.9342    5.3245   14.6826 H   0  0  0  0  0
  1  2  1  0  0  0
 18  1  1  0  0  0
  2 19  1  0  0  0
 22  3  1  0  0  0
 25  3  1  0  0  0
 19  4  1  0  0  0
  4 23  1  0  0  0
  4 26  2  0  0  0
 20  5  1  0  0  0
  6  7  4  0  0  0
  6 11  4  0  0  0
 28  6  1  0  0  0
  7  8  4  0  0  0
  8  9  4  0  0  0
  8 27  1  0  0  0
 10  9  4  0  0  0
 11 10  4  0  0  0
 10 13  1  0  0  0
 11 12  1  0  0  0
 13 18  1  0  0  0
 29 14  4  0  0  0
 30 14  4  0  0  0
 14 31  1  0  0  0
 16 15  4  0  0  0
 15 29  4  0  0  0
 16 17  4  0  0  0
 32 16  1  0  0  0
 17 30  4  0  0  0
 18 21  1  0  0  0
 20 19  1  0  0  0
 21 20  1  0  0  0
 23 22  1  0  0  0
 23 24  1  0  0  0
 24 25  1  0  0  0
 28 32  1  0  0  0
 32 33  2  0  0  0
  1 34  1  0  0  0
  1 35  1  0  0  0
  2 36  1  0  0  0
  2 37  1  0  0  0
  3 38  1  0  0  0
  3 39  1  0  0  0
  5 40  1  0  0  0
  5 41  1  0  0  0
  5 42  1  0  0  0
  7 43  1  0  0  0
  9 44  1  0  0  0
 12 45  1  0  0  0
 12 46  1  0  0  0
 12 47  1  0  0  0
 13 48  1  0  0  0
 13 49  1  0  0  0
 15 50  1  0  0  0
 17 51  1  0  0  0
 18 52  1  0  0  0
 20 53  1  0  0  0
 21 54  1  0  0  0
 21 55  1  0  0  0
 22 56  1  0  0  0
 22 57  1  0  0  0
 23 58  1  0  0  0
 24 59  1  0  0  0
 24 60  1  0  0  0
 25 61  1  0  0  0
 25 62  1  0  0  0
 28 63  1  0  0  0
 31 64  1  0  0  0
 31 65  1  0  0  0
 31 66  1  0  0  0
M  END
$$$$
