3mqf_ligand
  -I-interpret- 

 42 43  0  0  0  0  0  0  0  0999 V2000
   33.5430   22.8620   27.9700 C   0  0  0  0  0
   36.9070   27.8280   37.4020 F   0  0  0  0  0
   34.5280   23.4260   28.8780 N   0  0  0  0  0
   32.7620   24.5200   30.4360 S   0  0  0  0  0
   33.9090   23.1250   26.5070 C   0  0  0  0  0
   35.3310   24.4320   30.6990 N   0  0  0  0  0
   34.0940   24.5290   26.2760 O   0  0  0  0  0
   32.8130   22.5390   25.5970 C   0  0  0  0  0
   35.3520   25.0540   31.8640 N   0  0  0  0  0
   33.3420   18.6660   27.2770 O   0  0  0  0  0
   32.5270   21.0700   25.9390 C   0  0  0  0  0
   31.3220   20.6550   25.2790 O   0  0  0  0  0
   32.3640   20.8670   27.4560 C   0  0  0  0  0
   33.4810   21.4420   28.1460 O   0  0  0  0  0
   32.2540   19.4010   27.8560 C   0  0  0  0  0
   33.1740   22.6510   24.2080 O   0  0  0  0  0
   34.2430   24.1110   29.9970 C   0  0  0  0  0
   36.4780   25.2360   32.4300 C   0  0  0  0  0
   36.6080   25.9220   33.7350 C   0  0  0  0  0
   37.8220   26.5150   34.1070 C   0  0  0  0  0
   37.9410   27.1600   35.3430 C   0  0  0  0  0
   36.8380   27.2070   36.2060 C   0  0  0  0  0
   35.6320   26.6120   35.8300 C   0  0  0  0  0
   35.5110   25.9680   34.6000 C   0  0  0  0  0
   32.5874   23.3343   28.1977 H   0  0  0  0  0
   35.5123   23.2909   28.6471 H   0  0  0  0  0
   34.8539   22.6348   26.2725 H   0  0  0  0  0
   34.7819   24.8600   26.8580 H   0  0  0  0  0
   31.9081   23.1205   25.7735 H   0  0  0  0  0
   33.2727   17.7423   27.5290 H   0  0  0  0  0
   33.3737   20.4724   25.6011 H   0  0  0  0  0
   31.1419   19.7364   25.4920 H   0  0  0  0  0
   31.4317   21.3591   27.7331 H   0  0  0  0  0
   32.2944   19.3160   28.9419 H   0  0  0  0  0
   31.3084   18.9955   27.4960 H   0  0  0  0  0
   33.3520   23.5707   23.9980 H   0  0  0  0  0
   37.0026   25.8992   31.7422 H   0  0  0  0  0
   36.8216   24.2234   32.6412 H   0  0  0  0  0
   38.6763   26.4737   33.4313 H   0  0  0  0  0
   38.8847   27.6225   35.6324 H   0  0  0  0  0
   34.7770   26.6516   36.5050 H   0  0  0  0  0
   34.5673   25.5033   34.3145 H   0  0  0  0  0
  3  1  1  0  0  0
  1  5  1  0  0  0
  1 14  1  0  0  0
 22  2  1  0  0  0
 17  3  1  0  0  0
 17  4  2  0  0  0
  5  7  1  0  0  0
  5  8  1  0  0  0
  9  6  2  0  0  0
  6 17  1  0  0  0
  8 11  1  0  0  0
  8 16  1  0  0  0
 18  9  1  0  0  0
 15 10  1  0  0  0
 11 12  1  0  0  0
 13 11  1  0  0  0
 14 13  1  0  0  0
 13 15  1  0  0  0
 19 18  1  0  0  0
 20 19  4  0  0  0
 19 24  4  0  0  0
 21 20  4  0  0  0
 21 22  4  0  0  0
 22 23  4  0  0  0
 23 24  4  0  0  0
  1 25  1  0  0  0
  3 26  1  0  0  0
  5 27  1  0  0  0
  7 28  1  0  0  0
  8 29  1  0  0  0
 10 30  1  0  0  0
 11 31  1  0  0  0
 12 32  1  0  0  0
 13 33  1  0  0  0
 15 34  1  0  0  0
 15 35  1  0  0  0
 16 36  1  0  0  0
 18 37  1  0  0  0
 18 38  1  0  0  0
 20 39  1  0  0  0
 21 40  1  0  0  0
 23 41  1  0  0  0
 24 42  1  0  0  0
M  END
$$$$
