3nyd_ligand
  -I-interpret- 

 15 16  0  0  0  0  0  0  0  0999 V2000
   22.1600   -1.3570  -24.1310 N   0  0  0  0  0
   20.8260   -1.8360  -24.0050 N   0  0  0  0  0
   20.6990   -2.3180  -22.7250 N   0  0  0  0  0
   22.2870   -2.6210  -20.9120 C   0  0  0  0  0
   23.6020   -2.4230  -20.4580 C   0  0  0  0  0
   24.5230   -1.7750  -21.2870 C   0  0  0  0  0
   24.1340   -1.3690  -22.5550 C   0  0  0  0  0
   25.0880   -2.4190  -18.7300 O   0  0  0  0  0
   23.2360   -3.3950  -18.3970 O   0  0  0  0  0
   21.8820   -2.2070  -22.1640 C   0  0  0  0  0
   22.8380   -1.6360  -23.0270 C   0  0  0  0  0
   24.0060   -2.7790  -19.1510 N   0  0  0  0  0
   21.5683   -3.1146  -20.2579 H   0  0  0  0  0
   25.5394   -1.5902  -20.9392 H   0  0  0  0  0
   24.8411   -0.8373  -23.1918 H   0  0  0  0  0
  2  1  4  0  0  0
  1 11  4  0  0  0
  3  2  4  0  0  0
 10  3  4  0  0  0
  4  5  4  0  0  0
  4 10  4  0  0  0
  5  6  4  0  0  0
  5 12  1  0  0  0
  6  7  4  0  0  0
  7 11  4  0  0  0
 12  8  2  0  0  0
 12  9  2  0  0  0
 10 11  4  0  0  0
  4 13  1  0  0  0
  6 14  1  0  0  0
  7 15  1  0  0  0
M  END
$$$$
