3p5k_ligand
  -I-interpret- 

 60 63  0  0  0  0  0  0  0  0999 V2000
   49.3880   27.3340  -16.9430 C   0  0  0  0  0
   50.5990   28.0370  -16.7650 C   0  0  0  0  0
   51.0900   28.6110  -17.9580 C   0  0  0  0  0
   49.8890   28.2890  -19.2010 S   0  0  0  0  0
   48.8690   27.3240  -18.2260 C   0  0  0  0  0
   47.6130   26.7320  -18.8380 C   0  0  0  0  0
   46.7920   27.6530  -19.7150 C   0  0  0  0  0
   46.6810   26.4300  -17.6890 C   0  0  0  0  0
   47.9830   25.5890  -19.7590 C   0  0  0  0  0
   52.2150   29.3510  -18.0840 N   0  0  0  0  0
   51.3610   28.1210  -15.4400 C   0  0  0  0  0
   51.7330   27.1250  -14.9560 O   0  0  0  0  0
   51.6840   29.1810  -14.6680 N   0  0  0  0  0
   52.4040   30.2800  -19.0430 C   0  0  0  0  0
   53.5330   30.9340  -19.1790 N   0  0  0  0  0
   51.4070   30.5020  -19.8670 O   0  0  0  0  0
   53.8130   32.0040  -20.0030 C   0  0  0  0  0
   53.0070   33.1390  -19.9120 C   0  0  0  0  0
   53.2620   34.2450  -20.7690 C   0  0  0  0  0
   54.3470   34.2030  -21.6480 C   0  0  0  0  0
   55.1640   33.0310  -21.7770 C   0  0  0  0  0
   54.9140   31.9640  -20.9390 C   0  0  0  0  0
   51.5570   30.5840  -15.1010 C   0  0  0  0  0
   52.2430   28.9240  -13.2770 C   0  0  0  0  0
   56.2190   33.0240  -22.7030 C   0  0  0  0  0
   57.0840   31.9300  -22.8490 C   0  0  0  0  0
   56.8120   30.8400  -22.0120 C   0  0  0  0  0
   55.7620   30.8460  -21.0780 C   0  0  0  0  0
   50.7450   31.3280  -14.0140 C   0  0  0  0  0
   51.5150   29.6600  -12.1260 C   0  0  0  0  0
   51.6540   31.3010  -12.5320 S   0  0  0  0  0
   50.6480   32.4090  -11.6980 O   0  0  0  0  0
   53.0380   31.9310  -13.2860 O   0  0  0  0  0
   48.8896   26.8275  -16.1165 H   0  0  0  0  0
   45.8872   27.1365  -20.0353 H   0  0  0  0  0
   46.5219   28.5452  -19.1501 H   0  0  0  0  0
   47.3778   27.9381  -20.5889 H   0  0  0  0  0
   46.4144   27.3591  -17.1853 H   0  0  0  0  0
   45.7796   25.9504  -18.0704 H   0  0  0  0  0
   47.1786   25.7633  -16.9848 H   0  0  0  0  0
   47.0747   25.1096  -20.1240 H   0  0  0  0  0
   48.5560   25.9745  -20.6023 H   0  0  0  0  0
   48.5838   24.8628  -19.2115 H   0  0  0  0  0
   52.9669   29.1969  -17.4122 H   0  0  0  0  0
   54.3059   30.6081  -18.5987 H   0  0  0  0  0
   52.1901   33.1778  -19.1914 H   0  0  0  0  0
   52.6141   35.1211  -20.7401 H   0  0  0  0  0
   54.5783   35.0817  -22.2501 H   0  0  0  0  0
   51.0517   30.6435  -16.0650 H   0  0  0  0  0
   52.5404   31.0381  -15.2230 H   0  0  0  0  0
   53.2701   29.2888  -13.2808 H   0  0  0  0  0
   52.1291   27.8568  -13.0868 H   0  0  0  0  0
   56.3714   33.9013  -23.3317 H   0  0  0  0  0
   57.9084   31.9278  -23.5621 H   0  0  0  0  0
   57.4396   29.9521  -22.0882 H   0  0  0  0  0
   55.6001   29.9703  -20.4494 H   0  0  0  0  0
   49.7818   30.8389  -13.8689 H   0  0  0  0  0
   50.5664   32.3581  -14.3225 H   0  0  0  0  0
   51.9523   29.4376  -11.1527 H   0  0  0  0  0
   50.4758   29.3461  -12.0280 H   0  0  0  0  0
  1  2  4  0  0  0
  1  5  4  0  0  0
  2  3  4  0  0  0
  2 11  1  0  0  0
  3  4  4  0  0  0
  3 10  1  0  0  0
  4  5  4  0  0  0
  5  6  1  0  0  0
  6  7  1  0  0  0
  6  8  1  0  0  0
  6  9  1  0  0  0
 10 14  1  0  0  0
 11 12  2  0  0  0
 11 13  1  0  0  0
 13 23  1  0  0  0
 13 24  1  0  0  0
 14 15  1  0  0  0
 14 16  2  0  0  0
 15 17  1  0  0  0
 17 18  4  0  0  0
 17 22  4  0  0  0
 18 19  4  0  0  0
 19 20  4  0  0  0
 20 21  4  0  0  0
 21 22  4  0  0  0
 21 25  4  0  0  0
 22 28  4  0  0  0
 23 29  1  0  0  0
 24 30  1  0  0  0
 25 26  4  0  0  0
 26 27  4  0  0  0
 27 28  4  0  0  0
 29 31  1  0  0  0
 30 31  1  0  0  0
 31 32  2  0  0  0
 31 33  2  0  0  0
  1 34  1  0  0  0
  7 35  1  0  0  0
  7 36  1  0  0  0
  7 37  1  0  0  0
  8 38  1  0  0  0
  8 39  1  0  0  0
  8 40  1  0  0  0
  9 41  1  0  0  0
  9 42  1  0  0  0
  9 43  1  0  0  0
 10 44  1  0  0  0
 15 45  1  0  0  0
 18 46  1  0  0  0
 19 47  1  0  0  0
 20 48  1  0  0  0
 23 49  1  0  0  0
 23 50  1  0  0  0
 24 51  1  0  0  0
 24 52  1  0  0  0
 25 53  1  0  0  0
 26 54  1  0  0  0
 27 55  1  0  0  0
 28 56  1  0  0  0
 29 57  1  0  0  0
 29 58  1  0  0  0
 30 59  1  0  0  0
 30 60  1  0  0  0
M  END
$$$$
