5FQC_LIGAND
  -I-interpret- 

 45 47  0  0  0  0  0  0  0  0999 V2000
  -35.0340   11.6780   58.7130 N   0  3  0  0  0
  -34.8780   10.2740   58.7100 C   0  0  0  0  0
  -33.4080    9.9340   58.8890 C   0  0  0  0  0
  -32.6550    9.4940   57.8050 C   0  0  0  0  0
  -31.3130    9.1960   58.0030 C   0  0  0  0  0
  -30.7760    9.3200   59.2590 C   0  0  0  0  0
  -31.5010    9.7650   60.3500 C   0  0  0  0  0
  -32.8390   10.0680   60.1650 C   0  0  0  0  0
  -29.3220    9.0500   59.4860 C   0  0  0  0  0
  -28.6380    9.8030   60.1550 O   0  0  0  0  0
  -28.7440    7.9360   58.8300 N   0  0  0  0  0
  -27.3170    7.5920   58.9320 C   0  0  0  0  0
  -27.0250    6.7420   60.1370 C   0  0  0  0  0
  -27.1240    5.2670   59.7860 C   0  0  0  0  0
  -26.7100    4.8030   58.5860 C   0  0  0  0  0
  -26.0670    5.7710   57.7370 O   0  0  0  0  0
  -26.9220    6.8620   57.5110 B   0  0  0  0  0
  -26.0600    7.8290   56.5030 O   0  0  0  0  0
  -28.0940    6.5120   56.4390 O   0  0  0  0  0
  -26.8240    3.4680   58.2250 C   0  0  0  0  0
  -27.4290    2.5660   59.0740 C   0  0  0  0  0
  -27.8760    3.0470   60.3120 C   0  0  0  0  0
  -27.7430    4.4130   60.6690 C   0  0  0  0  0
  -26.3900    2.9960   56.8710 C   0  0  0  0  0
  -27.0300    2.0410   56.3750 O   0  0  0  0  0
  -25.5290    3.5820   56.1950 O   0  0  0  0  0
  -36.0201   11.9096   58.5930 H   0  0  0  0  0
  -34.7008   12.0540   59.6007 H   0  0  0  0  0
  -34.4934   12.0806   57.9475 H   0  0  0  0  0
  -35.2345    9.8685   57.7631 H   0  0  0  0  0
  -35.4557    9.8401   59.5261 H   0  0  0  0  0
  -33.1092    9.3853   56.8201 H   0  0  0  0  0
  -30.6930    8.8670   57.1690 H   0  0  0  0  0
  -31.0318    9.8740   61.3278 H   0  0  0  0  0
  -33.4461   10.4081   61.0040 H   0  0  0  0  0
  -29.3463    7.3431   58.2589 H   0  0  0  0  0
  -26.7034    8.4802   59.0823 H   0  0  0  0  0
  -27.7531    6.9699   60.9154 H   0  0  0  0  0
  -26.0141    6.9559   60.4841 H   0  0  0  0  0
  -25.8604    7.3503   55.6952 H   0  0  0  0  0
  -27.7058    6.0921   55.6679 H   0  0  0  0  0
  -27.5547    1.5202   58.7935 H   0  0  0  0  0
  -28.3367    2.3550   61.0170 H   0  0  0  0  0
  -28.1232    4.7785   61.6229 H   0  0  0  0  0
  -27.6511    1.7022   57.0239 H   0  0  0  0  0
  1  2  1  0  0  0
  2  3  1  0  0  0
  3  4  4  0  0  0
  3  8  4  0  0  0
  4  5  4  0  0  0
  5  6  4  0  0  0
  6  7  4  0  0  0
  6  9  1  0  0  0
  7  8  4  0  0  0
  9 10  2  0  0  0
  9 11  1  0  0  0
 11 12  1  0  0  0
 12 13  1  0  0  0
 12 17  1  0  0  0
 13 14  1  0  0  0
 14 15  4  0  0  0
 14 23  4  0  0  0
 15 16  1  0  0  0
 15 20  4  0  0  0
 16 17  1  0  0  0
 17 19  1  0  0  0
 20 21  4  0  0  0
 20 24  1  0  0  0
 21 22  4  0  0  0
 22 23  4  0  0  0
 24 25  1  0  0  0
 24 26  2  0  0  0
 18 17  1  0  0  0
  1 27  1  0  0  0
  1 28  1  0  0  0
  1 29  1  0  0  0
  2 30  1  0  0  0
  2 31  1  0  0  0
  4 32  1  0  0  0
  5 33  1  0  0  0
  7 34  1  0  0  0
  8 35  1  0  0  0
 11 36  1  0  0  0
 12 37  1  0  0  0
 13 38  1  0  0  0
 13 39  1  0  0  0
 18 40  1  0  0  0
 19 41  1  0  0  0
 21 42  1  0  0  0
 22 43  1  0  0  0
 23 44  1  0  0  0
 25 45  1  0  0  0
M  END
$$$$
