### 
### Created by X-TOOL on Mon Sep 10 21:13:26 2018
### 

@<TRIPOS>MOLECULE
5FQC_LIGAND
   44    46     1     0     0
SMALL
GAST_HUCK


@<TRIPOS>ATOM
      1 N01       -35.0340   11.6780   58.7130 N.4       1 OK3         0.2315
      2 C02       -34.8780   10.2740   58.7100 C.3       1 OK3         0.0005
      3 C03       -33.4080    9.9340   58.8890 C.ar      1 OK3         0.0060
      4 C04       -32.6550    9.4940   57.8050 C.ar      1 OK3        -0.0494
      5 C05       -31.3130    9.1960   58.0030 C.ar      1 OK3        -0.0484
      6 C06       -30.7760    9.3200   59.2590 C.ar      1 OK3         0.0403
      7 C07       -31.5010    9.7650   60.3500 C.ar      1 OK3        -0.0484
      8 C08       -32.8390   10.0680   60.1650 C.ar      1 OK3        -0.0494
      9 C09       -29.3220    9.0500   59.4860 C.2       1 OK3         0.1717
     10 O10       -28.6380    9.8030   60.1550 O.2       1 OK3        -0.3904
     11 N11       -28.7440    7.9360   58.8300 N.am      1 OK3        -0.4374
     12 C12       -27.3170    7.5920   58.9320 C.3       1 OK3        -0.2231
     13 C13       -27.0250    6.7420   60.1370 C.3       1 OK3        -0.1582
     14 C14       -27.1240    5.2670   59.7860 C.ar      1 OK3        -0.1337
     15 C15       -26.7100    4.8030   58.5860 C.ar      1 OK3         0.0514
     16 O16       -26.0670    5.7710   57.7370 O.3       1 OK3        -0.1792
     17 B17       -26.9220    6.8620   57.5110 B         1 OK3         3.0000
     18 O18       -26.0600    7.8290   56.5030 O.3       1 OK3        -0.8710
     19 O19       -28.0940    6.5120   56.4390 O.3       1 OK3        -0.8710
     20 C20       -26.8240    3.4680   58.2250 C.ar      1 OK3        -0.0834
     21 C21       -27.4290    2.5660   59.0740 C.ar      1 OK3        -0.1625
     22 C22       -27.8760    3.0470   60.3120 C.ar      1 OK3        -0.1672
     23 C23       -27.7430    4.4130   60.6690 C.ar      1 OK3        -0.1745
     24 C24       -26.3900    2.9960   56.8710 C.2       1 OK3        -0.0182
     25 O25       -27.0300    2.0410   56.3750 O.co2     1 OK3        -0.5976
     26 O26       -25.5290    3.5820   56.1950 O.co2     1 OK3        -0.5976
     27 H         -36.0201   11.9096   58.5930 H         1 OK3         0.2009
     28 H         -34.7008   12.0540   59.6007 H         1 OK3         0.2009
     29 H         -34.4934   12.0806   57.9475 H         1 OK3         0.2009
     30 H         -35.2345    9.8685   57.7631 H         1 OK3         0.0990
     31 H         -35.4557    9.8401   59.5261 H         1 OK3         0.0990
     32 H         -33.1092    9.3853   56.8201 H         1 OK3         0.0572
     33 H         -30.6930    8.8670   57.1690 H         1 OK3         0.0652
     34 H         -31.0318    9.8740   61.3278 H         1 OK3         0.0652
     35 H         -33.4461   10.4081   61.0040 H         1 OK3         0.0572
     36 H         -29.3463    7.3431   58.2589 H         1 OK3         0.1453
     37 H         -26.7034    8.4802   59.0823 H         1 OK3        -0.1809
     38 H         -27.7531    6.9699   60.9154 H         1 OK3        -0.0002
     39 H         -26.0141    6.9559   60.4841 H         1 OK3        -0.0002
     40 H         -27.6962    6.2654   55.6008 H         1 OK3        -0.1290
     41 H         -27.5547    1.5202   58.7935 H         1 OK3         0.0065
     42 H         -28.3367    2.3550   61.0170 H         1 OK3         0.0254
     43 H         -28.1232    4.7785   61.6229 H         1 OK3        -0.0243
     44 H1        -25.2509    8.0871   56.9287 H         1 OK3        -0.1290
@<TRIPOS>BOND
     1    1    2 1  
     2    2    3 1  
     3    3    4 ar 
     4    3    8 ar 
     5    4    5 ar 
     6    5    6 ar 
     7    6    7 ar 
     8    6    9 1  
     9    7    8 ar 
    10    9   10 2  
    11    9   11 am 
    12   11   12 1  
    13   12   13 1  
    14   12   17 1  
    15   13   14 1  
    16   14   15 ar 
    17   14   23 ar 
    18   15   16 1  
    19   15   20 ar 
    20   16   17 1  
    21   17   19 1  
    22   20   21 ar 
    23   20   24 1  
    24   21   22 ar 
    25   22   23 ar 
    26   24   25 ar 
    27   24   26 ar 
    28    1   27 1  
    29    1   28 1  
    30    1   29 1  
    31    2   30 1  
    32    2   31 1  
    33    4   32 1  
    34    5   33 1  
    35    7   34 1  
    36    8   35 1  
    37   11   36 1  
    38   12   37 1  
    39   13   38 1  
    40   13   39 1  
    41   19   40 1  
    42   21   41 1  
    43   22   42 1  
    44   23   43 1  
    45   18   17 1  
    46   18   44 1  
@<TRIPOS>SUBSTRUCTURE
     1 OK3         1

