3qtz_ligand
  -I-interpret- 

 39 41  0  0  0  0  0  0  0  0999 V2000
  -65.0970   25.4400  -86.3070 N   0  0  0  0  0
  -63.8670   24.8820  -84.5120 N   0  0  0  0  0
  -66.6120   26.2710  -87.8390 N   0  0  0  0  0
  -61.1610   26.6900  -78.6330 N   0  0  0  0  0
  -66.7520   26.9710  -85.6020 C   0  0  0  0  0
  -66.1790   26.2310  -86.6460 C   0  0  0  0  0
  -64.8350   25.5600  -85.0270 C   0  0  0  0  0
  -63.1480   25.1300  -83.4680 C   0  0  0  0  0
  -67.8490   27.8350  -85.7120 C   0  0  0  0  0
  -68.2710   28.6270  -84.6410 C   0  0  0  0  0
  -67.3390   29.4390  -83.8940 C   0  0  0  0  0
  -67.7900   30.2340  -82.8060 C   0  0  0  0  0
  -69.1620   30.2390  -82.4450 C   0  0  0  0  0
  -70.0920   29.4530  -83.1710 C   0  0  0  0  0
  -69.6560   28.6460  -84.2670 C   0  0  0  0  0
  -62.1540   24.1610  -83.1280 C   0  0  0  0  0
  -61.3110   24.3680  -82.0130 C   0  0  0  0  0
  -61.4590   25.5490  -81.2280 C   0  0  0  0  0
  -62.4440   26.5120  -81.5470 C   0  0  0  0  0
  -63.2860   26.3090  -82.6590 C   0  0  0  0  0
  -68.4610   27.8970  -86.7780 O   0  0  0  0  0
  -59.2810   26.6190  -80.3400 O   0  0  0  0  0
  -59.8810   24.5570  -79.3690 O   0  0  0  0  0
  -71.3740   29.4670  -82.8240 F   0  0  0  0  0
  -65.8720   26.6380  -84.1570 S   0  0  0  0  0
  -60.3810   25.8280  -79.8640 S   0  0  0  0  0
  -63.6336   24.0191  -85.0033 H   0  0  0  0  0
  -66.1603   25.7141  -88.5644 H   0  0  0  0  0
  -67.4115   26.8601  -88.0719 H   0  0  0  0  0
  -60.8177   27.6105  -78.3586 H   0  0  0  0  0
  -61.9742   26.2888  -78.1659 H   0  0  0  0  0
  -66.2836   29.4420  -84.1664 H   0  0  0  0  0
  -67.0792   30.8423  -82.2467 H   0  0  0  0  0
  -69.5018   30.8485  -81.6076 H   0  0  0  0  0
  -70.3770   28.0438  -84.8198 H   0  0  0  0  0
  -62.0458   23.2593  -83.7308 H   0  0  0  0  0
  -60.5522   23.6293  -81.7546 H   0  0  0  0  0
  -62.5517   27.4078  -80.9354 H   0  0  0  0  0
  -64.0457   27.0504  -82.9063 H   0  0  0  0  0
  1  6  4  0  0  0
  7  1  4  0  0  0
  2  7  1  0  0  0
  8  2  1  0  0  0
  6  3  1  0  0  0
 26  4  1  0  0  0
  5  6  4  0  0  0
  5  9  1  0  0  0
 25  5  4  0  0  0
  7 25  4  0  0  0
 16  8  4  0  0  0
  8 20  4  0  0  0
  9 10  1  0  0  0
  9 21  2  0  0  0
 10 11  4  0  0  0
 10 15  4  0  0  0
 11 12  4  0  0  0
 12 13  4  0  0  0
 14 13  4  0  0  0
 15 14  4  0  0  0
 14 24  1  0  0  0
 17 16  4  0  0  0
 18 17  4  0  0  0
 18 19  4  0  0  0
 18 26  1  0  0  0
 19 20  4  0  0  0
 26 22  2  0  0  0
 26 23  2  0  0  0
  2 27  1  0  0  0
  3 28  1  0  0  0
  3 29  1  0  0  0
  4 30  1  0  0  0
  4 31  1  0  0  0
 11 32  1  0  0  0
 12 33  1  0  0  0
 13 34  1  0  0  0
 15 35  1  0  0  0
 16 36  1  0  0  0
 17 37  1  0  0  0
 19 38  1  0  0  0
 20 39  1  0  0  0
M  END
$$$$
