2hd6_ligand
  -I-interpret- 

 32 33  0  0  0  0  0  0  0  0999 V2000
   -5.3400   -0.5360   15.9860 N   0  0  0  0  0
   -5.9140    0.8420   16.6720 S   0  0  0  0  0
   -5.3600    0.8590   17.9970 O   0  0  0  0  0
   -7.3280    0.8260   16.5340 O   0  0  0  0  0
   -5.2400    2.1820   15.7720 C   0  0  0  0  0
   -3.8790    2.1650   15.4100 C   0  0  0  0  0
   -3.3290    3.2450   14.6960 C   0  0  0  0  0
   -4.1410    4.3630   14.3340 C   0  0  0  0  0
   -5.5120    4.3620   14.7060 C   0  0  0  0  0
   -6.0560    3.2780   15.4200 C   0  0  0  0  0
   -3.6230    5.4800   13.6190 N   0  0  0  0  0
   -2.3490    5.7700   13.1940 C   0  0  0  0  0
   -1.3650    5.0690   13.3650 O   0  0  0  0  0
   -2.2570    7.0880   12.4680 C   0  0  0  0  0
   -1.5670    8.1470   13.1110 C   0  0  0  0  0
   -1.4390    9.4050   12.5000 C   0  0  0  0  0
   -1.9990    9.6430   11.2200 C   0  0  0  0  0
   -2.6890    8.6060   10.5610 C   0  0  0  0  0
   -2.8330    7.3230   11.1610 C   0  0  0  0  0
   -3.7220    6.0140   10.2970 S   0  0  0  0  0
   -4.7257   -1.1528   16.5176 H   0  0  0  0  0
   -5.5979   -0.7748   15.0285 H   0  0  0  0  0
   -3.2525    1.3158   15.6828 H   0  0  0  0  0
   -2.2755    3.2286   14.4169 H   0  0  0  0  0
   -6.1467    5.2062   14.4367 H   0  0  0  0  0
   -7.1090    3.2851   15.7014 H   0  0  0  0  0
   -4.3181    6.1875   13.3811 H   0  0  0  0  0
   -1.1289    7.9819   14.0953 H   0  0  0  0  0
   -0.9050   10.2042   13.0140 H   0  0  0  0  0
   -1.8968   10.6206   10.7489 H   0  0  0  0  0
   -3.1192    8.7891    9.5764 H   0  0  0  0  0
   -4.1528    6.4718    9.1249 H   0  0  0  0  0
  1  2  1  0  0  0
  2  3  2  0  0  0
  2  4  2  0  0  0
  2  5  1  0  0  0
  5  6  4  0  0  0
  5 10  4  0  0  0
  6  7  4  0  0  0
  7  8  4  0  0  0
  8  9  4  0  0  0
  8 11  1  0  0  0
  9 10  4  0  0  0
 11 12  1  0  0  0
 12 13  2  0  0  0
 12 14  1  0  0  0
 14 15  4  0  0  0
 14 19  4  0  0  0
 15 16  4  0  0  0
 16 17  4  0  0  0
 17 18  4  0  0  0
 18 19  4  0  0  0
 19 20  1  0  0  0
  1 21  1  0  0  0
  1 22  1  0  0  0
  6 23  1  0  0  0
  7 24  1  0  0  0
  9 25  1  0  0  0
 10 26  1  0  0  0
 11 27  1  0  0  0
 15 28  1  0  0  0
 16 29  1  0  0  0
 17 30  1  0  0  0
 18 31  1  0  0  0
 20 32  1  0  0  0
M  END
$$$$
