1nt1_ligand
  -I-interpret- 

 68 71  0  0  0  0  0  0  0  0999 V2000
   13.3050  -11.3460   21.9390 C   0  0  0  0  0
   12.6100  -12.4750   22.3290 C   0  0  0  0  0
   11.6610  -12.4160   23.3870 C   0  0  0  0  0
   11.4900  -11.2300   24.1020 C   0  0  0  0  0
   12.2810  -10.1200   23.7820 C   0  0  0  0  0
   13.1730  -10.1610   22.6800 C   0  0  0  0  0
   14.1440  -11.3850   20.6840 C   0  0  0  0  0
   15.5830  -11.5230   20.9480 N   0  0  0  0  0
   16.1920  -12.7050   20.6640 C   0  0  0  0  0
   17.6880  -12.7240   20.8980 C   0  0  0  0  0
   15.6200  -13.7450   20.3220 O   0  0  0  0  0
   12.9140  -13.6870   21.7050 O   0  0  0  0  0
   18.4400  -12.8770   19.5630 C   0  0  0  0  0
   19.7640  -13.5550   19.9390 C   0  0  0  0  0
   19.2630  -14.5920   20.9510 C   0  0  0  0  0
   18.1110  -13.9590   21.5710 N   0  0  0  0  0
   17.4450  -14.3920   22.6690 C   0  0  0  0  0
   17.9410  -15.7110   23.2370 C   0  0  0  0  0
   16.8250  -16.6570   23.2880 N   0  0  0  0  0
   16.6220  -17.3810   22.1570 C   0  0  0  0  0
   17.4440  -17.4820   21.2250 O   0  0  0  0  0
   15.2330  -17.9950   22.0630 C   0  0  0  0  0
   14.4690  -17.3110   20.9130 C   0  0  0  0  0
   13.9290  -15.9920   21.3100 N   0  0  0  0  0
   12.7000  -16.0430   21.8690 C   0  0  0  0  0
   12.0520  -17.0770   22.0300 O   0  0  0  0  0
   12.1630  -14.7150   22.3090 C   0  0  0  0  0
   16.4310  -13.8520   23.1320 O   0  0  0  0  0
   18.5290  -15.4530   24.6390 C   0  0  0  0  0
   18.7960  -16.7530   25.4060 C   0  0  0  0  0
   19.4010  -16.4530   26.7880 C   0  0  0  0  0
   20.6980  -15.6420   26.6280 C   0  0  0  0  0
   20.4210  -14.3300   25.8830 C   0  0  0  0  0
   19.8080  -14.6210   24.5140 C   0  0  0  0  0
   12.1860   -8.7050   24.7850 Cl  0  0  0  0  0
   11.0685  -13.2956   23.6387 H   0  0  0  0  0
   10.7498  -11.1685   24.8998 H   0  0  0  0  0
   13.7523   -9.2780   22.4102 H   0  0  0  0  0
   13.9952  -10.4410   20.1599 H   0  0  0  0  0
   13.8310  -12.2548   20.1065 H   0  0  0  0  0
   16.1158  -10.7454   21.3376 H   0  0  0  0  0
   17.8965  -11.8095   21.4533 H   0  0  0  0  0
   18.5992  -11.9165   19.0729 H   0  0  0  0  0
   17.8725  -13.4641   18.8410 H   0  0  0  0  0
   20.5195  -12.8747   20.3320 H   0  0  0  0  0
   20.3053  -13.9797   19.0936 H   0  0  0  0  0
   20.0282  -14.8573   21.6805 H   0  0  0  0  0
   19.0056  -15.5387   20.4760 H   0  0  0  0  0
   18.7211  -16.1402   22.6083 H   0  0  0  0  0
   16.2398  -16.7650   24.1164 H   0  0  0  0  0
   14.6987  -17.8488   23.0017 H   0  0  0  0  0
   15.3128  -19.0649   21.8705 H   0  0  0  0  0
   13.6319  -17.9507   20.6333 H   0  0  0  0  0
   15.1634  -17.1592   20.0867 H   0  0  0  0  0
   14.4401  -15.1199   21.1735 H   0  0  0  0  0
   11.1180  -14.6269   22.0119 H   0  0  0  0  0
   12.2365  -14.6323   23.3934 H   0  0  0  0  0
   17.7896  -14.8977   25.2161 H   0  0  0  0  0
   19.5000  -17.3601   24.8369 H   0  0  0  0  0
   17.8531  -17.2829   25.5411 H   0  0  0  0  0
   19.6249  -17.3923   27.2936 H   0  0  0  0  0
   18.6867  -15.8758   27.3751 H   0  0  0  0  0
   21.4157  -16.2300   26.0559 H   0  0  0  0  0
   21.0963  -15.4115   27.6161 H   0  0  0  0  0
   21.3589  -13.7915   25.7472 H   0  0  0  0  0
   19.7235  -13.7286   26.4661 H   0  0  0  0  0
   19.5585  -13.6726   24.0382 H   0  0  0  0  0
   20.5309  -15.1846   23.9242 H   0  0  0  0  0
  1  2  4  0  0  0
  1  6  4  0  0  0
  1  7  1  0  0  0
  2  3  4  0  0  0
  2 12  1  0  0  0
  3  4  4  0  0  0
  4  5  4  0  0  0
  5  6  4  0  0  0
  5 35  1  0  0  0
  7  8  1  0  0  0
  8  9  1  0  0  0
  9 10  1  0  0  0
  9 11  2  0  0  0
 10 13  1  0  0  0
 10 16  1  0  0  0
 12 27  1  0  0  0
 13 14  1  0  0  0
 14 15  1  0  0  0
 15 16  1  0  0  0
 16 17  1  0  0  0
 17 18  1  0  0  0
 17 28  2  0  0  0
 18 19  1  0  0  0
 18 29  1  0  0  0
 19 20  1  0  0  0
 20 21  2  0  0  0
 20 22  1  0  0  0
 22 23  1  0  0  0
 23 24  1  0  0  0
 24 25  1  0  0  0
 25 26  2  0  0  0
 25 27  1  0  0  0
 29 30  1  0  0  0
 29 34  1  0  0  0
 30 31  1  0  0  0
 31 32  1  0  0  0
 32 33  1  0  0  0
 33 34  1  0  0  0
  3 36  1  0  0  0
  4 37  1  0  0  0
  6 38  1  0  0  0
  7 39  1  0  0  0
  7 40  1  0  0  0
  8 41  1  0  0  0
 10 42  1  0  0  0
 13 43  1  0  0  0
 13 44  1  0  0  0
 14 45  1  0  0  0
 14 46  1  0  0  0
 15 47  1  0  0  0
 15 48  1  0  0  0
 18 49  1  0  0  0
 19 50  1  0  0  0
 22 51  1  0  0  0
 22 52  1  0  0  0
 23 53  1  0  0  0
 23 54  1  0  0  0
 24 55  1  0  0  0
 27 56  1  0  0  0
 27 57  1  0  0  0
 29 58  1  0  0  0
 30 59  1  0  0  0
 30 60  1  0  0  0
 31 61  1  0  0  0
 31 62  1  0  0  0
 32 63  1  0  0  0
 32 64  1  0  0  0
 33 65  1  0  0  0
 33 66  1  0  0  0
 34 67  1  0  0  0
 34 68  1  0  0  0
M  END
$$$$
