### 
### Created by X-TOOL on Mon Sep 10 21:13:07 2018
### 

@<TRIPOS>MOLECULE
3shv_ligand
   97    97     1     0     0
SMALL
GAST_HUCK


@<TRIPOS>ATOM
      1 N          31.5910   -1.5190   25.3070 N.4       1 GLN         0.2380
      2 CA         30.8190   -1.2670   24.0530 C.3       1 GLN         0.0671
      3 C          31.7890   -0.9970   22.9060 C.2       1 GLN         0.2268
      4 O          32.9580   -0.6600   23.1480 O.2       1 GLN        -0.3907
      5 CB         29.8460   -0.1040   24.2410 C.3       1 GLN         0.0247
      6 CG         28.7210   -0.4060   25.2260 C.3       1 GLN         0.0443
      7 CD         27.7940    0.8030   25.4570 C.2       1 GLN         0.1738
      8 OE1        28.1990    1.9550   25.2790 O.2       1 GLN        -0.3973
      9 NE2        26.5470    0.5330   25.8560 N.am      1 GLN        -0.3009
     10 N          31.3190   -1.1590   21.6660 N.am      1 ALA        -0.2613
     11 CA         32.2340   -1.1560   20.5220 C.3       1 ALA         0.1283
     12 C          32.2590    0.1910   19.7860 C.2       1 ALA         0.2037
     13 O          31.2590    0.9010   19.7500 O.2       1 ALA        -0.3944
     14 CB         31.9080   -2.3270   19.5600 C.3       1 ALA        -0.0244
     15 N          33.3990    0.5540   19.2040 N.am      1 SEP        -0.2613
     16 CA         33.3850    1.7000   18.2880 C.3       1 SEP         0.1586
     17 CB         34.7800    2.0670   17.8050 C.3       1 SEP         0.1184
     18 OG         35.5450    2.6060   18.8750 O.3       1 SEP        -0.2714
     19 C          32.4460    1.3640   17.1130 C.2       1 SEP         0.2065
     20 O          32.4320    0.2680   16.6190 O.2       1 SEP        -0.3943
     21 P          37.0740    2.1840   18.8280 P.3       1 SEP         0.2010
     22 O1P        37.7990    2.9650   20.0200 O.co2     1 SEP        -0.5537
     23 O2P        37.3330    0.6270   18.8470 O.co2     1 SEP        -0.5537
     24 O3P        37.7200    2.7530   17.4820 O.co2     1 SEP        -0.5537
     25 N          31.5960    2.3080   16.7830 N.am      1 GLN        -0.2635
     26 CA         30.6600    2.2460   15.6830 C.3       1 GLN         0.1330
     27 C          31.3590    1.8850   14.3650 C.2       1 GLN         0.2040
     28 O          32.3870    2.4570   14.0280 O.2       1 GLN        -0.3944
     29 CB         30.0070    3.6340   15.5790 C.3       1 GLN         0.0045
     30 CG         29.0740    3.8220   14.4140 C.3       1 GLN         0.0412
     31 CD         27.8060    3.0780   14.6040 C.2       1 GLN         0.1737
     32 OE1        27.5870    2.0270   13.9820 O.2       1 GLN        -0.3973
     33 NE2        26.9460    3.5950   15.4850 N.am      1 GLN        -0.3009
     34 N          30.8210    0.8970   13.6670 N.am      1 GLU        -0.2636
     35 CA         31.2310    0.6060   12.3050 C.3       1 GLU         0.1324
     36 C          30.4800    1.5360   11.3470 C.2       1 GLU         0.2036
     37 O          29.3080    1.8010   11.5340 O.2       1 GLU        -0.3944
     38 CB         30.9480   -0.8490   11.9540 C.3       1 GLU        -0.0008
     39 CG         31.3970   -1.2010   10.5260 C.3       1 GLU         0.0044
     40 CD         31.1960   -2.6690   10.1780 C.2       1 GLU         0.0350
     41 OE1        30.3290   -3.3230   10.7970 O.co2     1 GLU        -0.5690
     42 OE2        31.9170   -3.1490    9.2690 O.co2     1 GLU        -0.5690
     43 N          31.1790    2.0470   10.3420 N.am      1 TYR        -0.2679
     44 CA         30.5570    2.9210    9.3150 C.3       1 TYR         0.1025
     45 C          30.6400    2.2820    7.9260 C.2       1 TYR         0.0619
     46 O          31.4650    1.3800    7.6580 O.co2     1 TYR        -0.5665
     47 CB         31.2220    4.2910    9.2930 C.3       1 TYR         0.0108
     48 CG         30.9830    5.0880   10.5540 C.ar      1 TYR        -0.0499
     49 CD1        29.8080    5.8280   10.7270 C.ar      1 TYR        -0.0686
     50 CD2        31.9240    5.0900   11.5720 C.ar      1 TYR        -0.0686
     51 CE1        29.5800    6.5320   11.8820 C.ar      1 TYR        -0.0398
     52 CE2        31.7320    5.8260   12.7270 C.ar      1 TYR        -0.0398
     53 CZ         30.5520    6.5210   12.8810 C.ar      1 TYR         0.0805
     54 OH         30.3590    7.2130   14.0240 O.3       1 TYR        -0.3376
     55 OXT        29.8550    2.6780    7.0470 O.co2     1 TYR        -0.5665
     56 H          32.2329   -2.2977   25.1590 H         1 GLN         0.2015
     57 H          32.1203   -0.6825   25.5529 H         1 GLN         0.2015
     58 H          30.9450   -1.7482   26.0623 H         1 GLN         0.2015
     59 H          30.2274   -2.1499   23.8110 H         1 GLN         0.1100
     60 H          29.3883    0.1003   23.2731 H         1 GLN         0.0370
     61 H          30.4135    0.7371   24.6392 H         1 GLN         0.0370
     62 H          29.1741   -0.6684   26.1820 H         1 GLN         0.0506
     63 H          28.1198   -1.2147   24.8104 H         1 GLN         0.0506
     64 H          25.8896    1.2943   26.0252 H         1 GLN         0.1814
     65 H          26.2530   -0.4343   25.9912 H         1 GLN         0.1814
     66 H          30.3182   -1.2854   21.5151 H         1 ALA         0.1884
     67 H          33.2402   -1.3035   20.9142 H         1 ALA         0.0797
     68 H          32.0106   -3.2724   20.0927 H         1 ALA         0.0277
     69 H          30.8859   -2.2226   19.1959 H         1 ALA         0.0277
     70 H          32.5991   -2.3064   18.7174 H         1 ALA         0.0277
     71 H          34.2639    0.0466   19.3906 H         1 SEP         0.1884
     72 H          33.0168    2.5793   18.8166 H         1 SEP         0.0827
     73 H          34.6987    2.8126   17.0141 H         1 SEP         0.0662
     74 H          35.2743    1.1711   17.4294 H         1 SEP         0.0662
     75 H          31.5958    3.1560   17.3498 H         1 GLN         0.1883
     76 H          29.9179    1.4685   15.8640 H         1 GLN         0.0801
     77 H          30.8178    4.3505   15.4474 H         1 GLN         0.0337
     78 H          29.4093    3.7653   16.4810 H         1 GLN         0.0337
     79 H          29.5636    3.4440   13.5165 H         1 GLN         0.0504
     80 H          28.8407    4.8832   14.3277 H         1 GLN         0.0504
     81 H          26.0617    3.1223   15.6722 H         1 GLN         0.1814
     82 H          27.1733    4.4626   15.9708 H         1 GLN         0.1814
     83 H          30.0968    0.3231   14.0990 H         1 GLU         0.1883
     84 H          32.3044    0.7714   12.2128 H         1 GLU         0.0801
     85 H          29.8721   -1.0104   12.0203 H         1 GLU         0.0330
     86 H          31.5032   -1.4793   12.6487 H         1 GLU         0.0330
     87 H          32.4635   -0.9877   10.4534 H         1 GLU         0.0433
     88 H          30.7928   -0.6125    9.8356 H         1 GLU         0.0433
     89 H          32.1739    1.8331   10.2725 H         1 TYR         0.1877
     90 H          29.5070    3.0437    9.5805 H         1 TYR         0.0747
     91 H          30.7956    4.8521    8.4615 H         1 TYR         0.0446
     92 H          32.2967    4.1353    9.1990 H         1 TYR         0.0446
     93 H          29.0626    5.8453    9.9319 H         1 TYR         0.0530
     94 H          32.8334    4.4997   11.4598 H         1 TYR         0.0530
     95 H          28.6539    7.0909   12.0164 H         1 TYR         0.0525
     96 H          32.4992    5.8558   13.5007 H         1 TYR         0.0525
     97 H          29.5020    7.6447   13.9946 H         1 TYR         0.2458
@<TRIPOS>BOND
     1    1    2 1  
     2    2    3 1  
     3    2    5 1  
     4    3    4 2  
     5    3   10 am 
     6    5    6 1  
     7    6    7 1  
     8    7    8 2  
     9    7    9 am 
    10   10   11 1  
    11   11   12 1  
    12   11   14 1  
    13   12   13 2  
    14   12   15 am 
    15   15   16 1  
    16   16   17 1  
    17   16   19 1  
    18   17   18 1  
    19   18   21 1  
    20   19   20 2  
    21   19   25 am 
    22   21   22 ar 
    23   21   23 ar 
    24   21   24 ar 
    25   25   26 1  
    26   26   27 1  
    27   26   29 1  
    28   27   28 2  
    29   27   34 am 
    30   29   30 1  
    31   30   31 1  
    32   31   32 2  
    33   31   33 am 
    34   34   35 1  
    35   35   36 1  
    36   35   38 1  
    37   36   37 2  
    38   36   43 am 
    39   38   39 1  
    40   39   40 1  
    41   40   41 ar 
    42   40   42 ar 
    43   43   44 1  
    44   44   45 1  
    45   44   47 1  
    46   45   46 ar 
    47   45   55 ar 
    48   47   48 1  
    49   48   49 ar 
    50   48   50 ar 
    51   49   51 ar 
    52   50   52 ar 
    53   51   53 ar 
    54   52   53 ar 
    55   53   54 1  
    56    1   56 1  
    57    1   57 1  
    58    1   58 1  
    59    2   59 1  
    60    5   60 1  
    61    5   61 1  
    62    6   62 1  
    63    6   63 1  
    64    9   64 1  
    65    9   65 1  
    66   10   66 1  
    67   11   67 1  
    68   14   68 1  
    69   14   69 1  
    70   14   70 1  
    71   15   71 1  
    72   16   72 1  
    73   17   73 1  
    74   17   74 1  
    75   25   75 1  
    76   26   76 1  
    77   29   77 1  
    78   29   78 1  
    79   30   79 1  
    80   30   80 1  
    81   33   81 1  
    82   33   82 1  
    83   34   83 1  
    84   35   84 1  
    85   38   85 1  
    86   38   86 1  
    87   39   87 1  
    88   39   88 1  
    89   43   89 1  
    90   44   90 1  
    91   47   91 1  
    92   47   92 1  
    93   49   93 1  
    94   50   94 1  
    95   51   95 1  
    96   52   96 1  
    97   54   97 1  
@<TRIPOS>SUBSTRUCTURE
     1 GLN         1

