3shv_ligand
  -I-interpret- 

101101  0  0  0  0  0  0  0  0999 V2000
   31.5910   -1.5190   25.3070 N   0  3  0  0  0
   30.8190   -1.2670   24.0530 C   0  0  0  0  0
   31.7890   -0.9970   22.9060 C   0  0  0  0  0
   32.9580   -0.6600   23.1480 O   0  0  0  0  0
   29.8460   -0.1040   24.2410 C   0  0  0  0  0
   28.7210   -0.4060   25.2260 C   0  0  0  0  0
   27.7940    0.8030   25.4570 C   0  0  0  0  0
   28.1990    1.9550   25.2790 O   0  0  0  0  0
   26.5470    0.5330   25.8560 N   0  0  0  0  0
   31.3190   -1.1590   21.6660 N   0  0  0  0  0
   32.2340   -1.1560   20.5220 C   0  0  0  0  0
   32.2590    0.1910   19.7860 C   0  0  0  0  0
   31.2590    0.9010   19.7500 O   0  0  0  0  0
   31.9080   -2.3270   19.5600 C   0  0  0  0  0
   33.3990    0.5540   19.2040 N   0  0  0  0  0
   33.3850    1.7000   18.2880 C   0  0  0  0  0
   34.7800    2.0670   17.8050 C   0  0  0  0  0
   35.5450    2.6060   18.8750 O   0  0  0  0  0
   32.4460    1.3640   17.1130 C   0  0  0  0  0
   32.4320    0.2680   16.6190 O   0  0  0  0  0
   37.0740    2.1840   18.8280 P   0  0  0  0  0
   37.7990    2.9650   20.0200 O   0  0  0  0  0
   37.3330    0.6270   18.8470 O   0  0  0  0  0
   37.7200    2.7530   17.4820 O   0  0  0  0  0
   31.5960    2.3080   16.7830 N   0  0  0  0  0
   30.6600    2.2460   15.6830 C   0  0  0  0  0
   31.3590    1.8850   14.3650 C   0  0  0  0  0
   32.3870    2.4570   14.0280 O   0  0  0  0  0
   30.0070    3.6340   15.5790 C   0  0  0  0  0
   29.0740    3.8220   14.4140 C   0  0  0  0  0
   27.8060    3.0780   14.6040 C   0  0  0  0  0
   27.5870    2.0270   13.9820 O   0  0  0  0  0
   26.9460    3.5950   15.4850 N   0  0  0  0  0
   30.8210    0.8970   13.6670 N   0  0  0  0  0
   31.2310    0.6060   12.3050 C   0  0  0  0  0
   30.4800    1.5360   11.3470 C   0  0  0  0  0
   29.3080    1.8010   11.5340 O   0  0  0  0  0
   30.9480   -0.8490   11.9540 C   0  0  0  0  0
   31.3970   -1.2010   10.5260 C   0  0  0  0  0
   31.1960   -2.6690   10.1780 C   0  0  0  0  0
   30.3290   -3.3230   10.7970 O   0  0  0  0  0
   31.9170   -3.1490    9.2690 O   0  0  0  0  0
   31.1790    2.0470   10.3420 N   0  0  0  0  0
   30.5570    2.9210    9.3150 C   0  0  0  0  0
   30.6400    2.2820    7.9260 C   0  0  0  0  0
   31.4650    1.3800    7.6580 O   0  0  0  0  0
   31.2220    4.2910    9.2930 C   0  0  0  0  0
   30.9830    5.0880   10.5540 C   0  0  0  0  0
   29.8080    5.8280   10.7270 C   0  0  0  0  0
   31.9240    5.0900   11.5720 C   0  0  0  0  0
   29.5800    6.5320   11.8820 C   0  0  0  0  0
   31.7320    5.8260   12.7270 C   0  0  0  0  0
   30.5520    6.5210   12.8810 C   0  0  0  0  0
   30.3590    7.2130   14.0240 O   0  0  0  0  0
   29.8550    2.6780    7.0470 O   0  0  0  0  0
   32.2329   -2.2977   25.1590 H   0  0  0  0  0
   32.1203   -0.6825   25.5529 H   0  0  0  0  0
   30.9450   -1.7482   26.0623 H   0  0  0  0  0
   30.2274   -2.1499   23.8110 H   0  0  0  0  0
   29.3883    0.1003   23.2731 H   0  0  0  0  0
   30.4135    0.7371   24.6392 H   0  0  0  0  0
   29.1741   -0.6684   26.1820 H   0  0  0  0  0
   28.1198   -1.2147   24.8104 H   0  0  0  0  0
   25.8896    1.2943   26.0252 H   0  0  0  0  0
   26.2530   -0.4343   25.9912 H   0  0  0  0  0
   30.3182   -1.2854   21.5151 H   0  0  0  0  0
   33.2402   -1.3035   20.9142 H   0  0  0  0  0
   32.0106   -3.2724   20.0927 H   0  0  0  0  0
   30.8859   -2.2226   19.1959 H   0  0  0  0  0
   32.5991   -2.3064   18.7174 H   0  0  0  0  0
   34.2639    0.0466   19.3906 H   0  0  0  0  0
   33.0168    2.5793   18.8166 H   0  0  0  0  0
   34.6987    2.8126   17.0141 H   0  0  0  0  0
   35.2743    1.1711   17.4294 H   0  0  0  0  0
   37.6032    3.9024   19.9526 H   0  0  0  0  0
   37.5804    3.7017   17.4375 H   0  0  0  0  0
   31.5958    3.1560   17.3498 H   0  0  0  0  0
   29.9179    1.4685   15.8640 H   0  0  0  0  0
   30.8178    4.3505   15.4474 H   0  0  0  0  0
   29.4093    3.7653   16.4810 H   0  0  0  0  0
   29.5636    3.4440   13.5165 H   0  0  0  0  0
   28.8407    4.8832   14.3277 H   0  0  0  0  0
   26.0617    3.1223   15.6722 H   0  0  0  0  0
   27.1733    4.4626   15.9708 H   0  0  0  0  0
   30.0968    0.3231   14.0990 H   0  0  0  0  0
   32.3044    0.7714   12.2128 H   0  0  0  0  0
   29.8721   -1.0104   12.0203 H   0  0  0  0  0
   31.5032   -1.4793   12.6487 H   0  0  0  0  0
   32.4635   -0.9877   10.4534 H   0  0  0  0  0
   30.7928   -0.6125    9.8356 H   0  0  0  0  0
   32.5077   -2.4686    8.9377 H   0  0  0  0  0
   32.1739    1.8331   10.2725 H   0  0  0  0  0
   29.5070    3.0437    9.5805 H   0  0  0  0  0
   31.9934    1.1896    8.4365 H   0  0  0  0  0
   30.7956    4.8521    8.4615 H   0  0  0  0  0
   32.2967    4.1353    9.1990 H   0  0  0  0  0
   29.0626    5.8453    9.9319 H   0  0  0  0  0
   32.8334    4.4997   11.4598 H   0  0  0  0  0
   28.6539    7.0909   12.0164 H   0  0  0  0  0
   32.4992    5.8558   13.5007 H   0  0  0  0  0
   31.1194    7.0980   14.5986 H   0  0  0  0  0
  1  2  1  0  0  0
  2  3  1  0  0  0
  2  5  1  0  0  0
  3  4  2  0  0  0
  3 10  1  0  0  0
  5  6  1  0  0  0
  6  7  1  0  0  0
  7  8  2  0  0  0
  7  9  1  0  0  0
 10 11  1  0  0  0
 11 12  1  0  0  0
 11 14  1  0  0  0
 12 13  2  0  0  0
 12 15  1  0  0  0
 15 16  1  0  0  0
 16 17  1  0  0  0
 16 19  1  0  0  0
 17 18  1  0  0  0
 18 21  1  0  0  0
 19 20  2  0  0  0
 19 25  1  0  0  0
 21 22  1  0  0  0
 21 23  2  0  0  0
 21 24  1  0  0  0
 25 26  1  0  0  0
 26 27  1  0  0  0
 26 29  1  0  0  0
 27 28  2  0  0  0
 27 34  1  0  0  0
 29 30  1  0  0  0
 30 31  1  0  0  0
 31 32  2  0  0  0
 31 33  1  0  0  0
 34 35  1  0  0  0
 35 36  1  0  0  0
 35 38  1  0  0  0
 36 37  2  0  0  0
 36 43  1  0  0  0
 38 39  1  0  0  0
 39 40  1  0  0  0
 40 41  2  0  0  0
 40 42  1  0  0  0
 43 44  1  0  0  0
 44 45  1  0  0  0
 44 47  1  0  0  0
 45 46  1  0  0  0
 45 55  2  0  0  0
 47 48  1  0  0  0
 48 49  4  0  0  0
 48 50  4  0  0  0
 49 51  4  0  0  0
 50 52  4  0  0  0
 51 53  4  0  0  0
 52 53  4  0  0  0
 53 54  1  0  0  0
  1 56  1  0  0  0
  1 57  1  0  0  0
  1 58  1  0  0  0
  2 59  1  0  0  0
  5 60  1  0  0  0
  5 61  1  0  0  0
  6 62  1  0  0  0
  6 63  1  0  0  0
  9 64  1  0  0  0
  9 65  1  0  0  0
 10 66  1  0  0  0
 11 67  1  0  0  0
 14 68  1  0  0  0
 14 69  1  0  0  0
 14 70  1  0  0  0
 15 71  1  0  0  0
 16 72  1  0  0  0
 17 73  1  0  0  0
 17 74  1  0  0  0
 22 75  1  0  0  0
 24 76  1  0  0  0
 25 77  1  0  0  0
 26 78  1  0  0  0
 29 79  1  0  0  0
 29 80  1  0  0  0
 30 81  1  0  0  0
 30 82  1  0  0  0
 33 83  1  0  0  0
 33 84  1  0  0  0
 34 85  1  0  0  0
 35 86  1  0  0  0
 38 87  1  0  0  0
 38 88  1  0  0  0
 39 89  1  0  0  0
 39 90  1  0  0  0
 42 91  1  0  0  0
 43 92  1  0  0  0
 44 93  1  0  0  0
 46 94  1  0  0  0
 47 95  1  0  0  0
 47 96  1  0  0  0
 49 97  1  0  0  0
 50 98  1  0  0  0
 51 99  1  0  0  0
 52100  1  0  0  0
 54101  1  0  0  0
M  END
$$$$
