6oqc_ligand
  -I-interpret- 

 77 82  0  0  0  0  0  0  0  0999 V2000
  -12.5390    9.2340  -20.7780 C   0  0  0  0  0
  -11.0830    8.7360  -20.7600 C   0  0  0  0  0
  -10.2500    9.7160  -19.9730 C   0  0  0  0  0
  -10.8690    9.9920  -18.6060 C   0  0  0  0  0
  -10.0220   10.4920  -17.6160 C   0  0  0  0  0
  -10.5100   10.7420  -16.3420 C   0  0  0  0  0
   -9.4580   11.3530  -15.1260 Cl  0  0  0  0  0
  -11.8450   10.5180  -16.0210 C   0  0  0  0  0
  -12.6870   10.0150  -17.0120 C   0  0  0  0  0
  -12.2040    9.7520  -18.2900 C   0  0  0  0  0
  -13.1740    9.1960  -19.3770 C   0  0  0  0  0
  -13.5790    7.7490  -19.0490 C   0  0  0  0  0
  -14.4630   10.0710  -19.4230 C   0  0  0  0  0
  -15.4410    9.6910  -18.4010 O   0  0  0  0  0
  -16.2650    8.7020  -18.7910 C   0  0  0  0  0
  -17.5670    8.9780  -18.3920 C   0  0  0  0  0
  -18.5780    8.0930  -18.7220 C   0  0  0  0  0
  -18.2530    6.9750  -19.4840 C   0  0  0  0  0
  -16.9630    6.7190  -19.9100 C   0  0  0  0  0
  -15.9200    7.5680  -19.5600 C   0  0  0  0  0
  -14.6580    7.3050  -19.9760 N   0  0  0  0  0
  -14.3360    5.9780  -20.5760 C   0  0  0  0  0
  -14.5550    4.7050  -19.7430 C   0  0  0  0  0
  -13.3370    4.3160  -18.8620 C   0  0  0  0  0
  -13.4310    2.8880  -19.4050 C   0  0  0  0  0
  -14.1920    3.4970  -20.6000 C   0  0  0  0  0
  -15.3960    2.6810  -21.0810 C   0  0  0  0  0
  -14.8870    1.5450  -21.7860 O   0  0  0  0  0
  -16.2970    2.1680  -19.9690 C   0  0  0  0  0
  -17.6750    2.2990  -20.0440 C   0  0  0  0  0
  -18.4580    1.7450  -19.0290 C   0  0  0  0  0
  -19.4600    2.7370  -18.4550 C   0  0  0  0  0
  -20.5870    3.0620  -19.4570 C   0  0  0  0  0
  -21.6060    1.9350  -19.5740 C   0  0  0  0  0
  -21.3280    4.6450  -18.9610 S   0  0  0  0  0
  -21.9900    4.5130  -17.6160 O   0  0  0  0  0
  -22.2880    5.1470  -20.0030 O   0  0  0  0  0
  -20.1090    5.6890  -18.8070 N   0  0  0  0  0
  -19.3250    5.9870  -19.8370 C   0  0  0  0  0
  -19.3900    5.4890  -20.9550 O   0  0  0  0  0
  -13.1160    8.5814  -21.4332 H   0  0  0  0  0
  -12.5435   10.2663  -21.1280 H   0  0  0  0  0
  -10.7037    8.6604  -21.7791 H   0  0  0  0  0
  -11.0332    7.7504  -20.2971 H   0  0  0  0  0
  -10.1982   10.6530  -20.5274 H   0  0  0  0  0
   -9.2574    9.2902  -19.8262 H   0  0  0  0  0
   -8.9741   10.6866  -17.8446 H   0  0  0  0  0
  -12.2229   10.7302  -15.0209 H   0  0  0  0  0
  -13.7357    9.8256  -16.7829 H   0  0  0  0  0
  -13.9427    7.7001  -18.0226 H   0  0  0  0  0
  -12.7131    7.0971  -19.1649 H   0  0  0  0  0
  -14.9276    9.9314  -20.3991 H   0  0  0  0  0
  -14.1721   11.1053  -19.2396 H   0  0  0  0  0
  -17.7895    9.8820  -17.8251 H   0  0  0  0  0
  -19.6027    8.2671  -18.3935 H   0  0  0  0  0
  -16.7620    5.8428  -20.5264 H   0  0  0  0  0
  -13.2623    6.0088  -20.7614 H   0  0  0  0  0
  -15.0190    5.8802  -21.4198 H   0  0  0  0  0
  -15.5315    4.8848  -19.2932 H   0  0  0  0  0
  -13.3488    4.5018  -17.7880 H   0  0  0  0  0
  -12.4032    4.8741  -18.9309 H   0  0  0  0  0
  -13.8406    2.0690  -18.8137 H   0  0  0  0  0
  -12.5504    2.2596  -19.5383 H   0  0  0  0  0
  -13.6936    3.6242  -21.5610 H   0  0  0  0  0
  -16.0051    3.3453  -21.6940 H   0  0  0  0  0
  -15.6197    1.0110  -22.1016 H   0  0  0  0  0
  -15.8515    1.6887  -19.0973 H   0  0  0  0  0
  -18.1384    2.8243  -20.8791 H   0  0  0  0  0
  -17.7926    1.4360  -18.2229 H   0  0  0  0  0
  -19.0171    0.9114  -19.4539 H   0  0  0  0  0
  -18.9312    3.6617  -18.2240 H   0  0  0  0  0
  -19.9099    2.2929  -17.5671 H   0  0  0  0  0
  -20.1758    3.1558  -20.4621 H   0  0  0  0  0
  -21.1055    1.0281  -19.9132 H   0  0  0  0  0
  -22.0625    1.7571  -18.6003 H   0  0  0  0  0
  -22.3764    2.2165  -20.2919 H   0  0  0  0  0
  -19.9368    6.1284  -17.9027 H   0  0  0  0  0
  1  2  1  0  0  0
  1 11  1  0  0  0
  2  3  1  0  0  0
  3  4  1  0  0  0
  4  5  4  0  0  0
  4 10  4  0  0  0
  5  6  4  0  0  0
  6  7  1  0  0  0
  6  8  4  0  0  0
  8  9  4  0  0  0
  9 10  4  0  0  0
 10 11  1  0  0  0
 11 12  1  0  0  0
 11 13  1  0  0  0
 12 21  1  0  0  0
 13 14  1  0  0  0
 14 15  1  0  0  0
 15 16  4  0  0  0
 15 20  4  0  0  0
 16 17  4  0  0  0
 17 18  4  0  0  0
 18 19  4  0  0  0
 18 39  1  0  0  0
 19 20  4  0  0  0
 20 21  1  0  0  0
 21 22  1  0  0  0
 22 23  1  0  0  0
 23 24  1  0  0  0
 23 26  1  0  0  0
 24 25  1  0  0  0
 25 26  1  0  0  0
 26 27  1  0  0  0
 27 28  1  0  0  0
 27 29  1  0  0  0
 29 30  2  0  0  0
 30 31  1  0  0  0
 31 32  1  0  0  0
 32 33  1  0  0  0
 33 34  1  0  0  0
 33 35  1  0  0  0
 35 36  2  0  0  0
 35 37  2  0  0  0
 35 38  1  0  0  0
 38 39  1  0  0  0
 39 40  2  0  0  0
  1 41  1  0  0  0
  1 42  1  0  0  0
  2 43  1  0  0  0
  2 44  1  0  0  0
  3 45  1  0  0  0
  3 46  1  0  0  0
  5 47  1  0  0  0
  8 48  1  0  0  0
  9 49  1  0  0  0
 12 50  1  0  0  0
 12 51  1  0  0  0
 13 52  1  0  0  0
 13 53  1  0  0  0
 16 54  1  0  0  0
 17 55  1  0  0  0
 19 56  1  0  0  0
 22 57  1  0  0  0
 22 58  1  0  0  0
 23 59  1  0  0  0
 24 60  1  0  0  0
 24 61  1  0  0  0
 25 62  1  0  0  0
 25 63  1  0  0  0
 26 64  1  0  0  0
 27 65  1  0  0  0
 28 66  1  0  0  0
 29 67  1  0  0  0
 30 68  1  0  0  0
 31 69  1  0  0  0
 31 70  1  0  0  0
 32 71  1  0  0  0
 32 72  1  0  0  0
 33 73  1  0  0  0
 34 74  1  0  0  0
 34 75  1  0  0  0
 34 76  1  0  0  0
 38 77  1  0  0  0
M  END
$$$$
