2yxj_ligand
  -I-interpret- 

103108  0  0  0  0  0  0  0  0999 V2000
   -6.8210   -9.3490    7.8910 O   0  0  0  0  0
   -7.9960   -9.6650    8.1160 N   0  0  0  0  0
   -8.5910  -10.2680    7.2320 O   0  0  0  0  0
   -8.7050   -9.3520    9.3110 C   0  0  0  0  0
   -8.1150   -8.8000   10.4730 C   0  0  0  0  0
   -6.7530   -8.6160   10.5150 N   0  0  0  0  0
   -5.9500   -8.3310   11.7230 C   0  0  0  0  0
   -5.8720   -9.5190   12.7080 C   0  0  0  0  0
   -5.2620  -10.9770   11.9010 S   0  0  0  0  0
   -6.5580  -11.9270   11.3240 C   0  0  0  0  0
   -7.5510  -12.3990   12.2020 C   0  0  0  0  0
   -8.6040  -13.1670   11.7080 C   0  0  0  0  0
   -8.6750  -13.4760   10.3480 C   0  0  0  0  0
   -7.6960  -13.0020    9.4770 C   0  0  0  0  0
   -6.6370  -12.2290    9.9630 C   0  0  0  0  0
   -4.5220   -7.9300   11.3010 C   0  0  0  0  0
   -4.4420   -6.4130   11.1040 C   0  0  0  0  0
   -3.2550   -6.0190   10.3040 N   0  3  0  0  0
   -3.3280   -4.5600   10.0320 C   0  0  0  0  0
   -1.9810   -6.3610   10.9840 C   0  0  0  0  0
   -8.9390   -8.5370   11.5800 C   0  0  0  0  0
  -10.3200   -8.7930   11.5340 C   0  0  0  0  0
  -10.0840   -9.5860    9.2800 C   0  0  0  0  0
  -10.9260   -9.3060   10.3640 C   0  0  0  0  0
  -12.5220   -9.6560   10.2320 S   0  0  0  0  0
  -13.3010   -8.8930   11.1580 O   0  0  0  0  0
  -12.9610   -9.4010    8.8780 O   0  0  0  0  0
  -12.6220  -11.1630   10.5490 N   0  0  0  0  0
  -12.3020  -11.7290   11.7290 C   0  0  0  0  0
  -11.8930  -11.1270   12.7170 O   0  0  0  0  0
  -12.3460  -13.2180   11.8500 C   0  0  0  0  0
  -11.8280  -13.8340   12.9900 C   0  0  0  0  0
  -11.8180  -15.2210   13.0950 C   0  0  0  0  0
  -12.8050  -14.0030   10.8090 C   0  0  0  0  0
  -12.7900  -15.3940   10.9060 C   0  0  0  0  0
  -12.2930  -16.0330   12.0460 C   0  0  0  0  0
  -12.2810  -17.4410   12.1440 N   0  0  0  0  0
  -11.7890  -18.0460   13.3810 C   0  0  0  0  0
  -12.1660  -19.5060   13.5100 C   0  0  0  0  0
  -12.7110  -18.2010   10.9770 C   0  0  0  0  0
  -12.9170  -19.6680   11.2220 C   0  0  0  0  0
  -12.0590  -20.2500   12.2520 N   0  3  0  0  0
  -12.3470  -21.6880   12.5300 C   0  0  0  0  0
  -13.1520  -22.3790   11.4650 C   0  0  0  0  0
  -14.5560  -22.3980   11.6510 C   0  0  0  0  0
  -15.3740  -22.9930   10.7000 C   0  0  0  0  0
  -14.8000  -23.5640    9.5740 C   0  0  0  0  0
  -13.4280  -23.5820    9.4000 C   0  0  0  0  0
  -12.5660  -22.9830   10.3370 C   0  0  0  0  0
  -11.1990  -23.0450   10.0420 C   0  0  0  0  0
  -10.3400  -23.8090   10.8260 C   0  0  0  0  0
   -8.9830  -23.8970   10.5190 C   0  0  0  0  0
  -10.6850  -22.4070    8.9080 C   0  0  0  0  0
   -9.3250  -22.5030    8.6010 C   0  0  0  0  0
   -8.4690  -23.2550    9.4050 C   0  0  0  0  0
   -6.7180  -23.3830    8.9910 Cl  0  0  0  0  0
   -6.2498   -8.6823    9.6302 H   0  0  0  0  0
   -6.4519   -7.5183   12.2481 H   0  0  0  0  0
   -6.8727   -9.7233   13.0887 H   0  0  0  0  0
   -5.1910   -9.2572   13.5178 H   0  0  0  0  0
   -7.4969  -12.1648   13.2652 H   0  0  0  0  0
   -9.3763  -13.5284   12.3870 H   0  0  0  0  0
   -9.4944  -14.0866    9.9686 H   0  0  0  0  0
   -7.7559  -13.2345    8.4138 H   0  0  0  0  0
   -5.8722  -11.8617    9.2786 H   0  0  0  0  0
   -4.2714   -8.4275   10.3641 H   0  0  0  0  0
   -3.8202   -8.2285   12.0798 H   0  0  0  0  0
   -4.3627   -5.9452   12.0853 H   0  0  0  0  0
   -5.3358   -6.0906   10.5699 H   0  0  0  0  0
   -3.2656   -6.5419    9.4283 H   0  0  0  0  0
   -4.2397   -4.3405    9.4763 H   0  0  0  0  0
   -3.3366   -4.0156   10.9763 H   0  0  0  0  0
   -2.4611   -4.2574    9.4445 H   0  0  0  0  0
   -1.9314   -5.8429   11.9417 H   0  0  0  0  0
   -1.9363   -7.4375   11.1490 H   0  0  0  0  0
   -1.1429   -6.0529   10.3589 H   0  0  0  0  0
   -8.4999   -8.1276   12.4897 H   0  0  0  0  0
  -10.9329   -8.5932   12.4130 H   0  0  0  0  0
  -10.5220  -10.0041    8.3736 H   0  0  0  0  0
  -12.9564  -11.7784    9.8075 H   0  0  0  0  0
  -11.4294  -13.2256   13.8018 H   0  0  0  0  0
  -11.4366  -15.6872   14.0034 H   0  0  0  0  0
  -13.1827  -13.5297    9.9027 H   0  0  0  0  0
  -13.1721  -15.9931   10.0794 H   0  0  0  0  0
  -12.2388  -17.5100   14.2167 H   0  0  0  0  0
  -10.7009  -17.9815   13.3744 H   0  0  0  0  0
  -13.2075  -19.5488   13.8286 H   0  0  0  0  0
  -11.4756  -19.9614   14.2200 H   0  0  0  0  0
  -11.9198  -18.1125   10.2325 H   0  0  0  0  0
  -13.6743  -17.7929   10.6709 H   0  0  0  0  0
  -12.6787  -20.1788   10.2891 H   0  0  0  0  0
  -13.9448  -19.7880   11.5646 H   0  0  0  0  0
  -11.1133  -20.1863   11.8752 H   0  0  0  0  0
  -12.9338  -21.7244   13.4478 H   0  0  0  0  0
  -11.3868  -22.2006   12.5874 H   0  0  0  0  0
  -14.9942  -21.9456   12.5406 H   0  0  0  0  0
  -16.4552  -23.0112   10.8368 H   0  0  0  0  0
  -15.4418  -24.0067    8.8123 H   0  0  0  0  0
  -13.0067  -24.0693    8.5207 H   0  0  0  0  0
  -10.7327  -24.3449   11.6902 H   0  0  0  0  0
   -8.3205  -24.4766   11.1618 H   0  0  0  0  0
  -11.3481  -21.8326    8.2611 H   0  0  0  0  0
   -8.9303  -21.9861    7.7263 H   0  0  0  0  0
  1  2  2  0  0  0
  2  3  2  0  0  0
  2  4  1  0  0  0
  4  5  4  0  0  0
  4 23  4  0  0  0
  5  6  1  0  0  0
  5 21  4  0  0  0
  6  7  1  0  0  0
  7  8  1  0  0  0
  7 16  1  0  0  0
  8  9  1  0  0  0
  9 10  1  0  0  0
 10 11  4  0  0  0
 10 15  4  0  0  0
 11 12  4  0  0  0
 12 13  4  0  0  0
 13 14  4  0  0  0
 14 15  4  0  0  0
 16 17  1  0  0  0
 17 18  1  0  0  0
 18 19  1  0  0  0
 18 20  1  0  0  0
 21 22  4  0  0  0
 22 24  4  0  0  0
 23 24  4  0  0  0
 24 25  1  0  0  0
 25 26  2  0  0  0
 25 27  2  0  0  0
 25 28  1  0  0  0
 28 29  1  0  0  0
 29 30  2  0  0  0
 29 31  1  0  0  0
 31 32  4  0  0  0
 31 34  4  0  0  0
 32 33  4  0  0  0
 33 36  4  0  0  0
 34 35  4  0  0  0
 35 36  4  0  0  0
 36 37  1  0  0  0
 37 38  1  0  0  0
 37 40  1  0  0  0
 38 39  1  0  0  0
 39 42  1  0  0  0
 40 41  1  0  0  0
 41 42  1  0  0  0
 42 43  1  0  0  0
 43 44  1  0  0  0
 44 45  4  0  0  0
 44 49  4  0  0  0
 45 46  4  0  0  0
 46 47  4  0  0  0
 47 48  4  0  0  0
 48 49  4  0  0  0
 49 50  1  0  0  0
 50 51  4  0  0  0
 50 53  4  0  0  0
 51 52  4  0  0  0
 52 55  4  0  0  0
 53 54  4  0  0  0
 54 55  4  0  0  0
 55 56  1  0  0  0
  6 57  1  0  0  0
  7 58  1  0  0  0
  8 59  1  0  0  0
  8 60  1  0  0  0
 11 61  1  0  0  0
 12 62  1  0  0  0
 13 63  1  0  0  0
 14 64  1  0  0  0
 15 65  1  0  0  0
 16 66  1  0  0  0
 16 67  1  0  0  0
 17 68  1  0  0  0
 17 69  1  0  0  0
 18 70  1  0  0  0
 19 71  1  0  0  0
 19 72  1  0  0  0
 19 73  1  0  0  0
 20 74  1  0  0  0
 20 75  1  0  0  0
 20 76  1  0  0  0
 21 77  1  0  0  0
 22 78  1  0  0  0
 23 79  1  0  0  0
 28 80  1  0  0  0
 32 81  1  0  0  0
 33 82  1  0  0  0
 34 83  1  0  0  0
 35 84  1  0  0  0
 38 85  1  0  0  0
 38 86  1  0  0  0
 39 87  1  0  0  0
 39 88  1  0  0  0
 40 89  1  0  0  0
 40 90  1  0  0  0
 41 91  1  0  0  0
 41 92  1  0  0  0
 42 93  1  0  0  0
 43 94  1  0  0  0
 43 95  1  0  0  0
 45 96  1  0  0  0
 46 97  1  0  0  0
 47 98  1  0  0  0
 48 99  1  0  0  0
 51100  1  0  0  0
 52101  1  0  0  0
 53102  1  0  0  0
 54103  1  0  0  0
M  END
$$$$
