3p8e_ligand
  -I-interpret- 

 41 40  0  0  0  0  0  0  0  0999 V2000
  -28.6110   19.3240  -21.6370 C   0  0  0  0  0
  -26.9900   19.3210  -23.4910 N   0  3  0  0  0
  -27.1870   18.9410  -22.0730 C   0  0  0  0  0
  -26.1860   19.6950  -21.1960 C   0  0  0  0  0
  -25.2800   20.1170  -18.8760 C   0  0  0  0  0
  -25.4480   19.7490  -17.4610 N   0  3  0  0  0
  -26.2970   19.3210  -19.7170 C   0  0  0  0  0
  -24.6450   20.5560  -16.5190 C   0  0  0  0  0
  -29.1200   18.6680  -20.6960 O   0  0  0  0  0
  -29.1490   20.2790  -22.2510 O   0  0  0  0  0
  -25.0280   22.0260  -16.7910 C   0  0  0  0  0
  -25.0130   20.0920  -15.1750 N   0  3  0  0  0
  -26.7580   22.1310  -15.0760 C   0  0  0  0  0
  -25.8190   22.9920  -14.2230 C   0  0  0  0  0
  -26.4940   22.3720  -16.5560 C   0  0  0  0  0
  -27.6588   18.8166  -24.0730 H   0  0  0  0  0
  -27.1355   20.3251  -23.5960 H   0  0  0  0  0
  -26.0405   19.0820  -23.7770 H   0  0  0  0  0
  -27.0379   17.8667  -21.9649 H   0  0  0  0  0
  -26.3967   20.7605  -21.2883 H   0  0  0  0  0
  -25.1829   19.4334  -21.5327 H   0  0  0  0  0
  -24.2664   19.8834  -19.2017 H   0  0  0  0  0
  -25.4499   21.1861  -19.0035 H   0  0  0  0  0
  -25.1382   18.7819  -17.3651 H   0  0  0  0  0
  -26.4285   19.9040  -17.2265 H   0  0  0  0  0
  -26.0896   18.2567  -19.6062 H   0  0  0  0  0
  -27.3028   19.5558  -19.3687 H   0  0  0  0  0
  -23.5641   20.4622  -16.6241 H   0  0  0  0  0
  -28.5472   20.6046  -22.9244 H   0  0  0  0  0
  -24.8295   22.2098  -17.8469 H   0  0  0  0  0
  -24.4488   22.6331  -16.0952 H   0  0  0  0  0
  -24.7321   19.1177  -15.0642 H   0  0  0  0  0
  -24.5389   20.6652  -14.4771 H   0  0  0  0  0
  -26.0226   20.1720  -15.0536 H   0  0  0  0  0
  -27.7903   22.3979  -14.8499 H   0  0  0  0  0
  -26.5822   21.0795  -14.8490 H   0  0  0  0  0
  -24.7847   22.7320  -14.4483 H   0  0  0  0  0
  -25.9878   24.0448  -14.4491 H   0  0  0  0  0
  -26.0192   22.8092  -13.1673 H   0  0  0  0  0
  -27.1462   21.7568  -17.1758 H   0  0  0  0  0
  -26.7009   23.4071  -16.8277 H   0  0  0  0  0
  3  1  1  0  0  0
  1  9  2  0  0  0
  1 10  1  0  0  0
  3  2  1  0  0  0
  4  3  1  0  0  0
  7  4  1  0  0  0
  6  5  1  0  0  0
  5  7  1  0  0  0
  8  6  1  0  0  0
 11  8  1  0  0  0
  8 12  1  0  0  0
 15 11  1  0  0  0
 13 14  1  0  0  0
 13 15  1  0  0  0
  2 16  1  0  0  0
  2 17  1  0  0  0
  2 18  1  0  0  0
  3 19  1  0  0  0
  4 20  1  0  0  0
  4 21  1  0  0  0
  5 22  1  0  0  0
  5 23  1  0  0  0
  6 24  1  0  0  0
  6 25  1  0  0  0
  7 26  1  0  0  0
  7 27  1  0  0  0
  8 28  1  0  0  0
 10 29  1  0  0  0
 11 30  1  0  0  0
 11 31  1  0  0  0
 12 32  1  0  0  0
 12 33  1  0  0  0
 12 34  1  0  0  0
 13 35  1  0  0  0
 13 36  1  0  0  0
 14 37  1  0  0  0
 14 38  1  0  0  0
 14 39  1  0  0  0
 15 40  1  0  0  0
 15 41  1  0  0  0
M  END
$$$$
