1eld_ligand
  -I-interpret- 

 52 53  0  0  0  0  0  0  0  0999 V2000
   40.5660   23.9890   37.1550 C   0  0  0  0  0
   41.0790   25.0440   38.1940 C   0  0  0  0  0
   39.8620   24.2650   36.1840 O   0  0  0  0  0
   40.1680   26.0130   38.4550 F   0  0  0  0  0
   42.1880   25.7120   37.8140 F   0  0  0  0  0
   41.3470   24.4930   39.3840 F   0  0  0  0  0
   40.9700   23.1420   37.5630 N   0  0  0  0  0
   40.6090   21.7700   37.2920 C   0  0  0  0  0
   39.0940   21.4720   37.3760 C   0  0  0  0  0
   38.4750   21.6320   38.4420 O   0  0  0  0  0
   41.5110   21.1280   38.2940 C   0  0  0  0  0
   41.2750   19.7220   38.7630 C   0  0  0  0  0
   40.7010   18.7190   37.9480 C   0  0  0  0  0
   41.7130   19.4170   40.0480 C   0  0  0  0  0
   40.5660   17.4020   38.4320 C   0  0  0  0  0
   41.5820   18.1070   40.5100 C   0  0  0  0  0
   41.0150   17.1030   39.7210 C   0  0  0  0  0
   38.5180   21.0400   36.2340 N   0  0  0  0  0
   37.0740   20.7830   36.1130 C   0  0  0  0  0
   36.5670   19.5410   36.8410 C   0  0  0  0  0
   36.4060   18.4490   36.2810 O   0  0  0  0  0
   36.6840   20.6880   34.6270 C   0  0  0  0  0
   36.3590   19.8010   38.1430 N   0  0  0  0  0
   35.9480   18.8160   38.9570 C   0  0  0  0  0
   35.3280   19.1230   40.1680 C   0  0  0  0  0
   34.9970   18.1190   41.0610 C   0  0  0  0  0
   35.2730   16.7710   40.7610 C   0  0  0  0  0
   35.8830   16.4730   39.5350 C   0  0  0  0  0
   36.2220   17.4820   38.6430 C   0  0  0  0  0
   34.9850   15.6300   41.8210 C   0  0  0  0  0
   34.8420   14.3280   41.4050 F   0  0  0  0  0
   33.9390   15.8470   42.6480 F   0  0  0  0  0
   36.0810   15.6460   42.6020 F   0  0  0  0  0
   41.7173   23.2836   38.2426 H   0  0  0  0  0
   40.7492   21.4053   36.2744 H   0  0  0  0  0
   41.3775   21.7308   39.1923 H   0  0  0  0  0
   42.4743   21.0777   37.7865 H   0  0  0  0  0
   40.3617   18.9652   36.9418 H   0  0  0  0  0
   42.1507   20.1878   40.6824 H   0  0  0  0  0
   40.1176   16.6277   37.8095 H   0  0  0  0  0
   41.9311   17.8604   41.5127 H   0  0  0  0  0
   40.9231   16.0889   40.1100 H   0  0  0  0  0
   39.1103   20.8847   35.4183 H   0  0  0  0  0
   36.5956   21.6304   36.6041 H   0  0  0  0  0
   37.1343   19.7964   34.1908 H   0  0  0  0  0
   35.5991   20.6281   34.5405 H   0  0  0  0  0
   37.0434   21.5725   34.1011 H   0  0  0  0  0
   36.5124   20.7402   38.5101 H   0  0  0  0  0
   35.1026   20.1610   40.4128 H   0  0  0  0  0
   34.5178   18.3741   42.0062 H   0  0  0  0  0
   36.0943   15.4350   39.2780 H   0  0  0  0  0
   36.7024   17.2332   37.6967 H   0  0  0  0  0
  1  3  2  0  0  0
  1  2  1  0  0  0
  2  6  1  0  0  0
  2  5  1  0  0  0
  2  4  1  0  0  0
  9  8  1  0  0  0
  8 11  1  0  0  0
  8  7  1  0  0  0
 11 12  1  0  0  0
 12 14  4  0  0  0
 12 13  4  0  0  0
 13 15  4  0  0  0
 15 17  4  0  0  0
 16 17  4  0  0  0
 14 16  4  0  0  0
  9 10  2  0  0  0
 20 19  1  0  0  0
 19 22  1  0  0  0
 19 18  1  0  0  0
 20 21  2  0  0  0
 23 24  1  0  0  0
 24 29  4  0  0  0
 24 25  4  0  0  0
 25 26  4  0  0  0
 26 27  4  0  0  0
 27 30  1  0  0  0
 28 27  4  0  0  0
 29 28  4  0  0  0
 30 33  1  0  0  0
 30 32  1  0  0  0
 30 31  1  0  0  0
 18  9  1  0  0  0
  7  1  1  0  0  0
 20 23  1  0  0  0
  7 34  1  0  0  0
  8 35  1  0  0  0
 11 36  1  0  0  0
 11 37  1  0  0  0
 13 38  1  0  0  0
 14 39  1  0  0  0
 15 40  1  0  0  0
 16 41  1  0  0  0
 17 42  1  0  0  0
 18 43  1  0  0  0
 19 44  1  0  0  0
 22 45  1  0  0  0
 22 46  1  0  0  0
 22 47  1  0  0  0
 23 48  1  0  0  0
 25 49  1  0  0  0
 26 50  1  0  0  0
 28 51  1  0  0  0
 29 52  1  0  0  0
M  END
$$$$
