6e9a_ligand
  -I-interpret- 

 77 80  0  0  0  0  0  0  0  0999 V2000
   21.7930   28.8720   14.7660 O   0  0  0  0  0
   23.1520   28.9030   15.1660 C   0  0  0  0  0
   21.1920   27.6690   14.9770 C   0  0  0  0  0
   19.8130   27.6380   14.7090 C   0  0  0  0  0
   19.0610   26.5070   15.0270 C   0  0  0  0  0
   19.6620   25.3940   15.6060 C   0  0  0  0  0
   21.0240   25.4330   15.8480 C   0  0  0  0  0
   21.8120   26.5520   15.5140 C   0  0  0  0  0
   18.6710   24.0240   16.0770 S   0  0  0  0  0
   17.5790   23.8470   15.0920 O   0  0  0  0  0
   19.5800   22.8810   16.3180 O   0  0  0  0  0
   17.9820   24.3920   17.5230 N   0  0  0  0  0
   18.9060   24.6960   18.6070 C   0  0  0  0  0
   18.5760   24.0170   19.9500 C   0  0  0  0  0
   18.6790   22.5000   19.8720 C   0  0  0  0  0
   19.5050   24.5980   21.0400 C   0  0  0  0  0
   16.6890   25.0220   17.5130 C   0  0  0  0  0
   15.6270   24.0920   18.1250 C   0  0  0  0  0
   14.4800   24.8960   18.4410 O   0  0  0  0  0
   15.2340   22.9460   17.1900 C   0  0  0  0  0
   14.4150   21.9680   17.9660 N   0  0  0  0  0
   14.8920   20.8390   18.4740 C   0  0  0  0  0
   16.0450   20.4350   18.3620 O   0  0  0  0  0
   13.9720   20.0950   19.1680 O   0  0  0  0  0
   14.4740   18.8260   19.6030 C   0  0  0  0  0
   13.4170   18.2640   20.5450 C   0  0  0  0  0
   12.3600   17.6350   19.6400 C   0  0  0  0  0
   11.3280   18.5910   19.4240 O   0  0  0  0  0
   11.2950   19.0180   18.1530 C   0  0  0  0  0
   10.4530   19.8820   17.7830 O   0  0  0  0  0
   12.2190   18.3560   17.4690 N   0  0  0  0  0
   13.0100   17.4560   18.2790 C   0  0  0  0  0
   14.4590   17.8650   18.4420 C   0  0  0  0  0
   14.4290   23.4110   15.9600 C   0  0  0  0  0
   12.8730   21.5330   15.1060 C   0  0  0  0  0
   12.6340   20.4050   14.3250 C   0  0  0  0  0
   13.6090   19.9480   13.4420 C   0  0  0  0  0
   14.8410   20.6010   13.3410 C   0  0  0  0  0
   15.0850   21.7150   14.1560 C   0  0  0  0  0
   14.1080   22.1950   15.0500 C   0  0  0  0  0
   23.2207   28.6857   16.2319 H   0  0  0  0  0
   23.7118   28.1550   14.6046 H   0  0  0  0  0
   23.5652   29.8920   14.9681 H   0  0  0  0  0
   19.3292   28.5007   14.2510 H   0  0  0  0  0
   17.9910   26.4952   14.8196 H   0  0  0  0  0
   21.5024   24.5704   16.3118 H   0  0  0  0  0
   22.8900   26.5394   15.6751 H   0  0  0  0  0
   18.8520   25.7715   18.7755 H   0  0  0  0  0
   19.8850   24.3284   18.2996 H   0  0  0  0  0
   17.5378   24.2284   20.2060 H   0  0  0  0  0
   17.9790   22.1276   19.1241 H   0  0  0  0  0
   19.6946   22.2200   19.5923 H   0  0  0  0  0
   18.4368   22.0702   20.8440 H   0  0  0  0  0
   20.5435   24.4041   20.7716 H   0  0  0  0  0
   19.3432   25.6731   21.1182 H   0  0  0  0  0
   19.2812   24.1251   21.9962 H   0  0  0  0  0
   16.4123   25.2429   16.4821 H   0  0  0  0  0
   16.7382   25.9374   18.1028 H   0  0  0  0  0
   16.0404   23.6219   19.0173 H   0  0  0  0  0
   13.7978   24.3410   18.8260 H   0  0  0  0  0
   16.1541   22.4989   16.8136 H   0  0  0  0  0
   13.4286   22.1809   18.1146 H   0  0  0  0  0
   15.4691   18.9398   20.0330 H   0  0  0  0  0
   12.9903   19.0423   21.1776 H   0  0  0  0  0
   13.8419   17.5325   21.2324 H   0  0  0  0  0
   11.9818   16.7103   20.0759 H   0  0  0  0  0
   12.3586   18.4710   16.4652 H   0  0  0  0  0
   13.0278   16.4581   17.8408 H   0  0  0  0  0
   15.1003   17.0032   18.6267 H   0  0  0  0  0
   14.8497   18.3262   17.5349 H   0  0  0  0  0
   15.0174   24.1361   15.3977 H   0  0  0  0  0
   13.4969   23.8685   16.2917 H   0  0  0  0  0
   12.0914   21.9055   15.7682 H   0  0  0  0  0
   11.6826   19.8792   14.4050 H   0  0  0  0  0
   13.4097   19.0728   12.8237 H   0  0  0  0  0
   15.5988   20.2499   12.6406 H   0  0  0  0  0
   16.0494   22.2196   14.0968 H   0  0  0  0  0
  1  2  1  0  0  0
  3  1  1  0  0  0
  4  3  4  0  0  0
  8  3  4  0  0  0
  5  4  4  0  0  0
  6  5  4  0  0  0
  6  7  4  0  0  0
  9  6  1  0  0  0
  7  8  4  0  0  0
  9 10  2  0  0  0
  9 11  2  0  0  0
 12  9  1  0  0  0
 12 13  1  0  0  0
 17 12  1  0  0  0
 13 14  1  0  0  0
 14 15  1  0  0  0
 14 16  1  0  0  0
 18 17  1  0  0  0
 18 19  1  0  0  0
 20 18  1  0  0  0
 20 21  1  0  0  0
 34 20  1  0  0  0
 21 22  1  0  0  0
 22 23  2  0  0  0
 22 24  1  0  0  0
 24 25  1  0  0  0
 25 26  1  0  0  0
 25 33  1  0  0  0
 26 27  1  0  0  0
 27 28  1  0  0  0
 32 27  1  0  0  0
 28 29  1  0  0  0
 29 30  2  0  0  0
 31 29  1  0  0  0
 32 31  1  0  0  0
 33 32  1  0  0  0
 40 34  1  0  0  0
 35 36  4  0  0  0
 35 40  4  0  0  0
 36 37  4  0  0  0
 37 38  4  0  0  0
 38 39  4  0  0  0
 39 40  4  0  0  0
  2 41  1  0  0  0
  2 42  1  0  0  0
  2 43  1  0  0  0
  4 44  1  0  0  0
  5 45  1  0  0  0
  7 46  1  0  0  0
  8 47  1  0  0  0
 13 48  1  0  0  0
 13 49  1  0  0  0
 14 50  1  0  0  0
 15 51  1  0  0  0
 15 52  1  0  0  0
 15 53  1  0  0  0
 16 54  1  0  0  0
 16 55  1  0  0  0
 16 56  1  0  0  0
 17 57  1  0  0  0
 17 58  1  0  0  0
 18 59  1  0  0  0
 19 60  1  0  0  0
 20 61  1  0  0  0
 21 62  1  0  0  0
 25 63  1  0  0  0
 26 64  1  0  0  0
 26 65  1  0  0  0
 27 66  1  0  0  0
 31 67  1  0  0  0
 32 68  1  0  0  0
 33 69  1  0  0  0
 33 70  1  0  0  0
 34 71  1  0  0  0
 34 72  1  0  0  0
 35 73  1  0  0  0
 36 74  1  0  0  0
 37 75  1  0  0  0
 38 76  1  0  0  0
 39 77  1  0  0  0
M  END
$$$$
