5os4_ligand
  -I-interpret- 

 32 34  0  0  0  0  0  0  0  0999 V2000
  -11.9510   16.1970  -20.2300 C   0  0  0  0  0
  -11.7980   14.8790  -19.8270 C   0  0  0  0  0
  -11.9430   17.2080  -19.2970 C   0  0  0  0  0
  -11.7870   16.9040  -17.9630 C   0  0  0  0  0
  -11.6460   15.5830  -17.5610 C   0  0  0  0  0
  -11.6440   14.5480  -18.4880 C   0  0  0  0  0
  -10.2250   11.4940  -15.8260 C   0  0  0  0  0
  -11.4910   13.1000  -18.0590 C   0  0  0  0  0
  -10.0320   12.6320  -17.9950 C   0  0  0  0  0
   -9.9150   11.2810  -17.3040 C   0  0  0  0  0
  -12.2880   12.7470  -16.7900 C   0  0  0  0  0
  -11.3150   12.5430  -15.6130 C   0  0  0  0  0
  -12.0070   12.0890  -14.3620 C   0  0  0  0  0
  -12.8480   12.6840  -13.7460 O   0  0  0  0  0
  -11.5300   10.8720  -14.0210 N   0  0  0  0  0
  -10.5820   10.4030  -14.8570 C   0  0  0  0  0
  -10.0640    9.3220  -14.7620 O   0  0  0  0  0
  -12.0777   16.4322  -21.2868 H   0  0  0  0  0
  -11.7987   14.0875  -20.5765 H   0  0  0  0  0
  -12.0596   18.2449  -19.6123 H   0  0  0  0  0
  -11.7742   17.7025  -17.2212 H   0  0  0  0  0
  -11.5351   15.3539  -16.5011 H   0  0  0  0  0
   -9.1943   11.7411  -15.5715 H   0  0  0  0  0
  -11.9492   12.5226  -18.8620 H   0  0  0  0  0
   -9.4574   13.3635  -17.4268 H   0  0  0  0  0
   -9.6534   12.5354  -19.0126 H   0  0  0  0  0
  -10.6135   10.5674  -17.7411 H   0  0  0  0  0
   -8.9112   10.8748  -17.4284 H   0  0  0  0  0
  -12.8520   11.8296  -16.9585 H   0  0  0  0  0
  -12.9766   13.5588  -16.5558 H   0  0  0  0  0
  -10.8749   13.5370  -15.5325 H   0  0  0  0  0
  -11.8574   10.3548  -13.2050 H   0  0  0  0  0
  2  1  4  0  0  0
  1  3  4  0  0  0
  6  2  4  0  0  0
  4  3  4  0  0  0
  5  4  4  0  0  0
  6  5  4  0  0  0
  8  6  1  0  0  0
 10  7  1  0  0  0
  7 12  1  0  0  0
  7 16  1  0  0  0
  9  8  1  0  0  0
  8 11  1  0  0  0
  9 10  1  0  0  0
 11 12  1  0  0  0
 12 13  1  0  0  0
 13 14  2  0  0  0
 13 15  1  0  0  0
 15 16  1  0  0  0
 16 17  2  0  0  0
  1 18  1  0  0  0
  2 19  1  0  0  0
  3 20  1  0  0  0
  4 21  1  0  0  0
  5 22  1  0  0  0
  7 23  1  0  0  0
  8 24  1  0  0  0
  9 25  1  0  0  0
  9 26  1  0  0  0
 10 27  1  0  0  0
 10 28  1  0  0  0
 11 29  1  0  0  0
 11 30  1  0  0  0
 12 31  1  0  0  0
 15 32  1  0  0  0
M  END
$$$$
