4aua_ligand
  -I-interpret- 

 23 25  0  0  0  0  0  0  0  0999 V2000
   19.7440   36.7150  -11.4760 C   0  0  0  0  0
   20.4400   36.6030  -10.2840 C   0  0  0  0  0
   21.4400   35.6510  -10.1810 C   0  0  0  0  0
   21.7230   34.8270  -11.2590 C   0  0  0  0  0
   21.0180   34.9280  -12.4450 C   0  0  0  0  0
   20.0240   35.8810  -12.5420 C   0  0  0  0  0
   23.0510   34.3110   -9.5830 C   0  0  0  0  0
   22.2870   35.3350   -9.1040 N   0  0  0  0  0
   24.1190   33.6000   -8.8790 C   0  0  0  0  0
   24.4020   33.9030   -7.4640 C   0  0  0  0  0
   23.7880   34.7400   -6.5310 C   0  0  0  0  0
   24.4830   34.6160   -5.3330 C   0  0  0  0  0
   25.5190   33.7020   -5.5510 C   0  0  0  0  0
   25.4550   33.2800   -6.8380 N   0  0  0  0  0
   22.7300   33.9910  -10.8730 N   0  0  0  0  0
   24.7450   32.7690   -9.4960 O   0  0  0  0  0
   18.9650   37.4710  -11.5748 H   0  0  0  0  0
   20.2046   37.2531   -9.4414 H   0  0  0  0  0
   21.2424   34.2697  -13.2843 H   0  0  0  0  0
   19.4553   35.9766  -13.4669 H   0  0  0  0  0
   22.9207   35.3758   -6.7092 H   0  0  0  0  0
   24.2620   35.1337   -4.3996 H   0  0  0  0  0
   26.2535   33.3830   -4.8115 H   0  0  0  0  0
  1  2  4  0  0  0
  1  6  4  0  0  0
  2  3  4  0  0  0
  3  4  4  0  0  0
  3  8  4  0  0  0
  4  5  4  0  0  0
  4 15  4  0  0  0
  5  6  4  0  0  0
  8  7  4  0  0  0
  7  9  1  0  0  0
  7 15  4  0  0  0
  9 10  1  0  0  0
  9 16  2  0  0  0
 10 11  4  0  0  0
 10 14  4  0  0  0
 11 12  4  0  0  0
 12 13  4  0  0  0
 13 14  4  0  0  0
  1 17  1  0  0  0
  2 18  1  0  0  0
  5 19  1  0  0  0
  6 20  1  0  0  0
 11 21  1  0  0  0
 12 22  1  0  0  0
 13 23  1  0  0  0
M  END
$$$$
