3bpc_ligand
  -I-interpret- 

 60 61  0  0  0  0  0  0  0  0999 V2000
   30.8900   -0.5030    0.3010 C   0  0  0  0  0
   31.9250   -1.1340   -0.0190 O   0  0  0  0  0
   30.7850    0.7460    0.4000 O   0  0  0  0  0
   29.6150   -1.3150    0.6130 C   0  0  0  0  0
   28.7110   -1.1790   -0.6350 C   0  0  0  0  0
   27.5380   -2.1790   -0.5610 C   0  0  0  0  0
   26.9130   -2.1990   -1.8450 O   0  0  0  0  0
   27.9460   -3.6030   -0.1290 C   0  0  0  0  0
   28.7660   -4.2730   -1.1320 O   0  0  0  0  0
   28.7940   -3.5310    1.1580 C   0  0  0  0  0
   29.9400   -2.6730    0.9050 O   0  0  0  0  0
   29.3460   -4.8600    1.6590 C   0  0  0  0  0
   28.2640   -5.7930    1.7670 O   0  0  0  0  0
   29.9660   -4.6830    3.0460 C   0  0  0  0  0
   28.8810   -4.0780    3.8190 O   0  0  0  0  0
   28.9190   -0.7200    1.7570 O   0  0  0  0  0
   29.7800   -0.7750    2.8330 C   0  0  0  0  0
   29.7190    0.0600    3.9430 C   0  0  0  0  0
   28.7330    1.0070    4.0930 C   0  0  0  0  0
   28.7740   -4.5620    5.2000 C   0  0  0  0  0
   28.3620   -6.0390    5.1780 C   0  0  0  0  0
   27.4240   -6.3390    4.4480 O   0  0  0  0  0
   29.0090   -6.8250    5.8970 O   0  0  0  0  0
   27.8110   -3.8400    5.9070 C   0  0  0  0  0
   28.0900   -2.9440    6.9630 C   0  0  0  0  0
   29.3930   -2.6770    7.4020 C   0  0  0  0  0
   30.4350   -3.1740    6.4000 C   0  0  0  0  0
   30.0580   -4.4700    5.8640 O   0  0  0  0  0
   31.8440   -3.4630    6.9520 C   0  0  0  0  0
   31.7400   -4.4240    7.9910 O   0  0  0  0  0
   32.5530   -2.2280    7.4890 C   0  0  0  0  0
   32.3540   -1.1000    6.6210 O   0  0  0  0  0
   29.8885    0.9711    0.6591 H   0  0  0  0  0
   29.3020   -1.3902   -1.5262 H   0  0  0  0  0
   28.3116   -0.1656   -0.6754 H   0  0  0  0  0
   26.8532   -1.8420    0.2172 H   0  0  0  0  0
   26.6676   -1.3050   -2.0942 H   0  0  0  0  0
   27.0206   -4.1602    0.0168 H   0  0  0  0  0
   28.2739   -4.3394   -1.9536 H   0  0  0  0  0
   28.1150   -3.1597    1.9256 H   0  0  0  0  0
   30.1044   -5.2186    0.9631 H   0  0  0  0  0
   28.5996   -6.6354    2.0822 H   0  0  0  0  0
   30.8661   -4.0684    3.0302 H   0  0  0  0  0
   30.3161   -5.6222    3.4743 H   0  0  0  0  0
   30.5667   -1.5291    2.8116 H   0  0  0  0  0
   30.4773   -0.0391    4.7197 H   0  0  0  0  0
   28.7777    1.7110    3.2620 H   0  0  0  0  0
   27.7593    0.5172    4.1040 H   0  0  0  0  0
   28.8833    1.5407    5.0314 H   0  0  0  0  0
   29.6896   -6.3391    6.3685 H   0  0  0  0  0
   26.7675   -3.9776    5.6236 H   0  0  0  0  0
   27.2582   -2.4405    7.4557 H   0  0  0  0  0
   29.5508   -3.1934    8.3488 H   0  0  0  0  0
   29.5062   -1.5984    7.5113 H   0  0  0  0  0
   30.4643   -2.3454    5.6924 H   0  0  0  0  0
   32.4424   -3.8320    6.1190 H   0  0  0  0  0
   32.6141   -4.6106    8.3415 H   0  0  0  0  0
   33.6209   -2.4374    7.5502 H   0  0  0  0  0
   32.1438   -1.9896    8.4707 H   0  0  0  0  0
   32.8101   -0.3360    6.9813 H   0  0  0  0  0
  1  2  2  0  0  0
  1  3  1  0  0  0
  1  4  1  0  0  0
  4  5  1  0  0  0
  4 11  1  0  0  0
  4 16  1  0  0  0
  5  6  1  0  0  0
  6  7  1  0  0  0
  6  8  1  0  0  0
  8  9  1  0  0  0
  8 10  1  0  0  0
 10 11  1  0  0  0
 10 12  1  0  0  0
 12 13  1  0  0  0
 12 14  1  0  0  0
 14 15  1  0  0  0
 15 20  1  0  0  0
 16 17  1  0  0  0
 17 18  2  0  0  0
 18 19  1  0  0  0
 20 21  1  0  0  0
 20 24  1  0  0  0
 20 28  1  0  0  0
 21 22  2  0  0  0
 21 23  1  0  0  0
 24 25  2  0  0  0
 25 26  1  0  0  0
 26 27  1  0  0  0
 27 28  1  0  0  0
 27 29  1  0  0  0
 29 30  1  0  0  0
 29 31  1  0  0  0
 31 32  1  0  0  0
  3 33  1  0  0  0
  5 34  1  0  0  0
  5 35  1  0  0  0
  6 36  1  0  0  0
  7 37  1  0  0  0
  8 38  1  0  0  0
  9 39  1  0  0  0
 10 40  1  0  0  0
 12 41  1  0  0  0
 13 42  1  0  0  0
 14 43  1  0  0  0
 14 44  1  0  0  0
 17 45  1  0  0  0
 18 46  1  0  0  0
 19 47  1  0  0  0
 19 48  1  0  0  0
 19 49  1  0  0  0
 23 50  1  0  0  0
 24 51  1  0  0  0
 25 52  1  0  0  0
 26 53  1  0  0  0
 26 54  1  0  0  0
 27 55  1  0  0  0
 29 56  1  0  0  0
 30 57  1  0  0  0
 31 58  1  0  0  0
 31 59  1  0  0  0
 32 60  1  0  0  0
M  END
$$$$
