5t8j_ligand
  -I-interpret- 

 35 36  0  0  0  0  0  0  0  0999 V2000
   28.3180    1.9120    5.1520 C   0  0  0  0  0
   28.4870    0.4570    5.6710 C   0  0  0  0  0
   27.5730   -0.3730    4.7380 C   0  0  0  0  0
   27.0420   -1.6610    5.3740 C   0  0  0  0  0
   26.3330    3.1140    4.3280 C   0  0  0  0  0
   25.3020    5.7250    4.2170 C   0  0  0  0  0
   25.6360    0.1510    3.2710 C   0  0  0  0  0
   26.4070    0.5910    4.5120 C   0  0  0  0  0
   27.0640    1.8970    4.3300 N   0  0  0  0  0
   28.2730   -0.6710    3.5300 O   0  0  0  0  0
   27.1550    4.2180    4.0610 C   0  0  0  0  0
   26.6640    5.4920    4.0120 C   0  0  0  0  0
   24.8910    7.0900    4.1310 C   0  0  0  0  0
   24.5450    8.1670    4.0720 N   0  0  0  0  0
   24.4190    4.6470    4.4860 C   0  0  0  0  0
   23.0840    4.8750    4.6840 F   0  0  0  0  0
   24.9320    3.3410    4.5400 C   0  0  0  0  0
   23.9110    2.2680    4.8350 C   0  0  0  0  0
   29.1788    2.2303    4.5640 H   0  0  0  0  0
   28.2502    2.6252    5.9735 H   0  0  0  0  0
   28.2122    0.3552    6.7209 H   0  0  0  0  0
   29.5241    0.1229    5.6423 H   0  0  0  0  0
   26.3618   -2.1540    4.6795 H   0  0  0  0  0
   27.8770   -2.3244    5.5995 H   0  0  0  0  0
   26.5106   -1.4181    6.2942 H   0  0  0  0  0
   24.8656    0.8877    3.0433 H   0  0  0  0  0
   26.3226    0.0691    2.4284 H   0  0  0  0  0
   25.1710   -0.8170    3.4579 H   0  0  0  0  0
   25.6823    0.6241    5.3256 H   0  0  0  0  0
   28.9931   -1.2768    3.7199 H   0  0  0  0  0
   28.2186    4.0548    3.8872 H   0  0  0  0  0
   27.3355    6.3272    3.8128 H   0  0  0  0  0
   23.8872    1.5546    4.0112 H   0  0  0  0  0
   24.1833    1.7525    5.7560 H   0  0  0  0  0
   22.9282    2.7252    4.9499 H   0  0  0  0  0
  1  2  1  0  0  0
  9  1  1  0  0  0
  3  2  1  0  0  0
  3  4  1  0  0  0
  8  3  1  0  0  0
  3 10  1  0  0  0
  5  9  1  0  0  0
 11  5  4  0  0  0
  5 17  4  0  0  0
 12  6  4  0  0  0
  6 13  1  0  0  0
  6 15  4  0  0  0
  8  7  1  0  0  0
  9  8  1  0  0  0
 11 12  4  0  0  0
 13 14  3  0  0  0
 15 16  1  0  0  0
 15 17  4  0  0  0
 17 18  1  0  0  0
  1 19  1  0  0  0
  1 20  1  0  0  0
  2 21  1  0  0  0
  2 22  1  0  0  0
  4 23  1  0  0  0
  4 24  1  0  0  0
  4 25  1  0  0  0
  7 26  1  0  0  0
  7 27  1  0  0  0
  7 28  1  0  0  0
  8 29  1  0  0  0
 10 30  1  0  0  0
 11 31  1  0  0  0
 12 32  1  0  0  0
 18 33  1  0  0  0
 18 34  1  0  0  0
 18 35  1  0  0  0
M  END
$$$$
