5g1z_ligand
  -I-interpret- 

 38 39  0  0  0  0  0  0  0  0999 V2000
   20.5350   46.0700   59.5550 O   0  0  0  0  0
   20.3970   45.9840   60.7600 C   0  0  0  0  0
   19.0560   45.8180   61.2380 O   0  0  0  0  0
   18.0030   46.0600   60.2840 C   0  0  0  0  0
   17.6260   47.5080   60.2950 C   0  0  0  0  0
   21.5960   46.3240   61.5580 C   0  0  0  0  0
   21.4920   47.2510   62.5740 C   0  0  0  0  0
   22.5300   47.6500   63.3100 N   0  0  0  0  0
   23.7860   47.2650   63.0250 C   0  0  0  0  0
   24.8570   47.7330   63.7830 C   0  0  0  0  0
   26.0930   47.2330   63.4300 C   0  0  0  0  0
   22.8920   45.8260   61.1470 C   0  0  0  0  0
   23.1080   44.6540   59.9200 S   0  0  0  0  0
   23.9230   43.2040   60.5450 C   0  0  0  0  0
   23.2320   42.8750   61.8600 C   0  0  0  0  0
   21.8580   42.5190   61.6220 C   0  0  0  0  0
   20.7520   42.3060   61.3610 N   0  0  0  0  0
   24.0200   46.3250   61.9280 C   0  0  0  0  0
   25.2730   45.8710   61.6170 C   0  0  0  0  0
   26.3130   46.3330   62.3710 C   0  0  0  0  0
   27.5720   45.8490   62.0450 O   0  0  0  0  0
   27.7160   44.9330   60.9250 C   0  0  0  0  0
   17.1325   45.4606   60.5507 H   0  0  0  0  0
   18.3518   45.7876   59.2879 H   0  0  0  0  0
   17.2793   47.7843   61.2908 H   0  0  0  0  0
   18.4953   48.1105   60.0314 H   0  0  0  0  0
   16.8298   47.6803   59.5709 H   0  0  0  0  0
   20.5122   47.6789   62.7860 H   0  0  0  0  0
   24.7272   48.4448   64.5983 H   0  0  0  0  0
   26.9571   47.5567   64.0102 H   0  0  0  0  0
   24.9889   43.3796   60.6901 H   0  0  0  0  0
   23.8520   42.3747   59.8412 H   0  0  0  0  0
   23.2673   43.7487   62.5107 H   0  0  0  0  0
   23.7423   42.0352   62.3316 H   0  0  0  0  0
   25.4342   45.1683   60.7995 H   0  0  0  0  0
   27.1220   44.0381   61.1105 H   0  0  0  0  0
   27.3686   45.4187   60.0131 H   0  0  0  0  0
   28.7650   44.6580   60.8147 H   0  0  0  0  0
  1  2  2  0  0  0
  2  3  1  0  0  0
  2  6  1  0  0  0
  3  4  1  0  0  0
  4  5  1  0  0  0
  6  7  4  0  0  0
  6 12  4  0  0  0
  7  8  4  0  0  0
  8  9  4  0  0  0
  9 10  4  0  0  0
  9 18  4  0  0  0
 10 11  4  0  0  0
 11 20  4  0  0  0
 12 13  1  0  0  0
 12 18  4  0  0  0
 13 14  1  0  0  0
 14 15  1  0  0  0
 15 16  1  0  0  0
 16 17  3  0  0  0
 18 19  4  0  0  0
 19 20  4  0  0  0
 20 21  1  0  0  0
 21 22  1  0  0  0
  4 23  1  0  0  0
  4 24  1  0  0  0
  5 25  1  0  0  0
  5 26  1  0  0  0
  5 27  1  0  0  0
  7 28  1  0  0  0
 10 29  1  0  0  0
 11 30  1  0  0  0
 14 31  1  0  0  0
 14 32  1  0  0  0
 15 33  1  0  0  0
 15 34  1  0  0  0
 19 35  1  0  0  0
 22 36  1  0  0  0
 22 37  1  0  0  0
 22 38  1  0  0  0
M  END
$$$$
