2y1x_ligand
  -I-interpret- 

 56 60  0  0  0  0  0  0  0  0999 V2000
   30.4290  -16.9200  -22.6990 N   0  0  0  0  0
   31.6090  -17.3840  -23.3430 C   0  0  0  0  0
   32.1740  -16.2990  -24.0080 C   0  0  0  0  0
   31.3470  -15.1910  -23.7690 C   0  0  0  0  0
   30.2880  -15.6020  -22.9650 N   0  0  0  0  0
   29.6180  -17.6160  -21.9680 C   0  0  0  0  0
   29.8720  -17.7230  -20.5730 C   0  0  0  0  0
   29.0110  -18.4740  -19.7490 C   0  0  0  0  0
   27.8910  -19.1310  -20.2980 C   0  0  0  0  0
   27.6050  -19.0480  -21.6870 C   0  0  0  0  0
   28.4820  -18.2810  -22.5220 C   0  0  0  0  0
   32.1670  -18.6830  -23.3790 C   0  0  0  0  0
   26.3640  -19.7840  -22.2850 C   0  0  0  0  0
   25.2870  -20.1760  -21.3400 N   0  0  0  0  0
   31.5510  -13.7580  -24.3030 C   0  0  0  0  0
   32.8620  -13.5010  -24.5740 F   0  0  0  0  0
   31.1100  -12.8460  -23.3870 F   0  0  0  0  0
   30.8490  -13.5860  -25.4420 F   0  0  0  0  0
   24.5490  -19.2670  -20.6290 C   0  0  0  0  0
   23.8440  -19.7700  -19.3540 C   0  0  0  0  0
   24.4680  -18.0720  -20.9530 O   0  0  0  0  0
   22.5710  -19.0340  -19.1560 N   0  3  0  0  0
   23.5480  -21.2880  -19.4210 C   0  0  0  0  0
   33.4890  -19.0560  -23.3010 N   0  0  0  0  0
   33.5390  -20.4000  -23.3940 N   0  0  0  0  0
   32.2470  -20.8870  -23.5330 C   0  0  0  0  0
   31.4230  -19.7980  -23.5150 O   0  0  0  0  0
   31.8030  -22.2160  -23.6810 C   0  0  0  0  0
   32.5440  -23.1060  -24.5320 C   0  0  0  0  0
   32.1410  -24.4670  -24.7480 C   0  0  0  0  0
   30.9860  -24.9940  -24.1330 C   0  0  0  0  0
   30.2180  -24.1470  -23.2750 C   0  0  0  0  0
   30.6010  -22.7780  -23.0420 C   0  0  0  0  0
   29.6550  -22.2430  -22.1720 C   0  0  0  0  0
   28.7450  -23.2600  -21.9030 C   0  0  0  0  0
   29.0680  -24.4520  -22.5770 N   0  0  0  0  0
   33.0874  -16.3086  -24.6027 H   0  0  0  0  0
   30.7371  -17.2215  -20.1392 H   0  0  0  0  0
   29.2120  -18.5476  -18.6802 H   0  0  0  0  0
   27.2356  -19.7105  -19.6479 H   0  0  0  0  0
   28.2799  -18.2045  -23.5904 H   0  0  0  0  0
   26.7453  -20.7160  -22.7024 H   0  0  0  0  0
   25.9069  -19.0781  -22.9784 H   0  0  0  0  0
   25.0877  -21.1685  -21.2147 H   0  0  0  0  0
   24.5171  -19.5901  -18.5157 H   0  0  0  0  0
   22.1116  -19.3730  -18.3108 H   0  0  0  0  0
   22.7670  -18.0375  -19.0615 H   0  0  0  0  0
   21.9624  -19.1873  -19.9600 H   0  0  0  0  0
   22.9012  -21.4934  -20.2739 H   0  0  0  0  0
   24.4842  -21.8348  -19.5333 H   0  0  0  0  0
   23.0509  -21.6008  -18.5028 H   0  0  0  0  0
   33.4406  -22.7360  -25.0293 H   0  0  0  0  0
   32.7386  -25.1049  -25.3993 H   0  0  0  0  0
   30.6851  -26.0268  -24.3086 H   0  0  0  0  0
   29.6319  -21.2267  -21.7788 H   0  0  0  0  0
   27.8822  -23.1467  -21.2466 H   0  0  0  0  0
  1  2  4  0  0  0
  1  5  4  0  0  0
  1  6  1  0  0  0
  2  3  4  0  0  0
  2 12  1  0  0  0
  3  4  4  0  0  0
  4  5  4  0  0  0
  4 15  1  0  0  0
  6  7  4  0  0  0
  6 11  4  0  0  0
  7  8  4  0  0  0
  8  9  4  0  0  0
  9 10  4  0  0  0
 10 11  4  0  0  0
 10 13  1  0  0  0
 12 24  4  0  0  0
 12 27  4  0  0  0
 13 14  1  0  0  0
 14 19  1  0  0  0
 15 16  1  0  0  0
 15 17  1  0  0  0
 15 18  1  0  0  0
 19 20  1  0  0  0
 19 21  2  0  0  0
 20 22  1  0  0  0
 20 23  1  0  0  0
 24 25  4  0  0  0
 25 26  4  0  0  0
 26 27  4  0  0  0
 26 28  1  0  0  0
 28 29  4  0  0  0
 28 33  4  0  0  0
 29 30  4  0  0  0
 30 31  4  0  0  0
 31 32  4  0  0  0
 32 33  4  0  0  0
 32 36  4  0  0  0
 33 34  4  0  0  0
 34 35  4  0  0  0
 35 36  4  0  0  0
  3 37  1  0  0  0
  7 38  1  0  0  0
  8 39  1  0  0  0
  9 40  1  0  0  0
 11 41  1  0  0  0
 13 42  1  0  0  0
 13 43  1  0  0  0
 14 44  1  0  0  0
 20 45  1  0  0  0
 22 46  1  0  0  0
 22 47  1  0  0  0
 22 48  1  0  0  0
 23 49  1  0  0  0
 23 50  1  0  0  0
 23 51  1  0  0  0
 29 52  1  0  0  0
 30 53  1  0  0  0
 31 54  1  0  0  0
 34 55  1  0  0  0
 35 56  1  0  0  0
M  END
$$$$
