4z7q_ligand
  -I-interpret- 

 51 50  0  0  0  0  0  0  0  0999 V2000
   51.1010  107.0930   74.8380 N   0  3  0  0  0
   51.9170  108.2710   75.1030 C   0  0  0  0  0
   52.0770  109.1140   73.8390 C   0  0  0  0  0
   51.3740  110.1080   73.6540 O   0  0  0  0  0
   53.2790  107.8600   75.6490 C   0  0  0  0  0
   53.0030  108.7110   72.9730 N   0  0  0  0  0
   53.2370  109.4100   71.7230 C   0  0  0  0  0
   54.2470  110.5350   71.8530 C   0  0  0  0  0
   55.1900  110.4500   72.6390 O   0  0  0  0  0
   54.0440  111.5930   71.0750 N   0  0  0  0  0
   54.9690  112.7200   71.0490 C   0  0  0  0  0
   54.8010  113.6050   72.2800 C   0  0  0  0  0
   54.1710  114.6600   72.2150 O   0  0  0  0  0
   54.7570  113.5430   69.7780 C   0  0  0  0  0
   55.6850  114.7320   69.6940 C   0  0  0  0  0
   56.7990  114.6570   70.2530 O   0  0  0  0  0
   55.2980  115.7430   69.0690 O   0  0  0  0  0
   55.3760  113.1720   73.3990 N   0  0  0  0  0
   55.2430  113.8880   74.6650 C   0  0  0  0  0
   56.5030  113.7530   75.5110 C   0  0  0  0  0
   56.8100  114.6220   76.3290 O   0  0  0  0  0
   54.0360  113.3750   75.4770 C   0  0  0  0  0
   52.7270  113.7470   74.7890 C   0  0  0  0  0
   54.1290  111.8670   75.6850 C   0  0  0  0  0
   57.2420  112.7750   75.3970 N   0  0  0  0  0
   50.1939  107.3842   74.4736 H   0  0  0  0  0
   51.5709  106.5028   74.1516 H   0  0  0  0  0
   50.9690  106.5705   75.7040 H   0  0  0  0  0
   51.4111  108.8780   75.8538 H   0  0  0  0  0
   53.8085  107.2742   74.8976 H   0  0  0  0  0
   53.8569  108.7523   75.8895 H   0  0  0  0  0
   53.1424  107.2605   76.5490 H   0  0  0  0  0
   53.5639  107.8881   73.1937 H   0  0  0  0  0
   52.2908  109.8482   71.4054 H   0  0  0  0  0
   53.6334  108.6887   71.0083 H   0  0  0  0  0
   53.2169  111.6175   70.4785 H   0  0  0  0  0
   55.9840  112.3228   71.0564 H   0  0  0  0  0
   53.7331  113.9168   69.7874 H   0  0  0  0  0
   54.9601  112.8980   68.9231 H   0  0  0  0  0
   54.4170  115.5854   68.7218 H   0  0  0  0  0
   55.9265  112.3138   73.3719 H   0  0  0  0  0
   55.0869  114.9380   74.4175 H   0  0  0  0  0
   54.0534  113.8546   76.4557 H   0  0  0  0  0
   52.6590  114.8314   74.7022 H   0  0  0  0  0
   52.7002  113.2993   73.7955 H   0  0  0  0  0
   51.8894  113.3752   75.3792 H   0  0  0  0  0
   54.1407  111.3679   74.7160 H   0  0  0  0  0
   55.0450  111.6321   76.2272 H   0  0  0  0  0
   53.2676  111.5270   76.2599 H   0  0  0  0  0
   58.0818  112.7007   75.9711 H   0  0  0  0  0
   57.0145  112.0390   74.7284 H   0  0  0  0  0
  1  2  1  0  0  0
  2  3  1  0  0  0
  2  5  1  0  0  0
  3  4  2  0  0  0
  3  6  1  0  0  0
  6  7  1  0  0  0
  7  8  1  0  0  0
  8  9  2  0  0  0
  8 10  1  0  0  0
 10 11  1  0  0  0
 11 12  1  0  0  0
 11 14  1  0  0  0
 12 13  2  0  0  0
 12 18  1  0  0  0
 14 15  1  0  0  0
 15 16  2  0  0  0
 15 17  1  0  0  0
 18 19  1  0  0  0
 19 20  1  0  0  0
 19 22  1  0  0  0
 20 21  2  0  0  0
 20 25  1  0  0  0
 22 23  1  0  0  0
 22 24  1  0  0  0
  1 26  1  0  0  0
  1 27  1  0  0  0
  1 28  1  0  0  0
  2 29  1  0  0  0
  5 30  1  0  0  0
  5 31  1  0  0  0
  5 32  1  0  0  0
  6 33  1  0  0  0
  7 34  1  0  0  0
  7 35  1  0  0  0
 10 36  1  0  0  0
 11 37  1  0  0  0
 14 38  1  0  0  0
 14 39  1  0  0  0
 17 40  1  0  0  0
 18 41  1  0  0  0
 19 42  1  0  0  0
 22 43  1  0  0  0
 23 44  1  0  0  0
 23 45  1  0  0  0
 23 46  1  0  0  0
 24 47  1  0  0  0
 24 48  1  0  0  0
 24 49  1  0  0  0
 25 50  1  0  0  0
 25 51  1  0  0  0
M  END
$$$$
