4hxw_ligand
  -I-interpret- 

 48 52  0  0  0  0  0  0  0  0999 V2000
  -10.2520   -2.0580  -11.6330 Cl  0  0  0  0  0
  -11.4390   -3.2190  -12.3830 C   0  0  0  0  0
  -12.8360   -3.2850  -11.9440 C   0  0  0  0  0
  -13.5160   -2.3860  -10.9470 C   0  0  0  0  0
  -14.5220   -3.1800  -10.1330 C   0  0  0  0  0
  -13.3700   -4.3050  -12.6490 N   0  0  0  0  0
  -11.1370   -4.2570  -13.3710 C   0  0  0  0  0
  -10.0280   -4.8160  -14.2030 C   0  0  0  0  0
   -8.7430   -4.2900  -14.3300 N   0  0  0  0  0
   -8.4080   -2.9320  -13.9180 C   0  0  0  0  0
   -7.4600   -2.5140  -15.0450 C   0  0  0  0  0
   -8.2050   -1.8840  -16.1230 N   0  3  0  0  0
   -6.8560   -3.8070  -15.5810 C   0  0  0  0  0
   -7.7370   -4.9760  -15.1360 C   0  0  0  0  0
  -10.3350   -5.8590  -14.9960 N   0  0  0  0  0
  -11.5680   -6.4050  -15.0230 C   0  0  0  0  0
  -12.6020   -5.9440  -14.3050 N   0  0  0  0  0
  -12.4680   -4.9010  -13.4590 C   0  0  0  0  0
  -11.8630   -7.7780  -15.9510 S   0  0  0  0  0
  -10.6030   -8.1070  -17.0530 C   0  0  0  0  0
   -9.9860   -7.0450  -17.7180 C   0  0  0  0  0
   -9.0010   -7.2200  -18.6120 N   0  0  0  0  0
   -8.5770   -8.4700  -18.9000 C   0  0  0  0  0
   -7.5850   -8.6720  -19.8070 N   0  0  0  0  0
   -7.1730   -9.9130  -20.0790 C   0  0  0  0  0
   -7.7580  -11.0140  -19.4530 C   0  0  0  0  0
   -8.7450  -10.8690  -18.5510 N   0  0  0  0  0
   -9.1980   -9.6380  -18.2290 C   0  0  0  0  0
  -10.2230   -9.4300  -17.3010 C   0  0  0  0  0
  -14.0348   -1.5885  -11.4789 H   0  0  0  0  0
  -12.7675   -1.9623  -10.2774 H   0  0  0  0  0
  -15.2706   -3.6077  -10.8000 H   0  0  0  0  0
  -14.0069   -3.9805   -9.6020 H   0  0  0  0  0
  -15.0082   -2.5199   -9.4147 H   0  0  0  0  0
   -7.9676   -2.8677  -12.9230 H   0  0  0  0  0
   -9.2729   -2.2788  -13.8026 H   0  0  0  0  0
   -6.7097   -1.8122  -14.6809 H   0  0  0  0  0
   -7.5611   -1.6113  -16.8656 H   0  0  0  0  0
   -8.8909   -2.5431  -16.4912 H   0  0  0  0  0
   -8.6838   -1.0572  -15.7659 H   0  0  0  0  0
   -5.8454   -3.9342  -15.1930 H   0  0  0  0  0
   -6.8071   -3.7714  -16.6693 H   0  0  0  0  0
   -8.1560   -5.5473  -15.9643 H   0  0  0  0  0
   -7.1947   -5.7496  -14.5923 H   0  0  0  0  0
  -10.3192   -6.0300  -17.5013 H   0  0  0  0  0
   -6.3695  -10.0675  -20.7992 H   0  0  0  0  0
   -7.4068  -12.0156  -19.7009 H   0  0  0  0  0
  -10.7058  -10.2642  -16.7920 H   0  0  0  0  0
  1  2  1  0  0  0
  2  3  4  0  0  0
  2  7  4  0  0  0
  3  4  1  0  0  0
  3  6  4  0  0  0
  4  5  1  0  0  0
  6 18  4  0  0  0
  7  8  4  0  0  0
  7 18  4  0  0  0
  8  9  1  0  0  0
  8 15  4  0  0  0
  9 10  1  0  0  0
  9 14  1  0  0  0
 10 11  1  0  0  0
 11 12  1  0  0  0
 11 13  1  0  0  0
 13 14  1  0  0  0
 15 16  4  0  0  0
 16 17  4  0  0  0
 16 19  1  0  0  0
 17 18  4  0  0  0
 19 20  1  0  0  0
 20 21  4  0  0  0
 20 29  4  0  0  0
 21 22  4  0  0  0
 22 23  4  0  0  0
 23 24  4  0  0  0
 23 28  4  0  0  0
 24 25  4  0  0  0
 25 26  4  0  0  0
 26 27  4  0  0  0
 27 28  4  0  0  0
 28 29  4  0  0  0
  4 30  1  0  0  0
  4 31  1  0  0  0
  5 32  1  0  0  0
  5 33  1  0  0  0
  5 34  1  0  0  0
 10 35  1  0  0  0
 10 36  1  0  0  0
 11 37  1  0  0  0
 12 38  1  0  0  0
 12 39  1  0  0  0
 12 40  1  0  0  0
 13 41  1  0  0  0
 13 42  1  0  0  0
 14 43  1  0  0  0
 14 44  1  0  0  0
 21 45  1  0  0  0
 25 46  1  0  0  0
 26 47  1  0  0  0
 29 48  1  0  0  0
M  END
$$$$
