6op0_ligand
  -I-interpret- 

 57 61  0  0  0  0  0  0  0  0999 V2000
  -10.9990    1.8150   16.0150 O   0  0  0  0  0
  -10.8090    0.9430   17.0870 C   0  0  0  0  0
  -10.1230   -0.2860   16.5690 C   0  0  0  0  0
   -8.9510   -0.7490   17.1430 C   0  0  0  0  0
   -8.3810   -1.9460   16.6980 C   0  0  0  0  0
   -8.9760   -2.6780   15.7180 N   0  0  0  0  0
  -10.1310   -2.2700   15.1620 C   0  0  0  0  0
  -10.7260   -1.0670   15.5800 C   0  0  0  0  0
  -12.1200    0.4820   17.5720 C   0  0  0  0  0
  -13.2080    0.4230   16.7990 N   0  0  0  0  0
  -14.1940   -0.1530   17.5320 C   0  0  0  0  0
  -13.6820   -0.4770   18.7930 C   0  0  0  0  0
  -12.4050   -0.1110   18.7960 N   0  0  0  0  0
  -11.4940   -0.2290   19.9570 C   0  0  0  0  0
  -11.1950   -1.6720   20.3470 C   0  0  0  0  0
  -11.1020   -1.9710   21.6790 C   0  0  0  0  0
  -11.3530   -0.9040   22.7150 C   0  0  0  0  0
  -10.8340   -3.2530   22.0740 C   0  0  0  0  0
  -10.6300   -4.2500   21.1390 C   0  0  0  0  0
  -10.9490   -2.6670   19.3920 C   0  0  0  0  0
  -10.6660   -3.9580   19.8040 C   0  0  0  0  0
  -10.3950   -5.0770   18.8120 C   0  0  0  0  0
  -14.5010   -1.0750   19.7550 C   0  0  0  0  0
  -15.8450   -1.3690   19.4430 C   0  0  0  0  0
  -16.3440   -1.0340   18.1950 C   0  0  0  0  0
  -15.5230   -0.4460   17.2380 C   0  0  0  0  0
  -16.6760   -2.0810   20.3340 C   0  0  0  0  0
  -16.3060   -3.1270   21.1830 C   0  0  0  0  0
  -17.4010   -3.4940   21.8500 N   0  0  0  0  0
  -17.6650   -4.5280   22.8790 C   0  0  0  0  0
  -18.5060   -2.7250   21.4960 N   0  0  0  0  0
  -18.0570   -1.8520   20.5410 C   0  0  0  0  0
  -10.1460    2.1182   15.6955 H   0  0  0  0  0
  -10.2417    1.4486   17.8684 H   0  0  0  0  0
   -8.4731   -0.1809   17.9411 H   0  0  0  0  0
   -7.4491   -2.2965   17.1416 H   0  0  0  0  0
  -10.6055   -2.8723   14.3873 H   0  0  0  0  0
  -11.6637   -0.7415   15.1297 H   0  0  0  0  0
  -11.9820    0.2470   20.8075 H   0  0  0  0  0
  -10.5491    0.2399   19.6824 H   0  0  0  0  0
  -10.6395   -0.0914   22.5781 H   0  0  0  0  0
  -12.3674   -0.5214   22.6022 H   0  0  0  0  0
  -11.2329   -1.3308   23.7108 H   0  0  0  0  0
  -10.7808   -3.4904   23.1365 H   0  0  0  0  0
  -10.4399   -5.2720   21.4669 H   0  0  0  0  0
  -10.9803   -2.4258   18.3295 H   0  0  0  0  0
   -9.3967   -5.4793   18.9839 H   0  0  0  0  0
  -11.1344   -5.8666   18.9460 H   0  0  0  0  0
  -10.4603   -4.6848   17.7971 H   0  0  0  0  0
  -14.1031   -1.3130   20.7415 H   0  0  0  0  0
  -17.3897   -1.2329   17.9605 H   0  0  0  0  0
  -15.9230   -0.2131   16.2512 H   0  0  0  0  0
  -15.3110   -3.5609   21.2816 H   0  0  0  0  0
  -17.4290   -5.5116   22.4728 H   0  0  0  0  0
  -17.0431   -4.3358   23.7533 H   0  0  0  0  0
  -18.7163   -4.4942   23.1648 H   0  0  0  0  0
  -18.6622   -1.1056   20.0264 H   0  0  0  0  0
  1  2  1  0  0  0
  2  3  1  0  0  0
  2  9  1  0  0  0
  3  4  4  0  0  0
  3  8  4  0  0  0
  4  5  4  0  0  0
  5  6  4  0  0  0
  6  7  4  0  0  0
  7  8  4  0  0  0
  9 10  4  0  0  0
  9 13  4  0  0  0
 10 11  4  0  0  0
 11 12  4  0  0  0
 11 26  4  0  0  0
 12 13  4  0  0  0
 12 23  4  0  0  0
 13 14  1  0  0  0
 14 15  1  0  0  0
 15 16  4  0  0  0
 15 20  4  0  0  0
 16 17  1  0  0  0
 16 18  4  0  0  0
 18 19  4  0  0  0
 19 21  4  0  0  0
 20 21  4  0  0  0
 21 22  1  0  0  0
 23 24  4  0  0  0
 24 25  4  0  0  0
 24 27  1  0  0  0
 25 26  4  0  0  0
 27 28  4  0  0  0
 27 32  4  0  0  0
 28 29  4  0  0  0
 29 30  1  0  0  0
 29 31  4  0  0  0
 31 32  4  0  0  0
  1 33  1  0  0  0
  2 34  1  0  0  0
  4 35  1  0  0  0
  5 36  1  0  0  0
  7 37  1  0  0  0
  8 38  1  0  0  0
 14 39  1  0  0  0
 14 40  1  0  0  0
 17 41  1  0  0  0
 17 42  1  0  0  0
 17 43  1  0  0  0
 18 44  1  0  0  0
 19 45  1  0  0  0
 20 46  1  0  0  0
 22 47  1  0  0  0
 22 48  1  0  0  0
 22 49  1  0  0  0
 23 50  1  0  0  0
 25 51  1  0  0  0
 26 52  1  0  0  0
 28 53  1  0  0  0
 30 54  1  0  0  0
 30 55  1  0  0  0
 30 56  1  0  0  0
 32 57  1  0  0  0
M  END
$$$$
