### 
### Created by X-TOOL on Mon Sep 10 21:13:26 2018
### 

@<TRIPOS>MOLECULE
5eec_ligand
   34    35     1     0     0
SMALL
GAST_HUCK


@<TRIPOS>ATOM
      1 B1         -0.6310   -0.8030   22.0630 B         1 ZXM         3.0000
      2 O1          0.8280   -1.2180   22.2910 O.3       1 ZXM        -0.4105
      3 O2         -0.6770    0.6310   21.5430 O.3       1 ZXM        -0.4105
      4 N4         -3.6270   -0.1900   22.2430 N.pl3     1 ZXM        -0.1650
      5 N5         -4.2360    0.9300   22.8030 N.2       1 ZXM        -0.0910
      6 N6         -4.6240    1.7360   21.8530 N.2       1 ZXM        -0.2131
      7 C7         -1.5850   -1.1250   23.3270 C.3       1 ZXM         0.0619
      8 C8         -3.0960   -1.2570   23.0820 C.3       1 ZXM         0.0998
      9 N10        -1.3750   -0.0560   24.3020 N.am      1 ZXM        -0.2822
     10 C11        -1.5600   -0.3420   25.6110 C.2       1 ZXM         0.1896
     11 C12        -1.2360    0.7940   26.5430 C.3       1 ZXM         0.0817
     12 C13        -2.4140    1.7170   26.6650 C.2       1 ZXM         0.0307
     13 C14        -2.9120    2.7760   25.9070 C.2       1 ZXM        -0.0791
     14 C15        -4.0870    3.3180   26.4640 C.2       1 ZXM        -0.0924
     15 C16        -4.4830    2.6900   27.6380 C.2       1 ZXM        -0.0189
     16 O18        -1.9680   -1.4370   26.0450 O.2       1 ZXM        -0.3937
     17 C19        -4.2680    1.2000   20.6730 C.2       1 ZXM         0.0942
     18 C20        -3.6410   -0.0100   20.9290 C.2       1 ZXM         0.0912
     19 C21        -4.4670    1.7180   19.3090 C.2       1 ZXM         0.0602
     20 O22        -4.0890    0.9740   18.3740 O.co2     1 ZXM        -0.5671
     21 O23        -4.9980    2.8450   19.1540 O.co2     1 ZXM        -0.5671
     22 S24        -3.4090    1.3920   28.0500 S.3       1 ZXM        -0.0419
     23 H1          0.8552   -2.1108   22.6147 H         1 ZXM         0.2052
     24 H3         -0.2783    1.2110   22.1811 H         1 ZXM         0.2052
     25 H4         -1.1868   -2.0720   23.7203 H         1 ZXM         0.0000
     26 H7         -3.2892   -2.2211   22.5889 H         1 ZXM         0.0676
     27 H8         -3.6130   -1.2314   24.0526 H         1 ZXM         0.0676
     28 H9         -1.1023    0.8606   24.0094 H         1 ZXM         0.1853
     29 H10        -0.3753    1.3537   26.1481 H         1 ZXM         0.0685
     30 H11        -0.9867    0.3900   27.5353 H         1 ZXM         0.0685
     31 H12        -2.4474    3.1411   24.9922 H         1 ZXM         0.0284
     32 H13        -4.6318    4.1485   26.0176 H         1 ZXM         0.0373
     33 H14        -5.3552    2.9758   28.2241 H         1 ZXM         0.0603
     34 H15        -3.2328   -0.6912   20.1839 H         1 ZXM         0.1089
@<TRIPOS>BOND
     1    1    2 1  
     2    1    3 1  
     3    7    1 1  
     4    4    5 1  
     5    8    4 1  
     6    4   18 1  
     7    5    6 2  
     8    6   17 1  
     9    7    8 1  
    10    7    9 1  
    11    9   10 am 
    12   10   11 1  
    13   10   16 2  
    14   11   12 1  
    15   12   13 2  
    16   12   22 1  
    17   13   14 1  
    18   14   15 2  
    19   15   22 1  
    20   17   18 2  
    21   17   19 1  
    22   19   20 ar 
    23   19   21 ar 
    24    2   23 1  
    25    3   24 1  
    26    7   25 1  
    27    8   26 1  
    28    8   27 1  
    29    9   28 1  
    30   11   29 1  
    31   11   30 1  
    32   13   31 1  
    33   14   32 1  
    34   15   33 1  
    35   18   34 1  
@<TRIPOS>SUBSTRUCTURE
     1 ZXM         1

