5jy0_ligand
  -I-interpret- 

 52 51  0  0  0  0  0  0  0  0999 V2000
   13.3510    4.1640   11.9480 N   0  3  0  0  0
   14.6560    3.6430   12.3110 C   0  0  0  0  0
   14.7470    3.4820   13.8000 C   0  0  0  0  0
   14.3870    4.3740   14.5330 O   0  0  0  0  0
   15.7570    4.5500   11.7980 C   0  0  0  0  0
   15.9070    4.5130   10.2890 C   0  0  0  0  0
   17.0280    5.4120    9.8870 C   0  0  0  0  0
   16.1780    3.1090    9.8480 C   0  0  0  0  0
   15.2210    2.3230   14.2350 N   0  0  0  0  0
   15.3780    2.0320   15.6470 C   0  0  0  0  0
   16.7670    2.3800   16.1370 C   0  0  0  0  0
   17.3440    1.6670   16.9430 O   0  0  0  0  0
   15.0920    0.5780   15.9320 C   0  0  0  0  0
   13.7050    0.3610   16.4200 C   0  0  0  0  0
   13.0580    1.3370   16.8420 O   0  0  0  0  0
   13.2790   -0.8040   16.4020 O   0  0  0  0  0
   17.2740    3.4780   15.5930 N   0  0  0  0  0
   18.3800    4.2600   16.1240 C   0  0  0  0  0
   18.6480    4.0660   17.6170 C   0  0  0  0  0
   19.7860    4.2010   18.0840 O   0  0  0  0  0
   18.1310    5.7600   15.8980 C   0  0  0  0  0
   17.0100    6.2580   16.8090 C   0  0  0  0  0
   19.4090    6.5310   16.1220 C   0  0  0  0  0
   17.7340    3.7690   18.3960 O   0  0  0  0  0
   12.6264    3.5396   12.3023 H   0  0  0  0  0
   13.2312    5.0915   12.3552 H   0  0  0  0  0
   13.2814    4.2257   10.9323 H   0  0  0  0  0
   14.7851    2.6654   11.8465 H   0  0  0  0  0
   16.6964    4.2072   12.2318 H   0  0  0  0  0
   15.5015    5.5715   12.0796 H   0  0  0  0  0
   14.9879    4.8564    9.8141 H   0  0  0  0  0
   17.9526    5.0669   10.3497 H   0  0  0  0  0
   17.1346    5.3950    8.8024 H   0  0  0  0  0
   16.8128    6.4285   10.2163 H   0  0  0  0  0
   16.2816    3.0838    8.7632 H   0  0  0  0  0
   17.0996    2.7557   10.3105 H   0  0  0  0  0
   15.3495    2.4683   10.1501 H   0  0  0  0  0
   15.4843    1.6115   13.5532 H   0  0  0  0  0
   14.6580    2.6509   16.1824 H   0  0  0  0  0
   15.7799    0.2440   16.7088 H   0  0  0  0  0
   15.2147    0.0209   15.0032 H   0  0  0  0  0
   13.5889    2.1323   16.7570 H   0  0  0  0  0
   16.8504    3.8036   14.7241 H   0  0  0  0  0
   19.2526    3.8962   15.5815 H   0  0  0  0  0
   20.3953    4.4295   17.3782 H   0  0  0  0  0
   17.8132    5.9206   14.8678 H   0  0  0  0  0
   16.0943    5.7089   16.5897 H   0  0  0  0  0
   17.2910    6.0974   17.8498 H   0  0  0  0  0
   16.8478    7.3217   16.6351 H   0  0  0  0  0
   19.7530    6.3725   17.1441 H   0  0  0  0  0
   20.1694    6.1824   15.4232 H   0  0  0  0  0
   19.2243    7.5929   15.9600 H   0  0  0  0  0
  1  2  1  0  0  0
  2  3  1  0  0  0
  2  5  1  0  0  0
  3  4  2  0  0  0
  3  9  1  0  0  0
  5  6  1  0  0  0
  6  7  1  0  0  0
  6  8  1  0  0  0
  9 10  1  0  0  0
 10 11  1  0  0  0
 10 13  1  0  0  0
 11 12  2  0  0  0
 11 17  1  0  0  0
 13 14  1  0  0  0
 14 15  1  0  0  0
 14 16  2  0  0  0
 17 18  1  0  0  0
 18 19  1  0  0  0
 18 21  1  0  0  0
 19 20  1  0  0  0
 19 24  2  0  0  0
 21 22  1  0  0  0
 21 23  1  0  0  0
  1 25  1  0  0  0
  1 26  1  0  0  0
  1 27  1  0  0  0
  2 28  1  0  0  0
  5 29  1  0  0  0
  5 30  1  0  0  0
  6 31  1  0  0  0
  7 32  1  0  0  0
  7 33  1  0  0  0
  7 34  1  0  0  0
  8 35  1  0  0  0
  8 36  1  0  0  0
  8 37  1  0  0  0
  9 38  1  0  0  0
 10 39  1  0  0  0
 13 40  1  0  0  0
 13 41  1  0  0  0
 15 42  1  0  0  0
 17 43  1  0  0  0
 18 44  1  0  0  0
 20 45  1  0  0  0
 21 46  1  0  0  0
 22 47  1  0  0  0
 22 48  1  0  0  0
 22 49  1  0  0  0
 23 50  1  0  0  0
 23 51  1  0  0  0
 23 52  1  0  0  0
M  END
$$$$
