5mqv_ligand
  -I-interpret- 

 64 68  0  0  0  0  0  0  0  0999 V2000
   36.0220    3.5890   32.5680 C   0  0  0  0  0
   35.2820    3.8910   33.7210 O   0  0  0  0  0
   34.6300    5.1310   33.7060 C   0  0  0  0  0
   33.2490    5.2070   33.7800 C   0  0  0  0  0
   32.6170    6.4460   33.7680 C   0  0  0  0  0
   33.3560    7.6140   33.6850 C   0  0  0  0  0
   32.7510    8.8830   33.6560 O   0  0  0  0  0
   31.4550    9.0610   34.1610 C   0  0  0  0  0
   34.7370    7.5240   33.5980 C   0  0  0  0  0
   35.3720    6.2960   33.6240 C   0  0  0  0  0
   35.6150    8.7740   33.5180 C   0  0  0  0  0
   35.6610    9.7330   32.5260 C   0  0  0  0  0
   36.5920   10.6350   32.8890 N   0  0  0  0  0
   36.9470   11.8100   32.1150 C   0  0  0  0  0
   37.1430   10.2740   34.0630 C   0  0  0  0  0
   36.5350    9.1110   34.4660 C   0  0  0  0  0
   38.2340   10.9770   34.8850 C   0  0  0  0  0
   38.3610   12.1520   34.8350 O   0  0  0  0  0
   39.0810   10.1380   35.7340 N   0  0  0  0  0
   40.1430   10.6790   36.5870 C   0  0  0  0  0
   40.0240   11.9570   37.1250 C   0  0  0  0  0
   41.0430   12.4500   37.9400 C   0  0  0  0  0
   42.1230   11.6170   38.2040 C   0  0  0  0  0
   42.1750   10.3450   37.6430 C   0  0  0  0  0
   41.1850    9.9250   36.8650 N   0  0  0  0  0
   40.9090   13.8570   38.5390 C   0  0  0  0  0
   41.8750   14.7640   38.8930 C   0  0  0  0  0
   41.2680   15.8280   39.3720 N   0  0  0  0  0
   39.9480   15.6110   39.3330 C   0  0  0  0  0
   39.7410   14.3920   38.8160 N   0  0  0  0  0
   38.6510   16.7620   39.8760 S   0  0  0  0  0
   37.3570   16.8080   38.6020 C   0  0  0  0  0
   43.3940   14.6620   38.7820 C   0  0  0  0  0
   44.1680   14.9780   39.8850 C   0  0  0  0  0
   45.5510   14.9080   39.8060 C   0  0  0  0  0
   46.1580   14.5290   38.6200 C   0  0  0  0  0
   47.5200   14.4590   38.5460 F   0  0  0  0  0
   45.3850   14.2220   37.5140 C   0  0  0  0  0
   43.9990   14.2920   37.5920 C   0  0  0  0  0
   35.3579    3.5798   31.7037 H   0  0  0  0  0
   36.7951    4.3442   32.4258 H   0  0  0  0  0
   36.4859    2.6092   32.6818 H   0  0  0  0  0
   32.6566    4.2945   33.8477 H   0  0  0  0  0
   31.5297    6.4980   33.8245 H   0  0  0  0  0
   30.7609    8.4282   33.6080 H   0  0  0  0  0
   31.4367    8.7872   35.2159 H   0  0  0  0  0
   31.1636   10.1055   34.0503 H   0  0  0  0  0
   36.4599    6.2456   33.5798 H   0  0  0  0  0
   35.0568    9.7556   31.6190 H   0  0  0  0  0
   37.3132   11.5015   31.1358 H   0  0  0  0  0
   36.0676   12.4423   31.9927 H   0  0  0  0  0
   37.7259   12.3657   32.6371 H   0  0  0  0  0
   36.7493    8.5567   35.3797 H   0  0  0  0  0
   38.9250    9.1300   35.7319 H   0  0  0  0  0
   39.1450   12.5654   36.9120 H   0  0  0  0  0
   42.9302   11.9603   38.8511 H   0  0  0  0  0
   43.0269    9.6947   37.8419 H   0  0  0  0  0
   37.7880   17.1477   37.6602 H   0  0  0  0  0
   36.9403   15.8091   38.4729 H   0  0  0  0  0
   36.5689   17.4947   38.9110 H   0  0  0  0  0
   43.6904   15.2821   40.8164 H   0  0  0  0  0
   46.1599   15.1511   40.6768 H   0  0  0  0  0
   45.8635   13.9250   36.5808 H   0  0  0  0  0
   43.3899   14.0564   36.7193 H   0  0  0  0  0
  1  2  1  0  0  0
  2  3  1  0  0  0
  3  4  4  0  0  0
  3 10  4  0  0  0
  4  5  4  0  0  0
  5  6  4  0  0  0
  6  7  1  0  0  0
  6  9  4  0  0  0
  7  8  1  0  0  0
  9 10  4  0  0  0
  9 11  1  0  0  0
 11 12  4  0  0  0
 11 16  4  0  0  0
 12 13  4  0  0  0
 13 14  1  0  0  0
 13 15  4  0  0  0
 15 16  4  0  0  0
 15 17  1  0  0  0
 17 18  2  0  0  0
 17 19  1  0  0  0
 19 20  1  0  0  0
 20 21  4  0  0  0
 20 25  4  0  0  0
 21 22  4  0  0  0
 22 23  4  0  0  0
 22 26  1  0  0  0
 23 24  4  0  0  0
 24 25  4  0  0  0
 26 27  4  0  0  0
 26 30  4  0  0  0
 27 28  4  0  0  0
 27 33  1  0  0  0
 28 29  4  0  0  0
 29 30  4  0  0  0
 29 31  1  0  0  0
 31 32  1  0  0  0
 33 34  4  0  0  0
 33 39  4  0  0  0
 34 35  4  0  0  0
 35 36  4  0  0  0
 36 37  1  0  0  0
 36 38  4  0  0  0
 38 39  4  0  0  0
  1 40  1  0  0  0
  1 41  1  0  0  0
  1 42  1  0  0  0
  4 43  1  0  0  0
  5 44  1  0  0  0
  8 45  1  0  0  0
  8 46  1  0  0  0
  8 47  1  0  0  0
 10 48  1  0  0  0
 12 49  1  0  0  0
 14 50  1  0  0  0
 14 51  1  0  0  0
 14 52  1  0  0  0
 16 53  1  0  0  0
 19 54  1  0  0  0
 21 55  1  0  0  0
 23 56  1  0  0  0
 24 57  1  0  0  0
 32 58  1  0  0  0
 32 59  1  0  0  0
 32 60  1  0  0  0
 34 61  1  0  0  0
 35 62  1  0  0  0
 38 63  1  0  0  0
 39 64  1  0  0  0
M  END
$$$$
