### 
### Created by X-TOOL on Mon Sep 10 21:12:54 2018
### 

@<TRIPOS>MOLECULE
2fsa_ligand
  111   110     1     0     0
SMALL
GAST_HUCK


@<TRIPOS>ATOM
      1 N          30.1760    9.4900   63.9610 N.4       1 ALA         0.2377
      2 CA         30.5030    9.8690   62.5550 C.3       1 ALA         0.0621
      3 C          31.9200   10.4140   62.4600 C.2       1 ALA         0.2264
      4 O          32.3870   11.1140   63.3600 O.2       1 ALA        -0.3907
      5 CB         29.5130   10.9090   62.0570 C.3       1 ALA        -0.0040
      6 N          32.6040   10.0890   61.3680 N.am      1 ARG        -0.2610
      7 CA         33.9660   10.5550   61.1500 C.3       1 ARG         0.1312
      8 C          33.8990   11.9670   60.5760 C.2       1 ARG         0.2040
      9 O          33.0780   12.2490   59.7000 O.2       1 ARG        -0.3944
     10 CB         34.6930    9.6110   60.1900 C.3       1 ARG        -0.0092
     11 CG         34.8300    8.1900   60.7330 C.3       1 ARG        -0.0156
     12 CD         35.2910    7.2000   59.6630 C.3       1 ARG         0.0627
     13 NE         34.3420    7.1250   58.5550 N.pl3     1 ARG        -0.2723
     14 CZ         34.5310    7.6880   57.3640 C.cat     1 ARG         0.2882
     15 NH1        35.6430    8.3680   57.1150 N.pl3     1 ARG        -0.2849
     16 NH2        33.5940    7.5890   56.4280 N.pl3     1 ARG        -0.2849
     17 N          34.7590   12.8520   61.0700 N.am      1 THR        -0.2613
     18 CA         34.7570   14.2400   60.6190 C.3       1 THR         0.1565
     19 C          36.1450   14.8620   60.5450 C.2       1 THR         0.2065
     20 O          37.1150   14.3150   61.0640 O.2       1 THR        -0.3943
     21 CB         33.9280   15.1210   61.5740 C.3       1 THR         0.0924
     22 OG1        34.5290   15.0950   62.8770 O.3       1 THR        -0.3874
     23 CG2        32.4950   14.6200   61.6740 C.3       1 THR        -0.0346
     24 N          36.2220   16.0160   59.8890 N.am      1 MLY        -0.2637
     25 CA         37.4630   16.7730   59.7790 C.3       1 MLY         0.1310
     26 CB         37.9710   16.8240   58.3350 C.3       1 MLY        -0.0122
     27 CG         38.5430   15.5160   57.8140 C.3       1 MLY        -0.0440
     28 CD         39.2010   15.7200   56.4620 C.3       1 MLY        -0.0123
     29 CE         39.6880   14.4060   55.8740 C.3       1 MLY        -0.0324
     30 NZ         40.4120   14.6140   54.6140 N.4       1 MLY         0.2309
     31 CH1        40.9690   13.3550   54.1000 C.3       1 MLY        -0.0433
     32 CH2        39.6140   15.2740   53.5740 C.3       1 MLY        -0.0433
     33 C          37.1340   18.1830   60.2490 C.2       1 MLY         0.2039
     34 O          36.2090   18.8140   59.7300 O.2       1 MLY        -0.3944
     35 N          37.8760   18.6640   61.2440 N.am      1 GLN        -0.2636
     36 CA         37.6580   20.0040   61.7840 C.3       1 GLN         0.1330
     37 C          38.8920   20.8730   61.5990 C.2       1 GLN         0.2042
     38 O          39.9920   20.3670   61.3780 O.2       1 GLN        -0.3944
     39 CB         37.3340   19.9480   63.2790 C.3       1 GLN         0.0045
     40 CG         36.1580   19.0800   63.6530 C.3       1 GLN         0.0412
     41 CD         36.5190   17.6100   63.7660 C.2       1 GLN         0.1737
     42 OE1        36.8790   16.9660   62.7810 O.2       1 GLN        -0.3973
     43 NE2        36.4220   17.0710   64.9750 N.am      1 GLN        -0.3009
     44 N          38.7010   22.1830   61.7110 N.am      1 THR        -0.2602
     45 CA         39.7860   23.1430   61.5670 C.3       1 THR         0.1677
     46 C          40.8630   22.9270   62.6220 C.2       1 THR         0.2597
     47 O          40.6370   22.1090   63.5410 O.2       1 THR        -0.3679
     48 CB         39.2670   24.5870   61.6980 C.3       1 THR         0.0937
     49 OG1        40.3770   25.4930   61.7080 O.3       1 THR        -0.3873
     50 CG2        38.4700   24.7530   62.9850 C.3       1 THR        -0.0344
     51 O1         42.0141   23.5910   62.5676 O.3       1 THR        -0.2909
     52 H1         29.2346    9.1320   64.0022 H         1 ALA         0.2015
     53 H2         30.2531   10.3012   64.5543 H         1 ALA         0.2015
     54 H3         30.8193    8.7808   64.2761 H         1 ALA         0.2015
     55 H4         30.4267    8.9732   61.9212 H         1 ALA         0.1095
     56 H5         29.7598   11.1835   61.0208 H         1 ALA         0.0310
     57 H6         29.5675   11.8027   62.6960 H         1 ALA         0.0310
     58 H7         28.4952   10.4935   62.0937 H         1 ALA         0.0310
     59 H8         32.1717    9.5089   60.6776 H         1 ARG         0.1884
     60 H9         34.5054   10.5763   62.1084 H         1 ARG         0.0800
     61 H10        35.6998   10.0117   60.0010 H         1 ARG         0.0313
     62 H11        34.1307    9.5717   59.2454 H         1 ARG         0.0313
     63 H12        33.8531    7.8635   61.1191 H         1 ARG         0.0301
     64 H13        35.5651    8.1937   61.5512 H         1 ARG         0.0301
     65 H14        35.3886    6.2030   60.1174 H         1 ARG         0.0689
     66 H15        36.2681    7.5233   59.2748 H         1 ARG         0.0689
     67 H16        33.4680    6.6013   58.7056 H         1 ARG         0.2642
     68 H17        35.7854    8.8022   56.1919 H         1 ARG         0.2615
     69 H18        36.3638    8.4616   57.8448 H         1 ARG         0.2615
     70 H19        32.7298    7.0619   56.6182 H         1 ARG         0.2615
     71 H20        33.7316    8.0393   55.5119 H         1 ARG         0.2615
     72 H21        35.4190   12.5616   61.7629 H         1 THR         0.1884
     73 H22        34.3057   14.2680   59.6162 H         1 THR         0.0826
     74 H23        33.9213   16.1536   61.1950 H         1 THR         0.0639
     75 H24        35.4242   15.4074   62.8179 H         1 THR         0.2101
     76 H25        31.9279   15.2659   62.3604 H         1 THR         0.0257
     77 H26        32.4930   13.5883   62.0556 H         1 THR         0.0257
     78 H27        32.0280   14.6436   60.6784 H         1 THR         0.0257
     79 H28        35.3974   16.3784   59.4546 H         1 MLY         0.1883
     80 H29        38.2355   16.3240   60.4206 H         1 MLY         0.0800
     81 H30        38.7588   17.5894   58.2762 H         1 MLY         0.0312
     82 H31        37.1305   17.1123   57.6865 H         1 MLY         0.0312
     83 H32        37.7307   14.7812   57.7131 H         1 MLY         0.0269
     84 H33        39.2915   15.1397   58.5268 H         1 MLY         0.0269
     85 H34        40.0591   16.3978   56.5810 H         1 MLY         0.0317
     86 H35        38.4707   16.1704   55.7737 H         1 MLY         0.0317
     87 H36        38.8208   13.7564   55.6845 H         1 MLY         0.0814
     88 H37        40.3602   13.9191   56.5958 H         1 MLY         0.0814
     89 H38        41.1866   15.2244   54.8222 H         1 MLY         0.2028
     90 H39        41.5030   13.5480   53.1579 H         1 MLY         0.0777
     91 H40        40.1530   12.6399   53.9191 H         1 MLY         0.0777
     92 H41        41.6679   12.9348   54.8382 H         1 MLY         0.0777
     93 H42        39.2023   16.2144   53.9693 H         1 MLY         0.0777
     94 H43        38.7897   14.6125   53.2691 H         1 MLY         0.0777
     95 H44        40.2518   15.4899   52.7042 H         1 MLY         0.0777
     96 H45        38.6006   18.0941   61.6315 H         1 GLN         0.1883
     97 H46        36.8124   20.4622   61.2501 H         1 GLN         0.0801
     98 H47        37.1217   20.9723   63.6191 H         1 GLN         0.0337
     99 H48        38.2206   19.5635   63.8045 H         1 GLN         0.0337
    100 H49        35.3806   19.1919   62.8829 H         1 GLN         0.0504
    101 H50        35.7654   19.4202   64.6226 H         1 GLN         0.0504
    102 H51        36.6466   16.1062   65.1118 H         1 GLN         0.1814
    103 H52        36.1243   17.6297   65.7491 H         1 GLN         0.1814
    104 H53        37.7794   22.5216   61.9009 H         1 THR         0.1885
    105 H54        40.2329   23.0129   60.5703 H         1 THR         0.0843
    106 H55        38.6178   24.8156   60.8399 H         1 THR         0.0641
    107 H56        40.9334   25.3022   62.4540 H         1 THR         0.2101
    108 H57        38.1080   25.7890   63.0611 H         1 THR         0.0257
    109 H58        39.1141   24.5255   63.8471 H         1 THR         0.0257
    110 H59        37.6121   24.0646   62.9764 H         1 THR         0.0257
    111 H60        42.0124   24.1639   61.8097 H         1 THR         0.2540
@<TRIPOS>BOND
     1    2    1 1  
     2    2    5 1  
     3    3    2 1  
     4    3    4 2  
     5    7    6 1  
     6    7   10 1  
     7    8    7 1  
     8    8    9 2  
     9   10   11 1  
    10   11   12 1  
    11   12   13 1  
    12   13   14 ar 
    13   14   16 ar 
    14   14   15 ar 
    15    6    3 am 
    16   18   17 1  
    17   18   21 1  
    18   19   18 1  
    19   19   20 2  
    20   21   23 1  
    21   21   22 1  
    22   17    8 am 
    23   35   36 1  
    24   36   39 1  
    25   36   37 1  
    26   37   38 2  
    27   39   40 1  
    28   40   41 1  
    29   41   43 am 
    30   41   42 2  
    31   44   45 1  
    32   45   48 1  
    33   45   46 1  
    34   46   47 2  
    35   48   50 1  
    36   48   49 1  
    37   37   44 am 
    38   24   25 1  
    39   25   26 1  
    40   25   33 1  
    41   26   27 1  
    42   27   28 1  
    43   28   29 1  
    44   29   30 1  
    45   30   31 1  
    46   30   32 1  
    47   33   34 2  
    48   46   51 1  
    49   33   35 am 
    50   19   24 am 
    51    1   52 1  
    52    1   53 1  
    53    1   54 1  
    54    2   55 1  
    55    5   56 1  
    56    5   57 1  
    57    5   58 1  
    58    6   59 1  
    59    7   60 1  
    60   10   61 1  
    61   10   62 1  
    62   11   63 1  
    63   11   64 1  
    64   12   65 1  
    65   12   66 1  
    66   13   67 1  
    67   15   68 1  
    68   15   69 1  
    69   16   70 1  
    70   16   71 1  
    71   17   72 1  
    72   18   73 1  
    73   21   74 1  
    74   22   75 1  
    75   23   76 1  
    76   23   77 1  
    77   23   78 1  
    78   24   79 1  
    79   25   80 1  
    80   26   81 1  
    81   26   82 1  
    82   27   83 1  
    83   27   84 1  
    84   28   85 1  
    85   28   86 1  
    86   29   87 1  
    87   29   88 1  
    88   30   89 1  
    89   31   90 1  
    90   31   91 1  
    91   31   92 1  
    92   32   93 1  
    93   32   94 1  
    94   32   95 1  
    95   35   96 1  
    96   36   97 1  
    97   39   98 1  
    98   39   99 1  
    99   40  100 1  
   100   40  101 1  
   101   43  102 1  
   102   43  103 1  
   103   44  104 1  
   104   45  105 1  
   105   48  106 1  
   106   49  107 1  
   107   50  108 1  
   108   50  109 1  
   109   50  110 1  
   110   51  111 1  
@<TRIPOS>SUBSTRUCTURE
     1 ALA         1

