2fsa_ligand
  -I-interpret- 

110109  0  0  0  0  0  0  0  0999 V2000
   30.1760    9.4900   63.9610 N   0  3  0  0  0
   30.5030    9.8690   62.5550 C   0  0  0  0  0
   31.9200   10.4140   62.4600 C   0  0  0  0  0
   32.3870   11.1140   63.3600 O   0  0  0  0  0
   29.5130   10.9090   62.0570 C   0  0  0  0  0
   32.6040   10.0890   61.3680 N   0  0  0  0  0
   33.9660   10.5550   61.1500 C   0  0  0  0  0
   33.8990   11.9670   60.5760 C   0  0  0  0  0
   33.0780   12.2490   59.7000 O   0  0  0  0  0
   34.6930    9.6110   60.1900 C   0  0  0  0  0
   34.8300    8.1900   60.7330 C   0  0  0  0  0
   35.2910    7.2000   59.6630 C   0  0  0  0  0
   34.3420    7.1250   58.5550 N   0  0  0  0  0
   34.5310    7.6880   57.3640 C   0  0  0  0  0
   35.6430    8.3680   57.1150 N   0  0  0  0  0
   33.5940    7.5890   56.4280 N   0  0  0  0  0
   34.7590   12.8520   61.0700 N   0  0  0  0  0
   34.7570   14.2400   60.6190 C   0  0  0  0  0
   36.1450   14.8620   60.5450 C   0  0  0  0  0
   37.1150   14.3150   61.0640 O   0  0  0  0  0
   33.9280   15.1210   61.5740 C   0  0  0  0  0
   34.5290   15.0950   62.8770 O   0  0  0  0  0
   32.4950   14.6200   61.6740 C   0  0  0  0  0
   36.2220   16.0160   59.8890 N   0  0  0  0  0
   37.4630   16.7730   59.7790 C   0  0  0  0  0
   37.9710   16.8240   58.3350 C   0  0  0  0  0
   38.5430   15.5160   57.8140 C   0  0  0  0  0
   39.2010   15.7200   56.4620 C   0  0  0  0  0
   39.6880   14.4060   55.8740 C   0  0  0  0  0
   40.4120   14.6140   54.6140 N   0  3  0  0  0
   40.9690   13.3550   54.1000 C   0  0  0  0  0
   39.6140   15.2740   53.5740 C   0  0  0  0  0
   37.1340   18.1830   60.2490 C   0  0  0  0  0
   36.2090   18.8140   59.7300 O   0  0  0  0  0
   37.8760   18.6640   61.2440 N   0  0  0  0  0
   37.6580   20.0040   61.7840 C   0  0  0  0  0
   38.8920   20.8730   61.5990 C   0  0  0  0  0
   39.9920   20.3670   61.3780 O   0  0  0  0  0
   37.3340   19.9480   63.2790 C   0  0  0  0  0
   36.1580   19.0800   63.6530 C   0  0  0  0  0
   36.5190   17.6100   63.7660 C   0  0  0  0  0
   36.8790   16.9660   62.7810 O   0  0  0  0  0
   36.4220   17.0710   64.9750 N   0  0  0  0  0
   38.7010   22.1830   61.7110 N   0  0  0  0  0
   39.7860   23.1430   61.5670 C   0  0  0  0  0
   40.8630   22.9270   62.6220 C   0  0  0  0  0
   40.6370   22.1090   63.5410 O   0  0  0  0  0
   39.2670   24.5870   61.6980 C   0  0  0  0  0
   40.3770   25.4930   61.7080 O   0  0  0  0  0
   38.4700   24.7530   62.9850 C   0  0  0  0  0
   42.0141   23.5910   62.5676 O   0  0  0  0  0
   29.2233    9.1279   64.0014 H   0  0  0  0  0
   30.8276    8.7724   64.2787 H   0  0  0  0  0
   30.2544   10.3116   64.5603 H   0  0  0  0  0
   30.4341    8.9778   61.9313 H   0  0  0  0  0
   29.5943   11.8080   62.6679 H   0  0  0  0  0
   29.7358   11.1527   61.0182 H   0  0  0  0  0
   28.5014   10.5095   62.1289 H   0  0  0  0  0
   32.1631    9.4973   60.6638 H   0  0  0  0  0
   34.5202   10.5677   62.0885 H   0  0  0  0  0
   35.6978   10.0047   60.0370 H   0  0  0  0  0
   34.1083    9.5589   59.2716 H   0  0  0  0  0
   33.8514    7.8694   61.0903 H   0  0  0  0  0
   35.5777    8.2023   61.5260 H   0  0  0  0  0
   35.3680    6.2124   60.1179 H   0  0  0  0  0
   36.2508    7.5377   59.2720 H   0  0  0  0  0
   33.4765    6.6064   58.7041 H   0  0  0  0  0
   36.3568    8.4607   57.8377 H   0  0  0  0  0
   33.7302    8.0350   55.5208 H   0  0  0  0  0
   32.7382    7.0670   56.6163 H   0  0  0  0  0
   35.4322   12.5558   61.7767 H   0  0  0  0  0
   34.3299   14.2069   59.6167 H   0  0  0  0  0
   33.9117   16.1380   61.1822 H   0  0  0  0  0
   34.0160   15.6426   63.4758 H   0  0  0  0  0
   32.0334   14.6439   60.6869 H   0  0  0  0  0
   32.4944   13.5977   62.0522 H   0  0  0  0  0
   31.9341   15.2607   62.3544 H   0  0  0  0  0
   35.3809   16.3856   59.4459 H   0  0  0  0  0
   38.2467   16.3040   60.3740 H   0  0  0  0  0
   38.7790   17.5552   58.3095 H   0  0  0  0  0
   37.1143   17.0673   57.7066 H   0  0  0  0  0
   37.7328   14.7948   57.7066 H   0  0  0  0  0
   39.2908   15.1525   58.5189 H   0  0  0  0  0
   40.0597   16.3786   56.5924 H   0  0  0  0  0
   38.4657   16.1504   55.7822 H   0  0  0  0  0
   38.8214   13.7759   55.6736 H   0  0  0  0  0
   40.3663   13.9392   56.5882 H   0  0  0  0  0
   41.1748   15.2502   54.8460 H   0  0  0  0  0
   41.6613   12.9397   54.8324 H   0  0  0  0  0
   40.1595   12.6473   53.9212 H   0  0  0  0  0
   41.4979   13.5475   53.1666 H   0  0  0  0  0
   38.7387   14.6649   53.3481 H   0  0  0  0  0
   39.2946   16.2535   53.9298 H   0  0  0  0  0
   40.2181   15.3920   52.6744 H   0  0  0  0  0
   38.6151   18.0827   61.6392 H   0  0  0  0  0
   36.8171   20.4331   61.2391 H   0  0  0  0  0
   37.0800   20.9640   63.5811 H   0  0  0  0  0
   38.2069   19.5192   63.7712 H   0  0  0  0  0
   35.4089   19.1788   62.8674 H   0  0  0  0  0
   35.7983   19.4097   64.6277 H   0  0  0  0  0
   36.6501   16.0866   65.1143 H   0  0  0  0  0
   36.1194   17.6411   65.7648 H   0  0  0  0  0
   37.7610   22.5283   61.9047 H   0  0  0  0  0
   40.2105   22.9886   60.5750 H   0  0  0  0  0
   38.6169   24.8040   60.8504 H   0  0  0  0  0
   40.0532   26.3931   61.7897 H   0  0  0  0  0
   37.6203   24.0703   62.9753 H   0  0  0  0  0
   39.1093   24.5272   63.8385 H   0  0  0  0  0
   38.1119   25.7798   63.0592 H   0  0  0  0  0
   42.0124   24.1699   61.8018 H   0  0  0  0  0
  2  1  1  0  0  0
  2  5  1  0  0  0
  3  2  1  0  0  0
  3  4  2  0  0  0
  7  6  1  0  0  0
  7 10  1  0  0  0
  8  7  1  0  0  0
  8  9  2  0  0  0
 10 11  1  0  0  0
 11 12  1  0  0  0
 12 13  1  0  0  0
 13 14  1  0  0  0
 14 16  1  0  0  0
 14 15  2  0  0  0
  6  3  1  0  0  0
 18 17  1  0  0  0
 18 21  1  0  0  0
 19 18  1  0  0  0
 19 20  2  0  0  0
 21 23  1  0  0  0
 21 22  1  0  0  0
 17  8  1  0  0  0
 35 36  1  0  0  0
 36 39  1  0  0  0
 36 37  1  0  0  0
 37 38  2  0  0  0
 39 40  1  0  0  0
 40 41  1  0  0  0
 41 43  1  0  0  0
 41 42  2  0  0  0
 44 45  1  0  0  0
 45 48  1  0  0  0
 45 46  1  0  0  0
 46 47  2  0  0  0
 48 50  1  0  0  0
 48 49  1  0  0  0
 37 44  1  0  0  0
 24 25  1  0  0  0
 25 26  1  0  0  0
 25 33  1  0  0  0
 26 27  1  0  0  0
 27 28  1  0  0  0
 28 29  1  0  0  0
 29 30  1  0  0  0
 30 31  1  0  0  0
 30 32  1  0  0  0
 33 34  2  0  0  0
 46 51  1  0  0  0
 33 35  1  0  0  0
 19 24  1  0  0  0
  1 52  1  0  0  0
  1 53  1  0  0  0
  1 54  1  0  0  0
  2 55  1  0  0  0
  5 56  1  0  0  0
  5 57  1  0  0  0
  5 58  1  0  0  0
  6 59  1  0  0  0
  7 60  1  0  0  0
 10 61  1  0  0  0
 10 62  1  0  0  0
 11 63  1  0  0  0
 11 64  1  0  0  0
 12 65  1  0  0  0
 12 66  1  0  0  0
 13 67  1  0  0  0
 15 68  1  0  0  0
 16 69  1  0  0  0
 16 70  1  0  0  0
 17 71  1  0  0  0
 18 72  1  0  0  0
 21 73  1  0  0  0
 22 74  1  0  0  0
 23 75  1  0  0  0
 23 76  1  0  0  0
 23 77  1  0  0  0
 24 78  1  0  0  0
 25 79  1  0  0  0
 26 80  1  0  0  0
 26 81  1  0  0  0
 27 82  1  0  0  0
 27 83  1  0  0  0
 28 84  1  0  0  0
 28 85  1  0  0  0
 29 86  1  0  0  0
 29 87  1  0  0  0
 30 88  1  0  0  0
 31 89  1  0  0  0
 31 90  1  0  0  0
 31 91  1  0  0  0
 32 92  1  0  0  0
 32 93  1  0  0  0
 32 94  1  0  0  0
 35 95  1  0  0  0
 36 96  1  0  0  0
 39 97  1  0  0  0
 39 98  1  0  0  0
 40 99  1  0  0  0
 40100  1  0  0  0
 43101  1  0  0  0
 43102  1  0  0  0
 44103  1  0  0  0
 45104  1  0  0  0
 48105  1  0  0  0
 49106  1  0  0  0
 50107  1  0  0  0
 50108  1  0  0  0
 50109  1  0  0  0
 51110  1  0  0  0
M  END
$$$$
