3as2_ligand
  -I-interpret- 

 44 45  0  0  0  0  0  0  0  0999 V2000
   -1.6390    7.6160   18.5800 N   0  0  0  0  0
   -0.5910    6.7430   18.9880 C   0  0  0  0  0
   -0.6850    6.0480   20.1990 C   0  0  0  0  0
   -1.8250    6.2130   21.0330 C   0  0  0  0  0
   -2.9130    7.0960   20.6710 N   0  0  0  0  0
   -2.8080    7.8020   19.4080 C   0  0  0  0  0
    0.1420    5.1870   20.8120 N   0  0  0  0  0
   -0.4300    4.8140   21.9660 C   0  0  0  0  0
   -1.6170    5.4310   22.0990 N   0  0  0  0  0
   -1.5140    8.3210   17.2810 C   0  0  0  0  0
   -0.9280    9.7080   17.4940 C   0  0  0  0  0
   -1.3590   10.6150   16.3420 C   0  0  0  0  0
   -0.1720   10.8480   15.4400 C   0  0  0  0  0
   -0.5690   11.7580   14.3110 C   0  0  0  0  0
   -0.6090   11.2250   12.8740 C   0  0  0  0  0
   -0.7200   12.9350   14.5290 O   0  0  0  0  0
    0.4080    6.5840   18.2870 O   0  0  0  0  0
   -3.6940    8.5680   19.0120 O   0  0  0  0  0
   -4.1030    7.2530   21.5720 C   0  0  0  0  0
    1.4810    4.6910   20.3370 C   0  0  0  0  0
    2.6620    5.6310   20.7500 C   0  0  0  0  0
    3.5760    5.1730   21.9280 C   0  0  0  0  0
    0.0010    4.1178   22.6854 H   0  0  0  0  0
   -2.5011    8.4152   16.8285 H   0  0  0  0  0
   -0.8550    7.7507   16.6263 H   0  0  0  0  0
    0.1598    9.6458   17.5246 H   0  0  0  0  0
   -1.2884   10.1174   18.4377 H   0  0  0  0  0
   -1.7186   11.5663   16.7342 H   0  0  0  0  0
   -2.1643   10.1423   15.7797 H   0  0  0  0  0
    0.1683    9.8950   15.0350 H   0  0  0  0  0
    0.6330   11.3096   16.0119 H   0  0  0  0  0
   -1.5794   11.4497   12.4314 H   0  0  0  0  0
    0.1777   11.7015   12.2891 H   0  0  0  0  0
   -0.4536   10.1462   12.8835 H   0  0  0  0  0
   -4.1983    8.2979   21.8672 H   0  0  0  0  0
   -5.0025    6.9405   21.0416 H   0  0  0  0  0
   -3.9695    6.6342   22.4593 H   0  0  0  0  0
    1.4534    4.6509   19.2481 H   0  0  0  0  0
    1.6559    3.7171   20.7942 H   0  0  0  0  0
    2.1941    6.5561   21.0867 H   0  0  0  0  0
    3.3137    5.6807   19.8777 H   0  0  0  0  0
    2.9740    5.0563   22.8291 H   0  0  0  0  0
    4.0424    4.2208   21.6753 H   0  0  0  0  0
    4.3481    5.9230   22.0999 H   0  0  0  0  0
  1  2  1  0  0  0
  1  6  1  0  0  0
  1 10  1  0  0  0
  2  3  1  0  0  0
  2 17  2  0  0  0
  3  4  4  0  0  0
  3  7  4  0  0  0
  4  5  1  0  0  0
  4  9  4  0  0  0
  5  6  1  0  0  0
  5 19  1  0  0  0
  6 18  2  0  0  0
  7  8  4  0  0  0
  7 20  1  0  0  0
  8  9  4  0  0  0
 10 11  1  0  0  0
 11 12  1  0  0  0
 12 13  1  0  0  0
 13 14  1  0  0  0
 14 15  1  0  0  0
 14 16  2  0  0  0
 20 21  1  0  0  0
 21 22  1  0  0  0
  8 23  1  0  0  0
 10 24  1  0  0  0
 10 25  1  0  0  0
 11 26  1  0  0  0
 11 27  1  0  0  0
 12 28  1  0  0  0
 12 29  1  0  0  0
 13 30  1  0  0  0
 13 31  1  0  0  0
 15 32  1  0  0  0
 15 33  1  0  0  0
 15 34  1  0  0  0
 19 35  1  0  0  0
 19 36  1  0  0  0
 19 37  1  0  0  0
 20 38  1  0  0  0
 20 39  1  0  0  0
 21 40  1  0  0  0
 21 41  1  0  0  0
 22 42  1  0  0  0
 22 43  1  0  0  0
 22 44  1  0  0  0
M  END
$$$$
