6pg8_ligand
  -I-interpret- 

 31 32  0  0  0  0  0  0  0  0999 V2000
 -111.7530  -17.5020   25.3930 C   0  0  0  0  0
 -109.1250  -17.5210   26.3060 C   0  0  0  0  0
 -111.4510  -16.9480   26.6450 C   0  0  0  0  0
 -117.1470  -24.2080   22.1830 O   0  0  0  0  0
 -117.3960  -22.8940   22.5990 C   0  0  0  0  0
 -116.1570  -22.3020   23.2550 C   0  0  0  0  0
 -114.9240  -22.9040   23.3460 C   0  0  0  0  0
 -114.1630  -22.0600   23.9970 N   0  0  0  0  0
 -114.8410  -20.9670   24.3140 C   0  0  0  0  0
 -114.2460  -19.7810   25.0940 C   0  0  0  0  0
 -113.6900  -18.7040   24.1660 C   0  0  0  0  0
 -113.1920  -17.4650   24.9180 C   0  0  0  0  0
 -110.7350  -18.0520   24.6110 C   0  0  0  0  0
 -109.4230  -18.0620   25.0660 C   0  0  0  0  0
 -110.1430  -16.9700   27.0890 C   0  0  0  0  0
 -116.0910  -21.1130   23.8370 N   0  0  0  0  0
 -108.0978  -17.5251   26.6705 H   0  0  0  0  0
 -112.2363  -16.5066   27.2587 H   0  0  0  0  0
 -117.9366  -24.5673   21.7718 H   0  0  0  0  0
 -118.2124  -22.8987   23.3212 H   0  0  0  0  0
 -117.6608  -22.2907   21.7307 H   0  0  0  0  0
 -114.6390  -23.8814   22.9568 H   0  0  0  0  0
 -113.4277  -20.1551   25.7092 H   0  0  0  0  0
 -115.0400  -19.3360   25.6938 H   0  0  0  0  0
 -114.4956  -18.3886   23.5029 H   0  0  0  0  0
 -112.8416  -19.1316   23.6316 H   0  0  0  0  0
 -113.2584  -16.6353   24.2142 H   0  0  0  0  0
 -113.8062  -17.3868   25.8151 H   0  0  0  0  0
 -110.9722  -18.4769   23.6356 H   0  0  0  0  0
 -108.6326  -18.4928   24.4513 H   0  0  0  0  0
 -109.9011  -16.5509   28.0657 H   0  0  0  0  0
  1  3  4  0  0  0
 12  1  1  0  0  0
  1 13  4  0  0  0
  2 14  4  0  0  0
 15  2  4  0  0  0
  3 15  4  0  0  0
  5  4  1  0  0  0
  6  5  1  0  0  0
  6  7  4  0  0  0
 16  6  4  0  0  0
  8  7  4  0  0  0
  9  8  4  0  0  0
 10  9  1  0  0  0
  9 16  4  0  0  0
 11 10  1  0  0  0
 11 12  1  0  0  0
 13 14  4  0  0  0
  2 17  1  0  0  0
  3 18  1  0  0  0
  4 19  1  0  0  0
  5 20  1  0  0  0
  5 21  1  0  0  0
  7 22  1  0  0  0
 10 23  1  0  0  0
 10 24  1  0  0  0
 11 25  1  0  0  0
 11 26  1  0  0  0
 12 27  1  0  0  0
 12 28  1  0  0  0
 13 29  1  0  0  0
 14 30  1  0  0  0
 15 31  1  0  0  0
M  END
$$$$
