3ttm_ligand
  -I-interpret- 

 20 19  0  0  0  0  0  0  0  0999 V2000
   15.6880   18.6300   26.4910 N   0  3  0  0  0
   16.9920   18.0230   26.7330 C   0  0  0  0  0
   16.8270   16.5280   27.0680 C   0  0  0  0  0
   18.1350   15.7590   26.8250 C   0  0  0  0  0
   17.9610   14.2740   27.1460 C   0  0  0  0  0
   19.0530   13.5120   26.5570 N   0  3  0  0  0
   15.8100   19.6184   26.2705 H   0  0  0  0  0
   15.2352   18.1591   25.7077 H   0  0  0  0  0
   15.1101   18.5355   27.3262 H   0  0  0  0  0
   17.4705   18.5268   27.5728 H   0  0  0  0  0
   17.6047   18.1231   25.8371 H   0  0  0  0  0
   16.0521   16.1100   26.4254 H   0  0  0  0  0
   16.5574   16.4340   28.1199 H   0  0  0  0  0
   18.9093   16.1698   27.4729 H   0  0  0  0  0
   18.4126   15.8612   25.7759 H   0  0  0  0  0
   17.0141   13.9245   26.7346 H   0  0  0  0  0
   17.9664   14.1355   28.2272 H   0  0  0  0  0
   18.9317   12.5228   26.7743 H   0  0  0  0  0
   19.0498   13.6420   25.5453 H   0  0  0  0  0
   19.9398   13.8392   26.9402 H   0  0  0  0  0
  1  2  1  0  0  0
  2  3  1  0  0  0
  3  4  1  0  0  0
  4  5  1  0  0  0
  5  6  1  0  0  0
  1  7  1  0  0  0
  1  8  1  0  0  0
  1  9  1  0  0  0
  2 10  1  0  0  0
  2 11  1  0  0  0
  3 12  1  0  0  0
  3 13  1  0  0  0
  4 14  1  0  0  0
  4 15  1  0  0  0
  5 16  1  0  0  0
  5 17  1  0  0  0
  6 18  1  0  0  0
  6 19  1  0  0  0
  6 20  1  0  0  0
M  END
$$$$
