3i60_ligand
  -I-interpret- 

 53 56  0  0  0  0  0  0  0  0999 V2000
    7.0410   -0.6920   47.4130 C   0  0  0  0  0
    5.9310   -1.1330   46.4940 C   0  0  0  0  0
    4.6510   -0.6730   46.7690 C   0  0  0  0  0
    3.6330   -1.0390   45.9970 N   0  0  0  0  0
    3.8310   -1.8330   44.9620 C   0  0  0  0  0
    2.7540   -2.1640   44.1740 N   0  0  0  0  0
    2.8520   -2.9310   43.0000 C   0  0  0  0  0
    3.8770   -2.7500   42.0660 C   0  0  0  0  0
    3.9140   -3.5340   40.9260 C   0  0  0  0  0
    2.9260   -4.4890   40.6920 C   0  0  0  0  0
    1.8950   -4.6610   41.6030 C   0  0  0  0  0
    1.8620   -3.8810   42.7510 C   0  0  0  0  0
    0.5960   -4.0790   43.9120 Cl  0  0  0  0  0
    5.0320   -2.2850   44.6570 N   0  0  0  0  0
    6.1070   -1.9940   45.3900 C   0  0  0  0  0
    7.4120   -2.5310   44.9300 C   0  0  0  0  0
    7.6370   -3.0000   43.6490 C   0  0  0  0  0
    8.9330   -3.3750   43.5510 N   0  0  0  0  0
    9.5560   -3.1650   44.7570 C   0  0  0  0  0
    8.6420   -2.6200   45.6260 C   0  0  0  0  0
   10.9690   -3.4540   44.9920 C   0  0  0  0  0
   11.6000   -2.7650   45.7830 O   0  0  0  0  0
   11.5670   -4.4470   44.2960 N   0  0  0  0  0
   13.0060   -4.7450   44.4460 C   0  0  0  0  0
   13.5200   -5.1550   43.0600 C   0  0  0  0  0
   13.0100   -4.2790   42.0450 O   0  0  0  0  0
   13.3300   -5.8530   45.4230 C   0  0  0  0  0
   12.3250   -6.6200   45.9940 C   0  0  0  0  0
   12.6550   -7.6210   46.8900 C   0  0  0  0  0
   13.9840   -7.8650   47.2030 C   0  0  0  0  0
   14.9990   -7.1120   46.6320 C   0  0  0  0  0
   14.6620   -6.1010   45.7440 C   0  0  0  0  0
    7.1148    0.3954   47.3957 H   0  0  0  0  0
    6.8255   -1.0268   48.4277 H   0  0  0  0  0
    7.9827   -1.1268   47.0779 H   0  0  0  0  0
    4.4805   -0.0114   47.6183 H   0  0  0  0  0
    1.8313   -1.8342   44.4574 H   0  0  0  0  0
    4.6440   -1.9942   42.2352 H   0  0  0  0  0
    4.7218   -3.4037   40.2058 H   0  0  0  0  0
    2.9640   -5.1017   39.7913 H   0  0  0  0  0
    1.1172   -5.4022   41.4194 H   0  0  0  0  0
    6.8952   -3.0578   42.8524 H   0  0  0  0  0
    8.8282   -2.3142   46.6555 H   0  0  0  0  0
   11.0094   -5.0055   43.6498 H   0  0  0  0  0
   13.4820   -3.8507   44.8482 H   0  0  0  0  0
   13.1843   -6.1701   42.8479 H   0  0  0  0  0
   14.6084   -5.0969   43.0586 H   0  0  0  0  0
   13.3444   -4.5546   41.1884 H   0  0  0  0  0
   11.2817   -6.4351   45.7382 H   0  0  0  0  0
   11.8690   -8.2192   47.3509 H   0  0  0  0  0
   14.2339   -8.6589   47.9069 H   0  0  0  0  0
   16.0424   -7.3109   46.8765 H   0  0  0  0  0
   15.4476   -5.4948   45.2931 H   0  0  0  0  0
  1  2  1  0  0  0
  2  3  4  0  0  0
  2 15  4  0  0  0
  3  4  4  0  0  0
  4  5  4  0  0  0
  5  6  1  0  0  0
  5 14  4  0  0  0
  6  7  1  0  0  0
  7  8  4  0  0  0
  7 12  4  0  0  0
  8  9  4  0  0  0
  9 10  4  0  0  0
 10 11  4  0  0  0
 11 12  4  0  0  0
 12 13  1  0  0  0
 14 15  4  0  0  0
 15 16  1  0  0  0
 16 17  4  0  0  0
 16 20  4  0  0  0
 17 18  4  0  0  0
 18 19  4  0  0  0
 19 20  4  0  0  0
 19 21  1  0  0  0
 21 22  2  0  0  0
 21 23  1  0  0  0
 23 24  1  0  0  0
 24 25  1  0  0  0
 24 27  1  0  0  0
 25 26  1  0  0  0
 27 28  4  0  0  0
 27 32  4  0  0  0
 28 29  4  0  0  0
 29 30  4  0  0  0
 30 31  4  0  0  0
 31 32  4  0  0  0
  1 33  1  0  0  0
  1 34  1  0  0  0
  1 35  1  0  0  0
  3 36  1  0  0  0
  6 37  1  0  0  0
  8 38  1  0  0  0
  9 39  1  0  0  0
 10 40  1  0  0  0
 11 41  1  0  0  0
 17 42  1  0  0  0
 20 43  1  0  0  0
 23 44  1  0  0  0
 24 45  1  0  0  0
 25 46  1  0  0  0
 25 47  1  0  0  0
 26 48  1  0  0  0
 28 49  1  0  0  0
 29 50  1  0  0  0
 30 51  1  0  0  0
 31 52  1  0  0  0
 32 53  1  0  0  0
M  END
$$$$
