5uqx_ligand
  -I-interpret- 

 46 48  0  0  0  0  0  0  0  0999 V2000
   32.2440    3.6010   -0.3410 C   0  0  0  0  0
   30.7570    7.8170   -0.0510 C   0  0  0  0  0
   33.5110    3.5680    0.2620 C   0  0  0  0  0
   30.0690    8.4550    2.5640 C   0  0  0  0  0
   33.2070    5.6200    1.2660 C   0  0  0  0  0
   31.9160    5.7400    0.7010 C   0  0  0  0  0
   31.1290    6.9670    0.9910 C   0  0  0  0  0
   30.7860    7.2910    2.3100 C   0  0  0  0  0
   29.6870    9.2920    1.5150 C   0  0  0  0  0
   30.0280    8.9660    0.1880 C   0  0  0  0  0
   31.4160    4.7130   -0.1320 C   0  0  0  0  0
   30.1140    5.1100   -2.2760 C   0  0  0  0  0
   30.0420    4.7520   -0.7740 C   0  0  0  0  0
   33.9510    4.5540    1.0290 N   0  0  0  0  0
   28.9580   10.4190    1.7870 O   0  0  0  0  0
   33.7120    6.6200    2.0870 N   0  0  0  0  0
   31.8430    2.4510   -1.2000 C   0  0  0  0  0
   32.4670    2.2750   -2.4480 C   0  0  0  0  0
   32.0840    1.2020   -3.2310 C   0  0  0  0  0
   31.1060    0.3160   -2.7750 C   0  0  0  0  0
   30.5390    0.5140   -1.6010 N   0  0  0  0  0
   30.8600    1.5250   -0.8200 C   0  0  0  0  0
   30.7240   -0.8600   -3.6120 C   0  0  0  0  0
   30.9630   -0.8820   -4.8010 O   0  0  0  0  0
   30.1740   -1.9290   -3.0010 N   0  0  0  0  0
   29.7640   -3.1710   -3.6820 C   0  0  0  0  0
   31.0468    7.5700   -1.0723 H   0  0  0  0  0
   34.1532    2.7035    0.0937 H   0  0  0  0  0
   29.8038    8.7152    3.5887 H   0  0  0  0  0
   31.0788    6.6360    3.1306 H   0  0  0  0  0
   29.7219    9.6095   -0.6368 H   0  0  0  0  0
   30.5726    6.0919   -2.3926 H   0  0  0  0  0
   30.7129    4.3636   -2.7978 H   0  0  0  0  0
   29.1071    5.1261   -2.6930 H   0  0  0  0  0
   29.4518    5.5170   -0.2694 H   0  0  0  0  0
   29.5942    3.7626   -0.6807 H   0  0  0  0  0
   28.7748   10.8856    0.9683 H   0  0  0  0  0
   33.1509    7.4482    2.2862 H   0  0  0  0  0
   34.6440    6.5262    2.4908 H   0  0  0  0  0
   33.2350    2.9687   -2.7901 H   0  0  0  0  0
   32.5463    1.0474   -4.2059 H   0  0  0  0  0
   30.3533    1.6441    0.1377 H   0  0  0  0  0
   30.0309   -1.8744   -1.9926 H   0  0  0  0  0
   29.0078   -2.9399   -4.4322 H   0  0  0  0  0
   30.6308   -3.6222   -4.1650 H   0  0  0  0  0
   29.3515   -3.8658   -2.9504 H   0  0  0  0  0
  1  3  4  0  0  0
 11  1  4  0  0  0
  1 17  1  0  0  0
  7  2  4  0  0  0
  2 10  4  0  0  0
 14  3  4  0  0  0
  8  4  4  0  0  0
  4  9  4  0  0  0
  6  5  4  0  0  0
  5 14  4  0  0  0
  5 16  1  0  0  0
  7  6  1  0  0  0
  6 11  4  0  0  0
  7  8  4  0  0  0
  9 10  4  0  0  0
  9 15  1  0  0  0
 11 13  1  0  0  0
 13 12  1  0  0  0
 17 18  4  0  0  0
 17 22  4  0  0  0
 18 19  4  0  0  0
 19 20  4  0  0  0
 20 21  4  0  0  0
 20 23  1  0  0  0
 21 22  4  0  0  0
 23 24  2  0  0  0
 23 25  1  0  0  0
 25 26  1  0  0  0
  2 27  1  0  0  0
  3 28  1  0  0  0
  4 29  1  0  0  0
  8 30  1  0  0  0
 10 31  1  0  0  0
 12 32  1  0  0  0
 12 33  1  0  0  0
 12 34  1  0  0  0
 13 35  1  0  0  0
 13 36  1  0  0  0
 15 37  1  0  0  0
 16 38  1  0  0  0
 16 39  1  0  0  0
 18 40  1  0  0  0
 19 41  1  0  0  0
 22 42  1  0  0  0
 25 43  1  0  0  0
 26 44  1  0  0  0
 26 45  1  0  0  0
 26 46  1  0  0  0
M  END
$$$$
