6qtx_ligand
  -I-interpret- 

115117  0  0  0  0  0  0  0  0999 V2000
   -0.7940   -3.3290   28.0260 N   0  3  0  0  0
   -0.3920   -2.2410   27.1510 C   0  0  0  0  0
   -0.9750   -2.3700   25.7570 C   0  0  0  0  0
   -1.8450   -1.5730   25.3640 O   0  0  0  0  0
   -0.5110   -3.3670   25.0000 N   0  0  0  0  0
   -1.0280   -3.5590   23.6530 C   0  0  0  0  0
   -2.4930   -3.9760   23.7280 C   0  0  0  0  0
   -2.8550   -4.8900   24.4770 O   0  0  0  0  0
   -0.2270   -4.6110   22.8770 C   0  0  0  0  0
   -0.6710   -4.7470   21.4260 C   0  0  0  0  0
   -0.0700   -3.9980   20.4130 C   0  0  0  0  0
   -1.7230   -5.5840   21.0890 C   0  0  0  0  0
   -0.5080   -4.1000   19.0730 C   0  0  0  0  0
   -2.1690   -5.6930   19.7580 C   0  0  0  0  0
   -1.5490   -4.9470   18.7540 C   0  0  0  0  0
   -3.3260   -3.3240   22.9310 N   0  0  0  0  0
   -4.7260   -3.6820   22.8680 C   0  0  0  0  0
   -5.5120   -3.3060   24.1000 C   0  0  0  0  0
   -6.6110   -3.8400   24.3110 O   0  0  0  0  0
   -4.9850   -2.3940   24.9140 N   0  0  0  0  0
   -5.6730   -1.8900   26.1030 C   0  0  0  0  0
   -6.2090   -0.4960   25.8010 C   0  0  0  0  0
   -5.4600    0.3920   25.3680 O   0  0  0  0  0
   -4.7410   -1.8630   27.3250 C   0  0  0  0  0
   -5.4410   -1.2190   28.5110 C   0  0  0  0  0
   -4.2990   -3.2680   27.6790 C   0  0  0  0  0
   -7.5000   -0.3010   26.0470 N   0  0  0  0  0
   -8.1490    0.9730   25.7110 C   0  0  0  0  0
   -7.6450    2.0610   26.6550 C   0  0  0  0  0
   -7.5120    1.7980   27.8640 O   0  0  0  0  0
   -9.6720    0.8250   25.7980 C   0  0  0  0  0
  -10.3480    2.1800   25.6250 C   0  0  0  0  0
  -10.1670   -0.1850   24.7320 C   0  0  0  0  0
   -7.3590    3.2670   26.1710 N   0  0  0  0  0
   -6.8270    4.3280   27.0450 C   0  0  0  0  0
   -7.8130    4.8200   28.0980 C   0  0  0  0  0
   -8.9880    4.4670   28.1460 O   0  0  0  0  0
   -6.4980    5.4750   26.0820 C   0  0  0  0  0
   -6.4270    4.8880   24.7560 C   0  0  0  0  0
   -7.3130    3.6780   24.7500 C   0  0  0  0  0
   -7.2650    5.7010   28.9460 N   0  0  0  0  0
   -8.0260    6.5430   29.8550 C   0  0  0  0  0
   -7.5550    7.9910   29.7060 C   0  0  0  0  0
   -6.3900    8.2570   29.3800 O   0  0  0  0  0
   -7.8750    6.0610   31.3130 C   0  0  0  0  0
   -8.8630    5.0950   31.6310 O   0  0  0  0  0
   -8.4890    8.9180   29.9160 N   0  0  0  0  0
   -8.2270   10.3640   29.9530 C   0  0  0  0  0
   -6.7430   10.7400   29.9950 C   0  0  0  0  0
   -6.2310   11.2410   31.0030 O   0  0  0  0  0
   -8.9450   10.9700   31.1760 C   0  0  0  0  0
   -8.5360   10.3440   32.4870 C   0  0  0  0  0
   -7.6500   10.9920   33.3370 C   0  0  0  0  0
   -9.0200    9.1000   32.8600 C   0  0  0  0  0
   -7.2570   10.4110   34.5310 C   0  0  0  0  0
   -8.6270    8.5170   34.0510 C   0  0  0  0  0
   -7.7460    9.1770   34.8870 C   0  0  0  0  0
   -6.0020   10.5570   29.0220 O   0  0  0  0  0
   -0.3767   -3.1949   28.9470 H   0  0  0  0  0
   -1.8105   -3.3383   28.1100 H   0  0  0  0  0
   -0.4760   -4.2149   27.6331 H   0  0  0  0  0
    0.6943   -2.2635   27.0643 H   0  0  0  0  0
   -0.7577   -1.3096   27.5833 H   0  0  0  0  0
    0.2057   -3.9941   25.3655 H   0  0  0  0  0
   -0.9333   -2.6140   23.1181 H   0  0  0  0  0
   -0.3843   -5.5735   23.3638 H   0  0  0  0  0
    0.8174   -4.2991   22.8766 H   0  0  0  0  0
    0.7502   -3.3237   20.6593 H   0  0  0  0  0
   -2.2135   -6.1679   21.8678 H   0  0  0  0  0
   -0.0245   -3.5109   18.2937 H   0  0  0  0  0
   -2.9966   -6.3584   19.5120 H   0  0  0  0  0
   -1.8865   -5.0336   17.7212 H   0  0  0  0  0
   -2.9756   -2.5593   22.3540 H   0  0  0  0  0
   -4.7782   -4.7663   22.7697 H   0  0  0  0  0
   -5.1610   -3.1391   22.0289 H   0  0  0  0  0
   -4.0572   -2.0291   24.6986 H   0  0  0  0  0
   -6.4977   -2.5591   26.3485 H   0  0  0  0  0
   -3.8605   -1.2705   27.0764 H   0  0  0  0  0
   -5.7213   -0.1973   28.2549 H   0  0  0  0  0
   -6.3351   -1.7913   28.7582 H   0  0  0  0  0
   -4.7667   -1.2083   29.3673 H   0  0  0  0  0
   -5.1740   -3.8752   27.9110 H   0  0  0  0  0
   -3.7665   -3.7038   26.8337 H   0  0  0  0  0
   -3.6396   -3.2324   28.5462 H   0  0  0  0  0
   -8.0483   -1.0468   26.4754 H   0  0  0  0  0
   -7.8985    1.2568   24.6888 H   0  0  0  0  0
   -9.9370    0.4417   26.7834 H   0  0  0  0  0
  -10.0108    2.8558   26.4110 H   0  0  0  0  0
  -10.0859    2.5937   24.6512 H   0  0  0  0  0
  -11.4290    2.0562   25.6895 H   0  0  0  0  0
   -9.8968    0.1749   23.7392 H   0  0  0  0  0
   -9.7009   -1.1545   24.9078 H   0  0  0  0  0
  -11.2503   -0.2833   24.8018 H   0  0  0  0  0
   -5.9765    3.9517   27.6134 H   0  0  0  0  0
   -5.5555    5.9528   26.3496 H   0  0  0  0  0
   -7.2599    6.2533   26.1253 H   0  0  0  0  0
   -5.4006    4.6098   24.5170 H   0  0  0  0  0
   -6.7562    5.6050   24.0039 H   0  0  0  0  0
   -8.3033    3.8908   24.3473 H   0  0  0  0  0
   -6.9328    2.8885   24.1018 H   0  0  0  0  0
   -6.2486    5.7865   28.9544 H   0  0  0  0  0
   -9.0843    6.4803   29.6017 H   0  0  0  0  0
   -7.9931    6.9158   31.9789 H   0  0  0  0  0
   -6.8907    5.6083   31.4325 H   0  0  0  0  0
   -8.7496    4.8104   32.5408 H   0  0  0  0  0
   -9.4485    8.6036   30.0605 H   0  0  0  0  0
   -8.6098   10.7704   29.0168 H   0  0  0  0  0
  -10.0132   10.7941   31.0486 H   0  0  0  0  0
   -8.6797   12.0263   31.2209 H   0  0  0  0  0
   -7.2585   11.9711   33.0609 H   0  0  0  0  0
   -9.7180    8.5754   32.2076 H   0  0  0  0  0
   -6.5604   10.9320   35.1879 H   0  0  0  0  0
   -9.0122    7.5364   34.3306 H   0  0  0  0  0
   -7.4395    8.7192   35.8275 H   0  0  0  0  0
   -6.5074   10.1664   28.3053 H   0  0  0  0  0
  1  2  1  0  0  0
  2  3  1  0  0  0
  3  4  2  0  0  0
  3  5  1  0  0  0
  5  6  1  0  0  0
  6  7  1  0  0  0
  6  9  1  0  0  0
  7  8  2  0  0  0
  7 16  1  0  0  0
  9 10  1  0  0  0
 10 11  4  0  0  0
 10 12  4  0  0  0
 11 13  4  0  0  0
 12 14  4  0  0  0
 13 15  4  0  0  0
 14 15  4  0  0  0
 16 17  1  0  0  0
 17 18  1  0  0  0
 18 19  2  0  0  0
 18 20  1  0  0  0
 20 21  1  0  0  0
 21 22  1  0  0  0
 21 24  1  0  0  0
 22 23  2  0  0  0
 22 27  1  0  0  0
 24 25  1  0  0  0
 24 26  1  0  0  0
 27 28  1  0  0  0
 28 29  1  0  0  0
 28 31  1  0  0  0
 29 30  2  0  0  0
 29 34  1  0  0  0
 31 32  1  0  0  0
 31 33  1  0  0  0
 34 35  1  0  0  0
 34 40  1  0  0  0
 35 36  1  0  0  0
 35 38  1  0  0  0
 36 37  2  0  0  0
 36 41  1  0  0  0
 38 39  1  0  0  0
 39 40  1  0  0  0
 41 42  1  0  0  0
 42 43  1  0  0  0
 42 45  1  0  0  0
 43 44  2  0  0  0
 43 47  1  0  0  0
 45 46  1  0  0  0
 47 48  1  0  0  0
 48 49  1  0  0  0
 48 51  1  0  0  0
 49 50  2  0  0  0
 49 58  1  0  0  0
 51 52  1  0  0  0
 52 53  4  0  0  0
 52 54  4  0  0  0
 53 55  4  0  0  0
 54 56  4  0  0  0
 55 57  4  0  0  0
 56 57  4  0  0  0
  1 59  1  0  0  0
  1 60  1  0  0  0
  1 61  1  0  0  0
  2 62  1  0  0  0
  2 63  1  0  0  0
  5 64  1  0  0  0
  6 65  1  0  0  0
  9 66  1  0  0  0
  9 67  1  0  0  0
 11 68  1  0  0  0
 12 69  1  0  0  0
 13 70  1  0  0  0
 14 71  1  0  0  0
 15 72  1  0  0  0
 16 73  1  0  0  0
 17 74  1  0  0  0
 17 75  1  0  0  0
 20 76  1  0  0  0
 21 77  1  0  0  0
 24 78  1  0  0  0
 25 79  1  0  0  0
 25 80  1  0  0  0
 25 81  1  0  0  0
 26 82  1  0  0  0
 26 83  1  0  0  0
 26 84  1  0  0  0
 27 85  1  0  0  0
 28 86  1  0  0  0
 31 87  1  0  0  0
 32 88  1  0  0  0
 32 89  1  0  0  0
 32 90  1  0  0  0
 33 91  1  0  0  0
 33 92  1  0  0  0
 33 93  1  0  0  0
 35 94  1  0  0  0
 38 95  1  0  0  0
 38 96  1  0  0  0
 39 97  1  0  0  0
 39 98  1  0  0  0
 40 99  1  0  0  0
 40100  1  0  0  0
 41101  1  0  0  0
 42102  1  0  0  0
 45103  1  0  0  0
 45104  1  0  0  0
 46105  1  0  0  0
 47106  1  0  0  0
 48107  1  0  0  0
 51108  1  0  0  0
 51109  1  0  0  0
 53110  1  0  0  0
 54111  1  0  0  0
 55112  1  0  0  0
 56113  1  0  0  0
 57114  1  0  0  0
 58115  1  0  0  0
M  END
$$$$
