### 
### Created by X-TOOL on Mon Aug  2 16:17:08 2021
### 

@<TRIPOS>MOLECULE
6qtx_ligand
  114   116     1     0     0
SMALL
GAST_HUCK


@<TRIPOS>ATOM
      1 N          -0.7940   -3.3290   28.0260 N.4       1 GLY         0.2357
      2 CA         -0.3920   -2.2410   27.1510 C.3       1 GLY         0.0545
      3 C          -0.9750   -2.3700   25.7570 C.2       1 GLY         0.2238
      4 O          -1.8450   -1.5730   25.3640 O.2       1 GLY        -0.3910
      5 N          -0.5110   -3.3670   25.0000 N.am      1 GLY        -0.2595
      6 CA         -1.0280   -3.5590   23.6530 C.3       1 GLY         0.1405
      7 C          -2.4930   -3.9760   23.7280 C.2       1 GLY         0.2058
      8 O          -2.8550   -4.8900   24.4770 O.2       1 GLY        -0.3942
      9 CB         -0.2270   -4.6110   22.8770 C.3       1 GLY         0.0214
     10 CG         -0.6710   -4.7470   21.4260 C.ar      1 GLY        -0.0386
     11 CD1        -0.0700   -3.9980   20.4130 C.ar      1 GLY        -0.0601
     12 CD2        -1.7230   -5.5840   21.0890 C.ar      1 GLY        -0.0601
     13 CE1        -0.5080   -4.1000   19.0730 C.ar      1 GLY        -0.0686
     14 CE2        -2.1690   -5.6930   19.7580 C.ar      1 GLY        -0.0686
     15 CZ         -1.5490   -4.9470   18.7540 C.ar      1 GLY        -0.0687
     16 N          -3.3260   -3.3240   22.9310 N.am      1 GLY        -0.2663
     17 CA         -4.7260   -3.6820   22.8680 C.3       1 GLY         0.1201
     18 C          -5.5120   -3.3060   24.1000 C.2       1 GLY         0.2008
     19 O          -6.6110   -3.8400   24.3110 O.2       1 GLY        -0.3947
     20 N          -4.9850   -2.3940   24.9140 N.am      1 GLY        -0.2637
     21 CA         -5.6730   -1.8900   26.1030 C.3       1 GLY         0.1332
     22 C          -6.2090   -0.4960   25.8010 C.2       1 GLY         0.2042
     23 O          -5.4600    0.3920   25.3680 O.2       1 GLY        -0.3944
     24 CB         -4.7410   -1.8630   27.3250 C.3       1 GLY        -0.0063
     25 CG1        -5.4410   -1.2190   28.5110 C.3       1 GLY        -0.0584
     26 CG2        -4.2990   -3.2680   27.6790 C.3       1 GLY        -0.0584
     27 N          -7.5000   -0.3010   26.0470 N.am      1 GLY        -0.2635
     28 CA         -8.1490    0.9730   25.7110 C.3       1 GLY         0.1334
     29 C          -7.6450    2.0610   26.6550 C.2       1 GLY         0.2066
     30 O          -7.5120    1.7980   27.8640 O.2       1 GLY        -0.3942
     31 CB         -9.6720    0.8250   25.7980 C.3       1 GLY        -0.0062
     32 CG1       -10.3480    2.1800   25.6250 C.3       1 GLY        -0.0584
     33 CG2       -10.1670   -0.1850   24.7320 C.3       1 GLY        -0.0584
     34 N          -7.3590    3.2670   26.1710 N.am      1 GLY        -0.2498
     35 CA         -6.8270    4.3280   27.0450 C.3       1 GLY         0.1338
     36 C          -7.8130    4.8200   28.0980 C.2       1 GLY         0.2042
     37 O          -8.9880    4.4670   28.1460 O.2       1 GLY        -0.3944
     38 CB         -6.4980    5.4750   26.0820 C.3       1 GLY        -0.0104
     39 CG         -6.4270    4.8880   24.7560 C.3       1 GLY        -0.0281
     40 CD         -7.3130    3.6780   24.7500 C.3       1 GLY         0.0369
     41 N          -7.2650    5.7010   28.9460 N.am      1 GLY        -0.2616
     42 CA         -8.0260    6.5430   29.8550 C.3       1 GLY         0.1539
     43 C          -7.5550    7.9910   29.7060 C.2       1 GLY         0.2058
     44 O          -6.3900    8.2570   29.3800 O.2       1 GLY        -0.3943
     45 CB         -7.8750    6.0610   31.3130 C.3       1 GLY         0.0843
     46 OG         -8.8630    5.0950   31.6310 O.3       1 GLY        -0.3903
     47 N          -8.4890    8.9180   29.9160 N.am      1 GLY        -0.2676
     48 CA         -8.2270   10.3640   29.9530 C.3       1 GLY         0.1039
     49 C          -6.7430   10.7400   29.9950 C.2       1 GLY         0.0621
     50 O          -6.2310   11.2410   31.0030 O.co2     1 GLY        -0.5664
     51 CB         -8.9450   10.9700   31.1760 C.3       1 GLY         0.0159
     52 CG         -8.5360   10.3440   32.4870 C.ar      1 GLY        -0.0392
     53 CD1        -7.6500   10.9920   33.3370 C.ar      1 GLY        -0.0602
     54 CD2        -9.0200    9.1000   32.8600 C.ar      1 GLY        -0.0602
     55 CE1        -7.2570   10.4110   34.5310 C.ar      1 GLY        -0.0686
     56 CE2        -8.6270    8.5170   34.0510 C.ar      1 GLY        -0.0686
     57 CZ         -7.7460    9.1770   34.8870 C.ar      1 GLY        -0.0687
     58 OXT        -6.0020   10.5570   29.0220 O.co2     1 GLY        -0.5664
     59 H1         -0.3822   -3.1975   28.9366 H         1 GLY         0.2012
     60 H2         -0.4803   -4.2051   27.6387 H         1 GLY         0.2012
     61 H3         -1.7984   -3.3392   28.1099 H         1 GLY         0.2012
     62 H4          0.7054   -2.2366   27.0752 H         1 GLY         0.1061
     63 H5         -0.7331   -1.2915   27.5893 H         1 GLY         0.1061
     64 H6          0.1916   -3.9818   25.3583 H         1 GLY         0.1886
     65 H7         -0.9576   -2.6029   23.1137 H         1 GLY         0.0823
     66 H8         -0.3523   -5.5841   23.3744 H         1 GLY         0.0474
     67 H9          0.8350   -4.3250   22.8931 H         1 GLY         0.0474
     68 H10         0.7457   -3.3274   20.6579 H         1 GLY         0.0557
     69 H11        -2.2108   -6.1647   21.8635 H         1 GLY         0.0557
     70 H12        -0.0271   -3.5142   18.2980 H         1 GLY         0.0599
     71 H13        -2.9920   -6.3547   19.5134 H         1 GLY         0.0599
     72 H14        -1.8846   -5.0331   17.7269 H         1 GLY         0.0559
     73 H15        -2.9825   -2.5743   22.3653 H         1 GLY         0.1881
     74 H16        -4.7987   -4.7709   22.7304 H         1 GLY         0.0763
     75 H17        -5.1747   -3.1723   22.0026 H         1 GLY         0.0763
     76 H18        -4.0754   -2.0362   24.7028 H         1 GLY         0.1883
     77 H19        -6.5194   -2.5550   26.3293 H         1 GLY         0.0802
     78 H20        -3.8513   -1.2664   27.0753 H         1 GLY         0.0343
     79 H21        -4.7614   -1.2076   29.3759 H         1 GLY         0.0234
     80 H22        -6.3436   -1.7957   28.7615 H         1 GLY         0.0234
     81 H23        -5.7244   -0.1877   28.2538 H         1 GLY         0.0234
     82 H24        -3.7945   -3.7226   26.8137 H         1 GLY         0.0234
     83 H25        -5.1778   -3.8716   27.9498 H         1 GLY         0.0234
     84 H26        -3.6037   -3.2301   28.5305 H         1 GLY         0.0234
     85 H27        -8.0376   -1.0322   26.4670 H         1 GLY         0.1883
     86 H28        -7.8822    1.2489   24.6801 H         1 GLY         0.0803
     87 H29        -9.9296    0.4342   26.7934 H         1 GLY         0.0343
     88 H30       -11.4391    2.0563   25.6900 H         1 GLY         0.0234
     89 H31       -10.0843    2.5986   24.6425 H         1 GLY         0.0234
     90 H32       -10.0086    2.8630   26.4177 H         1 GLY         0.0234
     91 H33        -9.6634   -1.1516   24.8810 H         1 GLY         0.0234
     92 H34        -9.9346    0.1985   23.7276 H         1 GLY         0.0234
     93 H35       -11.2543   -0.3190   24.8308 H         1 GLY         0.0234
     94 H36        -5.9179    3.9715   27.5513 H         1 GLY         0.0802
     95 H37        -5.5331    5.9309   26.3485 H         1 GLY         0.0313
     96 H38        -7.2874    6.2402   26.1177 H         1 GLY         0.0313
     97 H39        -5.3910    4.5958   24.5297 H         1 GLY         0.0287
     98 H40        -6.7759    5.6125   24.0055 H         1 GLY         0.0287
     99 H41        -8.3185    3.9305   24.3823 H         1 GLY         0.0524
    100 H42        -6.8835    2.8810   24.1252 H         1 GLY         0.0524
    101 H43        -6.2685    5.7848   28.9542 H         1 GLY         0.1884
    102 H44        -9.0898    6.4875   29.5806 H         1 GLY         0.0823
    103 H45        -7.9817    6.9216   31.9898 H         1 GLY         0.0606
    104 H46        -6.8786    5.6134   31.4431 H         1 GLY         0.0606
    105 H47        -8.7507    4.8134   32.5313 H         1 GLY         0.2097
    106 H48        -9.4297    8.6098   30.0577 H         1 GLY         0.1877
    107 H49        -8.6547   10.8039   29.0400 H         1 GLY         0.0749
    108 H50       -10.0286   10.8313   31.0473 H         1 GLY         0.0467
    109 H51        -8.7152   12.0449   31.2171 H         1 GLY         0.0467
    110 H52        -7.2607   11.9657   33.0624 H         1 GLY         0.0557
    111 H53        -9.7142    8.5783   32.2112 H         1 GLY         0.0557
    112 H54        -6.5643   10.9291   35.1843 H         1 GLY         0.0599
    113 H55        -9.0101    7.5418   34.3291 H         1 GLY         0.0599
    114 H56        -7.4412    8.7217   35.8224 H         1 GLY         0.0559
@<TRIPOS>BOND
     1    1    2 1  
     2    2    3 1  
     3    3    4 2  
     4    3    5 am 
     5    5    6 1  
     6    6    7 1  
     7    6    9 1  
     8    7    8 2  
     9    7   16 am 
    10    9   10 1  
    11   10   11 ar 
    12   10   12 ar 
    13   11   13 ar 
    14   12   14 ar 
    15   13   15 ar 
    16   14   15 ar 
    17   16   17 1  
    18   17   18 1  
    19   18   19 2  
    20   18   20 am 
    21   20   21 1  
    22   21   22 1  
    23   21   24 1  
    24   22   23 2  
    25   22   27 am 
    26   24   25 1  
    27   24   26 1  
    28   27   28 1  
    29   28   29 1  
    30   28   31 1  
    31   29   30 2  
    32   29   34 am 
    33   31   32 1  
    34   31   33 1  
    35   34   35 1  
    36   34   40 1  
    37   35   36 1  
    38   35   38 1  
    39   36   37 2  
    40   36   41 am 
    41   38   39 1  
    42   39   40 1  
    43   41   42 1  
    44   42   43 1  
    45   42   45 1  
    46   43   44 2  
    47   43   47 am 
    48   45   46 1  
    49   47   48 1  
    50   48   49 1  
    51   48   51 1  
    52   49   50 ar 
    53   49   58 ar 
    54   51   52 1  
    55   52   53 ar 
    56   52   54 ar 
    57   53   55 ar 
    58   54   56 ar 
    59   55   57 ar 
    60   56   57 ar 
    61    1   59 1  
    62    1   60 1  
    63    1   61 1  
    64    2   62 1  
    65    2   63 1  
    66    5   64 1  
    67    6   65 1  
    68    9   66 1  
    69    9   67 1  
    70   11   68 1  
    71   12   69 1  
    72   13   70 1  
    73   14   71 1  
    74   15   72 1  
    75   16   73 1  
    76   17   74 1  
    77   17   75 1  
    78   20   76 1  
    79   21   77 1  
    80   24   78 1  
    81   25   79 1  
    82   25   80 1  
    83   25   81 1  
    84   26   82 1  
    85   26   83 1  
    86   26   84 1  
    87   27   85 1  
    88   28   86 1  
    89   31   87 1  
    90   32   88 1  
    91   32   89 1  
    92   32   90 1  
    93   33   91 1  
    94   33   92 1  
    95   33   93 1  
    96   35   94 1  
    97   38   95 1  
    98   38   96 1  
    99   39   97 1  
   100   39   98 1  
   101   40   99 1  
   102   40  100 1  
   103   41  101 1  
   104   42  102 1  
   105   45  103 1  
   106   45  104 1  
   107   46  105 1  
   108   47  106 1  
   109   48  107 1  
   110   51  108 1  
   111   51  109 1  
   112   53  110 1  
   113   54  111 1  
   114   55  112 1  
   115   56  113 1  
   116   57  114 1  
@<TRIPOS>SUBSTRUCTURE
     1 GLY         1

