3rj7_ligand

Created by X-TOOL on Fri Nov 18 16:47:47 2016
 35 40  0  0  0  0  0  0  0  0999 V2000
   15.1340    1.2350   16.7690  S 0  0  0  1  0  4
   20.8450    7.8340   13.3810  C 0  0  0  1  0  3
   21.5520   11.6140   10.9730  O 0  0  0  1  0  1
   19.8150    8.0700   14.3630  C 0  0  0  1  0  4
   18.4740   12.5410   13.6670  O 0  0  0  1  0  1
   20.2820    9.1310   15.2350  C 0  0  0  1  0  3
   18.0290    9.2740   10.9710  O 0  0  0  1  0  1
   21.9520    8.7590   13.6370  C 0  0  0  1  0  3
   21.5590    9.5740   14.7450  C 0  0  0  1  0  3
   20.9210   11.0120   11.8020  C 0  0  0  1  0  2
   19.1030   11.5210   13.6170  C 0  0  0  1  0  2
   18.6830    9.6870   11.7760  C 0  0  0  1  0  2
   18.5490    7.3950   14.4410  C 0  0  0  1  0  3
   18.1360    6.5120   13.5030  N 0  0  0  2  0  3
   16.8100    6.0240   13.5890  C 0  0  0  3  0  4
   17.7470    7.7560   15.3670  O 0  0  0  1  0  1
   16.5270    4.8500   14.4990  C 0  0  0  1  0  3
   15.6630   -0.0650   16.0800  N 0  0  0  3  0  3
   13.6760    1.3040   16.6540  O 0  0  0  1  0  1
   15.2180    4.7720   14.9340  C 0  0  0  2  0  3
   15.6890    1.3890   18.1080  O 0  0  0  1  0  1
   14.8430    3.6490   15.6440  C 0  0  0  2  0  3
   15.7290    2.6030   15.8710  C 0  0  0  1  0  3
   17.1010    2.7260   15.5520  C 0  0  0  2  0  3
   17.4640    3.8910   14.8350  C 0  0  0  2  0  3
   20.0780    9.9740   13.1390 Re 0  0  0  1  0  8
   18.7609    6.2072   12.7567  H 0  0  0  1  0  1
   16.5727    5.6691   12.5861  H 0  0  0  1  0  1
   16.2302    6.8494   14.0022  H 0  0  0  1  0  1
   15.0083   -0.7116   15.6400  H 0  0  0  1  0  1
   16.6629   -0.2665   16.0705  H 0  0  0  1  0  1
   14.5057    5.5698   14.7238  H 0  0  0  1  0  1
   13.8281    3.5813   16.0357  H 0  0  0  1  0  1
   17.8328    1.9713   15.8401  H 0  0  0  1  0  1
   18.5039    4.0349   14.5417  H 0  0  0  1  0  1
  1 18  1  0  0  2
  1 19  2  0  0  2
  1 21  2  0  0  2
 23  1  1  0  0  2
  2  4  4  0  0  1
  8  2  4  0  0  1
 10  3  3  0  0  2
  6  4  4  0  0  1
  4 13  1  0  0  2
 11  5  3  0  0  2
  9  6  4  0  0  1
 12  7  3  0  0  2
  9  8  4  0  0  1
 13 14  1  0  0  2
 13 16  2  0  0  2
 14 15  1  0  0  2
 15 17  1  0  0  2
 17 20  4  0  0  1
 17 25  4  0  0  1
 20 22  4  0  0  1
 22 23  4  0  0  1
 24 23  4  0  0  1
 25 24  4  0  0  1
 26  2  1  0  0  1
 26  6  1  0  0  1
 26  8  1  0  0  1
 26  9  1  0  0  1
 26 10  1  0  0  2
 26 11  1  0  0  2
 26 12  1  0  0  2
 26  4  1  0  0  1
 14 27  1  0  0  2
 15 28  1  0  0  2
 15 29  1  0  0  2
 18 30  1  0  0  2
 18 31  1  0  0  2
 20 32  1  0  0  2
 22 33  1  0  0  2
 24 34  1  0  0  2
 25 35  1  0  0  2
M  END
> <MOLECULAR_FORMULA>
C16H9N2O6S

> <MOLECULAR_WEIGHT>
357.2

> <NUM_HB_ATOMS>
8  

> <NUM_ROTOR>
3  

> <XLOGP2>
3.01 

$$$$
