#	Name:			3rj7_ligand
#	Creating user name:	wangrx
#	Creation time:		Wed Aug  4 16:41:05 2021

#	Modifying user name:	wangrx
#	Modification time:	Wed Aug  4 16:42:38 2021

@<TRIPOS>MOLECULE
3rj7_ligand
   39    44     1     0     0
SMALL
GAST_HUCK


@<TRIPOS>ATOM
      1 S1         15.1340    1.2350   16.7690 S.o2      1 RCS         0.0628 
      2 C1         20.8450    7.8340   13.3810 C.ar      1 RCS        -0.0416 
      3 O1         21.5520   11.6140   10.9730 O.2       1 RCS        -0.5176 
      4 C2         19.8150    8.0700   14.3630 C.ar      1 RCS         0.0504 
      5 O2         18.4740   12.5410   13.6670 O.2       1 RCS        -0.5176 
      6 C3         20.2820    9.1310   15.2350 C.ar      1 RCS        -0.0416 
      7 O3         18.0290    9.2740   10.9710 O.2       1 RCS        -0.5176 
      8 C4         21.9520    8.7590   13.6370 C.ar      1 RCS        -0.0562 
      9 C5         21.5590    9.5740   14.7450 C.ar      1 RCS        -0.0562 
     10 C6         20.9210   11.0120   11.8020 C.1       1 RCS        -0.4824 
     11 C7         19.1030   11.5210   13.6170 C.1       1 RCS        -0.4824 
     12 C8         18.6830    9.6870   11.7760 C.1       1 RCS        -0.4824 
     13 C9         18.5490    7.3950   14.4410 C.2       1 RCS         0.2092 
     14 N1         18.1360    6.5120   13.5030 N.am      1 RCS        -0.2751 
     15 C10        16.8100    6.0240   13.5890 C.3       1 RCS         0.0636 
     16 O4         17.7470    7.7560   15.3670 O.2       1 RCS        -0.3795 
     17 C11        16.5270    4.8500   14.4990 C.ar      1 RCS        -0.0211 
     18 N2         15.6630   -0.0650   16.0800 N.am      1 RCS        -0.2617 
     19 O5         13.6760    1.3040   16.6540 O.2       1 RCS        -0.1514 
     20 C12        15.2180    4.7720   14.9340 C.ar      1 RCS        -0.0566 
     21 O6         15.6890    1.3890   18.1080 O.2       1 RCS        -0.1514 
     22 C13        14.8430    3.6490   15.6440 C.ar      1 RCS        -0.0419 
     23 C14        15.7290    2.6030   15.8710 C.ar      1 RCS         0.1009 
     24 C15        17.1010    2.7260   15.5520 C.ar      1 RCS        -0.0419 
     25 C16        17.4640    3.8910   14.8350 C.ar      1 RCS        -0.0566 
     26 RE1        20.0780    9.9740   13.1390 Re        1 RCS         8.0000 
     27 H          18.7609    6.2072   12.7567 H         1 RCS         0.1863 
     28 H          16.5727    5.6691   12.5861 H         1 RCS         0.0681 
     29 H          16.2302    6.8494   14.0022 H         1 RCS         0.0681 
     30 H          15.0083   -0.7116   15.6400 H         1 RCS         0.1634 
     31 H          16.6629   -0.2665   16.0705 H         1 RCS         0.1634 
     32 H          14.5057    5.5698   14.7238 H         1 RCS         0.0558 
     33 H          13.8281    3.5813   16.0357 H         1 RCS         0.0619 
     34 H          17.8328    1.9713   15.8401 H         1 RCS         0.0619 
     35 H          18.5039    4.0349   14.5417 H         1 RCS         0.0558 
     36 H1         20.8065    7.0966   12.5874 H         1 RCS         0.0670 
     37 H2         19.7608    9.5206   16.1020 H         1 RCS         0.0670 
     38 H3         22.8876    8.8149   13.0923 H         1 RCS         0.0636 
     39 H4         22.1345   10.3976   15.1519 H         1 RCS         0.0636 
@<TRIPOS>BOND
     1    1   18 am   
     2    1   19 2    
     3    1   21 2    
     4   23    1 1    
     5    2    4 ar   
     6    8    2 ar   
     7   10    3 3    
     8    6    4 ar   
     9    4   13 1    
    10   11    5 3    
    11    9    6 ar   
    12   12    7 3    
    13    9    8 ar   
    14   13   14 am   
    15   13   16 2    
    16   14   15 1    
    17   15   17 1    
    18   17   20 ar   
    19   17   25 ar   
    20   20   22 ar   
    21   22   23 ar   
    22   24   23 ar   
    23   25   24 ar   
    24   26    2 1    
    25   26    6 1    
    26   26    8 1    
    27   26    9 1    
    28   26   10 1    
    29   26   11 1    
    30   26   12 1    
    31   26    4 1    
    32   14   27 1    
    33   15   28 1    
    34   15   29 1    
    35   18   30 1    
    36   18   31 1    
    37   20   32 1    
    38   22   33 1    
    39   24   34 1    
    40   25   35 1    
    41    2   36 1    
    42    6   37 1    
    43    8   38 1    
    44    9   39 1    
@<TRIPOS>SUBSTRUCTURE
     1 RCS         1 PERM              0 ****  ****    0 ROOT 
