1t2v_ligand
  -I-interpret- 

208211  0  0  0  0  0  0  0  0999 V2000
   76.2930   26.9480   27.0390 N   0  3  0  0  0
   75.7550   25.6600   26.6630 C   0  0  0  0  0
   74.2370   25.5900   26.8440 C   0  0  0  0  0
   73.4720   26.2120   26.1010 O   0  0  0  0  0
   73.8180   24.8350   27.8470 N   0  0  0  0  0
   72.3990   24.6140   28.1440 C   0  0  0  0  0
   71.6130   25.8760   28.5700 C   0  0  0  0  0
   72.0780   27.0030   28.3660 O   0  0  0  0  0
   72.2760   23.5290   29.2130 C   0  0  0  0  0
   70.4520   25.6850   29.1410 N   0  0  0  0  0
   69.5860   26.7890   29.5210 C   0  0  0  0  0
   70.1570   27.6060   30.6810 C   0  0  0  0  0
   70.1410   27.1250   31.8120 O   0  0  0  0  0
   68.2050   26.2700   29.8770 C   0  0  0  0  0
   70.6560   28.8300   30.4530 N   0  0  0  0  0
   71.0900   29.6310   31.5940 C   0  0  0  0  0
   70.4860   31.0100   31.5250 C   0  0  0  0  0
   70.4510   31.6440   30.4670 O   0  0  0  0  0
   72.6320   29.7090   31.7240 C   0  0  0  0  0
   73.4000   30.3560   30.5830 C   0  0  0  0  0
   73.7600   31.6940   30.6080 C   0  0  0  0  0
   73.8110   29.5900   29.5000 C   0  0  0  0  0
   74.4830   32.2600   29.5680 C   0  0  0  0  0
   74.5340   30.1460   28.4580 C   0  0  0  0  0
   74.8650   31.4800   28.4970 C   0  0  0  0  0
   75.5860   32.0400   27.4670 O   0  0  0  0  0
   70.0230   31.4350   32.6910 N   0  0  0  0  0
   69.4140   32.7430   32.8510 C   0  0  0  0  0
   70.4950   33.8200   32.8780 C   0  0  0  0  0
   71.6340   33.5390   33.2380 O   0  0  0  0  0
   68.4800   32.7770   34.0580 C   0  0  0  0  0
   67.1030   32.2230   33.7030 C   0  0  0  0  0
   66.2770   32.9650   33.1200 O   0  0  0  0  0
   66.8570   31.0330   34.0050 O   0  0  0  0  0
   70.1300   35.0420   32.5070 N   0  0  0  0  0
   71.1090   36.0850   32.2070 C   0  0  0  0  0
   70.7260   37.4360   32.8240 C   0  0  0  0  0
   69.5550   37.8280   32.8010 O   0  0  0  0  0
   71.3550   36.1340   30.6420 C   0  0  0  0  0
   72.6190   35.3440   30.2580 C   0  0  0  0  0
   71.3670   37.5440   30.0580 C   0  0  0  0  0
   73.7830   35.4160   31.2750 C   0  0  0  0  0
   71.7150   38.1190   33.4030 N   0  0  0  0  0
   71.4630   39.3600   34.1410 C   0  0  0  0  0
   72.6180   39.7220   35.0840 C   0  0  0  0  0
   73.7990   39.0120   34.7650 O   0  0  0  0  0
   71.1490   40.5040   33.1930 C   0  0  0  0  0
   71.6380   40.5330   32.0600 O   0  0  0  0  0
   74.9390   39.2230   35.8780 P   0  0  0  0  0
   75.1860   40.7810   36.1800 O   0  0  0  0  0
   76.2910   38.6220   35.2750 O   0  0  0  0  0
   74.5480   38.4090   37.2080 O   0  0  0  0  0
   70.3220   41.4360   33.6620 N   0  0  0  0  0
   69.7740   42.4840   32.8070 C   0  0  0  0  0
   70.8790   43.3900   32.3160 C   0  0  0  0  0
   71.9010   43.5580   32.9860 O   0  0  0  0  0
   68.7290   43.3180   33.5520 C   0  0  0  0  0
   67.4540   42.5680   33.9260 C   0  0  0  0  0
   66.3620   42.6560   32.8590 C   0  0  0  0  0
   66.4130   43.5110   31.9580 O   0  0  0  0  0
   65.3660   41.7720   32.9630 N   0  0  0  0  0
   70.6810   43.9290   31.1250 N   0  0  0  0  0
   71.5390   44.9730   30.5950 C   0  0  0  0  0
   70.7060   46.2480   30.6720 C   0  0  0  0  0
   69.4790   46.1770   30.7610 O   0  0  0  0  0
   72.0490   44.5940   29.1740 C   0  0  0  0  0
   72.1340   45.7820   28.2280 C   0  0  0  0  0
   73.4090   43.9340   29.2870 C   0  0  0  0  0
   71.3520   47.4070   30.7050 N   0  0  0  0  0
   70.6050   48.6530   30.7770 C   0  0  0  0  0
   70.9220   49.5690   29.5940 C   0  0  0  0  0
   71.7360   50.4860   29.7040 O   0  0  0  0  0
   70.7890   49.3100   32.1560 C   0  0  0  0  0
   70.1160   48.5450   33.2700 C   0  0  0  0  0
   70.7570   47.4850   33.8980 C   0  0  0  0  0
   68.8230   48.8610   33.6600 C   0  0  0  0  0
   70.1330   46.7660   34.8900 C   0  0  0  0  0
   68.1890   48.1420   34.6550 C   0  0  0  0  0
   68.8440   47.0900   35.2700 C   0  0  0  0  0
   70.2560   49.3070   28.4670 N   0  0  0  0  0
   70.5350   49.9760   27.1920 C   0  0  0  0  0
   70.0880   51.4180   27.1480 C   0  0  0  0  0
   69.5050   51.9250   28.1110 O   0  0  0  0  0
   69.6740   49.1960   26.1980 C   0  0  0  0  0
   69.3170   47.9560   26.8940 C   0  0  0  0  0
   69.1570   48.3370   28.3210 C   0  0  0  0  0
   70.3010   52.0390   26.0030 N   0  0  0  0  0
   69.8300   53.4090   25.7710 C   0  0  0  0  0
   68.3030   53.5080   25.9500 C   0  0  0  0  0
   67.5860   52.5930   25.5690 O   0  0  0  0  0
   70.2580   53.8680   24.3610 C   0  0  0  0  0
   70.0430   55.3160   23.9860 C   0  0  0  0  0
   71.0190   56.2560   24.3010 C   0  0  0  0  0
   68.9020   55.7310   23.3120 C   0  0  0  0  0
   70.8530   57.5930   23.9620 C   0  0  0  0  0
   68.7230   57.0630   22.9670 C   0  0  0  0  0
   69.7000   57.9980   23.2900 C   0  0  0  0  0
   67.8290   54.5980   26.5160 N   0  0  0  0  0
   66.3850   54.7890   26.6970 C   0  0  0  0  0
   66.0740   56.2460   26.9070 C   0  0  0  0  0
   66.9550   57.0220   27.2420 O   0  0  0  0  0
   65.8820   53.9640   27.8710 C   0  0  0  0  0
   64.8520   56.6490   26.7300 N   0  0  0  0  0
   64.5250   58.0800   26.8030 C   0  0  0  0  0
   64.9820   58.7620   28.0750 C   0  0  0  0  0
   65.2310   59.9690   28.0920 O   0  0  0  0  0
   63.0030   58.2660   26.6480 C   0  0  0  0  0
   65.1167   58.0488   29.1895 O   0  0  0  0  0
   77.3037   26.9462   26.9016 H   0  0  0  0  0
   75.8712   27.6736   26.4594 H   0  0  0  0  0
   76.0824   27.1298   28.0203 H   0  0  0  0  0
   76.2075   24.9039   27.3046 H   0  0  0  0  0
   75.9781   25.4948   25.6089 H   0  0  0  0  0
   74.5147   24.3858   28.4413 H   0  0  0  0  0
   71.9390   24.3024   27.2062 H   0  0  0  0  0
   72.6804   23.9008   30.1544 H   0  0  0  0  0
   71.2259   23.2681   29.3450 H   0  0  0  0  0
   72.8342   22.6469   28.8994 H   0  0  0  0  0
   70.1441   24.7303   29.3257 H   0  0  0  0  0
   69.5165   27.4555   28.6613 H   0  0  0  0  0
   67.7768   25.7592   29.0146 H   0  0  0  0  0
   68.2841   25.5731   30.7114 H   0  0  0  0  0
   67.5657   27.1063   30.1599 H   0  0  0  0  0
   70.7307   29.1934   29.5029 H   0  0  0  0  0
   70.7311   29.1277   32.4917 H   0  0  0  0  0
   72.9762   28.6754   31.7607 H   0  0  0  0  0
   72.8218   30.3335   32.5970 H   0  0  0  0  0
   73.4705   32.3115   31.4583 H   0  0  0  0  0
   73.5595   28.5299   29.4695 H   0  0  0  0  0
   74.7480   33.3169   29.5974 H   0  0  0  0  0
   74.8388   29.5299   27.6121 H   0  0  0  0  0
   75.7311   32.9714   27.6488 H   0  0  0  0  0
   70.0968   30.8228   33.5035 H   0  0  0  0  0
   68.7786   32.9561   31.9913 H   0  0  0  0  0
   68.3667   33.8114   34.3823 H   0  0  0  0  0
   68.9098   32.1625   34.8490 H   0  0  0  0  0
   66.6669   33.8318   32.9849 H   0  0  0  0  0
   69.1364   35.2591   32.4291 H   0  0  0  0  0
   72.0598   35.8385   32.6796 H   0  0  0  0  0
   70.4921   35.6477   30.1870 H   0  0  0  0  0
   72.9891   35.7814   29.3307 H   0  0  0  0  0
   72.3241   34.2964   30.1969 H   0  0  0  0  0
   70.4064   38.0227   30.2479 H   0  0  0  0  0
   72.1622   38.1234   30.5271 H   0  0  0  0  0
   71.5410   37.4893   28.9834 H   0  0  0  0  0
   74.0931   36.4538   31.3974 H   0  0  0  0  0
   73.4507   35.0191   32.2343 H   0  0  0  0  0
   74.6222   34.8256   30.9072 H   0  0  0  0  0
   72.6703   37.7689   33.3303 H   0  0  0  0  0
   70.5876   39.1862   34.7668 H   0  0  0  0  0
   72.3250   39.4602   36.1007 H   0  0  0  0  0
   72.8214   40.7881   34.9830 H   0  0  0  0  0
   75.8705   40.8719   36.8469 H   0  0  0  0  0
   77.0001   38.7293   35.9131 H   0  0  0  0  0
   75.2299   38.5361   37.8717 H   0  0  0  0  0
   70.0637   41.4170   34.6486 H   0  0  0  0  0
   69.2922   41.9996   31.9577 H   0  0  0  0  0
   68.4343   44.1256   32.8818 H   0  0  0  0  0
   69.1903   43.6402   34.4855 H   0  0  0  0  0
   67.0612   43.0214   34.8361 H   0  0  0  0  0
   67.7143   41.5161   34.0436 H   0  0  0  0  0
   64.6039   41.7803   32.2852 H   0  0  0  0  0
   65.3676   41.0887   33.7203 H   0  0  0  0  0
   69.8986   43.6000   30.5593 H   0  0  0  0  0
   72.4597   45.1170   31.1604 H   0  0  0  0  0
   71.3189   43.9062   28.7473 H   0  0  0  0  0
   71.1450   46.2261   28.1147 H   0  0  0  0  0
   72.8214   46.5223   28.6373 H   0  0  0  0  0
   72.4963   45.4460   27.2564 H   0  0  0  0  0
   74.1098   44.6264   29.7534 H   0  0  0  0  0
   73.3253   43.0342   29.8965 H   0  0  0  0  0
   73.7664   43.6685   28.2921 H   0  0  0  0  0
   72.3716   47.4239   30.6799 H   0  0  0  0  0
   69.5404   48.4385   30.6842 H   0  0  0  0  0
   70.3369   50.3009   32.1141 H   0  0  0  0  0
   71.8573   49.3368   32.3706 H   0  0  0  0  0
   71.7710   47.2188   33.5997 H   0  0  0  0  0
   68.3009   49.6863   33.1758 H   0  0  0  0  0
   70.6542   45.9414   35.3763 H   0  0  0  0  0
   67.1742   48.4033   34.9550 H   0  0  0  0  0
   68.3449   46.5181   36.0522 H   0  0  0  0  0
   71.6075   49.9878   26.9977 H   0  0  0  0  0
   70.2094   48.9976   25.2695 H   0  0  0  0  0
   68.7902   49.7603   25.9004 H   0  0  0  0  0
   68.4030   47.5196   26.4912 H   0  0  0  0  0
   70.0830   47.1909   26.7673 H   0  0  0  0  0
   68.1738   48.7383   28.5668 H   0  0  0  0  0
   69.2096   47.4975   29.0142 H   0  0  0  0  0
   70.8057   51.5543   25.2609 H   0  0  0  0  0
   70.2838   54.0699   26.5095 H   0  0  0  0  0
   69.6362   53.2969   23.6715 H   0  0  0  0  0
   71.3371   53.7188   24.3252 H   0  0  0  0  0
   71.9241   55.9399   24.8196 H   0  0  0  0  0
   68.1366   55.0004   23.0504 H   0  0  0  0  0
   71.6207   58.3224   24.2202 H   0  0  0  0  0
   67.8190   57.3755   22.4442 H   0  0  0  0  0
   69.5651   59.0450   23.0187 H   0  0  0  0  0
   68.4750   55.3207   26.8335 H   0  0  0  0  0
   65.8745   54.4508   25.7952 H   0  0  0  0  0
   66.0795   52.9087   27.6829 H   0  0  0  0  0
   66.3977   54.2751   28.7795 H   0  0  0  0  0
   64.8096   54.1188   27.9892 H   0  0  0  0  0
   64.1159   55.9692   26.5394 H   0  0  0  0  0
   65.0718   58.5551   25.9885 H   0  0  0  0  0
   62.6860   57.8683   25.6839 H   0  0  0  0  0
   62.4898   57.7335   27.4487 H   0  0  0  0  0
   62.7606   59.3273   26.7022 H   0  0  0  0  0
   64.8867   57.1338   29.0123 H   0  0  0  0  0
  2  1  1  0  0  0
  3  2  1  0  0  0
  3  4  2  0  0  0
  6  5  1  0  0  0
  6  9  1  0  0  0
  7  6  1  0  0  0
  7  8  2  0  0  0
  5  3  1  0  0  0
 11 10  1  0  0  0
 11 14  1  0  0  0
 12 11  1  0  0  0
 12 13  2  0  0  0
 10  7  1  0  0  0
 16 15  1  0  0  0
 16 19  1  0  0  0
 17 16  1  0  0  0
 17 18  2  0  0  0
 19 20  1  0  0  0
 20 21  4  0  0  0
 20 22  4  0  0  0
 22 24  4  0  0  0
 24 25  4  0  0  0
 25 26  1  0  0  0
 23 25  4  0  0  0
 21 23  4  0  0  0
 15 12  1  0  0  0
 28 27  1  0  0  0
 28 31  1  0  0  0
 29 28  1  0  0  0
 29 30  2  0  0  0
 31 32  1  0  0  0
 32 33  1  0  0  0
 32 34  2  0  0  0
 27 17  1  0  0  0
 36 35  1  0  0  0
 36 39  1  0  0  0
 37 36  1  0  0  0
 37 38  2  0  0  0
 39 41  1  0  0  0
 39 40  1  0  0  0
 40 42  1  0  0  0
 35 29  1  0  0  0
 53 54  1  0  0  0
 54 57  1  0  0  0
 54 55  1  0  0  0
 55 56  2  0  0  0
 57 58  1  0  0  0
 58 59  1  0  0  0
 59 61  1  0  0  0
 59 60  2  0  0  0
 62 63  1  0  0  0
 63 66  1  0  0  0
 63 64  1  0  0  0
 64 65  2  0  0  0
 66 68  1  0  0  0
 66 67  1  0  0  0
 55 62  1  0  0  0
 69 70  1  0  0  0
 70 73  1  0  0  0
 70 71  1  0  0  0
 71 72  2  0  0  0
 73 74  1  0  0  0
 74 75  4  0  0  0
 74 76  4  0  0  0
 76 78  4  0  0  0
 78 79  4  0  0  0
 77 79  4  0  0  0
 75 77  4  0  0  0
 64 69  1  0  0  0
 81 82  1  0  0  0
 81 84  1  0  0  0
 80 81  1  0  0  0
 80 86  1  0  0  0
 86 85  1  0  0  0
 85 84  1  0  0  0
 82 83  2  0  0  0
 71 80  1  0  0  0
 87 88  1  0  0  0
 88 91  1  0  0  0
 88 89  1  0  0  0
 89 90  2  0  0  0
 91 92  1  0  0  0
 92 93  4  0  0  0
 92 94  4  0  0  0
 94 96  4  0  0  0
 96 97  4  0  0  0
 95 97  4  0  0  0
 93 95  4  0  0  0
 82 87  1  0  0  0
 98 99  1  0  0  0
 99102  1  0  0  0
 99100  1  0  0  0
100101  2  0  0  0
 89 98  1  0  0  0
103104  1  0  0  0
104107  1  0  0  0
104105  1  0  0  0
105106  2  0  0  0
100103  1  0  0  0
 43 44  1  0  0  0
 44 45  1  0  0  0
 44 47  1  0  0  0
 45 46  1  0  0  0
 46 49  1  0  0  0
 47 48  2  0  0  0
 49 50  1  0  0  0
 49 51  1  0  0  0
 49 52  1  0  0  0
105108  1  0  0  0
 47 53  1  0  0  0
 37 43  1  0  0  0
  1109  1  0  0  0
  1110  1  0  0  0
  1111  1  0  0  0
  2112  1  0  0  0
  2113  1  0  0  0
  5114  1  0  0  0
  6115  1  0  0  0
  9116  1  0  0  0
  9117  1  0  0  0
  9118  1  0  0  0
 10119  1  0  0  0
 11120  1  0  0  0
 14121  1  0  0  0
 14122  1  0  0  0
 14123  1  0  0  0
 15124  1  0  0  0
 16125  1  0  0  0
 19126  1  0  0  0
 19127  1  0  0  0
 21128  1  0  0  0
 22129  1  0  0  0
 23130  1  0  0  0
 24131  1  0  0  0
 26132  1  0  0  0
 27133  1  0  0  0
 28134  1  0  0  0
 31135  1  0  0  0
 31136  1  0  0  0
 33137  1  0  0  0
 35138  1  0  0  0
 36139  1  0  0  0
 39140  1  0  0  0
 40141  1  0  0  0
 40142  1  0  0  0
 41143  1  0  0  0
 41144  1  0  0  0
 41145  1  0  0  0
 42146  1  0  0  0
 42147  1  0  0  0
 42148  1  0  0  0
 43149  1  0  0  0
 44150  1  0  0  0
 45151  1  0  0  0
 45152  1  0  0  0
 50153  1  0  0  0
 51154  1  0  0  0
 52155  1  0  0  0
 53156  1  0  0  0
 54157  1  0  0  0
 57158  1  0  0  0
 57159  1  0  0  0
 58160  1  0  0  0
 58161  1  0  0  0
 61162  1  0  0  0
 61163  1  0  0  0
 62164  1  0  0  0
 63165  1  0  0  0
 66166  1  0  0  0
 67167  1  0  0  0
 67168  1  0  0  0
 67169  1  0  0  0
 68170  1  0  0  0
 68171  1  0  0  0
 68172  1  0  0  0
 69173  1  0  0  0
 70174  1  0  0  0
 73175  1  0  0  0
 73176  1  0  0  0
 75177  1  0  0  0
 76178  1  0  0  0
 77179  1  0  0  0
 78180  1  0  0  0
 79181  1  0  0  0
 81182  1  0  0  0
 84183  1  0  0  0
 84184  1  0  0  0
 85185  1  0  0  0
 85186  1  0  0  0
 86187  1  0  0  0
 86188  1  0  0  0
 87189  1  0  0  0
 88190  1  0  0  0
 91191  1  0  0  0
 91192  1  0  0  0
 93193  1  0  0  0
 94194  1  0  0  0
 95195  1  0  0  0
 96196  1  0  0  0
 97197  1  0  0  0
 98198  1  0  0  0
 99199  1  0  0  0
102200  1  0  0  0
102201  1  0  0  0
102202  1  0  0  0
103203  1  0  0  0
104204  1  0  0  0
107205  1  0  0  0
107206  1  0  0  0
107207  1  0  0  0
108208  1  0  0  0
M  END
$$$$
