### 
### Created by X-TOOL on Mon Sep 10 21:12:52 2018
### 

@<TRIPOS>MOLECULE
1t2v_ligand
  207   210     1     0     0
SMALL
GAST_HUCK


@<TRIPOS>ATOM
      1 N          76.2930   26.9480   27.0390 N.4       1 GLY         0.2357
      2 CA         75.7550   25.6600   26.6630 C.3       1 GLY         0.0545
      3 C          74.2370   25.5900   26.8440 C.2       1 GLY         0.2236
      4 O          73.4720   26.2120   26.1010 O.2       1 GLY        -0.3910
      5 N          73.8180   24.8350   27.8470 N.am      1 ALA        -0.2615
      6 CA         72.3990   24.6140   28.1440 C.3       1 ALA         0.1283
      7 C          71.6130   25.8760   28.5700 C.2       1 ALA         0.2036
      8 O          72.0780   27.0030   28.3660 O.2       1 ALA        -0.3944
      9 CB         72.2760   23.5290   29.2130 C.3       1 ALA        -0.0244
     10 N          70.4520   25.6850   29.1410 N.am      1 ALA        -0.2640
     11 CA         69.5860   26.7890   29.5210 C.3       1 ALA         0.1282
     12 C          70.1570   27.6060   30.6810 C.2       1 ALA         0.2037
     13 O          70.1410   27.1250   31.8120 O.2       1 ALA        -0.3944
     14 CB         68.2050   26.2700   29.8770 C.3       1 ALA        -0.0244
     15 N          70.6560   28.8300   30.4530 N.am      1 TYR        -0.2621
     16 CA         71.0900   29.6310   31.5940 C.3       1 TYR         0.1390
     17 C          70.4860   31.0100   31.5250 C.2       1 TYR         0.2058
     18 O          70.4510   31.6440   30.4670 O.2       1 TYR        -0.3942
     19 CB         72.6320   29.7090   31.7240 C.3       1 TYR         0.0163
     20 CG         73.4000   30.3560   30.5830 C.ar      1 TYR        -0.0493
     21 CD1        73.7600   31.6940   30.6080 C.ar      1 TYR        -0.0685
     22 CD2        73.8110   29.5900   29.5000 C.ar      1 TYR        -0.0685
     23 CE1        74.4830   32.2600   29.5680 C.ar      1 TYR        -0.0398
     24 CE2        74.5340   30.1460   28.4580 C.ar      1 TYR        -0.0398
     25 CZ         74.8650   31.4800   28.4970 C.ar      1 TYR         0.0805
     26 OH         75.5860   32.0400   27.4670 O.3       1 TYR        -0.3376
     27 N          70.0230   31.4350   32.6910 N.am      1 ASP        -0.2620
     28 CA         69.4140   32.7430   32.8510 C.3       1 ASP         0.1423
     29 C          70.4950   33.8200   32.8780 C.2       1 ASP         0.2056
     30 O          71.6340   33.5390   33.2380 O.2       1 ASP        -0.3943
     31 CB         68.4800   32.7770   34.0580 C.3       1 ASP         0.0406
     32 CG         67.1030   32.2230   33.7030 C.2       1 ASP         0.0393
     33 OD1        66.2770   32.9650   33.1200 O.co2     1 ASP        -0.5688
     34 OD2        66.8570   31.0330   34.0050 O.co2     1 ASP        -0.5688
     35 N          70.1300   35.0420   32.5070 N.am      1 ILE        -0.2634
     36 CA         71.1090   36.0850   32.2070 C.3       1 ILE         0.1335
     37 C          70.7260   37.4360   32.8240 C.2       1 ILE         0.2042
     38 O          69.5550   37.8280   32.8010 O.2       1 ILE        -0.3944
     39 CB         71.3550   36.1340   30.6420 C.3       1 ILE        -0.0037
     40 CG1        72.6190   35.3440   30.2580 C.3       1 ILE        -0.0491
     41 CG2        71.3670   37.5440   30.0580 C.3       1 ILE        -0.0582
     42 CD1        73.7830   35.4160   31.2750 C.3       1 ILE        -0.0648
     43 N          71.7150   38.1190   33.4030 N.am      1 SEP        -0.2614
     44 CA         71.4630   39.3600   34.1410 C.3       1 SEP         0.1563
     45 CB         72.6180   39.7220   35.0840 C.3       1 SEP         0.0992
     46 OG         73.7990   39.0120   34.7650 O.3       1 SEP        -0.3038
     47 C          71.1490   40.5040   33.1930 C.2       1 SEP         0.2064
     48 O          71.6380   40.5330   32.0600 O.2       1 SEP        -0.3943
     49 P          74.9390   39.2230   35.8780 P.3       1 SEP         0.3863
     50 O1P        75.1860   40.7810   36.1800 O.3       1 SEP        -0.3247
     51 O2P        76.2910   38.6220   35.2750 O.3       1 SEP        -0.3247
     52 O3P        74.5480   38.4090   37.2080 O.3       1 SEP        -0.3247
     53 N          70.3220   41.4360   33.6620 N.am      1 GLN        -0.2635
     54 CA         69.7740   42.4840   32.8070 C.3       1 GLN         0.1330
     55 C          70.8790   43.3900   32.3160 C.2       1 GLN         0.2041
     56 O          71.9010   43.5580   32.9860 O.2       1 GLN        -0.3944
     57 CB         68.7290   43.3180   33.5520 C.3       1 GLN         0.0045
     58 CG         67.4540   42.5680   33.9260 C.3       1 GLN         0.0412
     59 CD         66.3620   42.6560   32.8590 C.2       1 GLN         0.1737
     60 OE1        66.4130   43.5110   31.9580 O.2       1 GLN        -0.3973
     61 NE2        65.3660   41.7720   32.9630 N.am      1 GLN        -0.3009
     62 N          70.6810   43.9290   31.1250 N.am      1 VAL        -0.2635
     63 CA         71.5390   44.9730   30.5950 C.3       1 VAL         0.1333
     64 C          70.7060   46.2480   30.6720 C.2       1 VAL         0.2043
     65 O          69.4790   46.1770   30.7610 O.2       1 VAL        -0.3944
     66 CB         72.0490   44.5940   29.1740 C.3       1 VAL        -0.0063
     67 CG1        72.1340   45.7820   28.2280 C.3       1 VAL        -0.0584
     68 CG2        73.4090   43.9340   29.2870 C.3       1 VAL        -0.0584
     69 N          71.3520   47.4070   30.7050 N.am      1 PHE        -0.2619
     70 CA         70.6050   48.6530   30.7770 C.3       1 PHE         0.1406
     71 C          70.9220   49.5690   29.5940 C.2       1 PHE         0.2085
     72 O          71.7360   50.4860   29.7040 O.2       1 PHE        -0.3940
     73 CB         70.7890   49.3100   32.1560 C.3       1 PHE         0.0214
     74 CG         70.1160   48.5450   33.2700 C.ar      1 PHE        -0.0386
     75 CD1        70.7570   47.4850   33.8980 C.ar      1 PHE        -0.0601
     76 CD2        68.8230   48.8610   33.6600 C.ar      1 PHE        -0.0601
     77 CE1        70.1330   46.7660   34.8900 C.ar      1 PHE        -0.0686
     78 CE2        68.1890   48.1420   34.6550 C.ar      1 PHE        -0.0686
     79 CZ         68.8440   47.0900   35.2700 C.ar      1 PHE        -0.0687
     80 N          70.2560   49.3070   28.4670 N.am      1 PRO        -0.2497
     81 CA         70.5350   49.9760   27.1920 C.3       1 PRO         0.1338
     82 C          70.0880   51.4180   27.1480 C.2       1 PRO         0.2042
     83 O          69.5050   51.9250   28.1110 O.2       1 PRO        -0.3944
     84 CB         69.6740   49.1960   26.1980 C.3       1 PRO        -0.0104
     85 CG         69.3170   47.9560   26.8940 C.3       1 PRO        -0.0281
     86 CD         69.1570   48.3370   28.3210 C.3       1 PRO         0.0369
     87 N          70.3010   52.0390   26.0030 N.am      1 PHE        -0.2619
     88 CA         69.8300   53.4090   25.7710 C.3       1 PHE         0.1404
     89 C          68.3030   53.5080   25.9500 C.2       1 PHE         0.2059
     90 O          67.5860   52.5930   25.5690 O.2       1 PHE        -0.3942
     91 CB         70.2580   53.8680   24.3610 C.3       1 PHE         0.0214
     92 CG         70.0430   55.3160   23.9860 C.ar      1 PHE        -0.0386
     93 CD1        71.0190   56.2560   24.3010 C.ar      1 PHE        -0.0601
     94 CD2        68.9020   55.7310   23.3120 C.ar      1 PHE        -0.0601
     95 CE1        70.8530   57.5930   23.9620 C.ar      1 PHE        -0.0686
     96 CE2        68.7230   57.0630   22.9670 C.ar      1 PHE        -0.0686
     97 CZ         69.7000   57.9980   23.2900 C.ar      1 PHE        -0.0687
     98 N          67.8290   54.5980   26.5160 N.am      1 ALA        -0.2639
     99 CA         66.3850   54.7890   26.6970 C.3       1 ALA         0.1282
    100 C          66.0740   56.2460   26.9070 C.2       1 ALA         0.2037
    101 O          66.9550   57.0220   27.2420 O.2       1 ALA        -0.3944
    102 CB         65.8820   53.9640   27.8710 C.3       1 ALA        -0.0244
    103 N          64.8520   56.6490   26.7300 N.am      1 LYS        -0.2626
    104 CA         64.5250   58.0800   26.8030 C.3       1 LYS         0.1392
    105 C          64.9820   58.7620   28.0750 C.2       1 LYS         0.2568
    106 O          65.2310   59.9690   28.0920 O.2       1 LYS        -0.3680
    107 CB         63.0030   58.2660   26.6480 C.3       1 LYS        -0.0230
    108 O1         65.1167   58.0488   29.1895 O.3       1 LYS        -0.2910
    109 H1         77.2919   26.9474   26.9036 H         1 GLY         0.2012
    110 H2         76.0855   27.1287   28.0087 H         1 GLY         0.2012
    111 H3         75.8769   27.6660   26.4668 H         1 GLY         0.2012
    112 H4         76.2220   24.8851   27.2887 H         1 GLY         0.1061
    113 H5         75.9943   25.4714   25.6061 H         1 GLY         0.1061
    114 H6         74.5011   24.3946   28.4296 H         1 ALA         0.1884
    115 H7         71.9293   24.2406   27.2221 H         1 ALA         0.0797
    116 H8         71.2136   23.3577   29.4410 H         1 ALA         0.0277
    117 H9         72.7993   23.8518   30.1251 H         1 ALA         0.0277
    118 H10        72.7264   22.5964   28.8424 H         1 ALA         0.0277
    119 H11        70.1502   24.7490   29.3221 H         1 ALA         0.1883
    120 H12        69.4908   27.4574   28.6526 H         1 ALA         0.0797
    121 H13        67.5589   27.1131   30.1627 H         1 ALA         0.0277
    122 H14        68.2834   25.5665   30.7190 H         1 ALA         0.0277
    123 H15        67.7717   25.7542   29.0074 H         1 ALA         0.0277
    124 H16        70.7292   29.1863   29.5215 H         1 TYR         0.1885
    125 H17        70.7095   29.1423   32.5030 H         1 TYR         0.0821
    126 H18        73.0062   28.6802   31.8315 H         1 TYR         0.0453
    127 H19        72.8574   30.2785   32.6377 H         1 TYR         0.0453
    128 H20        73.4721   32.3081   31.4536 H         1 TYR         0.0530
    129 H21        73.5608   28.5357   29.4697 H         1 TYR         0.0530
    130 H22        74.7465   33.3111   29.5972 H         1 TYR         0.0525
    131 H23        74.8372   29.5333   27.6167 H         1 TYR         0.0525
    132 H24        75.7296   32.9616   27.6469 H         1 TYR         0.2458
    133 H25        70.0954   30.8348   33.4876 H         1 ASP         0.1884
    134 H26        68.7928   32.9310   31.9629 H         1 ASP         0.0819
    135 H27        68.3717   33.8171   34.3993 H         1 ASP         0.0478
    136 H28        68.9143   32.1694   34.8656 H         1 ASP         0.0478
    137 H29        69.1559   35.2549   32.4306 H         1 ILE         0.1883
    138 H30        72.0598   35.7880   32.6736 H         1 ILE         0.0803
    139 H31        70.5028   35.6164   30.1775 H         1 ILE         0.0345
    140 H32        72.9841   35.7346   29.2967 H         1 ILE         0.0267
    141 H33        72.3360   34.2875   30.1408 H         1 ILE         0.0267
    142 H34        70.4490   38.0719   30.3556 H         1 ILE         0.0235
    143 H35        71.4172   37.4860   28.9607 H         1 ILE         0.0235
    144 H36        72.2433   38.0904   30.4368 H         1 ILE         0.0235
    145 H37        74.6306   34.8205   30.9049 H         1 ILE         0.0230
    146 H38        73.4490   35.0157   32.2436 H         1 ILE         0.0230
    147 H39        74.0970   36.4629   31.3995 H         1 ILE         0.0230
    148 H40        72.6515   37.7757   33.3317 H         1 SEP         0.1884
    149 H41        70.5725   39.1938   34.7650 H         1 SEP         0.0826
    150 H42        72.3245   39.4793   36.1160 H         1 SEP         0.0637
    151 H43        72.8184   40.8006   35.0038 H         1 SEP         0.0637
    152 H44        75.4598   41.2176   35.3819 H         1 SEP         0.2289
    153 H45        76.9928   38.7281   35.9065 H         1 SEP         0.2289
    154 H46        75.2228   38.5348   37.8648 H         1 SEP         0.2289
    155 H47        70.0687   41.4173   34.6292 H         1 GLN         0.1883
    156 H48        69.2920   42.0094   31.9396 H         1 GLN         0.0801
    157 H49        68.4499   44.1674   32.9112 H         1 GLN         0.0337
    158 H50        69.1886   43.6930   34.4783 H         1 GLN         0.0337
    159 H51        67.0618   42.9923   34.8620 H         1 GLN         0.0504
    160 H52        67.7055   41.5084   34.0808 H         1 GLN         0.0504
    161 H53        64.6210   41.7774   32.2960 H         1 GLN         0.1814
    162 H54        65.3654   41.1048   33.7079 H         1 GLN         0.1814
    163 H55        69.9140   43.6064   30.5704 H         1 VAL         0.1883
    164 H56        72.4201   45.0902   31.2429 H         1 VAL         0.0802
    165 H57        71.3418   43.8700   28.7430 H         1 VAL         0.0343
    166 H58        72.4995   45.4441   27.2471 H         1 VAL         0.0234
    167 H59        72.8275   46.5299   28.6399 H         1 VAL         0.0234
    168 H60        71.1365   46.2311   28.1127 H         1 VAL         0.0234
    169 H61        73.3441   43.0755   29.9716 H         1 VAL         0.0234
    170 H62        74.1376   44.6599   29.6772 H         1 VAL         0.0234
    171 H63        73.7321   43.5876   28.2942 H         1 VAL         0.0234
    172 H64        72.3516   47.4236   30.6804 H         1 PHE         0.1885
    173 H65        69.5388   48.3963   30.6920 H         1 PHE         0.0823
    174 H66        70.3636   50.3238   32.1206 H         1 PHE         0.0474
    175 H67        71.8654   49.3714   32.3739 H         1 PHE         0.0474
    176 H68        71.7654   47.2203   33.6013 H         1 PHE         0.0557
    177 H69        68.3038   49.6817   33.1785 H         1 PHE         0.0557
    178 H70        70.6513   45.9459   35.3736 H         1 PHE         0.0599
    179 H71        67.1798   48.4018   34.9534 H         1 PHE         0.0599
    180 H72        68.3477   46.5212   36.0479 H         1 PHE         0.0559
    181 H73        71.6055   49.9115   26.9473 H         1 PRO         0.0802
    182 H74        70.2438   48.9753   25.2834 H         1 PRO         0.0313
    183 H75        68.7704   49.7671   25.9383 H         1 PRO         0.0313
    184 H76        68.3757   47.5488   26.4964 H         1 PRO         0.0287
    185 H77        70.1161   47.2083   26.7825 H         1 PRO         0.0287
    186 H78        68.1780   48.8017   28.5095 H         1 PRO         0.0524
    187 H79        69.2873   47.4726   28.9887 H         1 PRO         0.0524
    188 H80        70.7958   51.5638   25.2754 H         1 PHE         0.1885
    189 H81        70.3045   54.0703   26.5109 H         1 PHE         0.0823
    190 H82        69.7006   53.2570   23.6358 H         1 PHE         0.0474
    191 H83        71.3341   53.6621   24.2635 H         1 PHE         0.0474
    192 H84        71.9191   55.9417   24.8168 H         1 PHE         0.0557
    193 H85        68.1408   55.0044   23.0518 H         1 PHE         0.0557
    194 H86        71.6165   58.3184   24.2187 H         1 PHE         0.0599
    195 H87        67.8240   57.3737   22.4471 H         1 PHE         0.0599
    196 H88        69.5659   59.0393   23.0202 H         1 PHE         0.0559
    197 H89        68.4623   55.3065   26.8273 H         1 ALA         0.1883
    198 H90        65.8705   54.4494   25.7860 H         1 ALA         0.0797
    199 H91        64.7997   54.1194   27.9914 H         1 ALA         0.0277
    200 H92        66.4016   54.2771   28.7886 H         1 ALA         0.0277
    201 H93        66.0806   52.8987   27.6824 H         1 ALA         0.0277
    202 H94        64.1303   55.9825   26.5432 H         1 LYS         0.1884
    203 H95        65.0267   58.5781   25.9603 H         1 LYS         0.0813
    204 H96        62.7571   59.3368   26.7025 H         1 LYS         0.0278
    205 H97        62.4838   57.7290   27.4555 H         1 LYS         0.0278
    206 H98        62.6817   57.8651   25.6754 H         1 LYS         0.0278
    207 H99        66.0170   58.0980   29.4887 H         1 LYS         0.2540
@<TRIPOS>BOND
     1    2    1 1  
     2    3    2 1  
     3    3    4 2  
     4    6    5 1  
     5    6    9 1  
     6    7    6 1  
     7    7    8 2  
     8    5    3 am 
     9   11   10 1  
    10   11   14 1  
    11   12   11 1  
    12   12   13 2  
    13   10    7 am 
    14   16   15 1  
    15   16   19 1  
    16   17   16 1  
    17   17   18 2  
    18   19   20 1  
    19   20   21 ar 
    20   20   22 ar 
    21   22   24 ar 
    22   24   25 ar 
    23   25   26 1  
    24   23   25 ar 
    25   21   23 ar 
    26   15   12 am 
    27   28   27 1  
    28   28   31 1  
    29   29   28 1  
    30   29   30 2  
    31   31   32 1  
    32   32   33 ar 
    33   32   34 ar 
    34   27   17 am 
    35   36   35 1  
    36   36   39 1  
    37   37   36 1  
    38   37   38 2  
    39   39   41 1  
    40   39   40 1  
    41   40   42 1  
    42   35   29 am 
    43   53   54 1  
    44   54   57 1  
    45   54   55 1  
    46   55   56 2  
    47   57   58 1  
    48   58   59 1  
    49   59   61 am 
    50   59   60 2  
    51   62   63 1  
    52   63   66 1  
    53   63   64 1  
    54   64   65 2  
    55   66   68 1  
    56   66   67 1  
    57   55   62 am 
    58   69   70 1  
    59   70   73 1  
    60   70   71 1  
    61   71   72 2  
    62   73   74 1  
    63   74   75 ar 
    64   74   76 ar 
    65   76   78 ar 
    66   78   79 ar 
    67   77   79 ar 
    68   75   77 ar 
    69   64   69 am 
    70   81   82 1  
    71   81   84 1  
    72   80   81 1  
    73   80   86 1  
    74   86   85 1  
    75   85   84 1  
    76   82   83 2  
    77   71   80 am 
    78   87   88 1  
    79   88   91 1  
    80   88   89 1  
    81   89   90 2  
    82   91   92 1  
    83   92   93 ar 
    84   92   94 ar 
    85   94   96 ar 
    86   96   97 ar 
    87   95   97 ar 
    88   93   95 ar 
    89   82   87 am 
    90   98   99 1  
    91   99  102 1  
    92   99  100 1  
    93  100  101 2  
    94   89   98 am 
    95  103  104 1  
    96  104  107 1  
    97  104  105 1  
    98  105  106 2  
    99  100  103 am 
   100   43   44 1  
   101   44   45 1  
   102   44   47 1  
   103   45   46 1  
   104   46   49 1  
   105   47   48 2  
   106   49   50 1  
   107   49   51 1  
   108   49   52 1  
   109  105  108 1  
   110   47   53 am 
   111   37   43 am 
   112    1  109 1  
   113    1  110 1  
   114    1  111 1  
   115    2  112 1  
   116    2  113 1  
   117    5  114 1  
   118    6  115 1  
   119    9  116 1  
   120    9  117 1  
   121    9  118 1  
   122   10  119 1  
   123   11  120 1  
   124   14  121 1  
   125   14  122 1  
   126   14  123 1  
   127   15  124 1  
   128   16  125 1  
   129   19  126 1  
   130   19  127 1  
   131   21  128 1  
   132   22  129 1  
   133   23  130 1  
   134   24  131 1  
   135   26  132 1  
   136   27  133 1  
   137   28  134 1  
   138   31  135 1  
   139   31  136 1  
   140   35  137 1  
   141   36  138 1  
   142   39  139 1  
   143   40  140 1  
   144   40  141 1  
   145   41  142 1  
   146   41  143 1  
   147   41  144 1  
   148   42  145 1  
   149   42  146 1  
   150   42  147 1  
   151   43  148 1  
   152   44  149 1  
   153   45  150 1  
   154   45  151 1  
   155   50  152 1  
   156   51  153 1  
   157   52  154 1  
   158   53  155 1  
   159   54  156 1  
   160   57  157 1  
   161   57  158 1  
   162   58  159 1  
   163   58  160 1  
   164   61  161 1  
   165   61  162 1  
   166   62  163 1  
   167   63  164 1  
   168   66  165 1  
   169   67  166 1  
   170   67  167 1  
   171   67  168 1  
   172   68  169 1  
   173   68  170 1  
   174   68  171 1  
   175   69  172 1  
   176   70  173 1  
   177   73  174 1  
   178   73  175 1  
   179   75  176 1  
   180   76  177 1  
   181   77  178 1  
   182   78  179 1  
   183   79  180 1  
   184   81  181 1  
   185   84  182 1  
   186   84  183 1  
   187   85  184 1  
   188   85  185 1  
   189   86  186 1  
   190   86  187 1  
   191   87  188 1  
   192   88  189 1  
   193   91  190 1  
   194   91  191 1  
   195   93  192 1  
   196   94  193 1  
   197   95  194 1  
   198   96  195 1  
   199   97  196 1  
   200   98  197 1  
   201   99  198 1  
   202  102  199 1  
   203  102  200 1  
   204  102  201 1  
   205  103  202 1  
   206  104  203 1  
   207  107  204 1  
   208  107  205 1  
   209  107  206 1  
   210  108  207 1  
@<TRIPOS>SUBSTRUCTURE
     1 GLY         1

