3l4v_ligand
  -I-interpret- 

 51 51  0  0  0  0  0  0  0  0999 V2000
   41.2250   84.1420   30.7670 O   0  0  0  0  0
   42.3740   95.5410   36.1280 O   0  0  0  0  0
   43.6380   86.1190   30.1980 O   0  0  0  0  0
   47.0100   95.2460   33.9250 O   0  0  0  0  0
   44.0500   90.9670   31.9570 O   0  0  0  0  0
   44.4430   86.3190   32.7790 O   0  0  0  0  0
   45.9980   95.0850   36.6570 O   0  0  0  0  0
   41.6830   88.6680   32.1340 O   0  0  0  0  0
   44.5600   87.0970   35.6750 O   0  0  0  0  0
   44.5260   89.2810   36.5710 O   0  0  0  0  0
   42.5550   87.8370   36.8560 O   0  0  0  0  0
   42.3750   84.5210   31.5580 C   0  0  0  0  0
   42.9840   94.3280   36.6010 C   0  0  0  0  0
   45.0260   93.7360   33.3090 C   0  0  0  0  0
   43.8750   91.5530   34.3490 C   0  0  0  0  0
   42.9120   88.7710   34.6240 O   0  0  0  0  0
   42.6660   86.0020   31.2440 C   0  0  0  0  0
   46.0260   94.2700   34.3540 C   0  0  0  0  0
   43.4240   90.6320   33.1980 C   0  0  0  0  0
   43.1210   86.7560   32.4950 C   0  0  0  0  0
   45.2010   94.8470   35.4960 C   0  0  0  0  0
   43.0560   88.2840   32.3160 C   0  0  0  0  0
   44.1090   93.7960   35.7210 C   0  0  0  0  0
   43.6420   89.1290   33.4620 C   0  0  0  0  0
   43.6850   93.2260   34.1880 S   0  0  0  0  0
   43.6610   88.2370   35.9660 S   0  0  0  0  0
   41.0114   83.2214   30.9357 H   0  0  0  0  0
   41.6797   95.8067   36.7354 H   0  0  0  0  0
   43.8037   87.0475   30.0191 H   0  0  0  0  0
   47.5634   95.4898   34.6706 H   0  0  0  0  0
   43.7404   90.3697   31.2722 H   0  0  0  0  0
   44.7671   86.7710   33.5615 H   0  0  0  0  0
   45.4461   95.4474   37.3539 H   0  0  0  0  0
   41.6304   89.6199   32.0213 H   0  0  0  0  0
   43.9946   90.0519   36.7831 H   0  0  0  0  0
   43.2350   83.8976   31.3134 H   0  0  0  0  0
   42.1759   84.3829   32.6207 H   0  0  0  0  0
   42.2050   93.5658   36.6156 H   0  0  0  0  0
   43.4209   94.5511   37.5744 H   0  0  0  0  0
   45.4549   92.9207   32.7265 H   0  0  0  0  0
   44.7589   94.5042   32.5833 H   0  0  0  0  0
   44.9516   91.3998   34.4242 H   0  0  0  0  0
   43.2398   91.2793   35.1914 H   0  0  0  0  0
   41.7373   86.4576   30.9003 H   0  0  0  0  0
   46.6465   93.4156   34.6245 H   0  0  0  0  0
   42.3501   90.8085   33.1365 H   0  0  0  0  0
   42.4514   86.5384   33.3271 H   0  0  0  0  0
   44.7791   95.8257   35.2676 H   0  0  0  0  0
   43.6843   88.4921   31.4500 H   0  0  0  0  0
   44.4478   92.9407   36.3056 H   0  0  0  0  0
   44.7125   88.9495   33.5613 H   0  0  0  0  0
 12  1  1  0  0  0
 13  2  1  0  0  0
 17  3  1  0  0  0
 18  4  1  0  0  0
 19  5  1  0  0  0
 20  6  1  0  0  0
 21  7  1  0  0  0
 22  8  1  0  0  0
 26  9  2  0  0  0
 26 10  1  0  0  0
 26 11  2  0  0  0
 17 12  1  0  0  0
 23 13  1  0  0  0
 14 18  1  0  0  0
 25 14  1  0  0  0
 19 15  1  0  0  0
 15 25  1  0  0  0
 24 16  1  0  0  0
 16 26  1  0  0  0
 20 17  1  0  0  0
 18 21  1  0  0  0
 24 19  1  0  0  0
 22 20  1  0  0  0
 21 23  1  0  0  0
 22 24  1  0  0  0
 23 25  1  0  0  0
  1 27  1  0  0  0
  2 28  1  0  0  0
  3 29  1  0  0  0
  4 30  1  0  0  0
  5 31  1  0  0  0
  6 32  1  0  0  0
  7 33  1  0  0  0
  8 34  1  0  0  0
 10 35  1  0  0  0
 12 36  1  0  0  0
 12 37  1  0  0  0
 13 38  1  0  0  0
 13 39  1  0  0  0
 14 40  1  0  0  0
 14 41  1  0  0  0
 15 42  1  0  0  0
 15 43  1  0  0  0
 17 44  1  0  0  0
 18 45  1  0  0  0
 19 46  1  0  0  0
 20 47  1  0  0  0
 21 48  1  0  0  0
 22 49  1  0  0  0
 23 50  1  0  0  0
 24 51  1  0  0  0
M  END
$$$$
