### 
### Created by X-TOOL on Mon Sep 10 21:13:02 2018
### 

@<TRIPOS>MOLECULE
3o1g_ligand
   66    68     1     0     0
SMALL
GAST_HUCK


@<TRIPOS>ATOM
      1 C1         13.8270   -3.0190    6.8110 C.ar      1 O75         0.0748
      2 N2         15.0070   -3.0930    6.1640 N.ar      1 O75        -0.2530
      3 C3         16.0020   -2.2520    6.4700 C.ar      1 O75         0.1482
      4 N4         15.8670   -1.2810    7.4130 N.ar      1 O75        -0.2519
      5 C5         14.7120   -1.1740    8.1130 C.ar      1 O75         0.0497
      6 C6         13.6610   -2.0530    7.8270 C.ar      1 O75         0.0029
      7 C7         17.2430   -2.3000    5.6910 C.2       1 O75         0.0588
      8 N8         17.9940   -1.2960    5.7920 N.2       1 O75        -0.3298
      9 C9         14.6150   -0.0910    9.1820 C.3       1 O75         0.0031
     10 C10        14.9510    1.2670    8.6010 C.3       1 O75        -0.0423
     11 C11        13.9790    1.6250    7.5000 C.3       1 O75        -0.0630
     12 C12        12.7880   -4.0310    6.4500 C.ar      1 O75         0.0411
     13 C13        11.4130   -3.7990    6.5580 C.ar      1 O75        -0.0010
     14 C14        10.5060   -4.7910    6.1980 C.ar      1 O75         0.0832
     15 C15        10.9630   -6.0320    5.7740 C.ar      1 O75        -0.0084
     16 C16        12.3320   -6.2700    5.6590 C.ar      1 O75         0.0582
     17 C17        13.2370   -5.2740    6.0010 C.ar      1 O75        -0.0137
     18 C18        12.8600   -7.6050    5.2200 C.3       1 O75         0.3792
     19 F19        13.6980   -7.4650    4.2430 F         1 O75        -0.2195
     20 F20        11.9090   -8.4220    4.8840 F         1 O75        -0.2195
     21 F21        13.4780   -8.1770    6.2270 F         1 O75        -0.2195
     22 C22         9.0190   -4.6080    6.3410 C.2       1 O75         0.2171
     23 O23         8.6450   -4.5500    7.4820 O.2       1 O75        -0.3834
     24 N24         8.1360   -4.6090    5.3440 N.am      1 O75        -0.2625
     25 C25         8.4980   -4.7110    3.9360 C.3       1 O75         0.0669
     26 C26         8.0920   -3.4490    3.2170 C.ar      1 O75        -0.0208
     27 C27         8.3710   -2.2120    3.7880 C.ar      1 O75        -0.0584
     28 C28         7.9760   -1.0510    3.1310 C.ar      1 O75        -0.0685
     29 C29         7.3230   -1.1440    1.9080 C.ar      1 O75        -0.0687
     30 C30         7.0540   -2.3770    1.3390 C.ar      1 O75        -0.0685
     31 C31         7.4390   -3.5420    1.9990 C.ar      1 O75        -0.0584
     32 C32         6.6820   -4.4580    5.6140 C.3       1 O75         0.0171
     33 C33         6.2240   -5.6580    6.4600 C.3       1 O75        -0.0928
     34 N34         4.7640   -5.8090    6.4570 N.4       1 O75         0.4000
     35 C35         4.2130   -6.9630    7.1630 C.3       1 O75        -0.1260
     36 C36         3.8710   -4.8560    5.7920 C.3       1 O75        -0.1260
     37 H          12.7251   -1.9924    8.3824 H         1 O75         0.0756
     38 H          17.4992   -3.1532    5.0629 H         1 O75         0.1164
     39 H          17.7233   -0.5146    6.3891 H         1 O75         0.1393
     40 H          15.3232   -0.3182    9.9788 H         1 O75         0.0479
     41 H          13.5957   -0.0668    9.5674 H         1 O75         0.0479
     42 H          15.9593    1.2366    8.1881 H         1 O75         0.0290
     43 H          14.8853    2.0164    9.3898 H         1 O75         0.0290
     44 H          14.0355    0.8765    6.7096 H         1 O75         0.0232
     45 H          12.9673    1.6521    7.9048 H         1 O75         0.0232
     46 H          14.2358    2.6036    7.0944 H         1 O75         0.0232
     47 H          11.0509   -2.8387    6.9251 H         1 O75         0.0938
     48 H          10.2509   -6.8206    5.5309 H         1 O75         0.0933
     49 H          14.3070   -5.4644    5.9181 H         1 O75         0.0924
     50 H           7.9843   -5.5630    3.4906 H         1 O75         0.0685
     51 H           9.5758   -4.8474    3.8480 H         1 O75         0.0685
     52 H           8.8947   -2.1526    4.7421 H         1 O75         0.0557
     53 H           8.1774   -0.0750    3.5726 H         1 O75         0.0599
     54 H           7.0187   -0.2345    1.3900 H         1 O75         0.0559
     55 H           6.5428   -2.4362    0.3781 H         1 O75         0.0599
     56 H           7.2283   -4.5176    1.5609 H         1 O75         0.0557
     57 H           6.1276   -4.4271    4.6760 H         1 O75         0.0503
     58 H           6.4948   -3.5278    6.1504 H         1 O75         0.0503
     59 H           6.5471   -5.4930    7.4879 H         1 O75         0.0037
     60 H           6.6606   -6.5613    6.0339 H         1 O75         0.0037
     61 H           4.6029   -7.8790    6.7192 H         1 O75        -0.0019
     62 H           4.5002   -6.9158    8.2134 H         1 O75        -0.0019
     63 H           3.1261   -6.9523    7.0814 H         1 O75        -0.0019
     64 H           4.0062   -3.8670    6.2299 H         1 O75        -0.0019
     65 H           4.1077   -4.8194    4.7286 H         1 O75        -0.0019
     66 H           2.8373   -5.1753    5.9246 H         1 O75        -0.0019
@<TRIPOS>BOND
     1    1    2 ar 
     2    1    6 ar 
     3    1   12 1  
     4    2    3 ar 
     5    3    4 ar 
     6    3    7 1  
     7    4    5 ar 
     8    5    6 ar 
     9    5    9 1  
    10    7    8 2  
    11    9   10 1  
    12   10   11 1  
    13   12   13 ar 
    14   12   17 ar 
    15   13   14 ar 
    16   14   15 ar 
    17   14   22 1  
    18   15   16 ar 
    19   16   17 ar 
    20   16   18 1  
    21   18   19 1  
    22   18   20 1  
    23   18   21 1  
    24   22   23 2  
    25   22   24 am 
    26   24   25 1  
    27   24   32 1  
    28   25   26 1  
    29   26   27 ar 
    30   26   31 ar 
    31   27   28 ar 
    32   28   29 ar 
    33   29   30 ar 
    34   30   31 ar 
    35   32   33 1  
    36   33   34 1  
    37   34   35 1  
    38   34   36 1  
    39    6   37 1  
    40    7   38 1  
    41    8   39 1  
    42    9   40 1  
    43    9   41 1  
    44   10   42 1  
    45   10   43 1  
    46   11   44 1  
    47   11   45 1  
    48   11   46 1  
    49   13   47 1  
    50   15   48 1  
    51   17   49 1  
    52   25   50 1  
    53   25   51 1  
    54   27   52 1  
    55   28   53 1  
    56   29   54 1  
    57   30   55 1  
    58   31   56 1  
    59   32   57 1  
    60   32   58 1  
    61   33   59 1  
    62   33   60 1  
    63   35   61 1  
    64   35   62 1  
    65   35   63 1  
    66   36   64 1  
    67   36   65 1  
    68   36   66 1  
@<TRIPOS>SUBSTRUCTURE
     1 O75         1

