3o1g_ligand
  -I-interpret- 

 67 69  0  0  0  0  0  0  0  0999 V2000
   13.8270   -3.0190    6.8110 C   0  0  0  0  0
   15.0070   -3.0930    6.1640 N   0  0  0  0  0
   16.0020   -2.2520    6.4700 C   0  0  0  0  0
   15.8670   -1.2810    7.4130 N   0  0  0  0  0
   14.7120   -1.1740    8.1130 C   0  0  0  0  0
   13.6610   -2.0530    7.8270 C   0  0  0  0  0
   17.2430   -2.3000    5.6910 C   0  0  0  0  0
   17.9940   -1.2960    5.7920 N   0  0  0  0  0
   14.6150   -0.0910    9.1820 C   0  0  0  0  0
   14.9510    1.2670    8.6010 C   0  0  0  0  0
   13.9790    1.6250    7.5000 C   0  0  0  0  0
   12.7880   -4.0310    6.4500 C   0  0  0  0  0
   11.4130   -3.7990    6.5580 C   0  0  0  0  0
   10.5060   -4.7910    6.1980 C   0  0  0  0  0
   10.9630   -6.0320    5.7740 C   0  0  0  0  0
   12.3320   -6.2700    5.6590 C   0  0  0  0  0
   13.2370   -5.2740    6.0010 C   0  0  0  0  0
   12.8600   -7.6050    5.2200 C   0  0  0  0  0
   13.6980   -7.4650    4.2430 F   0  0  0  0  0
   11.9090   -8.4220    4.8840 F   0  0  0  0  0
   13.4780   -8.1770    6.2270 F   0  0  0  0  0
    9.0190   -4.6080    6.3410 C   0  0  0  0  0
    8.6450   -4.5500    7.4820 O   0  0  0  0  0
    8.1360   -4.6090    5.3440 N   0  0  0  0  0
    8.4980   -4.7110    3.9360 C   0  0  0  0  0
    8.0920   -3.4490    3.2170 C   0  0  0  0  0
    8.3710   -2.2120    3.7880 C   0  0  0  0  0
    7.9760   -1.0510    3.1310 C   0  0  0  0  0
    7.3230   -1.1440    1.9080 C   0  0  0  0  0
    7.0540   -2.3770    1.3390 C   0  0  0  0  0
    7.4390   -3.5420    1.9990 C   0  0  0  0  0
    6.6820   -4.4580    5.6140 C   0  0  0  0  0
    6.2240   -5.6580    6.4600 C   0  0  0  0  0
    4.7640   -5.8090    6.4570 N   0  3  0  0  0
    4.2130   -6.9630    7.1630 C   0  0  0  0  0
    3.8710   -4.8560    5.7920 C   0  0  0  0  0
   12.7251   -1.9924    8.3824 H   0  0  0  0  0
   17.4992   -3.1532    5.0629 H   0  0  0  0  0
   17.7233   -0.5146    6.3891 H   0  0  0  0  0
   15.3232   -0.3182    9.9788 H   0  0  0  0  0
   13.5957   -0.0668    9.5674 H   0  0  0  0  0
   15.9593    1.2366    8.1881 H   0  0  0  0  0
   14.8853    2.0164    9.3898 H   0  0  0  0  0
   14.0355    0.8765    6.7096 H   0  0  0  0  0
   12.9673    1.6521    7.9048 H   0  0  0  0  0
   14.2358    2.6036    7.0944 H   0  0  0  0  0
   11.0509   -2.8387    6.9251 H   0  0  0  0  0
   10.2509   -6.8206    5.5309 H   0  0  0  0  0
   14.3070   -5.4644    5.9181 H   0  0  0  0  0
    7.9843   -5.5630    3.4906 H   0  0  0  0  0
    9.5758   -4.8474    3.8480 H   0  0  0  0  0
    8.8947   -2.1526    4.7421 H   0  0  0  0  0
    8.1774   -0.0750    3.5726 H   0  0  0  0  0
    7.0187   -0.2345    1.3900 H   0  0  0  0  0
    6.5428   -2.4362    0.3781 H   0  0  0  0  0
    7.2283   -4.5176    1.5609 H   0  0  0  0  0
    6.1276   -4.4271    4.6760 H   0  0  0  0  0
    6.4948   -3.5278    6.1504 H   0  0  0  0  0
    6.5471   -5.4930    7.4879 H   0  0  0  0  0
    6.6606   -6.5613    6.0339 H   0  0  0  0  0
    4.5949   -5.0453    5.8023 H   0  0  0  0  0
    4.6029   -7.8790    6.7192 H   0  0  0  0  0
    4.5002   -6.9158    8.2134 H   0  0  0  0  0
    3.1261   -6.9523    7.0814 H   0  0  0  0  0
    4.0062   -3.8670    6.2299 H   0  0  0  0  0
    4.1077   -4.8194    4.7286 H   0  0  0  0  0
    2.8373   -5.1753    5.9246 H   0  0  0  0  0
  1  2  4  0  0  0
  1  6  4  0  0  0
  1 12  1  0  0  0
  2  3  4  0  0  0
  3  4  4  0  0  0
  3  7  1  0  0  0
  4  5  4  0  0  0
  5  6  4  0  0  0
  5  9  1  0  0  0
  7  8  2  0  0  0
  9 10  1  0  0  0
 10 11  1  0  0  0
 12 13  4  0  0  0
 12 17  4  0  0  0
 13 14  4  0  0  0
 14 15  4  0  0  0
 14 22  1  0  0  0
 15 16  4  0  0  0
 16 17  4  0  0  0
 16 18  1  0  0  0
 18 19  1  0  0  0
 18 20  1  0  0  0
 18 21  1  0  0  0
 22 23  2  0  0  0
 22 24  1  0  0  0
 24 25  1  0  0  0
 24 32  1  0  0  0
 25 26  1  0  0  0
 26 27  4  0  0  0
 26 31  4  0  0  0
 27 28  4  0  0  0
 28 29  4  0  0  0
 29 30  4  0  0  0
 30 31  4  0  0  0
 32 33  1  0  0  0
 33 34  1  0  0  0
 34 35  1  0  0  0
 34 36  1  0  0  0
  6 37  1  0  0  0
  7 38  1  0  0  0
  8 39  1  0  0  0
  9 40  1  0  0  0
  9 41  1  0  0  0
 10 42  1  0  0  0
 10 43  1  0  0  0
 11 44  1  0  0  0
 11 45  1  0  0  0
 11 46  1  0  0  0
 13 47  1  0  0  0
 15 48  1  0  0  0
 17 49  1  0  0  0
 25 50  1  0  0  0
 25 51  1  0  0  0
 27 52  1  0  0  0
 28 53  1  0  0  0
 29 54  1  0  0  0
 30 55  1  0  0  0
 31 56  1  0  0  0
 32 57  1  0  0  0
 32 58  1  0  0  0
 33 59  1  0  0  0
 33 60  1  0  0  0
 34 61  1  0  0  0
 35 62  1  0  0  0
 35 63  1  0  0  0
 35 64  1  0  0  0
 36 65  1  0  0  0
 36 66  1  0  0  0
 36 67  1  0  0  0
M  END
$$$$
