2r6f_ligand
  -I-interpret- 

 42 44  0  0  0  0  0  0  0  0999 V2000
   54.0190   25.8980   18.7280 P   0  0  0  0  0
   54.4010   25.9550   17.2750 O   0  0  0  0  0
   54.7880   24.8710   19.5160 O   0  0  0  0  0
   52.5280   25.8310   18.9460 O   0  0  0  0  0
   54.0040   27.9220   20.6980 P   0  0  0  0  0
   54.5520   27.0240   21.7760 O   0  0  0  0  0
   52.5190   28.1360   20.6120 O   0  0  0  0  0
   54.5240   27.3310   19.2930 O   0  0  0  0  0
   54.6120   29.4070   20.8520 O   0  0  0  0  0
   55.9830   29.7100   20.6090 C   0  0  0  0  0
   56.6700   30.4510   21.7670 C   0  0  0  0  0
   55.7380   31.0470   22.6770 O   0  0  0  0  0
   57.5190   29.5170   22.6160 C   0  0  0  0  0
   58.7210   30.1740   23.0160 O   0  0  0  0  0
   56.6800   29.2380   23.8360 C   0  0  0  0  0
   57.4630   28.8990   24.9780 O   0  0  0  0  0
   55.9810   30.5660   24.0100 C   0  0  0  0  0
   54.7470   30.4150   24.8200 N   0  0  0  0  0
   53.6030   29.8100   24.4440 C   0  0  0  0  0
   52.6830   29.8590   25.4420 N   0  0  0  0  0
   53.2450   30.5090   26.4740 C   0  0  0  0  0
   52.8340   30.9110   27.8290 C   0  0  0  0  0
   51.6010   30.6170   28.2880 N   0  0  0  0  0
   53.7250   31.5720   28.5960 N   0  0  0  0  0
   54.9600   31.8760   28.1580 C   0  0  0  0  0
   55.3940   31.5410   26.9300 N   0  0  0  0  0
   54.6020   30.8700   26.0610 C   0  0  0  0  0
   54.4966   24.8871   20.4306 H   0  0  0  0  0
   52.3446   25.7967   19.8877 H   0  0  0  0  0
   55.5085   26.9861   21.7037 H   0  0  0  0  0
   56.0217   30.3631   19.7371 H   0  0  0  0  0
   56.5058   28.7632   20.4737 H   0  0  0  0  0
   57.2743   31.2127   21.2743 H   0  0  0  0  0
   57.7964   28.6124   22.0749 H   0  0  0  0  0
   59.2485   29.5761   23.5506 H   0  0  0  0  0
   56.0138   28.3824   23.7257 H   0  0  0  0  0
   56.8827   28.7317   25.7242 H   0  0  0  0  0
   56.5815   31.2874   24.5641 H   0  0  0  0  0
   53.4385   29.3450   23.4720 H   0  0  0  0  0
   50.9431   30.1115   27.6947 H   0  0  0  0  0
   51.3260   30.9001   29.2286 H   0  0  0  0  0
   55.6346   32.4143   28.8237 H   0  0  0  0  0
  1  2  2  0  0  0
  1  3  1  0  0  0
  1  4  1  0  0  0
  8  1  1  0  0  0
  5  6  1  0  0  0
  5  7  2  0  0  0
  5  8  1  0  0  0
  5  9  1  0  0  0
  9 10  1  0  0  0
 10 11  1  0  0  0
 11 12  1  0  0  0
 11 13  1  0  0  0
 12 17  1  0  0  0
 13 14  1  0  0  0
 13 15  1  0  0  0
 15 16  1  0  0  0
 15 17  1  0  0  0
 17 18  1  0  0  0
 18 19  4  0  0  0
 18 27  4  0  0  0
 19 20  4  0  0  0
 20 21  4  0  0  0
 21 22  4  0  0  0
 21 27  4  0  0  0
 22 23  1  0  0  0
 22 24  4  0  0  0
 24 25  4  0  0  0
 25 26  4  0  0  0
 26 27  4  0  0  0
  3 28  1  0  0  0
  4 29  1  0  0  0
  6 30  1  0  0  0
 10 31  1  0  0  0
 10 32  1  0  0  0
 11 33  1  0  0  0
 13 34  1  0  0  0
 14 35  1  0  0  0
 15 36  1  0  0  0
 16 37  1  0  0  0
 17 38  1  0  0  0
 19 39  1  0  0  0
 23 40  1  0  0  0
 23 41  1  0  0  0
 25 42  1  0  0  0
M  END
$$$$
