### 
### Created by X-TOOL on Mon Sep 10 21:12:59 2018
### 

@<TRIPOS>MOLECULE
2r6f_ligand
   39    41     1     0     0
SMALL
GAST_HUCK


@<TRIPOS>ATOM
      1 PB         54.0190   25.8980   18.7280 P.3       1 ADP         0.2069
      2 O1B        54.4010   25.9550   17.2750 O.co2     1 ADP        -0.5891
      3 O2B        54.7880   24.8710   19.5160 O.co2     1 ADP        -0.5891
      4 O3B        52.5280   25.8310   18.9460 O.co2     1 ADP        -0.5891
      5 PA         54.0040   27.9220   20.6980 P.3       1 ADP         0.3276
      6 O1A        54.5520   27.0240   21.7760 O.co2     1 ADP        -0.5556
      7 O2A        52.5190   28.1360   20.6120 O.co2     1 ADP        -0.5556
      8 O3A        54.5240   27.3310   19.2930 O.3       1 ADP        -0.1548
      9 O5'        54.6120   29.4070   20.8520 O.3       1 ADP        -0.2436
     10 C5'        55.9830   29.7100   20.6090 C.3       1 ADP         0.1132
     11 C4'        56.6700   30.4510   21.7670 C.3       1 ADP         0.1189
     12 O4'        55.7380   31.0470   22.6770 O.3       1 ADP        -0.3364
     13 C3'        57.5190   29.5170   22.6160 C.3       1 ADP         0.1149
     14 O3'        58.7210   30.1740   23.0160 O.3       1 ADP        -0.3864
     15 C2'        56.6800   29.2380   23.8360 C.3       1 ADP         0.1385
     16 O2'        57.4630   28.8990   24.9780 O.3       1 ADP        -0.3836
     17 C1'        55.9810   30.5660   24.0100 C.3       1 ADP         0.2010
     18 N9         54.7470   30.4150   24.8200 N.pl3     1 ADP        -0.1919
     19 C8         53.6030   29.8100   24.4440 C.2       1 ADP         0.1123
     20 N7         52.6830   29.8590   25.4420 N.2       1 ADP        -0.2958
     21 C5         53.2450   30.5090   26.4740 C.ar      1 ADP         0.1045
     22 C6         52.8340   30.9110   27.8290 C.ar      1 ADP         0.1298
     23 N6         51.6010   30.6170   28.2880 N.pl3     1 ADP        -0.3152
     24 N1         53.7250   31.5720   28.5960 N.ar      1 ADP        -0.2698
     25 C2         54.9600   31.8760   28.1580 C.ar      1 ADP         0.0533
     26 N3         55.3940   31.5410   26.9300 N.ar      1 ADP        -0.2714
     27 C4         54.6020   30.8700   26.0610 C.ar      1 ADP         0.1613
     28 H1         56.0447   30.3399   19.7093 H         1 ADP         0.0648
     29 H2         56.5207   28.7666   20.4337 H         1 ADP         0.0648
     30 H3         57.3087   31.2360   21.3360 H         1 ADP         0.0651
     31 H4         57.7543   28.5905   22.0718 H         1 ADP         0.0648
     32 H5         59.2430   29.5823   23.5451 H         1 ADP         0.2100
     33 H6         55.9593   28.4294   23.6442 H         1 ADP         0.0676
     34 H7         58.0473   29.6189   25.1850 H         1 ADP         0.2101
     35 H8         56.6469   31.2693   24.5314 H         1 ADP         0.0996
     36 H9         53.4387   29.3454   23.4729 H         1 ADP         0.1349
     37 H10        51.3233   30.9029   29.2378 H         1 ADP         0.1820
     38 H11        50.9366   30.1065   27.6889 H         1 ADP         0.1820
     39 H12        55.6309   32.4114   28.8201 H         1 ADP         0.0996
@<TRIPOS>BOND
     1    1    2 ar 
     2    1    3 ar 
     3    1    4 ar 
     4    8    1 1  
     5    5    6 ar 
     6    5    7 ar 
     7    5    8 1  
     8    5    9 1  
     9    9   10 1  
    10   10   11 1  
    11   11   12 1  
    12   11   13 1  
    13   12   17 1  
    14   13   14 1  
    15   13   15 1  
    16   15   16 1  
    17   15   17 1  
    18   17   18 1  
    19   18   19 1  
    20   18   27 1  
    21   19   20 2  
    22   20   21 1  
    23   21   22 ar 
    24   21   27 ar 
    25   22   23 1  
    26   22   24 ar 
    27   24   25 ar 
    28   25   26 ar 
    29   26   27 ar 
    30   10   28 1  
    31   10   29 1  
    32   11   30 1  
    33   13   31 1  
    34   14   32 1  
    35   15   33 1  
    36   16   34 1  
    37   17   35 1  
    38   19   36 1  
    39   23   37 1  
    40   23   38 1  
    41   25   39 1  
@<TRIPOS>SUBSTRUCTURE
     1 ADP         1

