4fz3_ligand
  -I-interpret- 

114116  0  0  0  0  0  0  0  0999 V2000
   18.8080  -38.0760   12.9110 C   0  0  0  0  0
   20.0780  -38.3100   12.8530 O   0  0  0  0  0
   17.9960  -37.9640   14.1780 C   0  0  0  0  0
   18.2130  -37.1550   12.0390 N   0  0  0  0  0
   18.8520  -37.5940   10.8030 C   0  0  0  0  0
   19.9530  -36.7010   10.3140 C   0  0  0  0  0
   20.3460  -36.8570    9.1730 O   0  0  0  0  0
   17.8670  -37.5190    9.6710 C   0  0  0  0  0
   18.6280  -37.8570    8.3740 C   0  0  0  0  0
   17.9370  -37.1650    7.0810 C   0  0  0  0  0
   18.3350  -38.1290    6.0740 N   0  0  0  0  0
   17.9290  -38.1720    4.8070 C   0  0  0  0  0
   17.1800  -37.2430    4.2680 N   0  0  0  0  0
   18.4510  -39.1460    4.0750 N   0  0  0  0  0
   20.4890  -35.7900   11.0830 N   0  0  0  0  0
   21.1430  -34.6550   10.4620 C   0  0  0  0  0
   22.2450  -35.1640    9.4620 C   0  0  0  0  0
   23.2280  -35.7750    9.8760 O   0  0  0  0  0
   21.6740  -33.7510   11.6180 C   0  0  0  0  0
   20.5800  -33.2010   12.5610 C   0  0  0  0  0
   19.6000  -32.3110   12.1450 N   0  0  0  0  0
   20.3670  -33.4090   13.8900 C   0  0  0  0  0
   18.7790  -32.0310   13.1630 C   0  0  0  0  0
   19.2410  -32.6750   14.2440 N   0  0  0  0  0
   22.0390  -35.0060    8.0760 N   0  0  0  0  0
   22.9570  -35.5410    7.0430 C   0  0  0  0  0
   23.1210  -34.4620    6.0470 C   0  0  0  0  0
   22.1650  -33.7760    5.7340 O   0  0  0  0  0
   22.3810  -36.7570    6.3030 C   0  0  0  0  0
   22.8510  -38.1160    6.8390 C   0  0  0  0  0
   22.2150  -39.2620    6.0350 C   0  0  0  0  0
   22.4330  -40.6200    6.7010 C   0  0  0  0  0
   21.5530  -40.7480    7.8780 N   0  3  0  0  0
   29.2340  -28.9100    0.5980 O   0  0  0  0  0
   29.9340  -29.8170    0.9380 C   0  0  0  0  0
   31.4250  -29.6710    0.9020 C   0  0  0  0  0
   29.4010  -30.9750    1.3000 N   0  0  0  0  0
   27.9550  -31.1670    1.4120 C   0  0  0  0  0
   27.6230  -32.0980    2.5800 C   0  0  0  0  0
   26.1070  -32.1520    2.8490 C   0  0  0  0  0
   25.9000  -33.2840    3.8060 C   0  0  0  0  0
   24.4190  -33.4920    4.1510 C   0  0  0  0  0
   24.4030  -34.5720    5.1240 N   0  0  0  0  0
   23.6630  -34.0290    2.9290 C   0  0  0  0  0
   23.9150  -35.1830    2.6280 O   0  0  0  0  0
   22.9120  -33.1710    2.0930 N   0  0  0  0  0
   22.2490  -33.3380    0.9160 C   0  0  0  0  0
   22.3670  -34.5700    0.2990 C   0  0  0  0  0
   21.7270  -34.8040   -0.8960 C   0  0  0  0  0
   21.2620  -36.3330   -2.6690 C   0  0  0  0  0
   20.4320  -35.4220   -3.3330 C   0  0  0  0  0
   20.2320  -34.1520   -2.7530 C   0  0  0  0  0
   20.9160  -33.8310   -1.4720 C   0  0  0  0  0
   20.7730  -32.5860   -0.8360 C   0  0  0  0  0
   21.4210  -32.3450    0.3680 C   0  0  0  0  0
   19.3520  -33.1110   -3.4040 C   0  0  0  0  0
   21.9130  -36.0280   -1.4780 O   0  0  0  0  0
   21.4960  -37.5620   -3.1570 O   0  0  0  0  0
   18.0618  -38.8992   14.7340 H   0  0  0  0  0
   18.3866  -37.1492   14.7875 H   0  0  0  0  0
   16.9551  -37.7630   13.9244 H   0  0  0  0  0
   17.5407  -36.4082   12.2141 H   0  0  0  0  0
   19.2292  -38.5872   11.0469 H   0  0  0  0  0
   17.4314  -36.5217    9.6093 H   0  0  0  0  0
   17.0498  -38.2228    9.8287 H   0  0  0  0  0
   18.6119  -38.9382    8.2364 H   0  0  0  0  0
   19.6468  -37.4801    8.4637 H   0  0  0  0  0
   18.2476  -36.1386    6.8857 H   0  0  0  0  0
   16.8626  -37.0013    7.1641 H   0  0  0  0  0
   18.9950  -38.8495    6.3669 H   0  0  0  0  0
   16.8822  -36.4416    4.8242 H   0  0  0  0  0
   18.2720  -39.1818    3.0715 H   0  0  0  0  0
   19.0317  -39.8597    4.5152 H   0  0  0  0  0
   20.4480  -35.8759   12.0985 H   0  0  0  0  0
   20.4692  -34.0526    9.8528 H   0  0  0  0  0
   22.1545  -32.8902   11.1529 H   0  0  0  0  0
   22.3359  -34.3683   12.2254 H   0  0  0  0  0
   20.9669  -34.0337   14.5518 H   0  0  0  0  0
   17.8949  -31.3948   13.1212 H   0  0  0  0  0
   21.2120  -34.4950    7.7672 H   0  0  0  0  0
   23.8833  -35.8549    7.5241 H   0  0  0  0  0
   22.7203  -36.6892    5.2694 H   0  0  0  0  0
   21.2990  -36.7227    6.4307 H   0  0  0  0  0
   22.5514  -38.2074    7.8830 H   0  0  0  0  0
   23.9353  -38.1774    6.7456 H   0  0  0  0  0
   22.6818  -39.2869    5.0503 H   0  0  0  0  0
   21.1419  -39.0808    5.9747 H   0  0  0  0  0
   23.4725  -40.7025    7.0183 H   0  0  0  0  0
   22.1992  -41.4116    5.9891 H   0  0  0  0  0
   21.7041  -41.6563    8.3169 H   0  0  0  0  0
   21.7689  -40.0068    8.5447 H   0  0  0  0  0
   20.5796  -40.6691    7.5835 H   0  0  0  0  0
   31.7437  -29.4615   -0.1191 H   0  0  0  0  0
   31.7242  -28.8497    1.5532 H   0  0  0  0  0
   31.8878  -30.5960    1.2458 H   0  0  0  0  0
   30.0198  -31.7589    1.5075 H   0  0  0  0  0
   27.5859  -31.6138    0.4888 H   0  0  0  0  0
   27.4832  -30.2000    1.5866 H   0  0  0  0  0
   28.1181  -31.7189    3.4740 H   0  0  0  0  0
   27.9640  -33.1021    2.3277 H   0  0  0  0  0
   25.5469  -32.3063    1.9267 H   0  0  0  0  0
   25.7453  -31.2115    3.2646 H   0  0  0  0  0
   26.4321  -33.0490    4.7278 H   0  0  0  0  0
   26.2689  -34.1957    3.3361 H   0  0  0  0  0
   23.9700  -32.5598    4.4938 H   0  0  0  0  0
   25.1160  -35.2973    5.2012 H   0  0  0  0  0
   22.8544  -32.2174    2.4504 H   0  0  0  0  0
   22.9668  -35.3552    0.7593 H   0  0  0  0  0
   19.9522  -35.6876   -4.2750 H   0  0  0  0  0
   20.1541  -31.8105   -1.2874 H   0  0  0  0  0
   21.2882  -31.3937    0.8832 H   0  0  0  0  0
   19.7445  -32.8719   -4.3924 H   0  0  0  0  0
   18.3387  -33.5014   -3.4987 H   0  0  0  0  0
   19.3400  -32.2112   -2.7890 H   0  0  0  0  0
  1  2  2  0  0  0
  1  3  1  0  0  0
  4  1  1  0  0  0
  5  4  1  0  0  0
  6  5  1  0  0  0
  5  8  1  0  0  0
  6  7  2  0  0  0
 15  6  1  0  0  0
  8  9  1  0  0  0
  9 10  1  0  0  0
 10 11  1  0  0  0
 11 12  1  0  0  0
 12 13  2  0  0  0
 12 14  1  0  0  0
 16 15  1  0  0  0
 17 16  1  0  0  0
 16 19  1  0  0  0
 17 18  2  0  0  0
 25 17  1  0  0  0
 19 20  1  0  0  0
 20 21  4  0  0  0
 20 22  4  0  0  0
 21 23  4  0  0  0
 22 24  4  0  0  0
 24 23  4  0  0  0
 26 25  1  0  0  0
 27 26  1  0  0  0
 26 29  1  0  0  0
 27 28  2  0  0  0
 43 27  1  0  0  0
 29 30  1  0  0  0
 30 31  1  0  0  0
 31 32  1  0  0  0
 32 33  1  0  0  0
 35 34  2  0  0  0
 35 36  1  0  0  0
 37 35  1  0  0  0
 38 37  1  0  0  0
 39 38  1  0  0  0
 40 39  1  0  0  0
 41 40  1  0  0  0
 42 41  1  0  0  0
 42 43  1  0  0  0
 44 42  1  0  0  0
 44 45  2  0  0  0
 46 44  1  0  0  0
 47 46  1  0  0  0
 48 47  4  0  0  0
 47 55  4  0  0  0
 49 48  4  0  0  0
 49 53  4  0  0  0
 57 49  1  0  0  0
 50 51  1  0  0  0
 50 57  1  0  0  0
 50 58  2  0  0  0
 51 52  2  0  0  0
 52 53  1  0  0  0
 52 56  1  0  0  0
 53 54  4  0  0  0
 54 55  4  0  0  0
  3 59  1  0  0  0
  3 60  1  0  0  0
  3 61  1  0  0  0
  4 62  1  0  0  0
  5 63  1  0  0  0
  8 64  1  0  0  0
  8 65  1  0  0  0
  9 66  1  0  0  0
  9 67  1  0  0  0
 10 68  1  0  0  0
 10 69  1  0  0  0
 11 70  1  0  0  0
 13 71  1  0  0  0
 14 72  1  0  0  0
 14 73  1  0  0  0
 15 74  1  0  0  0
 16 75  1  0  0  0
 19 76  1  0  0  0
 19 77  1  0  0  0
 22 78  1  0  0  0
 23 79  1  0  0  0
 25 80  1  0  0  0
 26 81  1  0  0  0
 29 82  1  0  0  0
 29 83  1  0  0  0
 30 84  1  0  0  0
 30 85  1  0  0  0
 31 86  1  0  0  0
 31 87  1  0  0  0
 32 88  1  0  0  0
 32 89  1  0  0  0
 33 90  1  0  0  0
 33 91  1  0  0  0
 33 92  1  0  0  0
 36 93  1  0  0  0
 36 94  1  0  0  0
 36 95  1  0  0  0
 37 96  1  0  0  0
 38 97  1  0  0  0
 38 98  1  0  0  0
 39 99  1  0  0  0
 39100  1  0  0  0
 40101  1  0  0  0
 40102  1  0  0  0
 41103  1  0  0  0
 41104  1  0  0  0
 42105  1  0  0  0
 43106  1  0  0  0
 46107  1  0  0  0
 48108  1  0  0  0
 51109  1  0  0  0
 54110  1  0  0  0
 55111  1  0  0  0
 56112  1  0  0  0
 56113  1  0  0  0
 56114  1  0  0  0
M  END
$$$$
