5f90_ligand
  -I-interpret- 

 75 77  0  0  0  0  0  0  0  0999 V2000
  -22.9950    8.7060   41.7840 C   0  0  0  0  0
  -22.0280    7.4740   41.9160 C   0  0  0  0  0
  -20.5410    7.9000   41.5900 C   0  0  0  0  0
  -20.4920    8.5090   40.2030 C   0  0  0  0  0
  -21.5170    9.6260   40.1550 C   0  0  0  0  0
  -21.5200   10.2080   38.7510 C   0  0  0  0  0
  -22.0880    6.8540   43.1910 O   0  0  0  0  0
  -19.6940    6.7670   41.6760 O   0  0  0  0  0
  -20.8030    7.4800   39.1910 O   0  0  0  0  0
  -22.8630    9.0940   40.4300 O   0  0  0  0  0
  -22.4180   11.3190   38.7730 O   0  0  0  0  0
  -22.7640   11.9010   45.3470 C   0  0  0  0  0
  -22.2780   12.1660   43.9510 C   0  0  0  0  0
  -23.4220   11.8760   42.9690 C   0  0  0  0  0
  -23.9000   10.4360   43.1480 C   0  0  0  0  0
  -24.3610   10.2980   44.5890 C   0  0  0  0  0
  -24.9440    8.9320   44.8970 C   0  0  0  0  0
  -21.9150   13.5390   43.8840 O   0  0  0  0  0
  -22.9520   12.1010   41.6650 O   0  0  0  0  0
  -22.7770    9.5310   42.9030 O   0  0  0  0  0
  -23.2000   10.5310   45.4100 O   0  0  0  0  0
  -25.2670    8.8780   46.3310 O   0  0  0  0  0
  -22.5600   14.0040   49.4530 C   0  0  0  0  0
  -22.7700   13.5130   48.0290 C   0  0  0  0  0
  -21.6420   12.5800   47.6410 C   0  0  0  0  0
  -21.6740   11.3540   48.4630 C   0  0  0  0  0
  -20.4810   10.5230   48.1050 C   0  0  0  0  0
  -21.6670   13.0890   50.3470 C   0  0  0  0  0
  -23.8550   14.1730   50.0990 O   0  0  0  0  0
  -22.7960   14.6610   47.1550 O   0  0  0  0  0
  -21.6180   12.1780   46.2220 O   0  0  0  0  0
  -21.6090   11.6920   49.9460 O   0  0  0  0  0
  -20.9890    9.1990   48.0400 O   0  0  0  0  0
  -20.3320   13.6260   50.3780 O   0  0  0  0  0
  -20.1400   14.6310   51.3990 C   0  0  0  0  0
  -19.5550   13.9830   52.6600 C   0  0  0  0  0
  -18.3910   14.8340   53.1890 C   0  0  0  0  0
  -24.0764    8.6100   41.8816 H   0  0  0  0  0
  -22.3667    6.7366   41.1883 H   0  0  0  0  0
  -20.1957    8.6415   42.3105 H   0  0  0  0  0
  -19.4978    8.9011   39.9887 H   0  0  0  0  0
  -21.2638   10.3805   40.8998 H   0  0  0  0  0
  -21.8386    9.4637   38.0212 H   0  0  0  0  0
  -20.5185   10.5221   38.4571 H   0  0  0  0  0
  -22.9942    6.5993   43.3794 H   0  0  0  0  0
  -19.7419    6.3996   42.5616 H   0  0  0  0  0
  -20.1461    6.7813   39.2343 H   0  0  0  0  0
  -22.4512   11.7195   37.9012 H   0  0  0  0  0
  -23.6081   12.5193   45.6524 H   0  0  0  0  0
  -21.4253   11.5366   43.6964 H   0  0  0  0  0
  -24.2709   12.5328   43.1592 H   0  0  0  0  0
  -24.7080   10.1936   42.4577 H   0  0  0  0  0
  -25.1606   11.0129   44.7828 H   0  0  0  0  0
  -24.2229    8.1537   44.6474 H   0  0  0  0  0
  -25.8447    8.7687   44.3053 H   0  0  0  0  0
  -21.5986   13.7424   43.0008 H   0  0  0  0  0
  -23.6563   11.9239   41.0372 H   0  0  0  0  0
  -25.6377    8.0180   46.5422 H   0  0  0  0  0
  -22.0203   14.9462   49.3579 H   0  0  0  0  0
  -23.7100   12.9671   47.9481 H   0  0  0  0  0
  -20.7401   13.1653   47.8202 H   0  0  0  0  0
  -22.6030   10.8174   48.2707 H   0  0  0  0  0
  -19.6767   10.6207   48.8341 H   0  0  0  0  0
  -20.0268   10.8370   47.1652 H   0  0  0  0  0
  -22.1367   13.0900   51.3306 H   0  0  0  0  0
  -23.7248   14.4830   50.9982 H   0  0  0  0  0
  -22.9280   14.3697   46.2498 H   0  0  0  0  0
  -20.2779    8.5954   47.8126 H   0  0  0  0  0
  -21.0995   15.0885   51.6402 H   0  0  0  0  0
  -19.4515   15.3919   51.0316 H   0  0  0  0  0
  -19.1907   12.9849   52.4168 H   0  0  0  0  0
  -20.3296   13.9166   53.4240 H   0  0  0  0  0
  -17.6163   14.9025   52.4253 H   0  0  0  0  0
  -18.7537   15.8330   53.4311 H   0  0  0  0  0
  -17.9799   14.3683   54.0847 H   0  0  0  0  0
  1  2  1  0  0  0
  1 10  1  0  0  0
 20  1  1  0  0  0
  2  3  1  0  0  0
  2  7  1  0  0  0
  3  4  1  0  0  0
  3  8  1  0  0  0
  5  4  1  0  0  0
  4  9  1  0  0  0
  5  6  1  0  0  0
 10  5  1  0  0  0
  6 11  1  0  0  0
 12 13  1  0  0  0
 12 21  1  0  0  0
 31 12  1  0  0  0
 13 14  1  0  0  0
 13 18  1  0  0  0
 14 15  1  0  0  0
 14 19  1  0  0  0
 16 15  1  0  0  0
 15 20  1  0  0  0
 16 17  1  0  0  0
 21 16  1  0  0  0
 17 22  1  0  0  0
 24 23  1  0  0  0
 23 28  1  0  0  0
 23 29  1  0  0  0
 25 24  1  0  0  0
 24 30  1  0  0  0
 25 26  1  0  0  0
 25 31  1  0  0  0
 26 27  1  0  0  0
 26 32  1  0  0  0
 27 33  1  0  0  0
 28 32  1  0  0  0
 28 34  1  0  0  0
 34 35  1  0  0  0
 35 36  1  0  0  0
 36 37  1  0  0  0
  1 38  1  0  0  0
  2 39  1  0  0  0
  3 40  1  0  0  0
  4 41  1  0  0  0
  5 42  1  0  0  0
  6 43  1  0  0  0
  6 44  1  0  0  0
  7 45  1  0  0  0
  8 46  1  0  0  0
  9 47  1  0  0  0
 11 48  1  0  0  0
 12 49  1  0  0  0
 13 50  1  0  0  0
 14 51  1  0  0  0
 15 52  1  0  0  0
 16 53  1  0  0  0
 17 54  1  0  0  0
 17 55  1  0  0  0
 18 56  1  0  0  0
 19 57  1  0  0  0
 22 58  1  0  0  0
 23 59  1  0  0  0
 24 60  1  0  0  0
 25 61  1  0  0  0
 26 62  1  0  0  0
 27 63  1  0  0  0
 27 64  1  0  0  0
 28 65  1  0  0  0
 29 66  1  0  0  0
 30 67  1  0  0  0
 33 68  1  0  0  0
 35 69  1  0  0  0
 35 70  1  0  0  0
 36 71  1  0  0  0
 36 72  1  0  0  0
 37 73  1  0  0  0
 37 74  1  0  0  0
 37 75  1  0  0  0
M  END
$$$$
