### 
### Created by X-TOOL on Mon Sep 10 21:13:24 2018
### 

@<TRIPOS>MOLECULE
4qvq_ligand
   53    54     1     0     0
SMALL
GAST_HUCK


@<TRIPOS>ATOM
      1 N1         62.7990 -133.1150   36.0170 N.ar      1 BO2        -0.2509
      2 C2         62.2120 -134.3070   36.2210 C.ar      1 BO2         0.1532
      3 C3         62.2120 -135.2750   35.2170 C.ar      1 BO2         0.0620
      4 N4         62.8270 -134.9990   33.9900 N.ar      1 BO2        -0.2653
      5 C5         63.4350 -133.7520   33.7830 C.ar      1 BO2         0.0462
      6 C6         63.4200 -132.8060   34.8010 C.ar      1 BO2         0.0475
      7 C7         61.6190 -134.5470   37.4560 C.2       1 BO2         0.2349
      8 O8         60.9000 -133.6950   37.9780 O.2       1 BO2        -0.3755
      9 N9         61.9190 -135.7290   38.0230 N.am      1 BO2        -0.2600
     10 C10        61.4220 -136.0940   39.3560 C.3       1 BO2         0.1378
     11 C11        60.7270 -137.4330   39.3360 C.3       1 BO2         0.0213
     12 C12        59.5120 -137.2590   38.6560 C.ar      1 BO2        -0.0385
     13 C13        59.2910 -137.8680   37.4170 C.ar      1 BO2        -0.0601
     14 C14        58.0770 -137.6960   36.7540 C.ar      1 BO2        -0.0686
     15 C15        57.0730 -136.9170   37.3250 C.ar      1 BO2        -0.0687
     16 C16        57.2860 -136.3110   38.5600 C.ar      1 BO2        -0.0686
     17 C17        58.4980 -136.4860   39.2240 C.ar      1 BO2        -0.0601
     18 C18        62.6490 -136.1850   40.2590 C.2       1 BO2         0.1755
     19 O19        63.7520 -136.4440   39.7800 O.2       1 BO2        -0.3969
     20 N20        62.4300 -135.9410   41.5600 N.am      1 BO2        -0.4361
     21 C21        63.5340 -135.9730   42.5350 C.3       1 BO2        -0.2261
     22 C22        63.6400 -134.6750   43.3030 C.3       1 BO2        -0.1585
     23 C23        63.5920 -133.4680   42.3350 C.3       1 BO2        -0.0721
     24 C24        62.8830 -132.3030   43.0450 C.3       1 BO2        -0.0649
     25 C25        64.9970 -133.0400   41.8900 C.3       1 BO2        -0.0649
     26 B26        63.3080 -137.1000   43.5630 B         1 BO2         3.0000
     27 O27        62.0590 -136.8910   44.2410 O.3       1 BO2        -0.8710
     28 O28        63.2840 -138.3760   42.9120 O.3       1 BO2        -0.8710
     29 H          61.7386 -136.2355   35.3857 H         1 BO2         0.0978
     30 H          63.9129 -133.5279   32.8362 H         1 BO2         0.0958
     31 H          63.8849 -131.8377   34.6548 H         1 BO2         0.0941
     32 H          62.4954 -136.3762   37.5241 H         1 BO2         0.1883
     33 H          60.7275 -135.3244   39.7240 H         1 BO2         0.0823
     34 H          60.5379 -137.7750   40.3642 H         1 BO2         0.0474
     35 H          61.3496 -138.1731   38.8120 H         1 BO2         0.0474
     36 H          60.0680 -138.4772   36.9696 H         1 BO2         0.0557
     37 H          57.9138 -138.1692   35.7925 H         1 BO2         0.0599
     38 H          56.1290 -136.7832   36.8093 H         1 BO2         0.0559
     39 H          56.5077 -135.7021   39.0056 H         1 BO2         0.0599
     40 H          58.6549 -136.0183   40.1892 H         1 BO2         0.0557
     41 H          61.5030 -135.7342   41.8728 H         1 BO2         0.1459
     42 H          64.4783 -136.1479   41.9986 H         1 BO2        -0.1822
     43 H          64.5907 -134.6580   43.8561 H         1 BO2        -0.0063
     44 H          62.8019 -134.6042   44.0120 H         1 BO2        -0.0063
     45 H          63.0148 -133.7514   41.4426 H         1 BO2         0.0272
     46 H          62.8395 -131.4348   42.3710 H         1 BO2         0.0232
     47 H          63.4406 -132.0337   43.9541 H         1 BO2         0.0232
     48 H          61.8616 -132.6069   43.3178 H         1 BO2         0.0232
     49 H          65.4934 -133.8811   41.3839 H         1 BO2         0.0232
     50 H          65.5858 -132.7427   42.7703 H         1 BO2         0.0232
     51 H          64.9189 -132.1895   41.1968 H         1 BO2         0.0232
     52 H          61.9319 -137.5762   44.8866 H         1 BO2        -0.1290
     53 H          63.1547 -139.0585   43.5601 H         1 BO2        -0.1290
@<TRIPOS>BOND
     1    1    2 ar 
     2    1    6 ar 
     3    2    3 ar 
     4    2    7 1  
     5    3    4 ar 
     6    4    5 ar 
     7    5    6 ar 
     8    7    8 2  
     9    7    9 am 
    10    9   10 1  
    11   10   11 1  
    12   10   18 1  
    13   11   12 1  
    14   12   13 ar 
    15   12   17 ar 
    16   13   14 ar 
    17   14   15 ar 
    18   15   16 ar 
    19   16   17 ar 
    20   18   19 2  
    21   18   20 am 
    22   20   21 1  
    23   21   22 1  
    24   21   26 1  
    25   22   23 1  
    26   23   24 1  
    27   23   25 1  
    28   26   27 1  
    29   26   28 1  
    30    3   29 1  
    31    5   30 1  
    32    6   31 1  
    33    9   32 1  
    34   10   33 1  
    35   11   34 1  
    36   11   35 1  
    37   13   36 1  
    38   14   37 1  
    39   15   38 1  
    40   16   39 1  
    41   17   40 1  
    42   20   41 1  
    43   21   42 1  
    44   22   43 1  
    45   22   44 1  
    46   23   45 1  
    47   24   46 1  
    48   24   47 1  
    49   24   48 1  
    50   25   49 1  
    51   25   50 1  
    52   25   51 1  
    53   27   52 1  
    54   28   53 1  
@<TRIPOS>SUBSTRUCTURE
     1 BO2         1

