1lfo_ligand
  -I-interpret- 

 54 53  0  0  0  0  0  0  0  0999 V2000
   30.2200   39.6510   43.7100 C   0  0  0  0  0
   30.5060   40.7460   43.2560 O   0  0  0  0  0
   31.0960   38.9360   44.1640 O   0  0  0  0  0
   28.7630   39.1770   43.7320 C   0  0  0  0  0
   28.1480   38.9920   42.3500 C   0  0  0  0  0
   29.2010   38.9700   41.2540 C   0  0  0  0  0
   28.5690   38.8900   39.8780 C   0  0  0  0  0
   27.6650   37.6800   39.7460 C   0  0  0  0  0
   27.4130   37.3860   38.2860 C   0  0  0  0  0
   26.9850   35.9510   38.0790 C   0  0  0  0  0
   27.5080   35.5180   36.8110 C   0  0  0  0  0
   27.0810   34.3870   36.1540 C   0  0  0  0  0
   27.2160   33.0490   36.6760 C   0  0  0  0  0
   27.4250   32.1080   35.5040 C   0  0  0  0  0
   27.2770   30.6580   35.9160 C   0  0  0  0  0
   27.3270   29.7590   34.6940 C   0  0  0  0  0
   27.0860   28.3190   35.0790 C   0  0  0  0  0
   27.2450   27.4060   33.8770 C   0  0  0  0  0
   26.8250   25.9890   34.2170 C   0  0  0  0  0
   28.0140   25.2990   34.8940 C   0  0  0  0  0
   29.7089   41.1789   42.9416 H   0  0  0  0  0
   28.1819   39.9443   44.2435 H   0  0  0  0  0
   28.7475   38.2048   44.2246 H   0  0  0  0  0
   27.4779   39.8307   42.1610 H   0  0  0  0  0
   27.6231   38.0368   42.3365 H   0  0  0  0  0
   29.8298   38.0912   41.3968 H   0  0  0  0  0
   29.7816   39.8905   41.3144 H   0  0  0  0  0
   29.3654   38.8062   39.1385 H   0  0  0  0  0
   27.9682   39.7862   39.7233 H   0  0  0  0  0
   26.7158   37.8837   40.2415 H   0  0  0  0  0
   28.1462   36.8186   40.2091 H   0  0  0  0  0
   28.3376   37.5548   37.7340 H   0  0  0  0  0
   26.6151   38.0397   37.9337 H   0  0  0  0  0
   25.8977   35.8742   38.0873 H   0  0  0  0  0
   27.3673   35.3212   38.8823 H   0  0  0  0  0
   28.2872   36.1203   36.3438 H   0  0  0  0  0
   26.6113   34.5097   35.1781 H   0  0  0  0  0
   26.3199   32.7683   37.2295 H   0  0  0  0  0
   28.0639   32.9946   37.3588 H   0  0  0  0  0
   28.4351   32.2549   35.1217 H   0  0  0  0  0
   26.6715   32.3287   34.7479 H   0  0  0  0  0
   26.3185   30.5254   36.4179 H   0  0  0  0  0
   28.0930   30.3927   36.5881 H   0  0  0  0  0
   28.3132   29.8408   34.2371 H   0  0  0  0  0
   26.5507   30.0712   33.9955 H   0  0  0  0  0
   26.0699   28.2228   35.4615 H   0  0  0  0  0
   27.8140   28.0314   35.8376 H   0  0  0  0  0
   28.2929   27.3994   33.5771 H   0  0  0  0  0
   26.6131   27.7754   33.0693 H   0  0  0  0  0
   26.5395   25.4512   33.3129 H   0  0  0  0  0
   25.9629   25.9991   34.8839 H   0  0  0  0  0
   28.8636   25.2892   34.2113 H   0  0  0  0  0
   28.2806   25.8432   35.8000 H   0  0  0  0  0
   27.7406   24.2755   35.1506 H   0  0  0  0  0
  1  2  1  0  0  0
  1  3  2  0  0  0
  1  4  1  0  0  0
  4  5  1  0  0  0
  5  6  1  0  0  0
  6  7  1  0  0  0
  7  8  1  0  0  0
  8  9  1  0  0  0
  9 10  1  0  0  0
 10 11  1  0  0  0
 11 12  2  0  0  0
 12 13  1  0  0  0
 13 14  1  0  0  0
 14 15  1  0  0  0
 15 16  1  0  0  0
 16 17  1  0  0  0
 17 18  1  0  0  0
 18 19  1  0  0  0
 19 20  1  0  0  0
  2 21  1  0  0  0
  4 22  1  0  0  0
  4 23  1  0  0  0
  5 24  1  0  0  0
  5 25  1  0  0  0
  6 26  1  0  0  0
  6 27  1  0  0  0
  7 28  1  0  0  0
  7 29  1  0  0  0
  8 30  1  0  0  0
  8 31  1  0  0  0
  9 32  1  0  0  0
  9 33  1  0  0  0
 10 34  1  0  0  0
 10 35  1  0  0  0
 11 36  1  0  0  0
 12 37  1  0  0  0
 13 38  1  0  0  0
 13 39  1  0  0  0
 14 40  1  0  0  0
 14 41  1  0  0  0
 15 42  1  0  0  0
 15 43  1  0  0  0
 16 44  1  0  0  0
 16 45  1  0  0  0
 17 46  1  0  0  0
 17 47  1  0  0  0
 18 48  1  0  0  0
 18 49  1  0  0  0
 19 50  1  0  0  0
 19 51  1  0  0  0
 20 52  1  0  0  0
 20 53  1  0  0  0
 20 54  1  0  0  0
M  END
$$$$
