6ex1_ligand
  -I-interpret- 

 47 49  0  0  0  0  0  0  0  0999 V2000
   12.8190   34.3820   18.0860 C   0  0  0  0  0
   13.2480   35.0530   19.2180 C   0  0  0  0  0
   14.2700   35.9860   19.1120 C   0  0  0  0  0
   14.8410   36.2740   17.8840 C   0  0  0  0  0
   14.4120   35.5890   16.7580 C   0  0  0  0  0
   13.4080   34.6230   16.8490 C   0  0  0  0  0
   13.0520   33.7570   15.6830 C   0  0  0  0  0
   12.9140   32.5600   15.8600 O   0  0  0  0  0
   13.0060   34.3040   14.4530 N   0  0  0  0  0
   12.9180   33.4060   13.2960 C   0  0  0  0  0
   12.2810   34.0720   12.0980 C   0  0  0  0  0
   12.6200   35.4710   11.8150 N   0  3  0  0  0
   13.4840   36.0900   12.8220 C   0  0  0  0  0
   12.9780   35.7570   14.2160 C   0  0  0  0  0
   14.9090   36.7320   20.5820 S   0  0  0  0  0
   15.1450   35.6750   21.5160 O   0  0  0  0  0
   14.0080   37.7830   20.9560 O   0  0  0  0  0
   16.3200   37.4130   20.2590 N   0  0  0  0  0
   10.7620   33.8430   12.1240 C   0  0  0  0  0
   10.0230   34.3810   13.3270 C   0  0  0  0  0
    9.4640   35.6540   13.3050 C   0  0  0  0  0
    8.7610   36.1370   14.3990 C   0  0  0  0  0
    8.6120   35.3570   15.5280 C   0  0  0  0  0
    9.1600   34.0910   15.5620 C   0  0  0  0  0
    9.8590   33.6040   14.4680 C   0  0  0  0  0
   12.0098   33.6559   18.1647 H   0  0  0  0  0
   12.7870   34.8504   20.1847 H   0  0  0  0  0
   15.6202   37.0319   17.8035 H   0  0  0  0  0
   14.8637   35.8070   15.7902 H   0  0  0  0  0
   12.2996   32.5534   13.5767 H   0  0  0  0  0
   13.9304   33.1112   13.0197 H   0  0  0  0  0
   12.7442   33.5705   11.2483 H   0  0  0  0  0
   11.7463   35.9972   11.8014 H   0  0  0  0  0
   13.1275   35.4863   10.9303 H   0  0  0  0  0
   13.4756   37.1715   12.6861 H   0  0  0  0  0
   14.4985   35.7082   12.7079 H   0  0  0  0  0
   13.6225   36.2437   14.9480 H   0  0  0  0  0
   11.9499   36.1071   14.3082 H   0  0  0  0  0
   17.1686   37.0642   20.7047 H   0  0  0  0  0
   16.3711   38.1960   19.6074 H   0  0  0  0  0
   10.6186   32.7626   12.1385 H   0  0  0  0  0
   10.3608   34.3728   11.2600 H   0  0  0  0  0
    9.5794   36.2787   12.4192 H   0  0  0  0  0
    8.3250   37.1355   14.3670 H   0  0  0  0  0
    8.0638   35.7394   16.3890 H   0  0  0  0  0
    9.0430   33.4720   16.4515 H   0  0  0  0  0
   10.2845   32.6011   14.5030 H   0  0  0  0  0
  1  2  4  0  0  0
  1  6  4  0  0  0
  2  3  4  0  0  0
  3  4  4  0  0  0
  3 15  1  0  0  0
  4  5  4  0  0  0
  5  6  4  0  0  0
  6  7  1  0  0  0
  7  8  2  0  0  0
  7  9  1  0  0  0
  9 10  1  0  0  0
  9 14  1  0  0  0
 10 11  1  0  0  0
 11 12  1  0  0  0
 11 19  1  0  0  0
 12 13  1  0  0  0
 13 14  1  0  0  0
 15 16  2  0  0  0
 15 17  2  0  0  0
 15 18  1  0  0  0
 19 20  1  0  0  0
 20 21  4  0  0  0
 20 25  4  0  0  0
 21 22  4  0  0  0
 22 23  4  0  0  0
 23 24  4  0  0  0
 24 25  4  0  0  0
  1 26  1  0  0  0
  2 27  1  0  0  0
  4 28  1  0  0  0
  5 29  1  0  0  0
 10 30  1  0  0  0
 10 31  1  0  0  0
 11 32  1  0  0  0
 12 33  1  0  0  0
 12 34  1  0  0  0
 13 35  1  0  0  0
 13 36  1  0  0  0
 14 37  1  0  0  0
 14 38  1  0  0  0
 18 39  1  0  0  0
 18 40  1  0  0  0
 19 41  1  0  0  0
 19 42  1  0  0  0
 21 43  1  0  0  0
 22 44  1  0  0  0
 23 45  1  0  0  0
 24 46  1  0  0  0
 25 47  1  0  0  0
M  END
$$$$
