### 
### Created by X-TOOL on Mon Sep 10 21:13:31 2018
### 

@<TRIPOS>MOLECULE
5TG6_LIGAND
   34    35     1     0     0
SMALL
GAST_HUCK


@<TRIPOS>ATOM
      1 O9          2.6710   30.8910  -17.8980 O.2       1 J4W        -0.3678
      2 C8          3.7880   31.0050  -17.3830 C.2       1 J4W         0.3473
      3 O11         5.0060   31.0820  -18.1920 O.3       1 J4W        -0.2535
      4 C12         5.0400   31.4210  -19.5920 C.3       1 J4W         0.0909
      5 C15         6.5180   31.5040  -19.9910 C.3       1 J4W        -0.0320
      6 C14         4.3740   30.3280  -20.4170 C.3       1 J4W        -0.0320
      7 C13         4.3510   32.7720  -19.8460 C.3       1 J4W        -0.0320
      8 N1          4.0170   31.2100  -16.0920 N.am      1 J4W        -0.2319
      9 C5          3.0360   31.3630  -15.0640 C.ar      1 J4W        -0.0361
     10 C6          3.2630   32.4500  -14.2480 C.ar      1 J4W        -0.1633
     11 C7          2.4930   32.6220  -13.1200 C.ar      1 J4W        -0.1896
     12 C2          1.4670   31.6970  -12.8560 C.ar      1 J4W        -0.1755
     13 C4          2.0230   30.4020  -14.7840 C.ar      1 J4W        -0.1666
     14 C3          1.2990   30.5510  -13.5870 C.ar      1 J4W        -0.2040
     15 B9          0.0270   29.8010  -13.0460 B         1 J4W         3.0000
     16 O10        -1.1460   29.9480  -14.0210 O.3       1 J4W        -0.8710
     17 O8         -0.2750   30.5740  -11.8510 O.3       1 J4W        -0.8475
     18 C1          0.4930   31.7950  -11.7400 C.3       1 J4W        -0.1295
     19 H           6.5938   31.7529  -21.0495 H         1 J4W         0.0260
     20 H           7.0101   32.2755  -19.3988 H         1 J4W         0.0260
     21 H           6.9971   30.5423  -19.8074 H         1 J4W         0.0260
     22 H           3.3235   30.2519  -20.1364 H         1 J4W         0.0260
     23 H           4.4516   30.5754  -21.4757 H         1 J4W         0.0260
     24 H           4.8719   29.3771  -20.2274 H         1 J4W         0.0260
     25 H           4.4286   33.0248  -20.9034 H         1 J4W         0.0260
     26 H           3.3005   32.7013  -19.5641 H         1 J4W         0.0260
     27 H           4.8373   33.5442  -19.2499 H         1 J4W         0.0260
     28 H           4.9939   31.2639  -15.8037 H         1 J4W         0.2234
     29 H           4.0458   33.1676  -14.4937 H         1 J4W        -0.0258
     30 H           2.6748   33.4583  -12.4450 H         1 J4W        -0.0224
     31 H           1.8163   29.5817  -15.4714 H         1 J4W        -0.0260
     32 H          -1.2590   30.8743  -14.2466 H         1 J4W        -0.1290
     33 H          -0.1299   32.6870  -11.8073 H         1 J4W         0.0196
     34 H           0.9793   31.8949  -10.7697 H         1 J4W         0.0196
@<TRIPOS>BOND
     1    1    2 2  
     2    2    3 1  
     3    2    8 am 
     4    3    4 1  
     5    4    5 1  
     6    4    6 1  
     7    4    7 1  
     8    8    9 1  
     9    9   10 ar 
    10    9   13 ar 
    11   10   11 ar 
    12   11   12 ar 
    13   12   14 ar 
    14   12   18 1  
    15   13   14 ar 
    16   14   15 1  
    17   15   16 1  
    18   15   17 1  
    19   17   18 1  
    20    5   19 1  
    21    5   20 1  
    22    5   21 1  
    23    6   22 1  
    24    6   23 1  
    25    6   24 1  
    26    7   25 1  
    27    7   26 1  
    28    7   27 1  
    29    8   28 1  
    30   10   29 1  
    31   11   30 1  
    32   13   31 1  
    33   16   32 1  
    34   18   33 1  
    35   18   34 1  
@<TRIPOS>SUBSTRUCTURE
     1 J4W         1

