5TG6_LIGAND
  -I-interpret- 

 34 35  0  0  0  0  0  0  0  0999 V2000
    2.6710   30.8910  -17.8980 O   0  0  0  0  0
    3.7880   31.0050  -17.3830 C   0  0  0  0  0
    5.0060   31.0820  -18.1920 O   0  0  0  0  0
    5.0400   31.4210  -19.5920 C   0  0  0  0  0
    6.5180   31.5040  -19.9910 C   0  0  0  0  0
    4.3740   30.3280  -20.4170 C   0  0  0  0  0
    4.3510   32.7720  -19.8460 C   0  0  0  0  0
    4.0170   31.2100  -16.0920 N   0  0  0  0  0
    3.0360   31.3630  -15.0640 C   0  0  0  0  0
    3.2630   32.4500  -14.2480 C   0  0  0  0  0
    2.4930   32.6220  -13.1200 C   0  0  0  0  0
    1.4670   31.6970  -12.8560 C   0  0  0  0  0
    2.0230   30.4020  -14.7840 C   0  0  0  0  0
    1.2990   30.5510  -13.5870 C   0  0  0  0  0
    0.0270   29.8010  -13.0460 B   0  0  0  0  0
   -1.1460   29.9480  -14.0210 O   0  0  0  0  0
   -0.2750   30.5740  -11.8510 O   0  0  0  0  0
    0.4930   31.7950  -11.7400 C   0  0  0  0  0
    6.5938   31.7529  -21.0495 H   0  0  0  0  0
    7.0101   32.2755  -19.3988 H   0  0  0  0  0
    6.9971   30.5423  -19.8074 H   0  0  0  0  0
    3.3235   30.2519  -20.1364 H   0  0  0  0  0
    4.4516   30.5754  -21.4757 H   0  0  0  0  0
    4.8719   29.3771  -20.2274 H   0  0  0  0  0
    4.4286   33.0248  -20.9034 H   0  0  0  0  0
    3.3005   32.7013  -19.5641 H   0  0  0  0  0
    4.8373   33.5442  -19.2499 H   0  0  0  0  0
    4.9939   31.2639  -15.8037 H   0  0  0  0  0
    4.0458   33.1676  -14.4937 H   0  0  0  0  0
    2.6748   33.4583  -12.4450 H   0  0  0  0  0
    1.8163   29.5817  -15.4714 H   0  0  0  0  0
   -1.9106   29.4838  -13.6723 H   0  0  0  0  0
   -0.1299   32.6870  -11.8073 H   0  0  0  0  0
    0.9793   31.8949  -10.7697 H   0  0  0  0  0
  1  2  2  0  0  0
  2  3  1  0  0  0
  2  8  1  0  0  0
  3  4  1  0  0  0
  4  5  1  0  0  0
  4  6  1  0  0  0
  4  7  1  0  0  0
  8  9  1  0  0  0
  9 10  4  0  0  0
  9 13  4  0  0  0
 10 11  4  0  0  0
 11 12  4  0  0  0
 12 14  4  0  0  0
 12 18  1  0  0  0
 13 14  4  0  0  0
 14 15  1  0  0  0
 15 16  1  0  0  0
 15 17  1  0  0  0
 17 18  1  0  0  0
  5 19  1  0  0  0
  5 20  1  0  0  0
  5 21  1  0  0  0
  6 22  1  0  0  0
  6 23  1  0  0  0
  6 24  1  0  0  0
  7 25  1  0  0  0
  7 26  1  0  0  0
  7 27  1  0  0  0
  8 28  1  0  0  0
 10 29  1  0  0  0
 11 30  1  0  0  0
 13 31  1  0  0  0
 16 32  1  0  0  0
 18 33  1  0  0  0
 18 34  1  0  0  0
M  END
$$$$
