2vw2_ligand
  -I-interpret- 

 31 31  0  0  0  0  0  0  0  0999 V2000
   -7.8310   77.2760   20.2640 C   0  0  0  0  0
   -6.9230   77.0130   21.4710 C   0  0  0  0  0
   -5.6320   76.2430   21.1580 C   0  0  0  0  0
   -5.8500   74.9930   20.2930 C   0  0  0  0  0
   -4.8970   75.8610   22.3610 N   0  3  0  0  0
   -4.5790   76.7680   23.4500 C   0  0  0  0  0
   -3.2820   76.3610   24.1420 C   0  0  0  0  0
   -2.7870   77.4830   25.2760 S   0  0  0  0  0
   -3.8400   77.7170   26.2940 O   0  0  0  0  0
   -2.4810   78.7650   24.6090 O   0  0  0  0  0
   -1.5650   76.9580   25.9240 O   0  0  0  0  0
   -7.0830   75.0150   19.3840 C   0  0  0  0  0
   -7.5240   76.4300   19.0280 C   0  0  0  0  0
   -7.6807   78.3170   19.9781 H   0  0  0  0  0
   -8.8457   77.0251   20.5730 H   0  0  0  0  0
   -7.4947   76.3983   22.1662 H   0  0  0  0  0
   -6.6222   77.9873   21.8561 H   0  0  0  0  0
   -5.0382   76.9538   20.5832 H   0  0  0  0  0
   -5.9931   74.1625   20.9843 H   0  0  0  0  0
   -4.9844   74.9206   19.6345 H   0  0  0  0  0
   -3.9757   75.6244   21.9927 H   0  0  0  0  0
   -5.5283   75.1939   22.8046 H   0  0  0  0  0
   -5.3886   76.7354   24.1791 H   0  0  0  0  0
   -4.4575   77.7721   23.0437 H   0  0  0  0  0
   -2.5042   76.2832   23.3823 H   0  0  0  0  0
   -3.4560   75.4157   24.6561 H   0  0  0  0  0
   -4.0472   76.8896   26.7345 H   0  0  0  0  0
   -7.9019   74.5329   19.9180 H   0  0  0  0  0
   -6.8260   74.5009   18.4579 H   0  0  0  0  0
   -6.7091   76.9099   18.4860 H   0  0  0  0  0
   -8.4354   76.3589   18.4343 H   0  0  0  0  0
  1  2  1  0  0  0
  1 13  1  0  0  0
  2  3  1  0  0  0
  3  4  1  0  0  0
  3  5  1  0  0  0
  4 12  1  0  0  0
  5  6  1  0  0  0
  6  7  1  0  0  0
  7  8  1  0  0  0
  8  9  1  0  0  0
  8 10  2  0  0  0
  8 11  2  0  0  0
 12 13  1  0  0  0
  1 14  1  0  0  0
  1 15  1  0  0  0
  2 16  1  0  0  0
  2 17  1  0  0  0
  3 18  1  0  0  0
  4 19  1  0  0  0
  4 20  1  0  0  0
  5 21  1  0  0  0
  5 22  1  0  0  0
  6 23  1  0  0  0
  6 24  1  0  0  0
  7 25  1  0  0  0
  7 26  1  0  0  0
  9 27  1  0  0  0
 12 28  1  0  0  0
 12 29  1  0  0  0
 13 30  1  0  0  0
 13 31  1  0  0  0
M  END
$$$$
