5cxi_ligand
  -I-interpret- 

 67 70  0  0  0  0  0  0  0  0999 V2000
   -1.7580    7.0980   21.8160 C   0  0  0  0  0
   -8.6950    5.2660   18.9060 C   0  0  0  0  0
   -2.8060    7.3060   20.9130 C   0  0  0  0  0
   -2.9450    6.3740   19.8690 C   0  0  0  0  0
   -3.7940    8.3190   21.1040 C   0  0  0  0  0
   -7.1850    5.4150   18.6330 C   0  0  0  0  0
   -6.7760    6.2780   19.8130 C   0  0  0  0  0
   -7.8010    8.1450   18.4740 C   0  0  0  0  0
   -3.5650    9.3960   20.0460 C   0  0  0  0  0
   -7.8520    7.3320   19.7810 C   0  0  0  0  0
   -7.6590    8.2350   20.9880 C   0  0  0  0  0
   -6.2600    8.8540   20.9600 C   0  0  0  0  0
  -12.2060    5.2720   18.1750 S   0  0  0  0  0
  -11.4860    5.9360   19.6240 C   0  0  0  0  0
  -10.8270    8.2410   20.2150 C   0  0  0  0  0
  -10.4160    7.0090   19.4060 C   0  0  0  0  0
   -9.0710    6.4180   19.8610 C   0  0  0  0  0
  -11.7940    5.5770   20.7600 O   0  0  0  0  0
   -3.7630    8.9670   22.5020 C   0  0  0  0  0
   -2.3190    9.1770   22.9890 C   0  0  0  0  0
   -1.5290    8.0230   22.8360 C   0  0  0  0  0
   -0.6080    7.8070   23.6220 O   0  0  0  0  0
   -5.2070    7.7330   20.9670 C   0  0  0  0  0
   -5.3880    6.8780   19.7270 C   0  0  0  0  0
   -4.3510    5.7850   19.7780 C   0  0  0  0  0
  -12.6920    2.7790   19.3530 C   0  0  0  0  0
  -13.3740    4.0830   18.9300 C   0  0  0  0  0
  -13.6980    1.8520   19.9020 N   0  0  0  0  0
  -14.3420    0.9270   19.1640 C   0  0  0  0  0
  -14.1500    0.7750   17.9590 O   0  0  0  0  0
   -1.1227    6.2171   21.7235 H   0  0  0  0  0
   -8.9220    4.2963   19.3490 H   0  0  0  0  0
   -9.2699    5.3165   17.9813 H   0  0  0  0  0
   -2.2533    5.5539   20.0618 H   0  0  0  0  0
   -2.7408    6.8922   18.9320 H   0  0  0  0  0
   -6.9478    5.8470   17.6608 H   0  0  0  0  0
   -6.6483    4.4687   18.5649 H   0  0  0  0  0
   -6.7033    5.7073   20.7388 H   0  0  0  0  0
   -6.8314    8.6360   18.3906 H   0  0  0  0  0
   -7.9450    7.4760   17.6256 H   0  0  0  0  0
   -8.5906    8.8964   18.4840 H   0  0  0  0  0
   -4.3508   10.1479   20.1188 H   0  0  0  0  0
   -2.5950    9.8651   20.2109 H   0  0  0  0  0
   -3.5863    8.9410   19.0557 H   0  0  0  0  0
   -7.7725    7.6462   21.8982 H   0  0  0  0  0
   -8.4037    9.0305   20.9634 H   0  0  0  0  0
   -6.1240    9.4874   21.8366 H   0  0  0  0  0
   -6.1457    9.4560   20.0585 H   0  0  0  0  0
  -11.7978    8.5948   19.8678 H   0  0  0  0  0
  -10.8916    7.9761   21.2703 H   0  0  0  0  0
  -10.0834    9.0266   20.0811 H   0  0  0  0  0
  -10.3157    7.3109   18.3634 H   0  0  0  0  0
   -9.2525    6.1625   20.9050 H   0  0  0  0  0
   -4.2726    8.3053   23.2024 H   0  0  0  0  0
   -4.2547    9.9382   22.4452 H   0  0  0  0  0
   -2.3532    9.4244   24.0500 H   0  0  0  0  0
   -1.8737    9.9725   22.3916 H   0  0  0  0  0
   -5.3443    7.0863   21.8336 H   0  0  0  0  0
   -5.2768    7.4454   18.8030 H   0  0  0  0  0
   -4.5319    5.1702   20.6597 H   0  0  0  0  0
   -4.4239    5.1891   18.8682 H   0  0  0  0  0
  -11.9418    2.9925   20.1144 H   0  0  0  0  0
  -12.2128    2.3227   18.4868 H   0  0  0  0  0
  -14.1333    3.8396   18.1868 H   0  0  0  0  0
  -13.7960    4.5464   19.8218 H   0  0  0  0  0
  -13.9188    1.9143   20.8959 H   0  0  0  0  0
  -15.0683    0.2823   19.6589 H   0  0  0  0  0
  3  1  2  0  0  0
  1 21  1  0  0  0
  2  6  1  0  0  0
 17  2  1  0  0  0
  3  4  1  0  0  0
  5  3  1  0  0  0
  4 25  1  0  0  0
  5  9  1  0  0  0
  5 19  1  0  0  0
 23  5  1  0  0  0
  7  6  1  0  0  0
 10  7  1  0  0  0
  7 24  1  0  0  0
 10  8  1  0  0  0
 10 11  1  0  0  0
 17 10  1  0  0  0
 11 12  1  0  0  0
 12 23  1  0  0  0
 14 13  1  0  0  0
 13 27  1  0  0  0
 16 14  1  0  0  0
 14 18  2  0  0  0
 16 15  1  0  0  0
 16 17  1  0  0  0
 19 20  1  0  0  0
 20 21  1  0  0  0
 21 22  2  0  0  0
 23 24  1  0  0  0
 24 25  1  0  0  0
 27 26  1  0  0  0
 26 28  1  0  0  0
 28 29  1  0  0  0
 29 30  2  0  0  0
  1 31  1  0  0  0
  2 32  1  0  0  0
  2 33  1  0  0  0
  4 34  1  0  0  0
  4 35  1  0  0  0
  6 36  1  0  0  0
  6 37  1  0  0  0
  7 38  1  0  0  0
  8 39  1  0  0  0
  8 40  1  0  0  0
  8 41  1  0  0  0
  9 42  1  0  0  0
  9 43  1  0  0  0
  9 44  1  0  0  0
 11 45  1  0  0  0
 11 46  1  0  0  0
 12 47  1  0  0  0
 12 48  1  0  0  0
 15 49  1  0  0  0
 15 50  1  0  0  0
 15 51  1  0  0  0
 16 52  1  0  0  0
 17 53  1  0  0  0
 19 54  1  0  0  0
 19 55  1  0  0  0
 20 56  1  0  0  0
 20 57  1  0  0  0
 23 58  1  0  0  0
 24 59  1  0  0  0
 25 60  1  0  0  0
 25 61  1  0  0  0
 26 62  1  0  0  0
 26 63  1  0  0  0
 27 64  1  0  0  0
 27 65  1  0  0  0
 28 66  1  0  0  0
 29 67  1  0  0  0
M  END
$$$$
