6alz_ligand
  -I-interpret- 

 96 95  0  0  0  0  0  0  0  0999 V2000
   11.4220   23.4160  -11.1620 C   0  0  0  0  0
   12.6420   23.8310  -10.8360 C   0  0  0  0  0
   13.5540   24.3680  -11.9550 C   0  0  0  0  0
   13.2820   25.5690  -12.4810 C   0  0  0  0  0
   14.1500   26.1350  -13.6230 C   0  0  0  0  0
   15.2600   27.1930  -13.3560 C   0  0  0  0  0
   15.6980   27.9300  -14.6320 C   0  0  0  0  0
   16.6040   27.0410  -15.4820 C   0  0  0  0  0
   16.4930   29.1930  -14.2610 C   0  0  0  0  0
   15.7210   30.1730  -13.3620 C   0  0  0  0  0
   16.6700   31.2900  -12.9530 C   0  0  0  0  0
   14.5300   30.7780  -14.1260 C   0  0  0  0  0
   13.6680   31.7170  -13.2210 C   0  0  0  0  0
   12.7900   32.6990  -14.0380 C   0  0  0  0  0
   11.8650   33.4870  -13.1110 C   0  0  0  0  0
   10.9680   32.5310  -12.3200 C   0  0  0  0  0
   10.9760   34.4220  -13.9480 C   0  0  0  0  0
   10.9990   35.9570  -13.6790 C   0  0  0  0  0
   10.1470   36.7690  -14.6810 C   0  0  0  0  0
   10.8570   36.8670  -16.0370 C   0  0  0  0  0
   12.3150   37.3080  -15.8340 C   0  0  0  0  0
   10.1200   37.8730  -16.9250 C   0  0  0  0  0
   10.9770   38.2320  -18.1470 C   0  0  0  0  0
    7.7620   38.0680  -17.0560 C   0  0  0  0  0
    6.4040   37.3550  -16.8300 C   0  0  0  0  0
    5.5960   38.0200  -15.7070 C   0  0  0  0  0
    6.1600   37.5910  -14.3440 C   0  0  0  0  0
    6.2450   36.0920  -14.0110 C   0  0  0  0  0
    6.5540   38.5220  -13.4610 C   0  0  0  0  0
    6.4540   40.0170  -13.8250 C   0  0  0  0  0
    7.1230   38.1180  -12.0950 C   0  0  0  0  0
   14.7460   23.5220  -12.4640 C   0  0  0  0  0
   16.0950   23.8710  -11.7950 C   0  0  0  0  0
   13.9510   25.7340  -14.7220 O   0  0  0  0  0
   13.6090   33.5920  -14.7220 O   0  0  0  0  0
   10.2730   33.9730  -14.7950 O   0  0  0  0  0
    9.9470   38.0490  -14.1710 O   0  0  0  0  0
    8.9160   37.3030  -17.3650 O   0  0  0  0  0
    7.8360   39.2510  -16.9710 O   0  0  0  0  0
    4.2640   37.6270  -15.7940 O   0  0  0  0  0
    7.3230   35.5660  -13.6200 O   0  0  0  0  0
    5.2120   35.3780  -14.1420 O   0  0  0  0  0
    6.3610   37.7460  -11.1600 O   0  0  0  0  0
    8.3720   38.1640  -11.9170 O   0  0  0  0  0
   11.0901   23.4609  -12.1993 H   0  0  0  0  0
   10.7535   23.0307  -10.3921 H   0  0  0  0  0
   12.9882   23.7923   -9.8032 H   0  0  0  0  0
   12.4422   26.1499  -12.0997 H   0  0  0  0  0
   16.1296   26.6715  -12.9560 H   0  0  0  0  0
   14.8572   27.9328  -12.6643 H   0  0  0  0  0
   14.8002   28.1912  -15.1922 H   0  0  0  0  0
   16.8996   27.5805  -16.3818 H   0  0  0  0  0
   17.4917   26.7749  -14.9082 H   0  0  0  0  0
   16.0648   26.1355  -15.7604 H   0  0  0  0  0
   16.7222   29.7163  -15.1893 H   0  0  0  0  0
   17.3745   28.8703  -13.7070 H   0  0  0  0  0
   15.3420   29.6452  -12.4868 H   0  0  0  0  0
   17.5143   30.8667  -12.4088 H   0  0  0  0  0
   17.0310   31.8029  -13.8444 H   0  0  0  0  0
   16.1421   31.9977  -12.3138 H   0  0  0  0  0
   13.8959   29.9609  -14.4701 H   0  0  0  0  0
   14.9215   31.3689  -14.9540 H   0  0  0  0  0
   14.3493   32.3084  -12.6093 H   0  0  0  0  0
   13.0031   31.0898  -12.6272 H   0  0  0  0  0
   12.1874   32.1248  -14.7417 H   0  0  0  0  0
   12.4748   34.0677  -12.4188 H   0  0  0  0  0
   10.3643   31.9446  -13.0126 H   0  0  0  0  0
   11.5886   31.8636  -11.7221 H   0  0  0  0  0
   10.3148   33.1066  -11.6642 H   0  0  0  0  0
   12.0313   36.2924  -13.7783 H   0  0  0  0  0
   10.5836   36.1225  -12.6850 H   0  0  0  0  0
    9.1907   36.2659  -14.8243 H   0  0  0  0  0
   10.8520   35.8903  -16.5210 H   0  0  0  0  0
   12.3339   38.2827  -15.3466 H   0  0  0  0  0
   12.8305   36.5781  -15.2098 H   0  0  0  0  0
   12.8112   37.3748  -16.8022 H   0  0  0  0  0
    9.9224   38.7765  -16.3482 H   0  0  0  0  0
   11.9168   38.6721  -17.8135 H   0  0  0  0  0
   11.1812   37.3298  -18.7236 H   0  0  0  0  0
   10.4394   38.9481  -18.7685 H   0  0  0  0  0
    6.6011   36.3211  -16.5464 H   0  0  0  0  0
    5.8259   37.4154  -17.7521 H   0  0  0  0  0
    5.6654   39.1031  -15.8084 H   0  0  0  0  0
    7.0604   40.2158  -14.7086 H   0  0  0  0  0
    5.4143   40.2705  -14.0318 H   0  0  0  0  0
    6.8169   40.6177  -12.9910 H   0  0  0  0  0
   14.8525   23.7216  -13.5303 H   0  0  0  0  0
   14.5277   22.4805  -12.2280 H   0  0  0  0  0
   16.3354   24.9164  -11.9886 H   0  0  0  0  0
   16.0191   23.7074  -10.7200 H   0  0  0  0  0
   16.8785   23.2345  -12.2062 H   0  0  0  0  0
   13.0651   34.2001  -15.2279 H   0  0  0  0  0
    9.4181   38.5593  -14.7887 H   0  0  0  0  0
    3.7617   38.0446  -15.0905 H   0  0  0  0  0
    4.4830   35.9244  -14.4446 H   0  0  0  0  0
    8.7981   38.4653  -12.7228 H   0  0  0  0  0
  2  1  2  0  0  0
  3  2  1  0  0  0
  4  3  2  0  0  0
  3 32  1  0  0  0
  5  4  1  0  0  0
  6  5  1  0  0  0
  5 34  2  0  0  0
  7  6  1  0  0  0
  7  8  1  0  0  0
  9  7  1  0  0  0
 10  9  1  0  0  0
 10 11  1  0  0  0
 12 10  1  0  0  0
 13 12  1  0  0  0
 14 13  1  0  0  0
 15 14  1  0  0  0
 14 35  1  0  0  0
 15 16  1  0  0  0
 17 15  1  0  0  0
 18 17  1  0  0  0
 17 36  2  0  0  0
 19 18  1  0  0  0
 20 19  1  0  0  0
 19 37  1  0  0  0
 20 21  1  0  0  0
 22 20  1  0  0  0
 22 23  1  0  0  0
 38 22  1  0  0  0
 24 25  1  0  0  0
 24 38  1  0  0  0
 24 39  2  0  0  0
 25 26  1  0  0  0
 26 27  1  0  0  0
 26 40  1  0  0  0
 27 28  1  0  0  0
 27 29  2  0  0  0
 28 41  2  0  0  0
 28 42  1  0  0  0
 29 30  1  0  0  0
 29 31  1  0  0  0
 31 43  2  0  0  0
 31 44  1  0  0  0
 32 33  1  0  0  0
  1 45  1  0  0  0
  1 46  1  0  0  0
  2 47  1  0  0  0
  4 48  1  0  0  0
  6 49  1  0  0  0
  6 50  1  0  0  0
  7 51  1  0  0  0
  8 52  1  0  0  0
  8 53  1  0  0  0
  8 54  1  0  0  0
  9 55  1  0  0  0
  9 56  1  0  0  0
 10 57  1  0  0  0
 11 58  1  0  0  0
 11 59  1  0  0  0
 11 60  1  0  0  0
 12 61  1  0  0  0
 12 62  1  0  0  0
 13 63  1  0  0  0
 13 64  1  0  0  0
 14 65  1  0  0  0
 15 66  1  0  0  0
 16 67  1  0  0  0
 16 68  1  0  0  0
 16 69  1  0  0  0
 18 70  1  0  0  0
 18 71  1  0  0  0
 19 72  1  0  0  0
 20 73  1  0  0  0
 21 74  1  0  0  0
 21 75  1  0  0  0
 21 76  1  0  0  0
 22 77  1  0  0  0
 23 78  1  0  0  0
 23 79  1  0  0  0
 23 80  1  0  0  0
 25 81  1  0  0  0
 25 82  1  0  0  0
 26 83  1  0  0  0
 30 84  1  0  0  0
 30 85  1  0  0  0
 30 86  1  0  0  0
 32 87  1  0  0  0
 32 88  1  0  0  0
 33 89  1  0  0  0
 33 90  1  0  0  0
 33 91  1  0  0  0
 35 92  1  0  0  0
 37 93  1  0  0  0
 40 94  1  0  0  0
 42 95  1  0  0  0
 44 96  1  0  0  0
M  END
$$$$
