### 
### Created by X-TOOL on Mon Sep 10 21:13:32 2018
### 

@<TRIPOS>MOLECULE
6alz_ligand
   94    93     1     0     0
SMALL
GAST_HUCK


@<TRIPOS>ATOM
      1 C01        11.4220   23.4160  -11.1620 C.2       1 BKM        -0.0857
      2 C02        12.6420   23.8310  -10.8360 C.2       1 BKM        -0.0475
      3 C03        13.5540   24.3680  -11.9550 C.2       1 BKM        -0.0303
      4 C04        13.2820   25.5690  -12.4810 C.2       1 BKM        -0.0172
      5 C05        14.1500   26.1350  -13.6230 C.2       1 BKM         0.1030
      6 C07        15.2600   27.1930  -13.3560 C.3       1 BKM         0.0184
      7 C08        15.6980   27.9300  -14.6320 C.3       1 BKM        -0.0292
      8 C09        16.6040   27.0410  -15.4820 C.3       1 BKM        -0.0605
      9 C10        16.4930   29.1930  -14.2610 C.3       1 BKM        -0.0459
     10 C11        15.7210   30.1730  -13.3620 C.3       1 BKM        -0.0434
     11 C12        16.6700   31.2900  -12.9530 C.3       1 BKM        -0.0624
     12 C13        14.5300   30.7780  -14.1260 C.3       1 BKM        -0.0480
     13 C14        13.6680   31.7170  -13.2210 C.3       1 BKM        -0.0242
     14 C15        12.7900   32.6990  -14.0380 C.3       1 BKM         0.0733
     15 C17        11.8650   33.4870  -13.1110 C.3       1 BKM         0.0557
     16 C18        10.9680   32.5310  -12.3200 C.3       1 BKM        -0.0440
     17 C19        10.9760   34.4220  -13.9480 C.2       1 BKM         0.1127
     18 C21        10.9990   35.9570  -13.6790 C.3       1 BKM         0.0478
     19 C22        10.1470   36.7690  -14.6810 C.3       1 BKM         0.0760
     20 C24        10.8570   36.8670  -16.0370 C.3       1 BKM         0.0148
     21 C25        12.3150   37.3080  -15.8340 C.3       1 BKM        -0.0572
     22 C26        10.1200   37.8730  -16.9250 C.3       1 BKM         0.0899
     23 C27        10.9770   38.2320  -18.1470 C.3       1 BKM        -0.0339
     24 C29         7.7620   38.0680  -17.0560 C.2       1 BKM         0.2384
     25 C31         6.4040   37.3550  -16.8300 C.3       1 BKM         0.0833
     26 C32         5.5960   38.0200  -15.7070 C.3       1 BKM         0.1069
     27 C34         6.1600   37.5910  -14.3440 C.2       1 BKM         0.0239
     28 C35         6.2450   36.0920  -14.0110 C.2       1 BKM         0.0581
     29 C38         6.5540   38.5220  -13.4610 C.2       1 BKM        -0.0069
     30 C39         6.4540   40.0170  -13.8250 C.3       1 BKM        -0.0313
     31 C40         7.1230   38.1180  -12.0950 C.2       1 BKM         0.0554
     32 C43        14.7460   23.5220  -12.4640 C.3       1 BKM        -0.0151
     33 C44        16.0950   23.8710  -11.7950 C.3       1 BKM        -0.0528
     34 O06        13.9510   25.7340  -14.7220 O.2       1 BKM        -0.3980
     35 O16        13.6090   33.5920  -14.7220 O.3       1 BKM        -0.3891
     36 O20        10.2730   33.9730  -14.7950 O.2       1 BKM        -0.3912
     37 O23         9.9470   38.0490  -14.1710 O.3       1 BKM        -0.3890
     38 O28         8.9160   37.3030  -17.3650 O.3       1 BKM        -0.2733
     39 O30         7.8360   39.2510  -16.9710 O.2       1 BKM        -0.3701
     40 O33         4.2640   37.6270  -15.7940 O.3       1 BKM        -0.3782
     41 O36         7.3230   35.5660  -13.6200 O.co2     1 BKM        -0.5634
     42 O37         5.2120   35.3780  -14.1420 O.co2     1 BKM        -0.5634
     43 O41         6.3610   37.7460  -11.1600 O.co2     1 BKM        -0.5635
     44 O42         8.3720   38.1640  -11.9170 O.co2     1 BKM        -0.5635
     45 H1         10.7541   23.0311  -10.3928 H         1 BKM         0.0658
     46 H2         11.0904   23.4609  -12.1983 H         1 BKM         0.0658
     47 H3         12.9878   23.7923   -9.8041 H         1 BKM         0.0645
     48 H4         12.4430   26.1494  -12.1001 H         1 BKM         0.0463
     49 H5         16.1351   26.6838  -12.9261 H         1 BKM         0.0477
     50 H6         14.8760   27.9320  -12.6374 H         1 BKM         0.0477
     51 H7         14.8061   28.2096  -15.2120 H         1 BKM         0.0321
     52 H8         16.9059   27.5857  -16.3887 H         1 BKM         0.0234
     53 H9         16.0598   26.1284  -15.7666 H         1 BKM         0.0234
     54 H10        17.4987   26.7689  -14.9028 H         1 BKM         0.0234
     55 H11        16.7656   29.7160  -15.1895 H         1 BKM         0.0272
     56 H12        17.4068   28.8843  -13.7322 H         1 BKM         0.0272
     57 H13        15.3545   29.6461  -12.4687 H         1 BKM         0.0298
     58 H14        16.1384   32.0049  -12.3078 H         1 BKM         0.0232
     59 H15        17.0350   31.8085  -13.8518 H         1 BKM         0.0232
     60 H16        17.5225   30.8641  -12.4037 H         1 BKM         0.0232
     61 H17        13.8940   29.9606  -14.4967 H         1 BKM         0.0269
     62 H18        14.9131   31.3596  -14.9775 H         1 BKM         0.0269
     63 H19        14.3424   32.3009  -12.5774 H         1 BKM         0.0292
     64 H20        13.0107   31.0955  -12.5951 H         1 BKM         0.0292
     65 H21        12.1844   32.1296  -14.7584 H         1 BKM         0.0622
     66 H22        12.4714   34.0823  -12.4124 H         1 BKM         0.0552
     67 H23        10.3083   33.1108  -11.6577 H         1 BKM         0.0258
     68 H24        11.5931   31.8569  -11.7161 H         1 BKM         0.0258
     69 H25        10.3581   31.9386  -13.0179 H         1 BKM         0.0258
     70 H26        12.0400   36.3066  -13.7431 H         1 BKM         0.0520
     71 H27        10.6128   36.1391  -12.6653 H         1 BKM         0.0520
     72 H28         9.1752   36.2720  -14.8171 H         1 BKM         0.0623
     73 H29        10.8451   35.8804  -16.5234 H         1 BKM         0.0353
     74 H30        12.8169   37.3758  -16.8105 H         1 BKM         0.0234
     75 H31        12.8364   36.5722  -15.2042 H         1 BKM         0.0234
     76 H32        12.3355   38.2917  -15.3422 H         1 BKM         0.0234
     77 H33         9.9081   38.7842  -16.3463 H         1 BKM         0.0650
     78 H34        10.4354   38.9547  -18.7751 H         1 BKM         0.0258
     79 H35        11.1838   37.3223  -18.7299 H         1 BKM         0.0258
     80 H36        11.9258   38.6763  -17.8117 H         1 BKM         0.0258
     81 H37         6.5925   36.3053  -16.5605 H         1 BKM         0.0566
     82 H38         5.8204   37.3953  -17.7615 H         1 BKM         0.0566
     83 H39         5.6637   39.1135  -15.8054 H         1 BKM         0.0769
     84 H40         6.0268   40.1211  -14.8333 H         1 BKM         0.0377
     85 H41         7.4573   40.4675  -13.8036 H         1 BKM         0.0377
     86 H42         5.8066   40.5289  -13.0979 H         1 BKM         0.0377
     87 H43        14.8458   23.6816  -13.5478 H         1 BKM         0.0463
     88 H44        14.5267   22.4621  -12.2681 H         1 BKM         0.0463
     89 H45        16.8865   23.2292  -12.2092 H         1 BKM         0.0256
     90 H46        16.0197   23.7063  -10.7100 H         1 BKM         0.0256
     91 H47        16.3388   24.9258  -11.9897 H         1 BKM         0.0256
     92 H48        14.1876   33.1096  -15.3009 H         1 BKM         0.2100
     93 H49         9.5073   37.9889  -13.3311 H         1 BKM         0.2100
     94 H50         4.2073   36.6827  -15.7074 H         1 BKM         0.2131
@<TRIPOS>BOND
     1    2    1 2  
     2    3    2 1  
     3    4    3 2  
     4    3   32 1  
     5    5    4 1  
     6    6    5 1  
     7    5   34 2  
     8    7    6 1  
     9    7    8 1  
    10    9    7 1  
    11   10    9 1  
    12   10   11 1  
    13   12   10 1  
    14   13   12 1  
    15   14   13 1  
    16   15   14 1  
    17   14   35 1  
    18   15   16 1  
    19   17   15 1  
    20   18   17 1  
    21   17   36 2  
    22   19   18 1  
    23   20   19 1  
    24   19   37 1  
    25   20   21 1  
    26   22   20 1  
    27   22   23 1  
    28   38   22 1  
    29   24   25 1  
    30   24   38 1  
    31   24   39 2  
    32   25   26 1  
    33   26   27 1  
    34   26   40 1  
    35   27   28 1  
    36   27   29 2  
    37   28   41 ar 
    38   28   42 ar 
    39   29   30 1  
    40   29   31 1  
    41   31   43 ar 
    42   31   44 ar 
    43   32   33 1  
    44    1   45 1  
    45    1   46 1  
    46    2   47 1  
    47    4   48 1  
    48    6   49 1  
    49    6   50 1  
    50    7   51 1  
    51    8   52 1  
    52    8   53 1  
    53    8   54 1  
    54    9   55 1  
    55    9   56 1  
    56   10   57 1  
    57   11   58 1  
    58   11   59 1  
    59   11   60 1  
    60   12   61 1  
    61   12   62 1  
    62   13   63 1  
    63   13   64 1  
    64   14   65 1  
    65   15   66 1  
    66   16   67 1  
    67   16   68 1  
    68   16   69 1  
    69   18   70 1  
    70   18   71 1  
    71   19   72 1  
    72   20   73 1  
    73   21   74 1  
    74   21   75 1  
    75   21   76 1  
    76   22   77 1  
    77   23   78 1  
    78   23   79 1  
    79   23   80 1  
    80   25   81 1  
    81   25   82 1  
    82   26   83 1  
    83   30   84 1  
    84   30   85 1  
    85   30   86 1  
    86   32   87 1  
    87   32   88 1  
    88   33   89 1  
    89   33   90 1  
    90   33   91 1  
    91   35   92 1  
    92   37   93 1  
    93   40   94 1  
@<TRIPOS>SUBSTRUCTURE
     1 BKM         1

