### 
### Created by X-TOOL on Wed Jan  1 15:39:38 2020
### 

@<TRIPOS>MOLECULE
6bgg_ligand
  200   201     1     0     0
SMALL
GAST_HUCK


@<TRIPOS>ATOM
      1 N          -8.4260   12.7990  -19.0080 N.4       1 LYS         0.2379
      2 CA         -8.9730   12.4380  -17.7150 C.3       1 LYS         0.0650
      3 C          -8.3700   11.1480  -17.2270 C.2       1 LYS         0.2267
      4 O          -8.8520   10.0600  -17.5420 O.2       1 LYS        -0.3907
      5 CB        -10.5110   12.3370  -17.7400 C.3       1 LYS         0.0080
      6 CG        -11.2250   13.6500  -18.0050 C.3       1 LYS        -0.0410
      7 CD        -10.9890   14.6490  -16.8820 C.3       1 LYS        -0.0123
      8 CE        -11.6110   15.9900  -17.2000 C.3       1 LYS        -0.0354
      9 NZ        -11.3560   16.9740  -16.1350 N.4       1 LYS         0.2185
     10 N          -7.2690   11.2650  -16.5430 N.am      1 VAL        -0.2608
     11 CA         -6.6410   10.1500  -15.9000 C.3       1 VAL         0.1334
     12 C          -6.3340   10.5460  -14.4810 C.2       1 VAL         0.2041
     13 O          -5.9390   11.7020  -14.2130 O.2       1 VAL        -0.3944
     14 CB         -5.3400    9.6330  -16.6210 C.3       1 VAL        -0.0063
     15 CG1        -5.6590    9.0340  -17.9830 C.3       1 VAL        -0.0584
     16 CG2        -4.2920   10.7320  -16.7670 C.3       1 VAL        -0.0584
     17 N          -6.5810    9.6570  -13.5800 N.am      1 ALA        -0.2640
     18 CA         -6.3180    9.8940  -12.1930 C.3       1 ALA         0.1284
     19 C          -4.9300    9.3890  -11.8640 C.2       1 ALA         0.2061
     20 O          -4.4240    8.4780  -12.5520 O.2       1 ALA        -0.3942
     21 CB         -7.3570    9.1730  -11.3350 C.3       1 ALA        -0.0244
     22 N          -4.2650    9.9800  -10.8570 N.am      1 PRO        -0.2498
     23 CA         -2.9820    9.4810  -10.3750 C.3       1 PRO         0.1338
     24 C          -3.1760    8.1200   -9.7100 C.2       1 PRO         0.2041
     25 O          -4.3150    7.6220   -9.6160 O.2       1 PRO        -0.3944
     26 CB         -2.5460   10.5280   -9.3400 C.3       1 PRO        -0.0104
     27 CG         -3.8100   11.1880   -8.9110 C.3       1 PRO        -0.0281
     28 CD         -4.6980   11.1870  -10.1190 C.3       1 PRO         0.0369
     29 N          -2.1140    7.5190   -9.2470 N.am      1 LEU        -0.2637
     30 CA         -2.2200    6.2230   -8.6380 C.3       1 LEU         0.1312
     31 C          -2.9030    6.2940   -7.2730 C.2       1 LEU         0.2039
     32 O          -2.2950    6.6270   -6.2390 O.2       1 LEU        -0.3944
     33 CB         -0.8770    5.5200   -8.5830 C.3       1 LEU        -0.0101
     34 CG         -0.8750    4.0920   -8.0440 C.3       1 LEU        -0.0425
     35 CD1        -1.8500    3.2060   -8.8050 C.3       1 LEU        -0.0625
     36 CD2         0.5070    3.5310   -8.1420 C.3       1 LEU        -0.0625
     37 N          -4.1820    6.0510   -7.3260 N.am      1 LYS        -0.2637
     38 CA         -5.0700    6.0110   -6.2070 C.3       1 LYS         0.1310
     39 C          -6.0150    4.8630   -6.4420 C.2       1 LYS         0.2039
     40 O          -6.0370    4.3020   -7.5420 O.2       1 LYS        -0.3944
     41 CB         -5.8980    7.3050   -6.1280 C.3       1 LYS        -0.0122
     42 CG         -5.1070    8.5750   -5.8300 C.3       1 LYS        -0.0440
     43 CD         -6.0100    9.8060   -5.7710 C.3       1 LYS        -0.0124
     44 CE         -7.1310    9.6550   -4.7340 C.3       1 LYS        -0.0354
     45 NZ         -6.6190    9.4040   -3.3700 N.4       1 LYS         0.2185
     46 N          -6.7750    4.5040   -5.4500 N.am      1 ILE        -0.2635
     47 CA         -7.7690    3.4740   -5.5960 C.3       1 ILE         0.1335
     48 C          -8.8680    3.7000   -4.5620 C.2       1 ILE         0.2042
     49 O          -8.5880    4.1070   -3.4210 O.2       1 ILE        -0.3944
     50 CB         -7.1530    2.0250   -5.4910 C.3       1 ILE        -0.0037
     51 CG1        -8.2100    0.9270   -5.7170 C.3       1 ILE        -0.0491
     52 CG2        -6.4310    1.8070   -4.1740 C.3       1 ILE        -0.0582
     53 CD1        -8.8210    0.9280   -7.1080 C.3       1 ILE        -0.0648
     54 N         -10.0940    3.5780   -5.0030 N.am      1 LYS        -0.2637
     55 CA        -11.2700    3.6800   -4.1570 C.3       1 LYS         0.1310
     56 C         -11.7640    2.2950   -3.8200 C.2       1 LYS         0.2039
     57 O         -11.4920    1.3400   -4.5560 O.2       1 LYS        -0.3944
     58 CB        -12.4010    4.4200   -4.8910 C.3       1 LYS        -0.0122
     59 CG        -12.6220    5.9120   -4.5750 C.3       1 LYS        -0.0440
     60 CD        -11.4750    6.8520   -4.9510 C.3       1 LYS        -0.0124
     61 CE        -10.3310    6.8170   -3.9530 C.3       1 LYS        -0.0354
     62 NZ        -10.7900    7.0480   -2.5640 N.4       1 LYS         0.2185
     63 N         -12.4520    2.1620   -2.7140 N.am      1 LEU        -0.2637
     64 CA        -13.0630    0.8840   -2.4000 C.3       1 LEU         0.1312
     65 C         -14.5620    1.0510   -2.4790 C.2       1 LEU         0.2037
     66 O         -15.1450    1.8550   -1.7370 O.2       1 LEU        -0.3944
     67 CB        -12.6590    0.3830   -1.0020 C.3       1 LEU        -0.0101
     68 CG        -12.4780   -1.1400   -0.8160 C.3       1 LEU        -0.0425
     69 CD1       -13.7580   -1.9160   -1.0960 C.3       1 LEU        -0.0625
     70 CD2       -11.3380   -1.6460   -1.6920 C.3       1 LEU        -0.0625
     71 N         -15.1650    0.3420   -3.3930 N.am      1 GLY        -0.2664
     72 CA        -16.5790    0.3890   -3.5330 C.3       1 GLY         0.1201
     73 C         -17.0000    1.4900   -4.4480 C.2       1 GLY         0.2005
     74 O         -16.8440    1.3790   -5.6720 O.2       1 GLY        -0.3947
     75 N         -17.4910    2.5530   -3.8730 N.am      1 GLY        -0.2666
     76 CA        -17.9640    3.6590   -4.6420 C.3       1 GLY         0.1201
     77 C         -16.9110    4.7130   -4.8320 C.2       1 GLY         0.2003
     78 O         -15.7560    4.5380   -4.4280 O.2       1 GLY        -0.3947
     79 N         -17.3060    5.8100   -5.4280 N.am      1 PHE        -0.2679
     80 CA        -16.4030    6.9070   -5.7320 C.3       1 PHE         0.1039
     81 C         -16.9840    8.2040   -5.2110 C.2       1 PHE         0.0621
     82 O         -18.2140    8.3120   -5.0390 O.co2     1 PHE        -0.5664
     83 CB        -16.1570    7.0150   -7.2520 C.3       1 PHE         0.0159
     84 CG        -15.4370    5.8370   -7.8640 C.ar      1 PHE        -0.0392
     85 CD1       -16.1340    4.7090   -8.2790 C.ar      1 PHE        -0.0602
     86 CD2       -14.0610    5.8630   -8.0270 C.ar      1 PHE        -0.0602
     87 CE1       -15.4720    3.6350   -8.8440 C.ar      1 PHE        -0.0686
     88 CE2       -13.3950    4.7910   -8.5910 C.ar      1 PHE        -0.0686
     89 CZ        -14.1010    3.6760   -8.9980 C.ar      1 PHE        -0.0687
     90 OXT       -16.2330    9.1650   -4.9540 O.co2     1 PHE        -0.5664
     91 H1         -8.8405   13.6638  -19.3186 H         1 LYS         0.2015
     92 H2         -8.6296   12.0705  -19.6743 H         1 LYS         0.2015
     93 H3         -7.4276   12.9138  -18.9303 H         1 LYS         0.2015
     94 H4         -8.7012   13.2318  -17.0037 H         1 LYS         0.1098
     95 H5        -10.8459   11.9549  -16.7644 H         1 LYS         0.0346
     96 H6        -10.7956   11.6260  -18.5296 H         1 LYS         0.0346
     97 H7        -12.3047   13.4586  -18.0922 H         1 LYS         0.0270
     98 H8        -10.8509   14.0766  -18.9474 H         1 LYS         0.0270
     99 H9         -9.9060   14.7807  -16.7412 H         1 LYS         0.0317
    100 H10       -11.4344   14.2582  -15.9552 H         1 LYS         0.0317
    101 H11       -12.6975   15.8612  -17.3138 H         1 LYS         0.0813
    102 H12       -11.1856   16.3660  -18.1422 H         1 LYS         0.0813
    103 H13       -11.7839   17.8531  -16.3803 H         1 LYS         0.1994
    104 H14       -10.3621   17.1027  -16.0273 H         1 LYS         0.1994
    105 H15       -11.7475   16.6401  -15.2682 H         1 LYS         0.1994
    106 H16        -6.8456   12.1674  -16.4634 H         1 VAL         0.1885
    107 H17        -7.3613    9.3188  -15.8856 H         1 VAL         0.0802
    108 H18        -4.9084    8.8382  -15.9948 H         1 VAL         0.0343
    109 H19        -4.7297    8.6843  -18.4565 H         1 VAL         0.0234
    110 H20        -6.1292    9.7986  -18.6188 H         1 VAL         0.0234
    111 H21        -6.3485    8.1861  -17.8583 H         1 VAL         0.0234
    112 H22        -4.0680   11.1587  -15.7782 H         1 VAL         0.0234
    113 H23        -4.6784   11.5217  -17.4281 H         1 VAL         0.0234
    114 H24        -3.3739   10.3081  -17.1999 H         1 VAL         0.0234
    115 H25        -6.9671    8.7774  -13.8581 H         1 ALA         0.1883
    116 H26        -6.3702   10.9740  -11.9909 H         1 ALA         0.0797
    117 H27        -7.1478    9.3601  -10.2714 H         1 ALA         0.0277
    118 H28        -7.3099    8.0920  -11.5332 H         1 ALA         0.0277
    119 H29        -8.3610    9.5479  -11.5827 H         1 ALA         0.0277
    120 H30        -2.2502    9.4006  -11.1923 H         1 PRO         0.0802
    121 H31        -1.8615   11.2598   -9.7937 H         1 PRO         0.0313
    122 H32        -2.0516   10.0447   -8.4845 H         1 PRO         0.0313
    123 H33        -3.6119   12.2186   -8.5814 H         1 PRO         0.0287
    124 H34        -4.2779   10.6241   -8.0906 H         1 PRO         0.0287
    125 H35        -5.7568   11.1137   -9.8299 H         1 PRO         0.0524
    126 H36        -4.5444   12.0941  -10.7220 H         1 PRO         0.0524
    127 H37        -1.2211    7.9638   -9.3168 H         1 LEU         0.1883
    128 H38        -2.8694    5.6162   -9.2862 H         1 LEU         0.0800
    129 H39        -0.2125    6.1192   -7.9431 H         1 LEU         0.0315
    130 H40        -0.4732    5.4912   -9.6058 H         1 LEU         0.0315
    131 H41        -1.1770    4.1151   -6.9865 H         1 LEU         0.0298
    132 H42        -1.8210    2.1878   -8.3897 H         1 LEU         0.0232
    133 H43        -1.5665    3.1768   -9.8674 H         1 LEU         0.0232
    134 H44        -2.8674    3.6127   -8.7080 H         1 LEU         0.0232
    135 H45         1.2050    4.1772   -7.5895 H         1 LEU         0.0232
    136 H46         0.8094    3.4835   -9.1985 H         1 LEU         0.0232
    137 H47         0.5237    2.5195   -7.7100 H         1 LEU         0.0232
    138 H48        -4.5766    5.8774   -8.2283 H         1 LYS         0.1883
    139 H49        -4.5042    5.8674   -5.2747 H         1 LYS         0.0800
    140 H50        -6.6482    7.1791   -5.3335 H         1 LYS         0.0312
    141 H51        -6.4062    7.4414   -7.0940 H         1 LYS         0.0312
    142 H52        -4.3572    8.7213   -6.6214 H         1 LYS         0.0269
    143 H53        -4.5995    8.4591   -4.8610 H         1 LYS         0.0269
    144 H54        -6.4626    9.9608   -6.7615 H         1 LYS         0.0317
    145 H55        -5.3985   10.6812   -5.5063 H         1 LYS         0.0317
    146 H56        -7.7721    8.8114   -5.0296 H         1 LYS         0.0813
    147 H57        -7.7254   10.5805   -4.7215 H         1 LYS         0.0813
    148 H58        -7.3939    9.3133   -2.7317 H         1 LYS         0.1994
    149 H59        -6.0357   10.1743   -3.0830 H         1 LYS         0.1994
    150 H60        -6.0784    8.5532   -3.3653 H         1 LYS         0.1994
    151 H61        -6.6660    4.9547   -4.5640 H         1 ILE         0.1883
    152 H62        -8.2152    3.5708   -6.5968 H         1 ILE         0.0803
    153 H63        -6.4068    1.9324   -6.2939 H         1 ILE         0.0345
    154 H64        -9.0184    1.0704   -4.9850 H         1 ILE         0.0267
    155 H65        -7.7334   -0.0503   -5.5503 H         1 ILE         0.0267
    156 H66        -5.6818    2.5996   -4.0310 H         1 ILE         0.0235
    157 H67        -5.9305    0.8276   -4.1880 H         1 ILE         0.0235
    158 H68        -7.1574    1.8359   -3.3484 H         1 ILE         0.0235
    159 H69        -9.5611    0.1177   -7.1840 H         1 ILE         0.0230
    160 H70        -8.0297    0.7731   -7.8562 H         1 ILE         0.0230
    161 H71        -9.3147    1.8938   -7.2910 H         1 ILE         0.0230
    162 H72       -10.2289    3.4046   -5.9786 H         1 LYS         0.1883
    163 H73       -11.0110    4.2206   -3.2347 H         1 LYS         0.0800
    164 H74       -13.3391    3.8951   -4.6576 H         1 LYS         0.0312
    165 H75       -12.1956    4.3422   -5.9688 H         1 LYS         0.0312
    166 H76       -12.7931    6.0054   -3.4924 H         1 LYS         0.0269
    167 H77       -13.5199    6.2421   -5.1180 H         1 LYS         0.0269
    168 H78       -11.8652    7.8792   -5.0016 H         1 LYS         0.0317
    169 H79       -11.0889    6.5573   -5.9379 H         1 LYS         0.0317
    170 H80        -9.6045    7.5985   -4.2201 H         1 LYS         0.0813
    171 H81        -9.8454    5.8314   -4.0058 H         1 LYS         0.0813
    172 H82        -9.9996    7.0160   -1.9393 H         1 LYS         0.1994
    173 H83       -11.4518    6.3330   -2.3055 H         1 LYS         0.1994
    174 H84       -11.2309    7.9523   -2.5018 H         1 LYS         0.1994
    175 H85       -12.5557    2.9363   -2.0897 H         1 LEU         0.1883
    176 H86       -12.7401    0.1412   -3.1443 H         1 LEU         0.0800
    177 H87       -13.4367    0.7111   -0.2967 H         1 LEU         0.0315
    178 H88       -11.7034    0.8625   -0.7433 H         1 LEU         0.0315
    179 H89       -12.2046   -1.3181    0.2345 H         1 LEU         0.0298
    180 H90       -13.5747   -2.9907   -0.9496 H         1 LEU         0.0232
    181 H91       -14.0762   -1.7364   -2.1335 H         1 LEU         0.0232
    182 H92       -14.5477   -1.5816   -0.4071 H         1 LEU         0.0232
    183 H93       -10.4252   -1.0724   -1.4733 H         1 LEU         0.0232
    184 H94       -11.6056   -1.5194   -2.7514 H         1 LEU         0.0232
    185 H95       -11.1603   -2.7113   -1.4835 H         1 LEU         0.0232
    186 H96       -14.6268   -0.2409   -4.0018 H         1 GLY         0.1881
    187 H97       -17.0312    0.5534   -2.5438 H         1 GLY         0.0763
    188 H98       -16.9301   -0.5699   -3.9419 H         1 GLY         0.0763
    189 H99       -17.5370    2.5940   -2.8749 H         1 GLY         0.1881
    190 H100      -18.8243    4.1079   -4.1240 H         1 GLY         0.0763
    191 H101      -18.2807    3.2933   -5.6299 H         1 GLY         0.0763
    192 H102      -18.2687    5.8963   -5.6845 H         1 PHE         0.1877
    193 H103      -15.4410    6.7209   -5.2322 H         1 PHE         0.0749
    194 H104      -15.5558    7.9172   -7.4378 H         1 PHE         0.0467
    195 H105      -17.1327    7.1156   -7.7499 H         1 PHE         0.0467
    196 H106      -17.2106    4.6706   -8.1582 H         1 PHE         0.0557
    197 H107      -13.5003    6.7343   -7.7084 H         1 PHE         0.0557
    198 H108      -16.0286    2.7622   -9.1655 H         1 PHE         0.0599
    199 H109      -12.3185    4.8255   -8.7138 H         1 PHE         0.0599
    200 H110      -13.5790    2.8340   -9.4379 H         1 PHE         0.0559
@<TRIPOS>BOND
     1    1    2 1  
     2    2    3 1  
     3    2    5 1  
     4    3    4 2  
     5    3   10 am 
     6    5    6 1  
     7    6    7 1  
     8    7    8 1  
     9    8    9 1  
    10   10   11 1  
    11   11   12 1  
    12   11   14 1  
    13   12   13 2  
    14   12   17 am 
    15   14   15 1  
    16   14   16 1  
    17   17   18 1  
    18   18   19 1  
    19   18   21 1  
    20   19   20 2  
    21   19   22 am 
    22   22   23 1  
    23   22   28 1  
    24   23   24 1  
    25   23   26 1  
    26   24   25 2  
    27   24   29 am 
    28   26   27 1  
    29   27   28 1  
    30   29   30 1  
    31   30   31 1  
    32   30   33 1  
    33   31   32 2  
    34   31   37 am 
    35   33   34 1  
    36   34   35 1  
    37   34   36 1  
    38   37   38 1  
    39   38   39 1  
    40   38   41 1  
    41   39   40 2  
    42   39   46 am 
    43   41   42 1  
    44   42   43 1  
    45   43   44 1  
    46   44   45 1  
    47   46   47 1  
    48   47   48 1  
    49   47   50 1  
    50   48   49 2  
    51   48   54 am 
    52   50   51 1  
    53   50   52 1  
    54   51   53 1  
    55   54   55 1  
    56   55   56 1  
    57   55   58 1  
    58   56   57 2  
    59   56   63 am 
    60   58   59 1  
    61   59   60 1  
    62   60   61 1  
    63   61   62 1  
    64   63   64 1  
    65   64   65 1  
    66   64   67 1  
    67   65   66 2  
    68   65   71 am 
    69   67   68 1  
    70   68   69 1  
    71   68   70 1  
    72   71   72 1  
    73   72   73 1  
    74   73   74 2  
    75   73   75 am 
    76   75   76 1  
    77   76   77 1  
    78   77   78 2  
    79   77   79 am 
    80   79   80 1  
    81   80   81 1  
    82   80   83 1  
    83   81   82 ar 
    84   81   90 ar 
    85   83   84 1  
    86   84   85 ar 
    87   84   86 ar 
    88   85   87 ar 
    89   86   88 ar 
    90   87   89 ar 
    91   88   89 ar 
    92    1   91 1  
    93    1   92 1  
    94    1   93 1  
    95    2   94 1  
    96    5   95 1  
    97    5   96 1  
    98    6   97 1  
    99    6   98 1  
   100    7   99 1  
   101    7  100 1  
   102    8  101 1  
   103    8  102 1  
   104    9  103 1  
   105    9  104 1  
   106    9  105 1  
   107   10  106 1  
   108   11  107 1  
   109   14  108 1  
   110   15  109 1  
   111   15  110 1  
   112   15  111 1  
   113   16  112 1  
   114   16  113 1  
   115   16  114 1  
   116   17  115 1  
   117   18  116 1  
   118   21  117 1  
   119   21  118 1  
   120   21  119 1  
   121   23  120 1  
   122   26  121 1  
   123   26  122 1  
   124   27  123 1  
   125   27  124 1  
   126   28  125 1  
   127   28  126 1  
   128   29  127 1  
   129   30  128 1  
   130   33  129 1  
   131   33  130 1  
   132   34  131 1  
   133   35  132 1  
   134   35  133 1  
   135   35  134 1  
   136   36  135 1  
   137   36  136 1  
   138   36  137 1  
   139   37  138 1  
   140   38  139 1  
   141   41  140 1  
   142   41  141 1  
   143   42  142 1  
   144   42  143 1  
   145   43  144 1  
   146   43  145 1  
   147   44  146 1  
   148   44  147 1  
   149   45  148 1  
   150   45  149 1  
   151   45  150 1  
   152   46  151 1  
   153   47  152 1  
   154   50  153 1  
   155   51  154 1  
   156   51  155 1  
   157   52  156 1  
   158   52  157 1  
   159   52  158 1  
   160   53  159 1  
   161   53  160 1  
   162   53  161 1  
   163   54  162 1  
   164   55  163 1  
   165   58  164 1  
   166   58  165 1  
   167   59  166 1  
   168   59  167 1  
   169   60  168 1  
   170   60  169 1  
   171   61  170 1  
   172   61  171 1  
   173   62  172 1  
   174   62  173 1  
   175   62  174 1  
   176   63  175 1  
   177   64  176 1  
   178   67  177 1  
   179   67  178 1  
   180   68  179 1  
   181   69  180 1  
   182   69  181 1  
   183   69  182 1  
   184   70  183 1  
   185   70  184 1  
   186   70  185 1  
   187   71  186 1  
   188   72  187 1  
   189   72  188 1  
   190   75  189 1  
   191   76  190 1  
   192   76  191 1  
   193   79  192 1  
   194   80  193 1  
   195   83  194 1  
   196   83  195 1  
   197   85  196 1  
   198   86  197 1  
   199   87  198 1  
   200   88  199 1  
   201   89  200 1  
@<TRIPOS>SUBSTRUCTURE
     1 LYS         1

