6bgg_ligand
  -I-interpret- 

201202  0  0  0  0  0  0  0  0999 V2000
   -8.4260   12.7990  -19.0080 N   0  3  0  0  0
   -8.9730   12.4380  -17.7150 C   0  0  0  0  0
   -8.3700   11.1480  -17.2270 C   0  0  0  0  0
   -8.8520   10.0600  -17.5420 O   0  0  0  0  0
  -10.5110   12.3370  -17.7400 C   0  0  0  0  0
  -11.2250   13.6500  -18.0050 C   0  0  0  0  0
  -10.9890   14.6490  -16.8820 C   0  0  0  0  0
  -11.6110   15.9900  -17.2000 C   0  0  0  0  0
  -11.3560   16.9740  -16.1350 N   0  3  0  0  0
   -7.2690   11.2650  -16.5430 N   0  0  0  0  0
   -6.6410   10.1500  -15.9000 C   0  0  0  0  0
   -6.3340   10.5460  -14.4810 C   0  0  0  0  0
   -5.9390   11.7020  -14.2130 O   0  0  0  0  0
   -5.3400    9.6330  -16.6210 C   0  0  0  0  0
   -5.6590    9.0340  -17.9830 C   0  0  0  0  0
   -4.2920   10.7320  -16.7670 C   0  0  0  0  0
   -6.5810    9.6570  -13.5800 N   0  0  0  0  0
   -6.3180    9.8940  -12.1930 C   0  0  0  0  0
   -4.9300    9.3890  -11.8640 C   0  0  0  0  0
   -4.4240    8.4780  -12.5520 O   0  0  0  0  0
   -7.3570    9.1730  -11.3350 C   0  0  0  0  0
   -4.2650    9.9800  -10.8570 N   0  0  0  0  0
   -2.9820    9.4810  -10.3750 C   0  0  0  0  0
   -3.1760    8.1200   -9.7100 C   0  0  0  0  0
   -4.3150    7.6220   -9.6160 O   0  0  0  0  0
   -2.5460   10.5280   -9.3400 C   0  0  0  0  0
   -3.8100   11.1880   -8.9110 C   0  0  0  0  0
   -4.6980   11.1870  -10.1190 C   0  0  0  0  0
   -2.1140    7.5190   -9.2470 N   0  0  0  0  0
   -2.2200    6.2230   -8.6380 C   0  0  0  0  0
   -2.9030    6.2940   -7.2730 C   0  0  0  0  0
   -2.2950    6.6270   -6.2390 O   0  0  0  0  0
   -0.8770    5.5200   -8.5830 C   0  0  0  0  0
   -0.8750    4.0920   -8.0440 C   0  0  0  0  0
   -1.8500    3.2060   -8.8050 C   0  0  0  0  0
    0.5070    3.5310   -8.1420 C   0  0  0  0  0
   -4.1820    6.0510   -7.3260 N   0  0  0  0  0
   -5.0700    6.0110   -6.2070 C   0  0  0  0  0
   -6.0150    4.8630   -6.4420 C   0  0  0  0  0
   -6.0370    4.3020   -7.5420 O   0  0  0  0  0
   -5.8980    7.3050   -6.1280 C   0  0  0  0  0
   -5.1070    8.5750   -5.8300 C   0  0  0  0  0
   -6.0100    9.8060   -5.7710 C   0  0  0  0  0
   -7.1310    9.6550   -4.7340 C   0  0  0  0  0
   -6.6190    9.4040   -3.3700 N   0  3  0  0  0
   -6.7750    4.5040   -5.4500 N   0  0  0  0  0
   -7.7690    3.4740   -5.5960 C   0  0  0  0  0
   -8.8680    3.7000   -4.5620 C   0  0  0  0  0
   -8.5880    4.1070   -3.4210 O   0  0  0  0  0
   -7.1530    2.0250   -5.4910 C   0  0  0  0  0
   -8.2100    0.9270   -5.7170 C   0  0  0  0  0
   -6.4310    1.8070   -4.1740 C   0  0  0  0  0
   -8.8210    0.9280   -7.1080 C   0  0  0  0  0
  -10.0940    3.5780   -5.0030 N   0  0  0  0  0
  -11.2700    3.6800   -4.1570 C   0  0  0  0  0
  -11.7640    2.2950   -3.8200 C   0  0  0  0  0
  -11.4920    1.3400   -4.5560 O   0  0  0  0  0
  -12.4010    4.4200   -4.8910 C   0  0  0  0  0
  -12.6220    5.9120   -4.5750 C   0  0  0  0  0
  -11.4750    6.8520   -4.9510 C   0  0  0  0  0
  -10.3310    6.8170   -3.9530 C   0  0  0  0  0
  -10.7900    7.0480   -2.5640 N   0  3  0  0  0
  -12.4520    2.1620   -2.7140 N   0  0  0  0  0
  -13.0630    0.8840   -2.4000 C   0  0  0  0  0
  -14.5620    1.0510   -2.4790 C   0  0  0  0  0
  -15.1450    1.8550   -1.7370 O   0  0  0  0  0
  -12.6590    0.3830   -1.0020 C   0  0  0  0  0
  -12.4780   -1.1400   -0.8160 C   0  0  0  0  0
  -13.7580   -1.9160   -1.0960 C   0  0  0  0  0
  -11.3380   -1.6460   -1.6920 C   0  0  0  0  0
  -15.1650    0.3420   -3.3930 N   0  0  0  0  0
  -16.5790    0.3890   -3.5330 C   0  0  0  0  0
  -17.0000    1.4900   -4.4480 C   0  0  0  0  0
  -16.8440    1.3790   -5.6720 O   0  0  0  0  0
  -17.4910    2.5530   -3.8730 N   0  0  0  0  0
  -17.9640    3.6590   -4.6420 C   0  0  0  0  0
  -16.9110    4.7130   -4.8320 C   0  0  0  0  0
  -15.7560    4.5380   -4.4280 O   0  0  0  0  0
  -17.3060    5.8100   -5.4280 N   0  0  0  0  0
  -16.4030    6.9070   -5.7320 C   0  0  0  0  0
  -16.9840    8.2040   -5.2110 C   0  0  0  0  0
  -18.2140    8.3120   -5.0390 O   0  0  0  0  0
  -16.1570    7.0150   -7.2520 C   0  0  0  0  0
  -15.4370    5.8370   -7.8640 C   0  0  0  0  0
  -16.1340    4.7090   -8.2790 C   0  0  0  0  0
  -14.0610    5.8630   -8.0270 C   0  0  0  0  0
  -15.4720    3.6350   -8.8440 C   0  0  0  0  0
  -13.3950    4.7910   -8.5910 C   0  0  0  0  0
  -14.1010    3.6760   -8.9980 C   0  0  0  0  0
  -16.2330    9.1650   -4.9540 O   0  0  0  0  0
   -7.4096   12.8535  -18.9426 H   0  0  0  0  0
   -8.6862   12.0918  -19.6954 H   0  0  0  0  0
   -8.7987   13.7048  -19.2926 H   0  0  0  0  0
   -8.7121   13.2376  -17.0217 H   0  0  0  0  0
  -10.8241   11.9978  -16.7526 H   0  0  0  0  0
  -10.7727   11.6619  -18.5548 H   0  0  0  0  0
  -12.2950   13.4537  -18.0735 H   0  0  0  0  0
  -10.8368   14.0735  -18.9313 H   0  0  0  0  0
   -9.9146   14.7853  -16.7589 H   0  0  0  0  0
  -11.4460   14.2617  -15.9713 H   0  0  0  0  0
  -12.6887   15.8556  -17.2929 H   0  0  0  0  0
  -11.1705   16.3625  -18.1248 H   0  0  0  0  0
  -11.7894   17.8630  -16.3843 H   0  0  0  0  0
  -11.7525   16.6350  -15.2585 H   0  0  0  0  0
  -10.3500   17.1033  -16.0270 H   0  0  0  0  0
   -6.8371   12.1855  -16.4618 H   0  0  0  0  0
   -7.3363    9.3117  -15.9424 H   0  0  0  0  0
   -4.9238    8.8515  -15.9853 H   0  0  0  0  0
   -6.3423    8.1940  -17.8580 H   0  0  0  0  0
   -6.1249    9.7926  -18.6120 H   0  0  0  0  0
   -4.7375    8.6879  -18.4511 H   0  0  0  0  0
   -4.7056   11.5507  -17.3559 H   0  0  0  0  0
   -4.0117   11.0985  -15.7795 H   0  0  0  0  0
   -3.4126   10.3293  -17.2696 H   0  0  0  0  0
   -6.9748    8.7599  -13.8636 H   0  0  0  0  0
   -6.3770   10.9621  -11.9839 H   0  0  0  0  0
   -8.3514    9.5453  -11.5814 H   0  0  0  0  0
   -7.3094    8.1021  -11.5324 H   0  0  0  0  0
   -7.1487    9.3592  -10.2814 H   0  0  0  0  0
   -2.2464    9.3458  -11.1679 H   0  0  0  0  0
   -1.8372   11.2422   -9.7591 H   0  0  0  0  0
   -2.0200   10.0739   -8.5002 H   0  0  0  0  0
   -3.6278   12.2010   -8.5522 H   0  0  0  0  0
   -4.2719   10.6588   -8.0775 H   0  0  0  0  0
   -5.7570   11.1649   -9.8619 H   0  0  0  0  0
   -4.6036   12.0976  -10.7106 H   0  0  0  0  0
   -1.2032    7.9727   -9.3182 H   0  0  0  0  0
   -2.8631    5.6133   -9.2726 H   0  0  0  0  0
   -0.2606    6.1015   -7.8974 H   0  0  0  0  0
   -0.5297    5.4531   -9.6140 H   0  0  0  0  0
   -1.1951    4.1170   -7.0024 H   0  0  0  0  0
   -2.8577    3.6100   -8.7081 H   0  0  0  0  0
   -1.5680    3.1780   -9.8575 H   0  0  0  0  0
   -1.8203    2.1975   -8.3926 H   0  0  0  0  0
    0.8239    3.5292   -9.1849 H   0  0  0  0  0
    1.1895    4.1451   -7.5546 H   0  0  0  0  0
    0.5118    2.5110   -7.7577 H   0  0  0  0  0
   -4.5845    5.8739   -8.2463 H   0  0  0  0  0
   -4.5030    5.9000   -5.2827 H   0  0  0  0  0
   -6.5982    7.1751   -5.3028 H   0  0  0  0  0
   -6.3497    7.4444   -7.1102 H   0  0  0  0  0
   -4.3805    8.7213   -6.6293 H   0  0  0  0  0
   -4.6241    8.4578   -4.8599 H   0  0  0  0  0
   -6.4701    9.9358   -6.7506 H   0  0  0  0  0
   -5.3979   10.6617   -5.4859 H   0  0  0  0  0
   -7.7415    8.7999   -5.0242 H   0  0  0  0  0
   -7.6943   10.5879   -4.7129 H   0  0  0  0  0
   -7.4039    9.3124   -2.7250 H   0  0  0  0  0
   -6.0722    8.5430   -3.3665 H   0  0  0  0  0
   -6.0289   10.1841   -3.0807 H   0  0  0  0  0
   -6.6639    4.9637   -4.5463 H   0  0  0  0  0
   -8.1961    3.5382   -6.5968 H   0  0  0  0  0
   -6.4178    1.9491   -6.2922 H   0  0  0  0  0
   -9.0194    1.1092   -5.0100 H   0  0  0  0  0
   -7.7101   -0.0327   -5.5859 H   0  0  0  0  0
   -5.6200    2.5294   -4.0818 H   0  0  0  0  0
   -7.1325    1.9394   -3.3503 H   0  0  0  0  0
   -6.0238    0.7963   -4.1473 H   0  0  0  0  0
   -9.3098    1.8855   -7.2880 H   0  0  0  0  0
   -8.0359    0.7745   -7.8484 H   0  0  0  0  0
   -9.5541    0.1248   -7.1820 H   0  0  0  0  0
  -10.2316    3.4011   -5.9981 H   0  0  0  0  0
  -10.9970    4.2272   -3.2547 H   0  0  0  0  0
  -13.3192    3.9217   -4.5799 H   0  0  0  0  0
  -12.1281    4.3874   -5.9458 H   0  0  0  0  0
  -12.7349    5.9831   -3.4932 H   0  0  0  0  0
  -13.4826    6.2265   -5.1654 H   0  0  0  0  0
  -11.8696    7.8679   -4.9696 H   0  0  0  0  0
  -11.0844    6.5309   -5.9166 H   0  0  0  0  0
   -9.6301    7.6099   -4.2139 H   0  0  0  0  0
   -9.8729    5.8289   -3.9980 H   0  0  0  0  0
   -9.9894    7.0154   -1.9328 H   0  0  0  0  0
  -11.2360    7.9632   -2.5024 H   0  0  0  0  0
  -11.4596    6.3239   -2.3036 H   0  0  0  0  0
  -12.5578    2.9518   -2.0772 H   0  0  0  0  0
  -12.7172    0.1385   -3.1161 H   0  0  0  0  0
  -13.4787    0.6643   -0.3409 H   0  0  0  0  0
  -11.6808    0.8214   -0.8042 H   0  0  0  0  0
  -12.2282   -1.3118    0.2310 H   0  0  0  0  0
  -14.5396   -1.5837   -0.4128 H   0  0  0  0  0
  -14.0722   -1.7371   -2.1243 H   0  0  0  0  0
  -13.5751   -2.9807   -0.9506 H   0  0  0  0  0
  -11.5653   -1.4384   -2.7376 H   0  0  0  0  0
  -10.4142   -1.1397   -1.4122 H   0  0  0  0  0
  -11.2221   -2.7205   -1.5505 H   0  0  0  0  0
  -14.6161   -0.2525   -4.0140 H   0  0  0  0  0
  -17.0180    0.5681   -2.5515 H   0  0  0  0  0
  -16.9166   -0.5583   -3.9535 H   0  0  0  0  0
  -17.5379    2.5948   -2.8549 H   0  0  0  0  0
  -18.8006    4.1092   -4.1077 H   0  0  0  0  0
  -18.2527    3.2882   -5.6255 H   0  0  0  0  0
  -18.2879    5.8980   -5.6896 H   0  0  0  0  0
  -15.4475    6.7129   -5.2448 H   0  0  0  0  0
  -18.6435    7.4887   -5.2825 H   0  0  0  0  0
  -15.5236    7.8882   -7.4082 H   0  0  0  0  0
  -17.1364    7.0683   -7.7275 H   0  0  0  0  0
  -17.2165    4.6704   -8.1575 H   0  0  0  0  0
  -13.4972    6.7392   -7.7067 H   0  0  0  0  0
  -16.0317    2.7573   -9.1673 H   0  0  0  0  0
  -12.3126    4.8257   -8.7145 H   0  0  0  0  0
  -13.5761    2.8293   -9.4404 H   0  0  0  0  0
  1  2  1  0  0  0
  2  3  1  0  0  0
  2  5  1  0  0  0
  3  4  2  0  0  0
  3 10  1  0  0  0
  5  6  1  0  0  0
  6  7  1  0  0  0
  7  8  1  0  0  0
  8  9  1  0  0  0
 10 11  1  0  0  0
 11 12  1  0  0  0
 11 14  1  0  0  0
 12 13  2  0  0  0
 12 17  1  0  0  0
 14 15  1  0  0  0
 14 16  1  0  0  0
 17 18  1  0  0  0
 18 19  1  0  0  0
 18 21  1  0  0  0
 19 20  2  0  0  0
 19 22  1  0  0  0
 22 23  1  0  0  0
 22 28  1  0  0  0
 23 24  1  0  0  0
 23 26  1  0  0  0
 24 25  2  0  0  0
 24 29  1  0  0  0
 26 27  1  0  0  0
 27 28  1  0  0  0
 29 30  1  0  0  0
 30 31  1  0  0  0
 30 33  1  0  0  0
 31 32  2  0  0  0
 31 37  1  0  0  0
 33 34  1  0  0  0
 34 35  1  0  0  0
 34 36  1  0  0  0
 37 38  1  0  0  0
 38 39  1  0  0  0
 38 41  1  0  0  0
 39 40  2  0  0  0
 39 46  1  0  0  0
 41 42  1  0  0  0
 42 43  1  0  0  0
 43 44  1  0  0  0
 44 45  1  0  0  0
 46 47  1  0  0  0
 47 48  1  0  0  0
 47 50  1  0  0  0
 48 49  2  0  0  0
 48 54  1  0  0  0
 50 51  1  0  0  0
 50 52  1  0  0  0
 51 53  1  0  0  0
 54 55  1  0  0  0
 55 56  1  0  0  0
 55 58  1  0  0  0
 56 57  2  0  0  0
 56 63  1  0  0  0
 58 59  1  0  0  0
 59 60  1  0  0  0
 60 61  1  0  0  0
 61 62  1  0  0  0
 63 64  1  0  0  0
 64 65  1  0  0  0
 64 67  1  0  0  0
 65 66  2  0  0  0
 65 71  1  0  0  0
 67 68  1  0  0  0
 68 69  1  0  0  0
 68 70  1  0  0  0
 71 72  1  0  0  0
 72 73  1  0  0  0
 73 74  2  0  0  0
 73 75  1  0  0  0
 75 76  1  0  0  0
 76 77  1  0  0  0
 77 78  2  0  0  0
 77 79  1  0  0  0
 79 80  1  0  0  0
 80 81  1  0  0  0
 80 83  1  0  0  0
 81 82  1  0  0  0
 81 90  2  0  0  0
 83 84  1  0  0  0
 84 85  4  0  0  0
 84 86  4  0  0  0
 85 87  4  0  0  0
 86 88  4  0  0  0
 87 89  4  0  0  0
 88 89  4  0  0  0
  1 91  1  0  0  0
  1 92  1  0  0  0
  1 93  1  0  0  0
  2 94  1  0  0  0
  5 95  1  0  0  0
  5 96  1  0  0  0
  6 97  1  0  0  0
  6 98  1  0  0  0
  7 99  1  0  0  0
  7100  1  0  0  0
  8101  1  0  0  0
  8102  1  0  0  0
  9103  1  0  0  0
  9104  1  0  0  0
  9105  1  0  0  0
 10106  1  0  0  0
 11107  1  0  0  0
 14108  1  0  0  0
 15109  1  0  0  0
 15110  1  0  0  0
 15111  1  0  0  0
 16112  1  0  0  0
 16113  1  0  0  0
 16114  1  0  0  0
 17115  1  0  0  0
 18116  1  0  0  0
 21117  1  0  0  0
 21118  1  0  0  0
 21119  1  0  0  0
 23120  1  0  0  0
 26121  1  0  0  0
 26122  1  0  0  0
 27123  1  0  0  0
 27124  1  0  0  0
 28125  1  0  0  0
 28126  1  0  0  0
 29127  1  0  0  0
 30128  1  0  0  0
 33129  1  0  0  0
 33130  1  0  0  0
 34131  1  0  0  0
 35132  1  0  0  0
 35133  1  0  0  0
 35134  1  0  0  0
 36135  1  0  0  0
 36136  1  0  0  0
 36137  1  0  0  0
 37138  1  0  0  0
 38139  1  0  0  0
 41140  1  0  0  0
 41141  1  0  0  0
 42142  1  0  0  0
 42143  1  0  0  0
 43144  1  0  0  0
 43145  1  0  0  0
 44146  1  0  0  0
 44147  1  0  0  0
 45148  1  0  0  0
 45149  1  0  0  0
 45150  1  0  0  0
 46151  1  0  0  0
 47152  1  0  0  0
 50153  1  0  0  0
 51154  1  0  0  0
 51155  1  0  0  0
 52156  1  0  0  0
 52157  1  0  0  0
 52158  1  0  0  0
 53159  1  0  0  0
 53160  1  0  0  0
 53161  1  0  0  0
 54162  1  0  0  0
 55163  1  0  0  0
 58164  1  0  0  0
 58165  1  0  0  0
 59166  1  0  0  0
 59167  1  0  0  0
 60168  1  0  0  0
 60169  1  0  0  0
 61170  1  0  0  0
 61171  1  0  0  0
 62172  1  0  0  0
 62173  1  0  0  0
 62174  1  0  0  0
 63175  1  0  0  0
 64176  1  0  0  0
 67177  1  0  0  0
 67178  1  0  0  0
 68179  1  0  0  0
 69180  1  0  0  0
 69181  1  0  0  0
 69182  1  0  0  0
 70183  1  0  0  0
 70184  1  0  0  0
 70185  1  0  0  0
 71186  1  0  0  0
 72187  1  0  0  0
 72188  1  0  0  0
 75189  1  0  0  0
 76190  1  0  0  0
 76191  1  0  0  0
 79192  1  0  0  0
 80193  1  0  0  0
 82194  1  0  0  0
 83195  1  0  0  0
 83196  1  0  0  0
 85197  1  0  0  0
 86198  1  0  0  0
 87199  1  0  0  0
 88200  1  0  0  0
 89201  1  0  0  0
M  END
$$$$
