6mrg_ligand
  -I-interpret- 

 45 48  0  0  0  0  0  0  0  0999 V2000
  -27.9150   10.7980   30.5240 C   0  0  0  0  0
  -28.3540   11.3720   31.7170 C   0  0  0  0  0
  -27.2470    9.5810   30.5460 C   0  0  0  0  0
  -28.0930   10.6990   32.9290 C   0  0  0  0  0
  -27.0000    8.9280   31.7510 C   0  0  0  0  0
  -27.4360    9.5150   32.9490 C   0  0  0  0  0
  -28.1610   11.4150   29.1770 C   0  0  0  0  0
  -29.2560   12.2290   28.9250 C   0  0  0  0  0
  -30.7580   14.2780   26.1110 C   0  0  0  0  0
  -29.9760   15.6060   26.0570 C   0  0  0  0  0
  -30.6240   18.1110   23.2390 C   0  0  0  0  0
  -30.5840   17.5110   24.4950 C   0  0  0  0  0
  -29.4090   15.6400   23.5630 C   0  0  0  0  0
  -30.2900   16.4510   27.0460 O   0  0  0  0  0
  -27.6900   10.9350   35.2620 C   0  0  0  0  0
  -29.4310   12.7310   27.6530 C   0  0  0  0  0
  -27.4660   11.6120   26.9090 C   0  0  0  0  0
  -30.0640   17.4700   22.1410 C   0  0  0  0  0
  -29.4540   16.2430   22.3100 C   0  0  0  0  0
  -29.9690   16.2590   24.6680 C   0  0  0  0  0
  -27.4720    9.4410   35.4070 C   0  0  0  0  0
  -28.5500   12.4230   26.6630 N   0  0  0  0  0
  -27.2840   11.1100   28.1640 N   0  0  0  0  0
  -30.5540   13.6040   27.3860 N   0  0  0  0  0
  -27.1780    8.8540   34.1520 O   0  0  0  0  0
  -28.4950   11.2250   34.1240 O   0  0  0  0  0
  -28.8883   12.3220   31.7129 H   0  0  0  0  0
  -26.9125    9.1322   29.6107 H   0  0  0  0  0
  -26.4747    7.9730   31.7636 H   0  0  0  0  0
  -29.9648   12.4672   29.7181 H   0  0  0  0  0
  -30.4011   13.6291   25.3112 H   0  0  0  0  0
  -31.8203   14.4926   25.9948 H   0  0  0  0  0
  -28.9377   15.3303   26.2414 H   0  0  0  0  0
  -31.0958   19.0860   23.1170 H   0  0  0  0  0
  -31.0329   18.0160   25.3503 H   0  0  0  0  0
  -28.9272   14.6688   23.6763 H   0  0  0  0  0
  -29.7716   17.2540   26.9560 H   0  0  0  0  0
  -26.7214   11.4193   35.1378 H   0  0  0  0  0
  -28.1989   11.3023   36.1532 H   0  0  0  0  0
  -26.7621   11.3739   26.1115 H   0  0  0  0  0
  -30.1059   17.9318   21.1546 H   0  0  0  0  0
  -29.0033   15.7418   21.4534 H   0  0  0  0  0
  -28.3813    8.9890   35.8031 H   0  0  0  0  0
  -26.6323    9.2711   36.0809 H   0  0  0  0  0
  -31.2372   13.7549   28.1282 H   0  0  0  0  0
  1  2  4  0  0  0
  1  3  4  0  0  0
  7  1  1  0  0  0
  2  4  4  0  0  0
  3  5  4  0  0  0
  4  6  4  0  0  0
  4 26  1  0  0  0
  5  6  4  0  0  0
  6 25  1  0  0  0
  8  7  4  0  0  0
  7 23  4  0  0  0
 16  8  4  0  0  0
  9 10  1  0  0  0
 24  9  1  0  0  0
 10 14  1  0  0  0
 10 20  1  0  0  0
 12 11  4  0  0  0
 11 18  4  0  0  0
 20 12  4  0  0  0
 13 19  4  0  0  0
 20 13  4  0  0  0
 15 21  1  0  0  0
 26 15  1  0  0  0
 16 22  4  0  0  0
 16 24  1  0  0  0
 22 17  4  0  0  0
 17 23  4  0  0  0
 18 19  4  0  0  0
 21 25  1  0  0  0
  2 27  1  0  0  0
  3 28  1  0  0  0
  5 29  1  0  0  0
  8 30  1  0  0  0
  9 31  1  0  0  0
  9 32  1  0  0  0
 10 33  1  0  0  0
 11 34  1  0  0  0
 12 35  1  0  0  0
 13 36  1  0  0  0
 14 37  1  0  0  0
 15 38  1  0  0  0
 15 39  1  0  0  0
 17 40  1  0  0  0
 18 41  1  0  0  0
 19 42  1  0  0  0
 21 43  1  0  0  0
 21 44  1  0  0  0
 24 45  1  0  0  0
M  END
$$$$
