5ggo_ligand
  -I-interpret- 

 69 71  0  0  0  0  0  0  0  0999 V2000
   87.6980   77.3760  137.8330 C   0  0  0  0  0
   88.4390   78.0850  136.7300 C   0  0  0  0  0
   89.6660   78.0580  136.6220 O   0  0  0  0  0
   87.6650   78.7700  135.8490 N   0  0  0  0  0
   88.2750   79.4480  134.7060 C   0  0  0  0  0
   87.7190   80.8560  134.4580 C   0  0  0  0  0
   88.3740   81.6950  135.4130 O   0  0  0  0  0
   88.2080   81.3900  133.1180 C   0  0  0  0  0
   87.5230   82.6090  132.8070 O   0  0  0  0  0
   87.8720   80.4370  132.0000 C   0  0  0  0  0
   88.3760   80.9460  130.6560 C   0  0  0  0  0
   89.8170   81.1400  130.6270 O   0  0  0  0  0
   88.6000   79.2320  132.2710 O   0  0  0  0  0
   88.1270   78.6000  133.4510 C   0  0  0  0  0
   88.9740   77.4600  133.6200 O   0  0  0  0  0
   88.7620   76.2990  132.9160 C   0  0  0  0  0
   89.4490   75.1840  133.3410 C   0  0  0  0  0
   89.2530   73.9770  132.6810 C   0  0  0  0  0
   88.3650   73.9240  131.6250 C   0  0  0  0  0
   88.1700   72.6860  130.9720 N   0  0  0  0  0
   88.8350   71.6010  131.4650 O   0  0  0  0  0
   87.3090   72.6810  129.8990 O   0  0  0  0  0
   87.6580   75.0320  131.1920 C   0  0  0  0  0
   87.8610   76.2470  131.8440 C   0  0  0  0  0
   87.4900   81.9570  136.4670 C   0  0  0  0  0
   88.3590   82.5560  137.5680 C   0  0  0  0  0
   87.5320   83.2770  138.6250 C   0  0  0  0  0
   86.4080   84.1110  138.0100 C   0  0  0  0  0
   85.6450   83.3650  136.9160 C   0  0  0  0  0
   84.7470   84.3220  136.1450 C   0  0  0  0  0
   90.4830   81.3850  137.9840 C   0  0  0  0  0
   91.2090   80.6140  139.0530 C   0  0  0  0  0
   89.1670   81.5010  138.1830 N   0  0  0  0  0
   88.4070   84.1290  139.3380 O   0  0  0  0  0
   87.0100   85.2630  137.4560 O   0  0  0  0  0
   86.5470   82.8630  135.9660 O   0  0  0  0  0
   85.5600   85.3220  135.5550 O   0  0  0  0  0
   91.1030   81.8470  137.0040 O   0  0  0  0  0
   87.9052   76.3072  137.7796 H   0  0  0  0  0
   88.0268   77.7634  138.7973 H   0  0  0  0  0
   86.6276   77.5461  137.7176 H   0  0  0  0  0
   86.6550   78.8117  135.9851 H   0  0  0  0  0
   89.3296   79.5719  134.9521 H   0  0  0  0  0
   86.6302   80.8375  134.5060 H   0  0  0  0  0
   89.2858   81.5292  133.2015 H   0  0  0  0  0
   87.7019   83.2587  133.4908 H   0  0  0  0  0
   86.7907   80.3086  131.9507 H   0  0  0  0  0
   87.9067   81.9119  130.4692 H   0  0  0  0  0
   88.1259   80.1990  129.9027 H   0  0  0  0  0
   90.0783   81.4600  129.7605 H   0  0  0  0  0
   87.0644   78.3867  133.3350 H   0  0  0  0  0
   90.1373   75.2473  134.1838 H   0  0  0  0  0
   89.7934   73.0833  132.9930 H   0  0  0  0  0
   86.9581   74.9562  130.3598 H   0  0  0  0  0
   87.3275   77.1424  131.5252 H   0  0  0  0  0
   86.9551   81.0928  136.8608 H   0  0  0  0  0
   89.0115   83.3006  137.1120 H   0  0  0  0  0
   87.0643   82.5368  139.2743 H   0  0  0  0  0
   85.6805   84.3510  138.7854 H   0  0  0  0  0
   85.0711   82.5761  137.4022 H   0  0  0  0  0
   84.0237   84.7798  136.8198 H   0  0  0  0  0
   84.2020   83.7805  135.3718 H   0  0  0  0  0
   91.6822   79.7380  138.6094 H   0  0  0  0  0
   91.9702   81.2502  139.5045 H   0  0  0  0  0
   90.4986   80.2973  139.8166 H   0  0  0  0  0
   88.7045   80.8245  138.7904 H   0  0  0  0  0
   87.9136   84.5992  140.0141 H   0  0  0  0  0
   86.3338   85.8159  137.0577 H   0  0  0  0  0
   85.0068   85.9343  135.0644 H   0  0  0  0  0
  2  1  1  0  0  0
  2  3  2  0  0  0
  4  2  1  0  0  0
  5  4  1  0  0  0
  6  5  1  0  0  0
  5 14  1  0  0  0
  7  6  1  0  0  0
  6  8  1  0  0  0
 25  7  1  0  0  0
  8  9  1  0  0  0
  8 10  1  0  0  0
 10 11  1  0  0  0
 10 13  1  0  0  0
 11 12  1  0  0  0
 14 13  1  0  0  0
 14 15  1  0  0  0
 15 16  1  0  0  0
 16 17  4  0  0  0
 16 24  4  0  0  0
 17 18  4  0  0  0
 18 19  4  0  0  0
 19 20  1  0  0  0
 23 19  4  0  0  0
 20 21  2  0  0  0
 20 22  2  0  0  0
 24 23  4  0  0  0
 26 25  1  0  0  0
 25 36  1  0  0  0
 26 27  1  0  0  0
 33 26  1  0  0  0
 27 28  1  0  0  0
 27 34  1  0  0  0
 28 29  1  0  0  0
 28 35  1  0  0  0
 29 30  1  0  0  0
 36 29  1  0  0  0
 30 37  1  0  0  0
 31 32  1  0  0  0
 31 33  1  0  0  0
 31 38  2  0  0  0
  1 39  1  0  0  0
  1 40  1  0  0  0
  1 41  1  0  0  0
  4 42  1  0  0  0
  5 43  1  0  0  0
  6 44  1  0  0  0
  8 45  1  0  0  0
  9 46  1  0  0  0
 10 47  1  0  0  0
 11 48  1  0  0  0
 11 49  1  0  0  0
 12 50  1  0  0  0
 14 51  1  0  0  0
 17 52  1  0  0  0
 18 53  1  0  0  0
 23 54  1  0  0  0
 24 55  1  0  0  0
 25 56  1  0  0  0
 26 57  1  0  0  0
 27 58  1  0  0  0
 28 59  1  0  0  0
 29 60  1  0  0  0
 30 61  1  0  0  0
 30 62  1  0  0  0
 32 63  1  0  0  0
 32 64  1  0  0  0
 32 65  1  0  0  0
 33 66  1  0  0  0
 34 67  1  0  0  0
 35 68  1  0  0  0
 37 69  1  0  0  0
M  END
$$$$
