5tq4_ligand
  -I-interpret- 

 35 37  0  0  0  0  0  0  0  0999 V2000
   16.4940  -11.3060   30.3830 C   0  0  0  0  0
   14.6750  -11.5880   28.3180 C   0  0  0  0  0
   14.4740  -10.6170   29.2850 C   0  0  0  0  0
   15.9830  -13.3910   27.2370 C   0  0  0  0  0
   15.2040  -15.2630   25.9320 C   0  0  0  0  0
   15.7940  -12.4240   28.3570 C   0  0  0  0  0
   16.8990  -16.3570   22.7530 C   0  0  0  0  0
   17.6720  -14.4550   30.3170 C   0  0  0  0  0
   17.9220  -13.1790   29.5440 C   0  0  0  0  0
   16.7080  -12.2870   29.4150 C   0  0  0  0  0
   15.3910  -10.4690   30.3140 C   0  0  0  0  0
   17.0280  -13.2330   26.3200 C   0  0  0  0  0
   17.1610  -14.0640   25.2180 C   0  0  0  0  0
   16.2440  -15.0900   25.0010 C   0  0  0  0  0
   15.0710  -14.4330   27.0410 C   0  0  0  0  0
   14.4600  -16.3060   25.4850 N   0  0  0  0  0
   14.9490  -16.8160   24.3170 N   0  0  0  0  0
   16.0400  -16.1130   23.9710 C   0  0  0  0  0
   17.9190  -15.6830   22.5600 O   0  0  0  0  0
   16.5270  -17.3290   21.9290 N   0  0  0  0  0
   15.2290   -9.4790   31.2430 O   0  0  0  0  0
   17.2027  -11.1961   31.2038 H   0  0  0  0  0
   13.9485  -11.7019   27.5135 H   0  0  0  0  0
   13.5973   -9.9711   29.2370 H   0  0  0  0  0
   17.3458  -14.2082   31.3274 H   0  0  0  0  0
   16.8980  -15.0362   29.8157 H   0  0  0  0  0
   18.5926  -15.0367   30.3630 H   0  0  0  0  0
   18.2197  -13.4661   28.5355 H   0  0  0  0  0
   18.6797  -12.6155   30.0885 H   0  0  0  0  0
   17.7558  -12.4367   26.4759 H   0  0  0  0  0
   17.9847  -13.9142   24.5201 H   0  0  0  0  0
   14.2611  -14.5940   27.7525 H   0  0  0  0  0
   17.0885  -17.5413   21.1043 H   0  0  0  0  0
   15.6797  -17.8636   22.1205 H   0  0  0  0  0
   14.4222   -8.9940   31.0547 H   0  0  0  0  0
 10  1  4  0  0  0
  1 11  4  0  0  0
  2  3  4  0  0  0
  6  2  4  0  0  0
  3 11  4  0  0  0
  4  6  1  0  0  0
 12  4  4  0  0  0
 15  4  4  0  0  0
 14  5  4  0  0  0
  5 15  4  0  0  0
  5 16  4  0  0  0
  6 10  4  0  0  0
 18  7  1  0  0  0
  7 19  2  0  0  0
  7 20  1  0  0  0
  9  8  1  0  0  0
 10  9  1  0  0  0
 11 21  1  0  0  0
 13 12  4  0  0  0
 14 13  4  0  0  0
 14 18  4  0  0  0
 16 17  4  0  0  0
 17 18  4  0  0  0
  1 22  1  0  0  0
  2 23  1  0  0  0
  3 24  1  0  0  0
  8 25  1  0  0  0
  8 26  1  0  0  0
  8 27  1  0  0  0
  9 28  1  0  0  0
  9 29  1  0  0  0
 12 30  1  0  0  0
 13 31  1  0  0  0
 15 32  1  0  0  0
 20 33  1  0  0  0
 20 34  1  0  0  0
 21 35  1  0  0  0
M  END
$$$$
