4css_ligand
  -I-interpret- 

 52 54  0  0  0  0  0  0  0  0999 V2000
  -13.0080   48.5820  -14.4280 C   0  0  0  0  0
  -13.5220   48.0940  -13.1920 N   0  0  0  0  0
  -12.9510   46.6680  -12.5390 S   0  0  0  0  0
  -13.1320   45.5670  -13.4750 O   0  0  0  0  0
  -13.6300   46.3930  -11.3040 O   0  0  0  0  0
  -11.2400   46.8230  -12.1820 C   0  0  0  0  0
  -10.6290   48.0490  -12.1050 C   0  0  0  0  0
   -9.2620   48.1300  -11.8140 C   0  0  0  0  0
  -10.5030   45.6630  -11.9490 C   0  0  0  0  0
   -9.1600   45.7450  -11.6540 C   0  0  0  0  0
   -8.5140   46.9720  -11.5850 C   0  0  0  0  0
   -7.0830   47.0360  -11.2690 C   0  0  0  0  0
   -6.3940   48.2360  -11.3210 C   0  0  0  0  0
   -5.0310   48.3000  -10.9930 C   0  0  0  0  0
   -6.3920   45.8730  -10.9080 C   0  0  0  0  0
   -5.0170   45.9230  -10.6050 C   0  0  0  0  0
   -4.3570   47.1310  -10.6480 C   0  0  0  0  0
   -2.9520   47.0830  -10.3410 O   0  0  0  0  0
   -2.1910   48.1620  -10.1460 C   0  0  0  0  0
   -2.7110   49.1550   -9.2830 O   0  0  0  0  0
   -2.9570   48.6090   -7.9470 C   0  0  0  0  0
   -3.4210   49.7480   -7.1150 C   0  0  0  0  0
   -2.4410   50.7640   -7.0260 O   0  0  0  0  0
   -1.6990   48.0070   -7.3970 C   0  0  0  0  0
   -1.9750   47.3720   -6.1510 O   0  0  0  0  0
   -1.1680   46.9980   -8.3580 C   0  0  0  0  0
    0.0660   46.4800   -7.8350 O   0  0  0  0  0
   -0.9370   47.6220   -9.7170 C   0  0  0  0  0
    0.0430   48.6580   -9.6460 O   0  0  0  0  0
  -11.9357   48.7528  -14.3320 H   0  0  0  0  0
  -13.1914   47.8471  -15.2118 H   0  0  0  0  0
  -13.5050   49.5182  -14.6824 H   0  0  0  0  0
  -14.2452   48.6206  -12.7020 H   0  0  0  0  0
  -11.2069   48.9583  -12.2701 H   0  0  0  0  0
   -8.7768   49.1049  -11.7656 H   0  0  0  0  0
  -10.9903   44.6893  -12.0003 H   0  0  0  0  0
   -8.5948   44.8310  -11.4716 H   0  0  0  0  0
   -6.9177   49.1437  -11.6209 H   0  0  0  0  0
   -4.5053   49.2547  -11.0081 H   0  0  0  0  0
   -6.9219   44.9216  -10.8610 H   0  0  0  0  0
   -4.4798   45.0128  -10.3386 H   0  0  0  0  0
   -2.1170   48.7440  -11.0647 H   0  0  0  0  0
   -3.7038   47.8152   -7.9628 H   0  0  0  0  0
   -3.6250   49.3786   -6.1100 H   0  0  0  0  0
   -4.3128   50.1706   -7.5778 H   0  0  0  0  0
   -2.7743   51.4818   -6.4825 H   0  0  0  0  0
   -0.9599   48.7940   -7.2471 H   0  0  0  0  0
   -1.1669   46.9882   -5.8028 H   0  0  0  0  0
   -1.8924   46.1927   -8.4799 H   0  0  0  0  0
    0.4214   45.8278   -8.4433 H   0  0  0  0  0
   -0.5662   46.8746  -10.4185 H   0  0  0  0  0
    0.8798   48.2862   -9.3577 H   0  0  0  0  0
  1  2  1  0  0  0
  2  3  1  0  0  0
  3  4  2  0  0  0
  3  5  2  0  0  0
  3  6  1  0  0  0
  6  7  4  0  0  0
  6  9  4  0  0  0
  7  8  4  0  0  0
  8 11  4  0  0  0
  9 10  4  0  0  0
 10 11  4  0  0  0
 11 12  1  0  0  0
 12 13  4  0  0  0
 12 15  4  0  0  0
 13 14  4  0  0  0
 14 17  4  0  0  0
 15 16  4  0  0  0
 16 17  4  0  0  0
 17 18  1  0  0  0
 18 19  1  0  0  0
 19 20  1  0  0  0
 19 28  1  0  0  0
 20 21  1  0  0  0
 21 22  1  0  0  0
 21 24  1  0  0  0
 22 23  1  0  0  0
 24 25  1  0  0  0
 24 26  1  0  0  0
 26 27  1  0  0  0
 26 28  1  0  0  0
 28 29  1  0  0  0
  1 30  1  0  0  0
  1 31  1  0  0  0
  1 32  1  0  0  0
  2 33  1  0  0  0
  7 34  1  0  0  0
  8 35  1  0  0  0
  9 36  1  0  0  0
 10 37  1  0  0  0
 13 38  1  0  0  0
 14 39  1  0  0  0
 15 40  1  0  0  0
 16 41  1  0  0  0
 19 42  1  0  0  0
 21 43  1  0  0  0
 22 44  1  0  0  0
 22 45  1  0  0  0
 23 46  1  0  0  0
 24 47  1  0  0  0
 25 48  1  0  0  0
 26 49  1  0  0  0
 27 50  1  0  0  0
 28 51  1  0  0  0
 29 52  1  0  0  0
M  END
$$$$
