5tzw_ligand
  -I-interpret- 

 43 46  0  0  0  0  0  0  0  0999 V2000
    4.6990    3.2330    7.3070 N   0  0  0  0  0
    5.9090    3.8090    7.3180 C   0  0  0  0  0
    6.1810    3.4850    4.9630 C   0  0  0  0  0
    7.7290    4.7540    7.7430 C   0  0  0  0  0
    2.9110    2.1640    6.1350 C   0  0  0  0  0
    7.9330    3.0070    1.5880 C   0  0  0  0  0
    9.1140    6.2940    2.3590 C   0  0  0  0  0
    9.6650    6.4520    4.7710 C   0  0  0  0  0
    9.8880    7.2380    5.8820 C   0  0  0  0  0
    9.4940    9.2120    4.5980 C   0  0  0  0  0
    9.8030    8.6070    5.7930 C   0  0  0  0  0
    9.2670    8.4390    3.4840 C   0  0  0  0  0
    9.3500    7.0710    3.5820 C   0  0  0  0  0
    4.9780    2.9080    4.8940 C   0  0  0  0  0
    4.2560    2.8090    6.1690 C   0  0  0  0  0
    6.9150    2.7350    2.6650 C   0  0  0  0  0
    7.1700    5.1510    3.4110 C   0  0  0  0  0
    8.0060    4.4680    1.2090 C   0  0  0  0  0
    7.0970    3.6940    3.8180 C   0  0  0  0  0
    6.5770    4.3180    8.3290 N   0  0  0  0  0
    7.8040    4.5360    6.4310 N   0  0  0  0  0
    6.6380    3.9300    6.1730 N   0  0  0  0  0
    8.1220    5.3370    2.3530 N   0  0  0  0  0
    9.8210    6.5430    1.3950 O   0  0  0  0  0
   10.0250    9.3640    6.8870 F   0  0  0  0  0
   10.1950    6.6830    7.0700 F   0  0  0  0  0
    9.1640    2.5890    2.0050 F   0  0  0  0  0
    7.6350    2.2610    0.4920 F   0  0  0  0  0
    8.5256    5.2424    8.3042 H   0  0  0  0  0
    2.9136    1.2870    6.7823 H   0  0  0  0  0
    2.1605    2.8730    6.4845 H   0  0  0  0  0
    2.6798    1.8624    5.1134 H   0  0  0  0  0
    9.7364    5.3661    4.8326 H   0  0  0  0  0
    9.4293   10.2982    4.5340 H   0  0  0  0  0
    9.0231    8.9076    2.5306 H   0  0  0  0  0
    4.5618    2.5369    3.9574 H   0  0  0  0  0
    7.0464    1.7156    3.0277 H   0  0  0  0  0
    5.9158    2.8657    2.2495 H   0  0  0  0  0
    7.4817    5.7416    4.2725 H   0  0  0  0  0
    6.1879    5.4677    3.0601 H   0  0  0  0  0
    7.0836    4.7240    0.6877 H   0  0  0  0  0
    8.8933    4.6087    0.5918 H   0  0  0  0  0
    8.0867    3.4274    4.1889 H   0  0  0  0  0
  2  1  4  0  0  0
 15  1  4  0  0  0
  2 20  4  0  0  0
 22  2  4  0  0  0
  3 14  4  0  0  0
 19  3  1  0  0  0
  3 22  4  0  0  0
 20  4  4  0  0  0
  4 21  4  0  0  0
 15  5  1  0  0  0
 16  6  1  0  0  0
  6 18  1  0  0  0
  6 27  1  0  0  0
  6 28  1  0  0  0
  7 13  1  0  0  0
 23  7  1  0  0  0
  7 24  2  0  0  0
  8  9  4  0  0  0
 13  8  4  0  0  0
  9 11  4  0  0  0
  9 26  1  0  0  0
 10 11  4  0  0  0
 12 10  4  0  0  0
 11 25  1  0  0  0
 13 12  4  0  0  0
 14 15  4  0  0  0
 19 16  1  0  0  0
 17 19  1  0  0  0
 17 23  1  0  0  0
 18 23  1  0  0  0
 21 22  4  0  0  0
  4 29  1  0  0  0
  5 30  1  0  0  0
  5 31  1  0  0  0
  5 32  1  0  0  0
  8 33  1  0  0  0
 10 34  1  0  0  0
 12 35  1  0  0  0
 14 36  1  0  0  0
 16 37  1  0  0  0
 16 38  1  0  0  0
 17 39  1  0  0  0
 17 40  1  0  0  0
 18 41  1  0  0  0
 18 42  1  0  0  0
 19 43  1  0  0  0
M  END
$$$$
