4fcm_ligand
  -I-interpret- 

 73 74  0  0  0  0  0  0  0  0999 V2000
  -17.4010   11.6710  -11.8220 N   0  3  0  0  0
  -16.7500   12.2730  -10.6640 C   0  0  0  0  0
  -15.2990   12.6470  -10.9590 C   0  0  0  0  0
  -14.5450   11.8560  -11.5260 O   0  0  0  0  0
  -16.8220   11.3330   -9.4590 C   0  0  0  0  0
  -15.9860   11.7850   -8.4070 O   0  0  0  0  0
  -14.9200   13.8600  -10.5690 N   0  0  0  0  0
  -13.5720   14.3550  -10.7790 C   0  0  0  0  0
  -13.3880   15.7320  -10.1700 C   0  0  0  0  0
  -14.1080   16.1090   -9.2460 O   0  0  0  0  0
  -12.4220   16.4870  -10.6830 N   0  0  0  0  0
  -12.2030   17.8510  -10.2140 C   0  0  0  0  0
  -12.9300   18.8330  -11.1280 C   0  0  0  0  0
  -13.1670   18.5410  -12.3010 O   0  0  0  0  0
  -10.7060   18.1680  -10.1290 C   0  0  0  0  0
  -10.1460   18.8210  -11.3610 C   0  0  0  0  0
   -9.8310   20.1700  -11.3600 C   0  0  0  0  0
   -9.9300   18.0880  -12.5150 C   0  0  0  0  0
   -9.3140   20.7760  -12.4880 C   0  0  0  0  0
   -9.4140   18.6900  -13.6470 C   0  0  0  0  0
   -9.1060   20.0360  -13.6330 C   0  0  0  0  0
  -13.2850   19.9940  -10.5900 N   0  0  0  0  0
  -14.1470   20.9270  -11.3070 C   0  0  0  0  0
  -13.4480   22.2220  -11.7140 C   0  0  0  0  0
  -12.3660   22.5420  -11.2210 O   0  0  0  0  0
  -15.3870   21.2450  -10.4680 C   0  0  0  0  0
  -16.1250   20.0680  -10.1890 O   0  0  0  0  0
  -14.0830   22.9610  -12.6190 N   0  0  0  0  0
  -13.5550   24.2380  -13.0830 C   0  0  0  0  0
  -14.6820   25.2100  -13.4160 C   0  0  0  0  0
  -14.4804   26.4537  -13.4303 O   0  0  0  0  0
  -12.6590   24.0360  -14.3050 C   0  0  0  0  0
  -11.3020   24.6590  -14.1670 C   0  0  0  0  0
  -10.2580   23.9490  -13.6030 C   0  0  0  0  0
  -11.0720   25.9570  -14.5930 C   0  0  0  0  0
   -9.0110   24.5170  -13.4700 C   0  0  0  0  0
   -9.8220   26.5320  -14.4620 C   0  0  0  0  0
   -8.7910   25.8110  -13.8990 C   0  0  0  0  0
  -15.8302   24.7635  -13.6804 O   0  0  0  0  0
  -17.3430   12.3111  -12.6140 H   0  0  0  0  0
  -16.9336   10.7952  -12.0562 H   0  0  0  0  0
  -18.3801   11.4872  -11.6028 H   0  0  0  0  0
  -17.2867   13.1923  -10.4295 H   0  0  0  0  0
  -16.4874   10.3430   -9.7690 H   0  0  0  0  0
  -17.8506   11.3058   -9.0994 H   0  0  0  0  0
  -16.0502   11.1785   -7.6656 H   0  0  0  0  0
  -15.5998   14.4635  -10.1063 H   0  0  0  0  0
  -13.3912   14.4236  -11.8517 H   0  0  0  0  0
  -12.8726   13.6687  -10.3016 H   0  0  0  0  0
  -11.8240   16.1066  -11.4166 H   0  0  0  0  0
  -12.6104   17.9493   -9.2078 H   0  0  0  0  0
  -10.1827   17.2206  -10.0001 H   0  0  0  0  0
  -10.5709   18.8672   -9.3038 H   0  0  0  0  0
   -9.9932   20.7602  -10.4581 H   0  0  0  0  0
  -10.1694   17.0247  -12.5312 H   0  0  0  0  0
   -9.0705   21.8384  -12.4734 H   0  0  0  0  0
   -9.2502   18.1026  -14.5504 H   0  0  0  0  0
   -8.6994   20.5126  -14.5250 H   0  0  0  0  0
  -12.9488   20.2378   -9.6584 H   0  0  0  0  0
  -14.4328   20.4283  -12.2331 H   0  0  0  0  0
  -16.0218   21.9321  -11.0276 H   0  0  0  0  0
  -15.0676   21.6898   -9.5255 H   0  0  0  0  0
  -16.8961   20.2923   -9.6630 H   0  0  0  0  0
  -14.9669   22.6238  -13.0003 H   0  0  0  0  0
  -12.9605   24.6660  -12.2758 H   0  0  0  0  0
  -13.5630   26.6306  -13.2097 H   0  0  0  0  0
  -13.1516   24.5123  -15.1527 H   0  0  0  0  0
  -12.5139   22.9628  -14.4289 H   0  0  0  0  0
  -10.4243   22.9279  -13.2598 H   0  0  0  0  0
  -11.8857   26.5310  -15.0363 H   0  0  0  0  0
   -8.1966   23.9448  -13.0257 H   0  0  0  0  0
   -9.6519   27.5532  -14.8031 H   0  0  0  0  0
   -7.8041   26.2613  -13.7926 H   0  0  0  0  0
  1  2  1  0  0  0
  2  3  1  0  0  0
  2  5  1  0  0  0
  3  4  2  0  0  0
  3  7  1  0  0  0
  5  6  1  0  0  0
  7  8  1  0  0  0
  8  9  1  0  0  0
  9 10  2  0  0  0
  9 11  1  0  0  0
 11 12  1  0  0  0
 12 13  1  0  0  0
 12 15  1  0  0  0
 13 14  2  0  0  0
 13 22  1  0  0  0
 15 16  1  0  0  0
 16 17  4  0  0  0
 16 18  4  0  0  0
 17 19  4  0  0  0
 18 20  4  0  0  0
 19 21  4  0  0  0
 20 21  4  0  0  0
 22 23  1  0  0  0
 23 24  1  0  0  0
 23 26  1  0  0  0
 24 25  2  0  0  0
 24 28  1  0  0  0
 26 27  1  0  0  0
 28 29  1  0  0  0
 29 30  1  0  0  0
 29 32  1  0  0  0
 30 31  1  0  0  0
 32 33  1  0  0  0
 33 34  4  0  0  0
 33 35  4  0  0  0
 34 36  4  0  0  0
 35 37  4  0  0  0
 36 38  4  0  0  0
 37 38  4  0  0  0
 30 39  2  0  0  0
  1 40  1  0  0  0
  1 41  1  0  0  0
  1 42  1  0  0  0
  2 43  1  0  0  0
  5 44  1  0  0  0
  5 45  1  0  0  0
  6 46  1  0  0  0
  7 47  1  0  0  0
  8 48  1  0  0  0
  8 49  1  0  0  0
 11 50  1  0  0  0
 12 51  1  0  0  0
 15 52  1  0  0  0
 15 53  1  0  0  0
 17 54  1  0  0  0
 18 55  1  0  0  0
 19 56  1  0  0  0
 20 57  1  0  0  0
 21 58  1  0  0  0
 22 59  1  0  0  0
 23 60  1  0  0  0
 26 61  1  0  0  0
 26 62  1  0  0  0
 27 63  1  0  0  0
 28 64  1  0  0  0
 29 65  1  0  0  0
 31 66  1  0  0  0
 32 67  1  0  0  0
 32 68  1  0  0  0
 34 69  1  0  0  0
 35 70  1  0  0  0
 36 71  1  0  0  0
 37 72  1  0  0  0
 38 73  1  0  0  0
M  END
$$$$
