4b6o_ligand
  -I-interpret- 

 40 41  0  0  0  0  0  0  0  0999 V2000
  -52.1670  -29.4250   -7.6900 C   0  0  0  0  0
  -51.2420  -28.9440   -6.6820 O   0  0  0  0  0
  -49.9080  -29.2470   -6.8040 C   0  0  0  0  0
  -49.3690  -29.8830   -7.9070 C   0  0  0  0  0
  -48.0060  -30.1570   -7.9810 C   0  0  0  0  0
  -49.0560  -28.9030   -5.7600 C   0  0  0  0  0
  -47.7000  -29.1840   -5.8220 C   0  0  0  0  0
  -47.1790  -29.8300   -6.9360 C   0  0  0  0  0
  -45.6960  -30.1330   -6.9930 C   0  0  0  0  0
  -44.8700  -28.8360   -7.1380 C   0  0  0  0  0
  -45.2230  -28.1690   -8.4810 C   0  0  0  0  0
  -45.9670  -27.1690   -8.5380 O   0  0  0  0  0
  -44.6370  -28.7950   -9.7530 C   0  0  0  0  0
  -44.8850  -27.9660  -10.9130 O   0  0  0  0  0
  -43.1270  -29.0040   -9.5600 C   0  0  0  0  0
  -42.6160  -29.6960  -10.7040 O   0  0  0  0  0
  -42.8330  -29.8340   -8.3050 C   0  0  0  0  0
  -43.3140  -29.0840   -7.0440 C   0  0  0  0  0
  -42.9860  -29.8570   -5.7510 C   0  0  0  0  0
  -42.8180  -31.1090   -5.8300 O   0  0  0  0  0
  -42.9140  -29.1860   -4.6820 O   0  0  0  0  0
  -42.6360  -27.7790   -7.0150 O   0  0  0  0  0
  -51.8827  -29.0243   -8.6630 H   0  0  0  0  0
  -52.1349  -30.5141   -7.7207 H   0  0  0  0  0
  -53.1762  -29.0969   -7.4413 H   0  0  0  0  0
  -50.0208  -30.1742   -8.7307 H   0  0  0  0  0
  -47.5947  -30.6325   -8.8714 H   0  0  0  0  0
  -49.4608  -28.4046   -4.8792 H   0  0  0  0  0
  -47.0445  -28.8989   -4.9991 H   0  0  0  0  0
  -45.5024  -30.7688   -7.8569 H   0  0  0  0  0
  -45.4054  -30.6306   -6.0678 H   0  0  0  0  0
  -45.1273  -28.1820   -6.3048 H   0  0  0  0  0
  -45.1245  -29.7543   -9.9270 H   0  0  0  0  0
  -44.5071  -28.3839  -11.6903 H   0  0  0  0  0
  -42.6515  -28.0301   -9.4436 H   0  0  0  0  0
  -41.6719  -29.8341  -10.5978 H   0  0  0  0  0
  -41.7584  -30.0015   -8.2320 H   0  0  0  0  0
  -43.3590  -30.7861   -8.3759 H   0  0  0  0  0
  -42.9219  -31.3877   -6.7428 H   0  0  0  0  0
  -41.6872  -27.9138   -6.9578 H   0  0  0  0  0
  1  2  1  0  0  0
  2  3  1  0  0  0
  3  4  4  0  0  0
  3  6  4  0  0  0
  4  5  4  0  0  0
  5  8  4  0  0  0
  6  7  4  0  0  0
  7  8  4  0  0  0
  8  9  1  0  0  0
  9 10  1  0  0  0
 10 11  1  0  0  0
 10 18  1  0  0  0
 11 12  2  0  0  0
 11 13  1  0  0  0
 13 14  1  0  0  0
 13 15  1  0  0  0
 15 16  1  0  0  0
 15 17  1  0  0  0
 17 18  1  0  0  0
 18 19  1  0  0  0
 18 22  1  0  0  0
 19 20  1  0  0  0
 19 21  2  0  0  0
  1 23  1  0  0  0
  1 24  1  0  0  0
  1 25  1  0  0  0
  4 26  1  0  0  0
  5 27  1  0  0  0
  6 28  1  0  0  0
  7 29  1  0  0  0
  9 30  1  0  0  0
  9 31  1  0  0  0
 10 32  1  0  0  0
 13 33  1  0  0  0
 14 34  1  0  0  0
 15 35  1  0  0  0
 16 36  1  0  0  0
 17 37  1  0  0  0
 17 38  1  0  0  0
 20 39  1  0  0  0
 22 40  1  0  0  0
M  END
$$$$
