2qwg_ligand
  -I-interpret- 

 43 43  0  0  0  0  0  0  0  0999 V2000
   23.4500   19.6580   64.7580 C   0  0  0  0  0
   24.1630   20.6230   65.0690 O   0  0  0  0  0
   22.2240   19.6710   64.9850 O   0  0  0  0  0
   24.0880   18.5950   64.0810 C   0  0  0  0  0
   23.3800   17.5400   63.5650 C   0  0  0  0  0
   24.0390   16.4860   62.6690 C   0  0  0  0  0
   25.5350   16.4960   62.8190 C   0  0  0  0  0
   26.1550   15.7860   61.6720 N   0  0  0  0  0
   26.8950   14.7050   61.8820 C   0  0  0  0  0
   27.0700   14.2590   63.0090 O   0  0  0  0  0
   27.4990   14.0410   60.6580 C   0  0  0  0  0
   26.0570   17.9380   62.8380 C   0  0  0  0  0
   25.4940   18.6490   63.8950 O   0  0  0  0  0
   27.5590   17.9210   63.0960 C   0  0  0  0  0
   27.9090   17.5890   64.2260 O   0  0  0  0  0
   28.4510   18.2570   62.1550 N   0  0  0  0  0
   29.8330   18.1900   62.6340 C   0  0  0  0  0
   30.3980   16.8090   62.3030 C   0  0  0  0  0
   28.0510   18.6840   60.8200 C   0  0  0  0  0
   28.1350   20.1720   60.7760 C   0  0  0  0  0
   23.5780   15.2040   63.0750 N   0  3  0  0  0
   21.8346   18.8481   64.6804 H   0  0  0  0  0
   22.3193   17.4487   63.7987 H   0  0  0  0  0
   23.7820   16.7074   61.6331 H   0  0  0  0  0
   25.7930   16.0004   63.7549 H   0  0  0  0  0
   26.0120   16.1294   60.7222 H   0  0  0  0  0
   28.5848   14.0274   60.7522 H   0  0  0  0  0
   27.1270   13.0194   60.5797 H   0  0  0  0  0
   27.2173   14.6010   59.7663 H   0  0  0  0  0
   25.8056   18.3980   61.8823 H   0  0  0  0  0
   29.8605   18.3535   63.7113 H   0  0  0  0  0
   30.4314   18.9615   62.1493 H   0  0  0  0  0
   29.7968   16.0444   62.7950 H   0  0  0  0  0
   30.3709   16.6558   61.2242 H   0  0  0  0  0
   31.4278   16.7453   62.6546 H   0  0  0  0  0
   27.0343   18.3549   60.6052 H   0  0  0  0  0
   28.7072   18.2446   60.0687 H   0  0  0  0  0
   27.4665   20.5947   61.5261 H   0  0  0  0  0
   29.1589   20.4831   60.9833 H   0  0  0  0  0
   27.8408   20.5221   59.7866 H   0  0  0  0  0
   22.5628   15.1648   62.9847 H   0  0  0  0  0
   24.0011   14.4888   62.4834 H   0  0  0  0  0
   23.8406   15.0418   64.0472 H   0  0  0  0  0
  1  4  1  0  0  0
  1  3  1  0  0  0
  1  2  2  0  0  0
  4 13  1  0  0  0
  4  5  2  0  0  0
  5  6  1  0  0  0
  6 21  1  0  0  0
  6  7  1  0  0  0
  7 12  1  0  0  0
  7  8  1  0  0  0
  8  9  1  0  0  0
  9 11  1  0  0  0
  9 10  2  0  0  0
 12 14  1  0  0  0
 12 13  1  0  0  0
 14 16  1  0  0  0
 14 15  2  0  0  0
 16 19  1  0  0  0
 16 17  1  0  0  0
 17 18  1  0  0  0
 19 20  1  0  0  0
  3 22  1  0  0  0
  5 23  1  0  0  0
  6 24  1  0  0  0
  7 25  1  0  0  0
  8 26  1  0  0  0
 11 27  1  0  0  0
 11 28  1  0  0  0
 11 29  1  0  0  0
 12 30  1  0  0  0
 17 31  1  0  0  0
 17 32  1  0  0  0
 18 33  1  0  0  0
 18 34  1  0  0  0
 18 35  1  0  0  0
 19 36  1  0  0  0
 19 37  1  0  0  0
 20 38  1  0  0  0
 20 39  1  0  0  0
 20 40  1  0  0  0
 21 41  1  0  0  0
 21 42  1  0  0  0
 21 43  1  0  0  0
M  END
$$$$
