6g9j_ligand
  -I-interpret- 

 64 68  0  0  0  0  0  0  0  0999 V2000
   -0.9640    6.8720   48.5120 C   0  0  0  0  0
   -0.1020    8.0850   48.8380 C   0  0  0  0  0
    2.3370    8.6170   45.9480 C   0  0  0  0  0
    4.5500    9.9000   45.9100 C   0  0  0  0  0
    7.1180   10.1530   45.4700 C   0  0  0  0  0
    8.2870    9.5120   45.1140 C   0  0  0  0  0
    8.3030    8.1560   44.7860 C   0  0  0  0  0
    7.1050    7.4330   44.8940 C   0  0  0  0  0
    5.9210    8.0910   45.2650 C   0  0  0  0  0
    4.5340    7.5890   45.4170 C   0  0  0  0  0
   10.4360    8.2650   43.6710 N   0  0  0  0  0
   11.6310    7.7080   43.3970 C   0  0  0  0  0
   12.2220    9.6880   41.9780 C   0  0  0  0  0
   13.5220   10.4160   41.7050 C   0  0  0  0  0
   13.1970   11.6930   40.9770 C   0  0  0  0  0
   11.2670   10.8140   39.9840 C   0  0  0  0  0
   11.4400    9.4900   40.6890 C   0  0  0  0  0
   11.2430    5.8260   44.6010 C   0  0  0  0  0
   -0.9480    9.1610   49.4990 C   0  0  0  0  0
   -2.3630   11.1100   49.3720 C   0  0  0  0  0
   -1.5830   10.1450   48.7530 C   0  0  0  0  0
    0.5750    8.5310   47.6140 N   0  0  0  0  0
    1.8600    8.2860   47.3540 C   0  0  0  0  0
    2.6260    7.8260   48.1890 O   0  0  0  0  0
    3.7790    8.6560   45.7920 N   0  0  0  0  0
    5.9350    9.4470   45.5580 C   0  0  0  0  0
    4.1130    6.4580   45.2500 O   0  0  0  0  0
    9.6050    7.5260   44.4430 C   0  0  0  0  0
   12.4910    8.4110   42.6260 N   0  0  0  0  0
   12.5220   11.4330   39.7390 O   0  0  0  0  0
   12.0850    6.5190   43.8280 N   0  0  0  0  0
    9.9890    6.2970   44.9490 C   0  0  0  0  0
    8.9700    5.3310   45.9660 Cl  0  0  0  0  0
   -1.1280    9.1550   50.8770 C   0  0  0  0  0
   -1.9040   10.1260   51.4930 C   0  0  0  0  0
   -2.5250   11.0990   50.7390 C   0  0  0  0  0
   -1.3946    6.4761   49.4318 H   0  0  0  0  0
   -1.7636    7.1680   47.8330 H   0  0  0  0  0
   -0.3484    6.1070   48.0388 H   0  0  0  0  0
    0.6756    7.8317   49.5586 H   0  0  0  0  0
    1.9648    9.6141   45.7126 H   0  0  0  0  0
    1.9677    7.8278   45.2931 H   0  0  0  0  0
    4.4841   10.3551   46.8983 H   0  0  0  0  0
    4.1812   10.6978   45.2653 H   0  0  0  0  0
    7.1287   11.2220   45.6828 H   0  0  0  0  0
    9.2185   10.0775   45.0885 H   0  0  0  0  0
    7.0935    6.3623   44.6902 H   0  0  0  0  0
   11.6134   10.2937   42.6495 H   0  0  0  0  0
   14.1812    9.7946   41.0988 H   0  0  0  0  0
   14.0336   10.6367   42.6418 H   0  0  0  0  0
   14.1293   12.2142   40.7598 H   0  0  0  0  0
   12.5425   12.2940   41.6082 H   0  0  0  0  0
   10.6727   11.4713   40.6188 H   0  0  0  0  0
   10.7735   10.6376   39.0283 H   0  0  0  0  0
   10.4590    9.0769   40.9236 H   0  0  0  0  0
   11.9853    8.8054   40.0393 H   0  0  0  0  0
   11.5567    4.8504   44.9723 H   0  0  0  0  0
   -2.8498   11.8803   48.7738 H   0  0  0  0  0
   -1.4671   10.1590   47.6693 H   0  0  0  0  0
    0.0343    9.0557   46.9264 H   0  0  0  0  0
   13.4175    8.0085   42.4843 H   0  0  0  0  0
   -0.6548    8.3798   51.4797 H   0  0  0  0  0
   -2.0231   10.1197   52.5765 H   0  0  0  0  0
   -3.1416   11.8563   51.2232 H   0  0  0  0  0
  2  1  1  0  0  0
  2 19  1  0  0  0
 22  2  1  0  0  0
 23  3  1  0  0  0
  3 25  1  0  0  0
 25  4  1  0  0  0
  4 26  1  0  0  0
  5  6  4  0  0  0
 26  5  4  0  0  0
  7  6  4  0  0  0
  8  7  4  0  0  0
  7 28  1  0  0  0
  9  8  4  0  0  0
 10  9  1  0  0  0
  9 26  4  0  0  0
 25 10  1  0  0  0
 10 27  2  0  0  0
 11 12  4  0  0  0
 28 11  4  0  0  0
 12 29  1  0  0  0
 12 31  4  0  0  0
 13 14  1  0  0  0
 13 17  1  0  0  0
 29 13  1  0  0  0
 14 15  1  0  0  0
 15 30  1  0  0  0
 17 16  1  0  0  0
 16 30  1  0  0  0
 31 18  4  0  0  0
 18 32  4  0  0  0
 19 21  4  0  0  0
 19 34  4  0  0  0
 21 20  4  0  0  0
 20 36  4  0  0  0
 22 23  1  0  0  0
 23 24  2  0  0  0
 28 32  4  0  0  0
 32 33  1  0  0  0
 34 35  4  0  0  0
 35 36  4  0  0  0
  1 37  1  0  0  0
  1 38  1  0  0  0
  1 39  1  0  0  0
  2 40  1  0  0  0
  3 41  1  0  0  0
  3 42  1  0  0  0
  4 43  1  0  0  0
  4 44  1  0  0  0
  5 45  1  0  0  0
  6 46  1  0  0  0
  8 47  1  0  0  0
 13 48  1  0  0  0
 14 49  1  0  0  0
 14 50  1  0  0  0
 15 51  1  0  0  0
 15 52  1  0  0  0
 16 53  1  0  0  0
 16 54  1  0  0  0
 17 55  1  0  0  0
 17 56  1  0  0  0
 18 57  1  0  0  0
 20 58  1  0  0  0
 21 59  1  0  0  0
 22 60  1  0  0  0
 29 61  1  0  0  0
 34 62  1  0  0  0
 35 63  1  0  0  0
 36 64  1  0  0  0
M  END
$$$$
