6ar2_ligand
  -I-interpret- 

105104  0  0  0  0  0  0  0  0999 V2000
   -5.3050  151.5970  101.6800 N   0  3  0  0  0
   -6.7160  151.9540  101.4930 C   0  0  0  0  0
   -7.2440  152.5190  102.7840 C   0  0  0  0  0
   -6.7670  152.1430  103.8440 O   0  0  0  0  0
   -7.5610  150.7440  101.1080 C   0  0  0  0  0
   -7.4650  149.6300  102.1340 C   0  0  0  0  0
   -8.5040  149.1850  102.6480 O   0  0  0  0  0
   -6.3240  149.2050  102.4340 O   0  0  0  0  0
   -8.2080  153.4200  102.6810 N   0  0  0  0  0
   -8.9640  153.8960  103.8370 C   0  0  0  0  0
   -8.3220  155.0490  104.5910 C   0  0  0  0  0
   -8.8490  155.4800  105.6140 O   0  0  0  0  0
   -7.2000  155.5540  104.0760 N   0  0  0  0  0
   -6.4480  156.6170  104.7360 C   0  0  0  0  0
   -5.0760  156.7420  104.1020 C   0  0  0  0  0
   -4.2330  157.7390  104.8980 C   0  0  0  0  0
   -4.4490  155.4550  104.1720 O   0  0  0  0  0
   -4.1110  154.7700  102.7340 P   0  0  0  0  0
   -5.3490  154.7230  101.8930 O   0  0  0  0  0
   -2.9120  155.5700  102.0970 O   0  0  0  0  0
   -3.6310  153.3140  103.1550 O   0  0  0  0  0
   -7.1930  157.9430  104.6500 C   0  0  0  0  0
   -7.7960  158.2440  103.6350 O   0  0  0  0  0
   -7.1900  158.7210  105.7320 N   0  0  0  0  0
   -7.7020  160.0840  105.6940 C   0  0  0  0  0
   -6.6570  160.9560  104.9920 C   0  0  0  0  0
   -5.5530  161.0810  105.5010 O   0  0  0  0  0
   -7.9780  160.5770  107.1240 C   0  0  0  0  0
   -8.3890  162.0220  107.2470 C   0  0  0  0  0
   -8.8800  162.4180  108.9420 S   0  0  0  0  0
   -9.2580  164.1590  108.8180 C   0  0  0  0  0
   -6.9990  161.5810  103.8590 N   0  0  0  0  0
   -5.9970  162.1490  102.9580 C   0  0  0  0  0
   -6.1050  163.6650  102.8980 C   0  0  0  0  0
   -7.2060  164.2170  102.7990 O   0  0  0  0  0
   -6.1420  161.5850  101.5460 C   0  0  0  0  0
   -6.0830  160.0850  101.4820 C   0  0  0  0  0
   -6.2700  159.5800  100.0750 C   0  0  0  0  0
   -6.1600  158.0740  100.0200 C   0  0  0  0  0
   -6.1200  157.5750   98.6230 N   0  3  0  0  0
   -4.9560  164.3340  102.9520 N   0  0  0  0  0
   -4.9360  165.7990  102.9450 C   0  0  0  0  0
   -5.3170  166.3480  101.5710 C   0  0  0  0  0
   -5.0210  165.7430  100.5420 O   0  0  0  0  0
   -3.5540  166.3290  103.3630 C   0  0  0  0  0
   -3.4950  167.8540  103.4520 C   0  0  0  0  0
   -2.1360  168.3540  103.9020 C   0  0  0  0  0
   -2.1280  168.6810  105.3240 N   0  0  0  0  0
   -1.1250  169.2910  105.9520 C   0  0  0  0  0
   -0.0350  169.6520  105.2820 N   0  0  0  0  0
   -1.2130  169.5480  107.2560 N   0  0  0  0  0
   -5.9290  167.4090  101.4590 O   0  0  0  0  0
   -4.7756  152.4305  101.9357 H   0  0  0  0  0
   -5.2269  150.9021  102.4226 H   0  0  0  0  0
   -4.9352  151.2111  100.8113 H   0  0  0  0  0
   -6.7785  152.6829  100.6850 H   0  0  0  0  0
   -7.1929  150.3616  100.1559 H   0  0  0  0  0
   -8.6019  151.0618  101.0480 H   0  0  0  0  0
   -5.6628  149.6801  101.9253 H   0  0  0  0  0
   -8.4316  153.7963  101.7597 H   0  0  0  0  0
   -9.0319  153.0615  104.5349 H   0  0  0  0  0
   -9.9205  154.2587  103.4608 H   0  0  0  0  0
   -6.8553  155.1845  103.1900 H   0  0  0  0  0
   -6.3349  156.3615  105.7896 H   0  0  0  0  0
   -5.1638  157.0848  103.0710 H   0  0  0  0  0
   -4.7243  158.7120  104.8952 H   0  0  0  0  0
   -4.1281  157.3864  105.9241 H   0  0  0  0  0
   -3.2477  157.8268  104.4401 H   0  0  0  0  0
   -2.1623  155.5517  102.6963 H   0  0  0  0  0
   -2.8378  153.3824  103.6914 H   0  0  0  0  0
   -6.8200  158.3529  106.6084 H   0  0  0  0  0
   -8.6428  160.1344  105.1459 H   0  0  0  0  0
   -7.0420  160.4737  107.6730 H   0  0  0  0  0
   -8.8124  159.9849  107.4998 H   0  0  0  0  0
   -9.2383  162.2002  106.5874 H   0  0  0  0  0
   -7.5410  162.6501  106.9740 H   0  0  0  0  0
   -8.3698  164.7000  108.4917 H   0  0  0  0  0
  -10.0600  164.3047  108.0944 H   0  0  0  0  0
   -9.5741  164.5312  109.7925 H   0  0  0  0  0
   -7.9865  161.6635  103.6171 H   0  0  0  0  0
   -5.0204  161.8748  103.3570 H   0  0  0  0  0
   -5.3092  161.9681  100.9563 H   0  0  0  0  0
   -7.1211  161.8875  101.1745 H   0  0  0  0  0
   -6.8851  159.6829  102.1008 H   0  0  0  0  0
   -5.1028  159.7643  101.8347 H   0  0  0  0  0
   -5.4929  160.0103   99.4432 H   0  0  0  0  0
   -7.2617  159.8707   99.7284 H   0  0  0  0  0
   -7.0352  157.6484  100.5109 H   0  0  0  0  0
   -5.2348  157.7797  100.5155 H   0  0  0  0  0
   -6.0458  156.5577   98.6286 H   0  0  0  0  0
   -6.9744  157.8521   98.1396 H   0  0  0  0  0
   -5.3124  157.9734   98.1439 H   0  0  0  0  0
   -4.0765  163.8195  102.9989 H   0  0  0  0  0
   -5.6748  166.1430  103.6689 H   0  0  0  0  0
   -2.8367  166.0146  102.6049 H   0  0  0  0  0
   -3.3339  165.9317  104.3539 H   0  0  0  0  0
   -4.2336  168.1781  104.1852 H   0  0  0  0  0
   -3.6912  168.2579  102.4588 H   0  0  0  0  0
   -1.8976  169.2568  103.3396 H   0  0  0  0  0
   -1.4035  167.5664  103.7256 H   0  0  0  0  0
   -2.9473  168.4246  105.8748 H   0  0  0  0  0
    0.0355  169.4619  104.2824 H   0  0  0  0  0
   -0.4463  170.0196  107.7357 H   0  0  0  0  0
   -2.0471  169.2732  107.7748 H   0  0  0  0  0
   -6.0957  167.7745  102.3309 H   0  0  0  0  0
  1  2  1  0  0  0
  2  3  1  0  0  0
  2  5  1  0  0  0
  3  4  2  0  0  0
  3  9  1  0  0  0
  5  6  1  0  0  0
  6  7  2  0  0  0
  6  8  1  0  0  0
  9 10  1  0  0  0
 10 11  1  0  0  0
 11 12  2  0  0  0
 11 13  1  0  0  0
 13 14  1  0  0  0
 14 15  1  0  0  0
 14 22  1  0  0  0
 15 16  1  0  0  0
 15 17  1  0  0  0
 17 18  1  0  0  0
 18 19  2  0  0  0
 18 20  1  0  0  0
 18 21  1  0  0  0
 22 23  2  0  0  0
 22 24  1  0  0  0
 24 25  1  0  0  0
 25 26  1  0  0  0
 25 28  1  0  0  0
 26 27  2  0  0  0
 26 32  1  0  0  0
 28 29  1  0  0  0
 29 30  1  0  0  0
 30 31  1  0  0  0
 32 33  1  0  0  0
 33 34  1  0  0  0
 33 36  1  0  0  0
 34 35  2  0  0  0
 34 41  1  0  0  0
 36 37  1  0  0  0
 37 38  1  0  0  0
 38 39  1  0  0  0
 39 40  1  0  0  0
 41 42  1  0  0  0
 42 43  1  0  0  0
 42 45  1  0  0  0
 43 44  2  0  0  0
 43 52  1  0  0  0
 45 46  1  0  0  0
 46 47  1  0  0  0
 47 48  1  0  0  0
 48 49  1  0  0  0
 49 50  2  0  0  0
 49 51  1  0  0  0
  1 53  1  0  0  0
  1 54  1  0  0  0
  1 55  1  0  0  0
  2 56  1  0  0  0
  5 57  1  0  0  0
  5 58  1  0  0  0
  8 59  1  0  0  0
  9 60  1  0  0  0
 10 61  1  0  0  0
 10 62  1  0  0  0
 13 63  1  0  0  0
 14 64  1  0  0  0
 15 65  1  0  0  0
 16 66  1  0  0  0
 16 67  1  0  0  0
 16 68  1  0  0  0
 20 69  1  0  0  0
 21 70  1  0  0  0
 24 71  1  0  0  0
 25 72  1  0  0  0
 28 73  1  0  0  0
 28 74  1  0  0  0
 29 75  1  0  0  0
 29 76  1  0  0  0
 31 77  1  0  0  0
 31 78  1  0  0  0
 31 79  1  0  0  0
 32 80  1  0  0  0
 33 81  1  0  0  0
 36 82  1  0  0  0
 36 83  1  0  0  0
 37 84  1  0  0  0
 37 85  1  0  0  0
 38 86  1  0  0  0
 38 87  1  0  0  0
 39 88  1  0  0  0
 39 89  1  0  0  0
 40 90  1  0  0  0
 40 91  1  0  0  0
 40 92  1  0  0  0
 41 93  1  0  0  0
 42 94  1  0  0  0
 45 95  1  0  0  0
 45 96  1  0  0  0
 46 97  1  0  0  0
 46 98  1  0  0  0
 47 99  1  0  0  0
 47100  1  0  0  0
 48101  1  0  0  0
 50102  1  0  0  0
 51103  1  0  0  0
 51104  1  0  0  0
 52105  1  0  0  0
M  END
$$$$
