### 
### Created by X-TOOL on Wed Jan  1 15:39:35 2020
### 

@<TRIPOS>MOLECULE
6ar2_ligand
  102   101     1     0     0
SMALL
GAST_HUCK


@<TRIPOS>ATOM
      1 N          -5.3050  151.5970  101.6800 N.4       1 ASP         0.2391
      2 CA         -6.7160  151.9540  101.4930 C.3       1 ASP         0.0764
      3 C          -7.2440  152.5190  102.7840 C.2       1 ASP         0.2282
      4 O          -6.7670  152.1430  103.8440 O.2       1 ASP        -0.3906
      5 CB         -7.5610  150.7440  101.1080 C.3       1 ASP         0.0607
      6 CG         -7.4650  149.6300  102.1340 C.2       1 ASP         0.0425
      7 OD1        -8.5040  149.1850  102.6480 O.co2     1 ASP        -0.5686
      8 OD2        -6.3240  149.2050  102.4340 O.co2     1 ASP        -0.5686
      9 N          -8.2080  153.4200  102.6810 N.am      1 GLY        -0.2636
     10 CA         -8.9640  153.8960  103.8370 C.3       1 GLY         0.1202
     11 C          -8.3220  155.0490  104.5910 C.2       1 GLY         0.2008
     12 O          -8.8490  155.4800  105.6140 O.2       1 GLY        -0.3947
     13 N          -7.2000  155.5540  104.0760 N.am      1 TPO        -0.2613
     14 CA         -6.4480  156.6170  104.7360 C.3       1 TPO         0.1612
     15 CB         -5.0760  156.7420  104.1020 C.3       1 TPO         0.1262
     16 CG2        -4.2330  157.7390  104.8980 C.3       1 TPO        -0.0298
     17 OG1        -4.4490  155.4550  104.1720 O.3       1 TPO        -0.2685
     18 P          -4.1110  154.7700  102.7340 P.3       1 TPO         0.2014
     19 O1P        -5.3490  154.7230  101.8930 O.co2     1 TPO        -0.5537
     20 O2P        -2.9120  155.5700  102.0970 O.co2     1 TPO        -0.5537
     21 O3P        -3.6310  153.3140  103.1550 O.co2     1 TPO        -0.5537
     22 C          -7.1930  157.9430  104.6500 C.2       1 TPO         0.2068
     23 O          -7.7960  158.2440  103.6350 O.2       1 TPO        -0.3943
     24 N          -7.1900  158.7210  105.7320 N.am      1 MET        -0.2636
     25 CA         -7.7020  160.0840  105.6940 C.3       1 MET         0.1317
     26 C          -6.6570  160.9560  104.9920 C.2       1 MET         0.2039
     27 O          -5.5530  161.0810  105.5010 O.2       1 MET        -0.3944
     28 CB         -7.9780  160.5770  107.1240 C.3       1 MET        -0.0034
     29 CG         -8.3890  162.0220  107.2470 C.3       1 MET        -0.0024
     30 SD         -8.8800  162.4180  108.9420 S.3       1 MET        -0.1639
     31 CE         -9.2580  164.1590  108.8180 C.3       1 MET        -0.0181
     32 N          -6.9990  161.5810  103.8590 N.am      1 LYS        -0.2637
     33 CA         -5.9970  162.1490  102.9580 C.3       1 LYS         0.1309
     34 C          -6.1050  163.6650  102.8980 C.2       1 LYS         0.2033
     35 O          -7.2060  164.2170  102.7990 O.2       1 LYS        -0.3944
     36 CB         -6.1420  161.5850  101.5460 C.3       1 LYS        -0.0122
     37 CG         -6.0830  160.0850  101.4820 C.3       1 LYS        -0.0440
     38 CD         -6.2700  159.5800  100.0750 C.3       1 LYS        -0.0124
     39 CE         -6.1600  158.0740  100.0200 C.3       1 LYS        -0.0354
     40 NZ         -6.1200  157.5750   98.6230 N.4       1 LYS         0.2185
     41 N          -4.9560  164.3340  102.9520 N.am      1 ARG        -0.2695
     42 CA         -4.9360  165.7990  102.9450 C.3       1 ARG         0.0945
     43 C          -5.3170  166.3480  101.5710 C.2       1 ARG         0.0601
     44 O          -5.0210  165.7430  100.5420 O.co2     1 ARG        -0.5666
     45 CB         -3.5540  166.3290  103.3630 C.3       1 ARG        -0.0148
     46 CG         -3.4950  167.8540  103.4520 C.3       1 ARG        -0.0162
     47 CD         -2.1360  168.3540  103.9020 C.3       1 ARG         0.0627
     48 NE         -2.1280  168.6810  105.3240 N.pl3     1 ARG        -0.2723
     49 CZ         -1.1250  169.2910  105.9520 C.cat     1 ARG         0.2882
     50 NH1        -0.0350  169.6520  105.2820 N.pl3     1 ARG        -0.2849
     51 NH2        -1.2130  169.5480  107.2560 N.pl3     1 ARG        -0.2849
     52 OXT        -5.9290  167.4090  101.4590 O.co2     1 ARG        -0.5666
     53 H1         -4.9381  151.2167  100.8216 H         1 ASP         0.2016
     54 H2         -5.2267  150.9093  102.4128 H         1 ASP         0.2016
     55 H3         -4.7810  152.4198  101.9339 H         1 ASP         0.2016
     56 H4         -6.7920  152.7115  100.6990 H         1 ASP         0.1117
     57 H5         -7.2124  150.3626  100.1369 H         1 ASP         0.0512
     58 H6         -8.6118  151.0580  101.0229 H         1 ASP         0.0512
     59 H7         -8.4272  153.7889  101.7777 H         1 GLY         0.1882
     60 H8         -9.0844  153.0554  104.5362 H         1 GLY         0.0763
     61 H9         -9.9530  154.2257  103.4863 H         1 GLY         0.0763
     62 H10        -6.8621  155.1917  103.2073 H         1 TPO         0.1884
     63 H11        -6.3247  156.3538  105.7969 H         1 TPO         0.0830
     64 H12        -5.1660  157.0715  103.0564 H         1 TPO         0.0695
     65 H13        -3.2383  157.8285  104.4369 H         1 TPO         0.0260
     66 H14        -4.1264  157.3843  105.9338 H         1 TPO         0.0260
     67 H15        -4.7278  158.7214  104.8959 H         1 TPO         0.0260
     68 H16        -6.8273  158.3601  106.5912 H         1 MET         0.1883
     69 H17        -8.6408  160.1101  105.1213 H         1 MET         0.0800
     70 H18        -7.0606  160.4348  107.7140 H         1 MET         0.0320
     71 H19        -8.7844  159.9588  107.5453 H         1 MET         0.0320
     72 H20        -9.2375  162.2126  106.5735 H         1 MET         0.0378
     73 H21        -7.5418  162.6621  106.9597 H         1 MET         0.0378
     74 H22        -9.5771  164.5358  109.8009 H         1 MET         0.0340
     75 H23       -10.0674  164.3074  108.0880 H         1 MET         0.0340
     76 H24        -8.3623  164.7062  108.4888 H         1 MET         0.0340
     77 H25        -7.9671  161.6618  103.6219 H         1 LYS         0.1883
     78 H26        -5.0010  161.8832  103.3417 H         1 LYS         0.0800
     79 H27        -5.3292  161.9906  100.9256 H         1 LYS         0.0312
     80 H28        -7.1109  161.9113  101.1402 H         1 LYS         0.0312
     81 H29        -6.8780  159.6694  102.1186 H         1 LYS         0.0269
     82 H30        -5.1032  159.7505  101.8536 H         1 LYS         0.0269
     83 H31        -5.4964  160.0208   99.4290 H         1 LYS         0.0317
     84 H32        -7.2645  159.8812   99.7141 H         1 LYS         0.0317
     85 H33        -7.0298  157.6346  100.5302 H         1 LYS         0.0813
     86 H34        -5.2383  157.7653  100.5348 H         1 LYS         0.0813
     87 H35        -6.0467  156.5697   98.6273 H         1 LYS         0.1994
     88 H36        -5.3222  157.9680   98.1485 H         1 LYS         0.1994
     89 H37        -6.9639  157.8483   98.1443 H         1 LYS         0.1994
     90 H38        -4.0938  163.8296  102.9980 H         1 ARG         0.1875
     91 H39        -5.6775  166.1546  103.6755 H         1 ARG         0.0726
     92 H40        -2.8125  165.9932  102.6232 H         1 ARG         0.0307
     93 H41        -3.3032  165.9114  104.3492 H         1 ARG         0.0307
     94 H42        -4.2533  168.1956  104.1719 H         1 ARG         0.0301
     95 H43        -3.7155  168.2747  102.4598 H         1 ARG         0.0301
     96 H44        -1.8790  169.2558  103.3269 H         1 ARG         0.0689
     97 H45        -1.3867  167.5716  103.7114 H         1 ARG         0.0689
     98 H46        -2.9553  168.4221  105.8803 H         1 ARG         0.2642
     99 H47         0.7383  170.1237  105.7723 H         1 ARG         0.2615
    100 H48         0.0362  169.4600  104.2726 H         1 ARG         0.2615
    101 H49        -2.0553  169.2705  107.7799 H         1 ARG         0.2615
    102 H50        -0.4388  170.0243  107.7404 H         1 ARG         0.2615
@<TRIPOS>BOND
     1    1    2 1  
     2    2    3 1  
     3    2    5 1  
     4    3    4 2  
     5    3    9 am 
     6    5    6 1  
     7    6    7 ar 
     8    6    8 ar 
     9    9   10 1  
    10   10   11 1  
    11   11   12 2  
    12   11   13 am 
    13   13   14 1  
    14   14   15 1  
    15   14   22 1  
    16   15   16 1  
    17   15   17 1  
    18   17   18 1  
    19   18   19 ar 
    20   18   20 ar 
    21   18   21 ar 
    22   22   23 2  
    23   22   24 am 
    24   24   25 1  
    25   25   26 1  
    26   25   28 1  
    27   26   27 2  
    28   26   32 am 
    29   28   29 1  
    30   29   30 1  
    31   30   31 1  
    32   32   33 1  
    33   33   34 1  
    34   33   36 1  
    35   34   35 2  
    36   34   41 am 
    37   36   37 1  
    38   37   38 1  
    39   38   39 1  
    40   39   40 1  
    41   41   42 1  
    42   42   43 1  
    43   42   45 1  
    44   43   44 ar 
    45   43   52 ar 
    46   45   46 1  
    47   46   47 1  
    48   47   48 1  
    49   48   49 ar 
    50   49   50 ar 
    51   49   51 ar 
    52    1   53 1  
    53    1   54 1  
    54    1   55 1  
    55    2   56 1  
    56    5   57 1  
    57    5   58 1  
    58    9   59 1  
    59   10   60 1  
    60   10   61 1  
    61   13   62 1  
    62   14   63 1  
    63   15   64 1  
    64   16   65 1  
    65   16   66 1  
    66   16   67 1  
    67   24   68 1  
    68   25   69 1  
    69   28   70 1  
    70   28   71 1  
    71   29   72 1  
    72   29   73 1  
    73   31   74 1  
    74   31   75 1  
    75   31   76 1  
    76   32   77 1  
    77   33   78 1  
    78   36   79 1  
    79   36   80 1  
    80   37   81 1  
    81   37   82 1  
    82   38   83 1  
    83   38   84 1  
    84   39   85 1  
    85   39   86 1  
    86   40   87 1  
    87   40   88 1  
    88   40   89 1  
    89   41   90 1  
    90   42   91 1  
    91   45   92 1  
    92   45   93 1  
    93   46   94 1  
    94   46   95 1  
    95   47   96 1  
    96   47   97 1  
    97   48   98 1  
    98   50   99 1  
    99   50  100 1  
   100   51  101 1  
   101   51  102 1  
@<TRIPOS>SUBSTRUCTURE
     1 ASP         1

