4m7j_ligand
  -I-interpret- 

 91 93  0  0  0  0  0  0  0  0999 V2000
    0.3160   44.5900  -17.2110 C   0  0  0  0  0
    0.2270   45.5790  -16.4390 O   0  0  0  0  0
    1.1680   43.6740  -17.1190 O   0  0  0  0  0
   -0.7630   44.4400  -18.3220 C   0  0  0  0  0
   -1.7200   43.2990  -17.9070 C   0  0  0  0  0
   -2.9310   43.2490  -18.8160 C   0  0  0  0  0
   -3.8930   42.2380  -18.3570 O   0  0  0  0  0
   -3.5870   44.6030  -18.8250 C   0  0  0  0  0
   -3.9270   44.9900  -17.4940 O   0  0  0  0  0
   -2.5780   45.6460  -19.3620 C   0  0  0  0  0
   -1.4630   45.6770  -18.4600 O   0  0  0  0  0
   -3.2180   47.0450  -19.4000 C   0  0  0  0  0
   -4.3060   47.0680  -20.3410 O   0  0  0  0  0
   -2.1830   48.0950  -19.7970 C   0  0  0  0  0
   -2.9050   49.3460  -19.7010 O   0  0  0  0  0
   -0.1820   44.0840  -19.5780 O   0  0  0  0  0
    0.6740   45.0690  -20.1760 C   0  0  0  0  0
    2.1240   44.7130  -19.8740 C   0  0  0  0  0
    2.9430   45.6470  -19.4020 C   0  0  0  0  0
   -4.5590   41.7050  -20.6390 C   0  0  0  0  0
   -5.4460   42.5940  -20.6780 O   0  0  0  0  0
   -3.9360   41.2480  -21.6150 O   0  0  0  0  0
   -4.1400   41.1480  -19.2540 C   0  0  0  0  0
   -5.3110   40.3040  -18.7150 C   0  0  0  0  0
   -4.9230   39.5100  -17.4540 C   0  0  0  0  0
   -6.0110   38.6720  -17.0130 O   0  0  0  0  0
   -3.6790   38.6780  -17.7010 C   0  0  0  0  0
   -3.9200   37.6190  -18.6310 O   0  0  0  0  0
   -2.5550   39.6240  -18.2090 C   0  0  0  0  0
   -2.9490   40.2780  -19.4260 O   0  0  0  0  0
   -1.2330   38.9270  -18.5610 C   0  0  0  0  0
   -1.3330   38.2810  -19.8230 O   0  0  0  0  0
   -0.7860   37.9220  -17.5310 C   0  0  0  0  0
    0.6160   37.7460  -17.7010 O   0  0  0  0  0
    0.7290   36.2000  -15.8280 C   0  0  0  0  0
    1.0450   37.0990  -15.0030 O   0  0  0  0  0
    0.2010   35.0970  -15.5370 O   0  0  0  0  0
    1.0920   36.4480  -17.3100 C   0  0  0  0  0
    2.6010   36.4420  -17.4010 C   0  0  0  0  0
    3.0430   36.5700  -18.8440 C   0  0  0  0  0
    4.5240   36.4880  -18.8960 O   0  0  0  0  0
    2.4280   35.4450  -19.6800 C   0  0  0  0  0
    2.9480   34.2040  -19.2270 O   0  0  0  0  0
    0.9260   35.5240  -19.5570 C   0  0  0  0  0
    0.5440   35.4120  -18.1560 O   0  0  0  0  0
    0.1330   34.5000  -20.4380 C   0  0  0  0  0
    0.8700   34.0730  -21.5660 O   0  0  0  0  0
   -1.0570   35.1930  -21.0540 C   0  0  0  0  0
   -1.9900   35.2440  -20.0580 O   0  0  0  0  0
   -0.5035   46.1362  -16.7175 H   0  0  0  0  0
   -2.0563   43.4785  -16.8858 H   0  0  0  0  0
   -1.1872   42.3510  -17.9816 H   0  0  0  0  0
   -2.6078   42.9776  -19.8210 H   0  0  0  0  0
   -4.4808   44.5554  -19.4471 H   0  0  0  0  0
   -4.5543   44.3613  -17.1295 H   0  0  0  0  0
   -2.2695   45.3737  -20.3713 H   0  0  0  0  0
   -3.5960   47.2751  -18.4039 H   0  0  0  0  0
   -4.6965   47.9449  -20.3556 H   0  0  0  0  0
   -1.7806   47.9239  -20.7954 H   0  0  0  0  0
   -1.3029   48.0737  -19.1543 H   0  0  0  0  0
   -2.3208   50.0703  -19.9371 H   0  0  0  0  0
    0.4439   46.0531  -19.7678 H   0  0  0  0  0
    0.5165   45.0875  -21.2544 H   0  0  0  0  0
    2.4872   43.6994  -20.0438 H   0  0  0  0  0
    2.5757   46.6594  -19.2336 H   0  0  0  0  0
    3.9820   45.4008  -19.1832 H   0  0  0  0  0
   -5.7662   42.7642  -19.7891 H   0  0  0  0  0
   -5.6005   39.5924  -19.4883 H   0  0  0  0  0
   -6.1245   40.9805  -18.4530 H   0  0  0  0  0
   -4.7053   40.2280  -16.6633 H   0  0  0  0  0
   -5.7435   38.1892  -16.2275 H   0  0  0  0  0
   -3.3750   38.2014  -16.7690 H   0  0  0  0  0
   -3.1115   37.1177  -18.7599 H   0  0  0  0  0
   -2.4025   40.3034  -17.3704 H   0  0  0  0  0
   -0.4822   39.7166  -18.5904 H   0  0  0  0  0
   -0.4996   37.8508  -20.0279 H   0  0  0  0  0
   -1.3117   36.9762  -17.6620 H   0  0  0  0  0
   -1.0107   38.2756  -16.5247 H   0  0  0  0  0
    1.4302   37.8421  -15.4731 H   0  0  0  0  0
    2.9775   35.5026  -16.9962 H   0  0  0  0  0
    2.9944   37.2850  -16.8329 H   0  0  0  0  0
    2.7107   37.5255  -19.2498 H   0  0  0  0  0
    4.8160   36.5680  -19.8070 H   0  0  0  0  0
    2.6814   35.5417  -20.7357 H   0  0  0  0  0
    2.5682   33.4908  -19.7454 H   0  0  0  0  0
    0.6435   36.4994  -19.9531 H   0  0  0  0  0
   -0.1120   33.6682  -19.7776 H   0  0  0  0  0
    0.3448   33.4492  -22.0726 H   0  0  0  0  0
   -1.4280   34.6585  -21.9285 H   0  0  0  0  0
   -0.8011   36.1875  -21.4195 H   0  0  0  0  0
   -2.7818   35.6774  -20.3847 H   0  0  0  0  0
  1  2  1  0  0  0
  1  3  2  0  0  0
  4  1  1  0  0  0
  5  4  1  0  0  0
  4 11  1  0  0  0
  4 16  1  0  0  0
  6  5  1  0  0  0
  7  6  1  0  0  0
  6  8  1  0  0  0
 23  7  1  0  0  0
  8  9  1  0  0  0
  8 10  1  0  0  0
 10 11  1  0  0  0
 10 12  1  0  0  0
 12 13  1  0  0  0
 12 14  1  0  0  0
 14 15  1  0  0  0
 16 17  1  0  0  0
 17 18  1  0  0  0
 18 19  2  0  0  0
 20 21  1  0  0  0
 20 22  2  0  0  0
 23 20  1  0  0  0
 23 24  1  0  0  0
 30 23  1  0  0  0
 25 24  1  0  0  0
 25 26  1  0  0  0
 27 25  1  0  0  0
 27 28  1  0  0  0
 29 27  1  0  0  0
 29 30  1  0  0  0
 31 29  1  0  0  0
 31 32  1  0  0  0
 33 31  1  0  0  0
 34 33  1  0  0  0
 38 34  1  0  0  0
 35 36  1  0  0  0
 35 37  2  0  0  0
 35 38  1  0  0  0
 38 39  1  0  0  0
 38 45  1  0  0  0
 39 40  1  0  0  0
 40 41  1  0  0  0
 40 42  1  0  0  0
 42 43  1  0  0  0
 42 44  1  0  0  0
 44 45  1  0  0  0
 44 46  1  0  0  0
 46 47  1  0  0  0
 46 48  1  0  0  0
 48 49  1  0  0  0
  2 50  1  0  0  0
  5 51  1  0  0  0
  5 52  1  0  0  0
  6 53  1  0  0  0
  8 54  1  0  0  0
  9 55  1  0  0  0
 10 56  1  0  0  0
 12 57  1  0  0  0
 13 58  1  0  0  0
 14 59  1  0  0  0
 14 60  1  0  0  0
 15 61  1  0  0  0
 17 62  1  0  0  0
 17 63  1  0  0  0
 18 64  1  0  0  0
 19 65  1  0  0  0
 19 66  1  0  0  0
 21 67  1  0  0  0
 24 68  1  0  0  0
 24 69  1  0  0  0
 25 70  1  0  0  0
 26 71  1  0  0  0
 27 72  1  0  0  0
 28 73  1  0  0  0
 29 74  1  0  0  0
 31 75  1  0  0  0
 32 76  1  0  0  0
 33 77  1  0  0  0
 33 78  1  0  0  0
 36 79  1  0  0  0
 39 80  1  0  0  0
 39 81  1  0  0  0
 40 82  1  0  0  0
 41 83  1  0  0  0
 42 84  1  0  0  0
 43 85  1  0  0  0
 44 86  1  0  0  0
 46 87  1  0  0  0
 47 88  1  0  0  0
 48 89  1  0  0  0
 48 90  1  0  0  0
 49 91  1  0  0  0
M  END
$$$$
