3nw5_ligand
  -I-interpret- 

 50 55  0  0  0  0  0  0  0  0999 V2000
  -15.5730    7.0780    9.9630 N   0  0  0  0  0
  -16.3160    6.7330   11.0890 C   0  0  0  0  0
  -16.7140    7.9300   11.7570 C   0  0  0  0  0
  -16.1780    8.9670   10.9820 C   0  0  0  0  0
  -15.4880    8.4260    9.8950 C   0  0  0  0  0
  -15.0710    6.1110    9.1440 N   0  0  0  0  0
  -15.2690    4.7880    9.3850 C   0  0  0  0  0
  -15.9770    4.4160   10.4580 N   0  0  0  0  0
  -16.4970    5.3510   11.3030 C   0  0  0  0  0
  -17.2140    4.9010   12.3830 N   0  0  0  0  0
  -17.4420    3.4820   12.7710 C   0  0  0  0  0
  -17.0840    2.1930   12.2070 C   0  0  0  0  0
  -17.5890    1.1400   13.0410 C   0  0  0  0  0
  -18.2070    1.7890   14.0360 N   0  0  0  0  0
  -18.1130    3.1250   13.8650 N   0  0  0  0  0
  -17.4920   -0.4050   12.9040 C   0  0  0  0  0
  -17.0550   -0.5080   11.4940 C   0  0  0  0  0
  -18.5030   -0.4970   11.8160 C   0  0  0  0  0
  -14.7260    3.7100    8.5000 C   0  0  0  0  0
  -13.6670    4.1200    7.5860 N   0  0  0  0  0
  -13.9980    3.7880    6.1920 C   0  0  0  0  0
  -15.1580    2.7800    6.3010 C   0  0  0  0  0
  -15.7940    2.9990    7.6720 C   0  0  0  0  0
  -12.5420    4.7370    8.1150 C   0  0  0  0  0
  -12.3600    4.6890    9.3360 O   0  0  0  0  0
  -11.5640    5.4440    7.2580 C   0  0  0  0  0
  -10.2260    5.4810    7.6800 C   0  0  0  0  0
   -9.2170    6.1250    6.9450 C   0  0  0  0  0
   -9.6190    6.7350    5.7540 C   0  0  0  0  0
  -10.8890    6.7250    5.3080 N   0  0  0  0  0
  -11.8470    6.0960    6.0390 C   0  0  0  0  0
   -8.6390    7.3410    5.0700 F   0  0  0  0  0
  -17.3046    8.0180   12.6689 H   0  0  0  0  0
  -16.2832   10.0309   11.1945 H   0  0  0  0  0
  -14.9690    8.9939    9.1228 H   0  0  0  0  0
  -17.6340    5.6121   12.9816 H   0  0  0  0  0
  -16.5167    2.0469   11.2878 H   0  0  0  0  0
  -17.2315   -0.9083   13.8351 H   0  0  0  0  0
  -16.2537   -0.5565   10.7567 H   0  0  0  0  0
  -19.5435   -0.5312   11.4929 H   0  0  0  0  0
  -14.2988    3.0282    9.2353 H   0  0  0  0  0
  -13.1441    3.3722    5.6571 H   0  0  0  0  0
  -14.2765    4.6709    5.6167 H   0  0  0  0  0
  -14.7974    1.7567    6.1966 H   0  0  0  0  0
  -15.8854    2.9338    5.5039 H   0  0  0  0  0
  -16.7075    3.5895    7.6017 H   0  0  0  0  0
  -16.0968    2.0573    8.1298 H   0  0  0  0  0
   -9.9590    4.9902    8.6159 H   0  0  0  0  0
   -8.1813    6.1475    7.2839 H   0  0  0  0  0
  -12.8725    6.0952    5.6696 H   0  0  0  0  0
  1  2  4  0  0  0
  1  5  4  0  0  0
  1  6  4  0  0  0
  2  3  4  0  0  0
  2  9  4  0  0  0
  3  4  4  0  0  0
  4  5  4  0  0  0
  6  7  4  0  0  0
  7  8  4  0  0  0
  7 19  1  0  0  0
  8  9  4  0  0  0
  9 10  1  0  0  0
 10 11  1  0  0  0
 11 12  4  0  0  0
 11 15  4  0  0  0
 12 13  4  0  0  0
 13 14  4  0  0  0
 13 16  1  0  0  0
 14 15  4  0  0  0
 16 17  1  0  0  0
 16 18  1  0  0  0
 17 18  2  0  0  0
 19 20  1  0  0  0
 19 23  1  0  0  0
 20 21  1  0  0  0
 20 24  1  0  0  0
 21 22  1  0  0  0
 22 23  1  0  0  0
 24 25  2  0  0  0
 24 26  1  0  0  0
 26 27  4  0  0  0
 26 31  4  0  0  0
 27 28  4  0  0  0
 28 29  4  0  0  0
 29 30  4  0  0  0
 29 32  1  0  0  0
 30 31  4  0  0  0
  3 33  1  0  0  0
  4 34  1  0  0  0
  5 35  1  0  0  0
 10 36  1  0  0  0
 12 37  1  0  0  0
 16 38  1  0  0  0
 17 39  1  0  0  0
 18 40  1  0  0  0
 19 41  1  0  0  0
 21 42  1  0  0  0
 21 43  1  0  0  0
 22 44  1  0  0  0
 22 45  1  0  0  0
 23 46  1  0  0  0
 23 47  1  0  0  0
 27 48  1  0  0  0
 28 49  1  0  0  0
 31 50  1  0  0  0
M  END
$$$$
