2ycs_ligand
  -I-interpret- 

 42 44  0  0  0  0  0  0  0  0999 V2000
  -36.8530   33.1920    9.3580 N   0  0  0  0  0
  -36.1900   33.8100   10.4610 C   0  0  0  0  0
  -36.0290   32.9970   11.5890 C   0  0  0  0  0
  -35.4230   33.4590   12.7590 C   0  0  0  0  0
  -34.9230   34.7600   12.8140 C   0  0  0  0  0
  -35.0950   35.5780   11.6860 C   0  0  0  0  0
  -35.6920   35.1170   10.5210 C   0  0  0  0  0
  -34.2680   35.3010   14.0690 C   0  0  0  0  0
  -33.3690   36.5220   14.0880 C   0  0  0  0  0
  -34.4920   34.7090   15.2450 N   0  0  0  0  0
  -33.9980   35.1470   16.3210 N   0  0  0  0  0
  -34.3020   34.5030   17.4480 C   0  0  0  0  0
  -35.1050   33.4640   17.3830 N   0  0  0  0  0
  -33.8210   34.8590   18.6310 N   0  0  0  0  0
  -36.9110   34.5820    7.5730 O   0  0  0  0  0
  -37.1830   33.5090    8.1120 C   0  0  0  0  0
  -37.9070   32.3260    7.5060 C   0  0  0  0  0
  -38.0300   31.0540    8.0580 C   0  0  0  0  0
  -38.7540   30.2930    7.1970 N   0  0  0  0  0
  -39.1050   31.0250    6.1170 C   0  0  0  0  0
  -39.8460   30.6780    4.9860 C   0  0  0  0  0
  -40.0610   31.6360    4.0030 C   0  0  0  0  0
  -39.5450   32.9200    4.1670 C   0  0  0  0  0
  -38.8020   33.2700    5.3080 C   0  0  0  0  0
  -38.5850   32.3140    6.2850 C   0  0  0  0  0
  -37.1567   32.2467    9.5917 H   0  0  0  0  0
  -36.3888   31.9687   11.5528 H   0  0  0  0  0
  -35.3409   32.8048   13.6270 H   0  0  0  0  0
  -34.7478   36.6104   11.7266 H   0  0  0  0  0
  -35.7731   35.7720    9.6535 H   0  0  0  0  0
  -33.8097   37.2861   14.7283 H   0  0  0  0  0
  -32.3885   36.2437   14.4743 H   0  0  0  0  0
  -33.2649   36.9108   13.0750 H   0  0  0  0  0
  -33.3880   35.9645   16.3279 H   0  0  0  0  0
  -35.4816   33.1660   16.4831 H   0  0  0  0  0
  -34.0758   34.3303   19.4652 H   0  0  0  0  0
  -33.1961   35.6616   18.7069 H   0  0  0  0  0
  -37.6180   30.7266    9.0126 H   0  0  0  0  0
  -40.2495   29.6715    4.8758 H   0  0  0  0  0
  -40.6303   31.3845    3.1082 H   0  0  0  0  0
  -39.7211   33.6686    3.3945 H   0  0  0  0  0
  -38.4032   34.2781    5.4214 H   0  0  0  0  0
  1  2  1  0  0  0
  1 16  1  0  0  0
  2  3  4  0  0  0
  2  7  4  0  0  0
  3  4  4  0  0  0
  4  5  4  0  0  0
  5  6  4  0  0  0
  5  8  1  0  0  0
  6  7  4  0  0  0
  8  9  1  0  0  0
  8 10  2  0  0  0
 10 11  1  0  0  0
 11 12  1  0  0  0
 12 13  2  0  0  0
 12 14  1  0  0  0
 16 15  2  0  0  0
 16 17  1  0  0  0
 17 18  4  0  0  0
 17 25  4  0  0  0
 18 19  4  0  0  0
 19 20  4  0  0  0
 20 21  4  0  0  0
 20 25  4  0  0  0
 21 22  4  0  0  0
 22 23  4  0  0  0
 23 24  4  0  0  0
 24 25  4  0  0  0
  1 26  1  0  0  0
  3 27  1  0  0  0
  4 28  1  0  0  0
  6 29  1  0  0  0
  7 30  1  0  0  0
  9 31  1  0  0  0
  9 32  1  0  0  0
  9 33  1  0  0  0
 11 34  1  0  0  0
 13 35  1  0  0  0
 14 36  1  0  0  0
 14 37  1  0  0  0
 18 38  1  0  0  0
 21 39  1  0  0  0
 22 40  1  0  0  0
 23 41  1  0  0  0
 24 42  1  0  0  0
M  END
$$$$
