5m4c_ligand
  -I-interpret- 

 36 38  0  0  0  0  0  0  0  0999 V2000
  -12.7410   -8.4420  -11.0340 C   0  0  0  0  0
  -13.0640   -7.1350  -10.7660 C   0  0  0  0  0
  -13.0030   -6.2650  -11.8310 C   0  0  0  0  0
  -12.6090   -6.6600  -13.0570 N   0  0  0  0  0
  -12.3800   -8.8620  -12.2560 N   0  0  0  0  0
  -10.9710   -1.6040  -14.6380 O   0  0  0  0  0
  -11.9770   -2.0570  -14.0330 C   0  0  0  0  0
  -12.7330   -1.3790  -13.3110 O   0  0  0  0  0
  -12.2750   -3.5780  -14.1760 C   0  0  0  0  0
  -13.5990   -4.0010  -13.4810 C   0  0  0  0  0
  -13.4000   -4.5530  -11.7510 S   0  0  0  0  0
  -12.2920   -7.9870  -13.3170 C   0  0  0  0  0
  -12.9270   -9.3990   -9.6620 S   0  0  0  0  0
  -13.4040   -8.0910   -8.7120 C   0  0  0  0  0
  -13.4360   -6.9680   -9.4490 C   0  0  0  0  0
  -13.8070   -5.8150   -8.8010 C   0  0  0  0  0
  -12.9500   -4.6980   -8.7070 C   0  0  0  0  0
  -13.2890   -3.5130   -8.0370 C   0  0  0  0  0
  -14.5240   -3.4530   -7.3890 C   0  0  0  0  0
  -14.9230   -2.3030   -6.6960 C   0  0  0  0  0
  -15.3770   -4.5650   -7.4370 C   0  0  0  0  0
  -15.0070   -5.7410   -8.1160 C   0  0  0  0  0
  -10.5480   -2.3126  -15.1284 H   0  0  0  0  0
  -11.4598   -4.1237  -13.7009 H   0  0  0  0  0
  -12.3702   -3.8007  -15.2387 H   0  0  0  0  0
  -13.9993   -4.8453  -14.0422 H   0  0  0  0  0
  -14.2461   -3.1240  -13.4646 H   0  0  0  0  0
  -11.9890   -8.3195  -14.3099 H   0  0  0  0  0
  -13.6511   -8.1480   -7.6519 H   0  0  0  0  0
  -11.9704   -4.7592   -9.1812 H   0  0  0  0  0
  -12.6071   -2.6628   -8.0228 H   0  0  0  0  0
  -14.2090   -2.0944   -5.8993 H   0  0  0  0  0
  -14.9576   -1.4589   -7.3848 H   0  0  0  0  0
  -15.9118   -2.4639   -6.2665 H   0  0  0  0  0
  -16.3453   -4.5177   -6.9388 H   0  0  0  0  0
  -15.6734   -6.6034   -8.1021 H   0  0  0  0  0
  2  1  4  0  0  0
  1  5  4  0  0  0
  1 13  4  0  0  0
  3  2  4  0  0  0
  2 15  4  0  0  0
  3  4  4  0  0  0
 11  3  1  0  0  0
  4 12  4  0  0  0
 12  5  4  0  0  0
  7  6  1  0  0  0
  7  8  2  0  0  0
  9  7  1  0  0  0
 10  9  1  0  0  0
 10 11  1  0  0  0
 13 14  4  0  0  0
 14 15  4  0  0  0
 15 16  1  0  0  0
 16 17  4  0  0  0
 16 22  4  0  0  0
 17 18  4  0  0  0
 18 19  4  0  0  0
 19 20  1  0  0  0
 19 21  4  0  0  0
 21 22  4  0  0  0
  6 23  1  0  0  0
  9 24  1  0  0  0
  9 25  1  0  0  0
 10 26  1  0  0  0
 10 27  1  0  0  0
 12 28  1  0  0  0
 14 29  1  0  0  0
 17 30  1  0  0  0
 18 31  1  0  0  0
 20 32  1  0  0  0
 20 33  1  0  0  0
 20 34  1  0  0  0
 21 35  1  0  0  0
 22 36  1  0  0  0
M  END
$$$$
