1ugp_ligand
  -I-interpret- 

 14 13  0  0  0  0  0  0  0  0999 V2000
    8.3480   33.7380   20.0450 C   0  0  0  0  0
    8.7920   34.8590   19.0760 C   0  0  0  0  0
    9.7670   35.2570   17.9440 C   0  0  0  0  0
    9.1760   34.9100   16.5750 C   0  0  0  0  0
    9.3020   35.7490   15.6450 O   0  0  0  0  0
    8.6060   33.8200   16.4360 O   0  0  0  0  0
    8.0194   32.8720   19.4705 H   0  0  0  0  0
    9.1868   33.4564   20.6815 H   0  0  0  0  0
    7.5260   34.0985   20.6634 H   0  0  0  0  0
    9.2876   35.4555   19.8419 H   0  0  0  0  0
    7.9219   34.7718   18.4253 H   0  0  0  0  0
   10.7006   34.7097   18.0741 H   0  0  0  0  0
    9.9415   36.3319   17.9906 H   0  0  0  0  0
    9.7735   36.5188   15.9717 H   0  0  0  0  0
  1  2  1  0  0  0
  2  3  1  0  0  0
  3  4  1  0  0  0
  4  5  1  0  0  0
  4  6  2  0  0  0
  1  7  1  0  0  0
  1  8  1  0  0  0
  1  9  1  0  0  0
  2 10  1  0  0  0
  2 11  1  0  0  0
  3 12  1  0  0  0
  3 13  1  0  0  0
  5 14  1  0  0  0
M  END
$$$$
