5ous_ligand
  -I-interpret- 

272273  0  0  0  0  0  0  0  0999 V2000
  -18.6520  -34.9460  -25.7000 N   0  3  0  0  0
  -17.8260  -34.5370  -24.5650 C   0  0  0  0  0
  -16.8780  -33.4050  -24.9260 C   0  0  0  0  0
  -16.4970  -33.2290  -26.0820 O   0  0  0  0  0
  -16.9980  -35.7090  -24.0170 C   0  0  0  0  0
  -15.8280  -35.8980  -24.8230 O   0  0  0  0  0
  -17.8240  -36.9770  -24.0450 C   0  0  0  0  0
  -16.4950  -32.6280  -23.9170 N   0  0  0  0  0
  -15.5550  -31.5420  -24.1580 C   0  0  0  0  0
  -14.2390  -32.0660  -24.7280 C   0  0  0  0  0
  -13.6940  -31.4960  -25.6810 O   0  0  0  0  0
  -15.3120  -30.7850  -22.8600 C   0  0  0  0  0
  -16.5740  -30.3760  -22.3160 O   0  0  0  0  0
  -14.4170  -29.5770  -23.1170 C   0  0  0  0  0
  -13.7170  -33.1530  -24.1520 N   0  0  0  0  0
  -12.4690  -33.7380  -24.6340 C   0  0  0  0  0
  -12.5500  -34.0830  -26.1170 C   0  0  0  0  0
  -11.6410  -33.7540  -26.8890 O   0  0  0  0  0
  -12.1290  -34.9880  -23.8230 C   0  0  0  0  0
  -10.8700  -35.6660  -24.2970 C   0  0  0  0  0
  -10.9000  -36.9570  -24.8270 C   0  0  0  0  0
   -9.6490  -35.0040  -24.2390 C   0  0  0  0  0
   -9.7360  -37.5800  -25.2590 C   0  0  0  0  0
   -8.4940  -35.6040  -24.6730 C   0  0  0  0  0
   -8.5380  -36.8910  -25.1800 C   0  0  0  0  0
   -7.3710  -37.4690  -25.6100 O   0  0  0  0  0
  -13.6260  -34.7740  -26.5270 N   0  0  0  0  0
  -13.7840  -35.1290  -27.9380 C   0  0  0  0  0
  -13.8580  -33.8800  -28.8030 C   0  0  0  0  0
  -13.2890  -33.8420  -29.9030 O   0  0  0  0  0
  -15.0370  -35.9850  -28.1420 C   0  0  0  0  0
  -14.5550  -32.8430  -28.3160 N   0  0  0  0  0
  -14.5660  -31.5650  -29.0210 C   0  0  0  0  0
  -13.1540  -31.0170  -29.1790 C   0  0  0  0  0
  -12.8000  -30.4840  -30.2350 O   0  0  0  0  0
  -15.4490  -30.5570  -28.2850 C   0  0  0  0  0
  -16.9350  -30.8850  -28.3900 C   0  0  0  0  0
  -17.3160  -31.6570  -29.2990 O   0  0  0  0  0
  -17.7200  -30.3520  -27.5690 O   0  0  0  0  0
  -12.3300  -31.1470  -28.1400 N   0  0  0  0  0
  -10.9530  -30.6730  -28.2290 C   0  0  0  0  0
  -10.2080  -31.3870  -29.3480 C   0  0  0  0  0
   -9.5170  -30.7550  -30.1570 O   0  0  0  0  0
  -10.2540  -30.8710  -26.8840 C   0  0  0  0  0
   -8.8160  -30.4400  -26.8660 C   0  0  0  0  0
   -7.8440  -31.2650  -26.3260 C   0  0  0  0  0
   -8.4370  -29.2190  -27.3760 C   0  0  0  0  0
   -6.5190  -30.8690  -26.2810 C   0  0  0  0  0
   -7.1130  -28.8210  -27.3370 C   0  0  0  0  0
   -6.1560  -29.6490  -26.7960 C   0  0  0  0  0
  -10.3530  -32.7100  -29.4180 N   0  0  0  0  0
   -9.7260  -33.4690  -30.4980 C   0  0  0  0  0
  -10.2790  -33.0390  -31.8530 C   0  0  0  0  0
   -9.5220  -32.8400  -32.8100 O   0  0  0  0  0
   -9.9160  -34.9780  -30.2630 C   0  0  0  0  0
   -9.3110  -35.3900  -28.9230 C   0  0  0  0  0
   -9.2750  -35.7690  -31.3780 C   0  0  0  0  0
   -9.6810  -36.8010  -28.5370 C   0  0  0  0  0
  -11.6070  -32.8870  -31.9570 N   0  0  0  0  0
  -12.2140  -32.5050  -33.2280 C   0  0  0  0  0
  -11.8130  -31.1050  -33.6830 C   0  0  0  0  0
  -12.0000  -30.7740  -34.8590 O   0  0  0  0  0
  -13.7410  -32.5980  -33.1350 C   0  0  0  0  0
  -11.2620  -30.2800  -32.7850 N   0  0  0  0  0
  -10.9400  -28.8930  -33.1170 C   0  0  0  0  0
   -9.7070  -28.7560  -34.0030 C   0  0  0  0  0
   -9.5470  -27.7210  -34.6540 O   0  0  0  0  0
  -10.7070  -28.0760  -31.8450 C   0  0  0  0  0
   -9.3830  -28.2790  -31.3470 O   0  0  0  0  0
   -8.8090  -29.7400  -34.0120 N   0  0  0  0  0
   -7.5950  -29.6200  -34.7930 C   0  0  0  0  0
   -6.5030  -28.7960  -34.1500 C   0  0  0  0  0
   -5.4460  -28.5960  -34.7640 O   0  0  0  0  0
   -6.7050  -28.3220  -32.9280 N   0  0  0  0  0
   -5.7050  -27.5150  -32.2430 C   0  0  0  0  0
   -5.1230  -28.2490  -31.0340 C   0  0  0  0  0
   -4.8330  -27.6480  -29.9980 O   0  0  0  0  0
   -6.3040  -26.1600  -31.8600 C   0  0  0  0  0
   -6.8640  -25.4030  -33.0810 C   0  0  0  0  0
   -7.3600  -23.9860  -32.7310 C   0  0  0  0  0
   -6.3190  -23.1740  -32.1030 N   0  0  0  0  0
   -5.3940  -22.4910  -32.7690 C   0  0  0  0  0
   -5.3770  -22.5100  -34.0870 N   0  0  0  0  0
   -4.4830  -21.7880  -32.1160 N   0  0  0  0  0
   -4.9520  -29.5710  -31.1500 N   0  0  0  0  0
   -4.2920  -30.3270  -30.0900 C   0  0  0  0  0
   -2.7690  -30.2730  -30.1920 C   0  0  0  0  0
   -2.0850  -30.6080  -29.2180 O   0  0  0  0  0
   -4.7650  -31.7920  -30.0910 C   0  0  0  0  0
   -4.3510  -32.4390  -31.2960 O   0  0  0  0  0
   -6.2900  -31.8760  -29.9670 C   0  0  0  0  0
   -2.2250  -29.8520  -31.3340 N   0  0  0  0  0
   -0.7890  -29.7690  -31.5110 C   0  0  0  0  0
   -0.2030  -28.4830  -30.9550 C   0  0  0  0  0
   -0.8910  -27.6380  -30.3820 O   0  0  0  0  0
    1.1120  -28.3460  -31.1200 N   0  0  0  0  0
    1.7870  -27.1160  -30.7280 C   0  0  0  0  0
    1.1710  -25.9350  -31.4660 C   0  0  0  0  0
    0.8870  -26.0100  -32.6660 O   0  0  0  0  0
    3.2840  -27.1960  -31.0350 C   0  0  0  0  0
    4.0980  -28.1090  -30.1160 C   0  0  0  0  0
    5.5080  -27.5180  -29.9300 C   0  0  0  0  0
    6.3680  -28.3100  -28.9610 C   0  0  0  0  0
    7.5570  -27.5090  -28.5070 N   0  3  0  0  0
    0.9630  -24.8410  -30.7400 N   0  0  0  0  0
    0.2240  -23.6840  -31.2300 C   0  0  0  0  0
    1.1880  -22.5290  -31.4900 C   0  0  0  0  0
    1.9880  -22.1780  -30.6150 O   0  0  0  0  0
   -0.8610  -23.2780  -30.2230 C   0  0  0  0  0
   -1.9960  -24.2880  -30.1150 C   0  0  0  0  0
   -2.6860  -24.2950  -28.7350 C   0  0  0  0  0
   -1.7880  -24.6170  -27.6170 N   0  0  0  0  0
   -2.2120  -24.9620  -26.4020 C   0  0  0  0  0
   -3.5100  -25.0360  -26.1530 N   0  0  0  0  0
   -1.3490  -25.2390  -25.4360 N   0  0  0  0  0
    1.1220  -21.9580  -32.7000 N   0  0  0  0  0
    1.9570  -20.8190  -33.0810 C   0  0  0  0  0
    1.4690  -19.5340  -32.4300 C   0  0  0  0  0
    0.2720  -19.3490  -32.2090 O   0  0  0  0  0
    1.9370  -20.5980  -34.5930 C   0  0  0  0  0
    2.6140  -21.6920  -35.3520 C   0  0  0  0  0
    3.6690  -22.1720  -34.9520 O   0  0  0  0  0
    2.0170  -22.0930  -36.4700 N   0  0  0  0  0
    2.4010  -18.6120  -32.2110 N   0  0  0  0  0
    2.0900  -17.2870  -31.6810 C   0  0  0  0  0
    1.3630  -16.4070  -32.7010 C   0  0  0  0  0
    0.9490  -16.8400  -33.7810 O   0  0  0  0  0
    3.3690  -16.5950  -31.2210 C   0  0  0  0  0
    1.2710  -15.1220  -32.3400 N   0  0  0  0  0
    0.6180  -13.9850  -33.0250 C   0  0  0  0  0
   -0.8850  -14.1800  -33.1950 C   0  0  0  0  0
   -1.4010  -15.2510  -33.4930 O   0  0  0  0  0
    1.2910  -13.6310  -34.3850 C   0  0  0  0  0
    0.5640  -14.2620  -35.5810 C   0  0  0  0  0
    2.7860  -13.9230  -34.3540 C   0  0  0  0  0
   -1.6350  -13.2270  -32.9930 O   0  0  0  0  0
  -19.1860  -34.1448  -26.0365 H   0  0  0  0  0
  -18.0519  -35.2944  -26.4476 H   0  0  0  0  0
  -19.2923  -35.6831  -25.4049 H   0  0  0  0  0
  -18.5215  -34.1903  -23.8006 H   0  0  0  0  0
  -16.7045  -35.4831  -22.9919 H   0  0  0  0  0
  -15.2989  -35.0971  -24.8099 H   0  0  0  0  0
  -18.1154  -37.1967  -25.0721 H   0  0  0  0  0
  -17.2330  -37.8029  -23.6491 H   0  0  0  0  0
  -18.7163  -36.8414  -23.4339 H   0  0  0  0  0
  -16.8581  -32.7920  -22.9780 H   0  0  0  0  0
  -15.9854  -30.8651  -24.8960 H   0  0  0  0  0
  -14.8063  -31.4324  -22.1435 H   0  0  0  0  0
  -16.4280  -29.8976  -21.4966 H   0  0  0  0  0
  -13.4616  -29.9134  -23.5197 H   0  0  0  0  0
  -14.9013  -28.9134  -23.8334 H   0  0  0  0  0
  -14.2507  -29.0439  -22.1809 H   0  0  0  0  0
  -14.1989  -33.5816  -23.3617 H   0  0  0  0  0
  -11.6799  -32.9971  -24.5052 H   0  0  0  0  0
  -12.9517  -35.6940  -23.9367 H   0  0  0  0  0
  -11.9748  -34.6830  -22.7880 H   0  0  0  0  0
  -11.8510  -37.4841  -24.9030 H   0  0  0  0  0
   -9.6085  -33.9899  -23.8415 H   0  0  0  0  0
   -9.7655  -38.5955  -25.6540 H   0  0  0  0  0
   -7.5457  -35.0693  -24.6187 H   0  0  0  0  0
   -6.6447  -36.8543  -25.4822 H   0  0  0  0  0
  -14.3372  -35.0530  -25.8512 H   0  0  0  0  0
  -12.9117  -35.7089  -28.2393 H   0  0  0  0  0
  -14.9503  -36.8994  -27.5550 H   0  0  0  0  0
  -15.9145  -35.4254  -27.8179 H   0  0  0  0  0
  -15.1351  -36.2374  -29.1978 H   0  0  0  0  0
  -15.0804  -32.9479  -27.4480 H   0  0  0  0  0
  -14.9790  -31.7310  -30.0160 H   0  0  0  0  0
  -15.2901  -29.5794  -28.7401 H   0  0  0  0  0
  -15.1756  -30.5816  -27.2301 H   0  0  0  0  0
  -17.2206  -29.8008  -26.9620 H   0  0  0  0  0
  -12.6633  -31.5798  -27.2786 H   0  0  0  0  0
  -10.9564  -29.6091  -28.4660 H   0  0  0  0  0
  -10.2715  -31.9391  -26.6675 H   0  0  0  0  0
  -10.7821  -30.2570  -26.1545 H   0  0  0  0  0
   -8.1267  -32.2406  -25.9306 H   0  0  0  0  0
   -9.1866  -28.5602  -27.8143 H   0  0  0  0  0
   -5.7669  -31.5224  -25.8388 H   0  0  0  0  0
   -6.8265  -27.8480  -27.7362 H   0  0  0  0  0
   -5.1118  -29.3369  -26.7764 H   0  0  0  0  0
  -10.9059  -33.1965  -28.7123 H   0  0  0  0  0
   -8.6563  -33.2595  -30.5020 H   0  0  0  0  0
  -10.9852  -35.1895  -30.2477 H   0  0  0  0  0
   -9.6969  -34.7176  -28.1568 H   0  0  0  0  0
   -8.2259  -35.3372  -29.0115 H   0  0  0  0  0
   -9.7363  -35.4960  -32.3271 H   0  0  0  0  0
   -8.2086  -35.5461  -31.4134 H   0  0  0  0  0
   -9.4190  -36.8339  -31.1956 H   0  0  0  0  0
  -10.7651  -36.8822  -28.4578 H   0  0  0  0  0
   -9.3183  -37.4916  -29.2983 H   0  0  0  0  0
   -9.2260  -37.0449  -27.5770 H   0  0  0  0  0
  -12.1986  -33.0398  -31.1402 H   0  0  0  0  0
  -11.8399  -33.2061  -33.9741 H   0  0  0  0  0
  -14.0275  -33.6221  -32.8958 H   0  0  0  0  0
  -14.0976  -31.9276  -32.3530 H   0  0  0  0  0
  -14.1801  -32.3102  -34.0902 H   0  0  0  0  0
  -11.0619  -30.6269  -31.8469 H   0  0  0  0  0
  -11.7997  -28.5162  -33.6711 H   0  0  0  0  0
  -11.4209  -28.3960  -31.0860 H   0  0  0  0  0
  -10.8369  -27.0190  -32.0774 H   0  0  0  0  0
   -9.2586  -27.7581  -30.5503 H   0  0  0  0  0
   -8.9776  -30.5842  -33.4649 H   0  0  0  0  0
   -7.8654  -29.1161  -35.7209 H   0  0  0  0  0
   -7.1985  -30.6278  -34.9164 H   0  0  0  0  0
   -7.5848  -28.5283  -32.4550 H   0  0  0  0  0
   -4.8724  -27.3376  -32.9237 H   0  0  0  0  0
   -5.5136  -25.5530  -31.4186 H   0  0  0  0  0
   -7.1252  -26.3370  -31.1655 H   0  0  0  0  0
   -7.7138  -25.9688  -33.4630 H   0  0  0  0  0
   -6.0594  -25.3040  -33.8096 H   0  0  0  0  0
   -8.1863  -24.0810  -32.0265 H   0  0  0  0  0
   -7.6606  -23.4944  -33.6563 H   0  0  0  0  0
   -6.3016  -23.1287  -31.0842 H   0  0  0  0  0
   -6.0751  -23.0500  -34.5983 H   0  0  0  0  0
   -3.7748  -21.2662  -32.6324 H   0  0  0  0  0
   -4.4889  -21.7678  -31.0962 H   0  0  0  0  0
   -5.2850  -30.0537  -31.9846 H   0  0  0  0  0
   -4.5739  -29.8546  -29.1490 H   0  0  0  0  0
   -4.3163  -32.2923  -29.2328 H   0  0  0  0  0
   -4.6503  -33.3511  -31.2873 H   0  0  0  0  0
   -6.6038  -31.4071  -29.0344 H   0  0  0  0  0
   -6.7507  -31.3584  -30.8084 H   0  0  0  0  0
   -6.5964  -32.9220  -29.9703 H   0  0  0  0  0
   -2.8362  -29.5809  -32.1043 H   0  0  0  0  0
   -0.5816  -29.7961  -32.5808 H   0  0  0  0  0
   -0.3369  -30.6025  -30.9734 H   0  0  0  0  0
    1.6519  -29.1106  -31.5252 H   0  0  0  0  0
    1.6627  -26.9797  -29.6537 H   0  0  0  0  0
    3.6816  -26.1897  -30.9035 H   0  0  0  0  0
    3.3728  -27.6089  -32.0399 H   0  0  0  0  0
    4.1741  -29.1009  -30.5615 H   0  0  0  0  0
    3.6040  -28.1858  -29.1474 H   0  0  0  0  0
    5.3931  -26.5133  -29.5232 H   0  0  0  0  0
    6.0035  -27.5359  -30.9007 H   0  0  0  0  0
    6.7259  -29.2066  -29.4671 H   0  0  0  0  0
    5.7656  -28.5625  -28.0884 H   0  0  0  0  0
    8.1136  -28.0664  -27.8590 H   0  0  0  0  0
    8.1252  -27.2578  -29.3160 H   0  0  0  0  0
    7.2359  -26.6614  -28.0392 H   0  0  0  0  0
    1.3394  -24.8096  -29.7925 H   0  0  0  0  0
   -0.2682  -23.9432  -32.1674 H   0  0  0  0  0
   -1.2908  -22.3367  -30.5654 H   0  0  0  0  0
   -0.3894  -23.2082  -29.2428 H   0  0  0  0  0
   -1.5687  -25.2784  -30.2722 H   0  0  0  0  0
   -2.7480  -24.0155  -30.8554 H   0  0  0  0  0
   -3.4556  -25.0664  -28.7631 H   0  0  0  0  0
   -3.0699  -23.2897  -28.5612 H   0  0  0  0  0
   -0.7822  -24.5739  -27.7807 H   0  0  0  0  0
   -4.1834  -24.8291  -26.8906 H   0  0  0  0  0
   -1.6869  -25.5061  -24.5114 H   0  0  0  0  0
   -0.3466  -25.1852  -25.6168 H   0  0  0  0  0
    0.4633  -22.3324  -33.3829 H   0  0  0  0  0
    2.9669  -21.0543  -32.7451 H   0  0  0  0  0
    2.4710  -19.6706  -34.8000 H   0  0  0  0  0
    0.8947  -20.5694  -34.9106 H   0  0  0  0  0
    2.4365  -22.8307  -37.0358 H   0  0  0  0  0
    1.1394  -21.6630  -36.7620 H   0  0  0  0  0
    3.3729  -18.8390  -32.4216 H   0  0  0  0  0
    1.4187  -17.4283  -30.8339 H   0  0  0  0  0
    3.8430  -17.1913  -30.4413 H   0  0  0  0  0
    4.0495  -16.4928  -32.0663 H   0  0  0  0  0
    3.1253  -15.6080  -30.8277 H   0  0  0  0  0
    1.7212  -14.8902  -31.4546 H   0  0  0  0  0
    0.7609  -13.1325  -32.3610 H   0  0  0  0  0
    1.1928  -12.5556  -34.5330 H   0  0  0  0  0
    0.5678  -15.3469  -35.4757 H   0  0  0  0  0
   -0.4645  -13.9021  -35.6105 H   0  0  0  0  0
    1.0743  -13.9834  -36.5030 H   0  0  0  0  0
    3.2546  -13.3294  -33.5691 H   0  0  0  0  0
    2.9438  -14.9827  -34.1532 H   0  0  0  0  0
    3.2253  -13.6651  -35.3176 H   0  0  0  0  0
   -1.1135  -12.4525  -32.7698 H   0  0  0  0  0
  1  2  1  0  0  0
  2  3  1  0  0  0
  2  5  1  0  0  0
  3  4  2  0  0  0
  3  8  1  0  0  0
  5  6  1  0  0  0
  5  7  1  0  0  0
  8  9  1  0  0  0
  9 10  1  0  0  0
  9 12  1  0  0  0
 10 11  2  0  0  0
 10 15  1  0  0  0
 12 13  1  0  0  0
 12 14  1  0  0  0
 15 16  1  0  0  0
 16 17  1  0  0  0
 16 19  1  0  0  0
 17 18  2  0  0  0
 17 27  1  0  0  0
 19 20  1  0  0  0
 20 21  4  0  0  0
 20 22  4  0  0  0
 21 23  4  0  0  0
 22 24  4  0  0  0
 23 25  4  0  0  0
 24 25  4  0  0  0
 25 26  1  0  0  0
 27 28  1  0  0  0
 28 29  1  0  0  0
 28 31  1  0  0  0
 29 30  2  0  0  0
 29 32  1  0  0  0
 32 33  1  0  0  0
 33 34  1  0  0  0
 33 36  1  0  0  0
 34 35  2  0  0  0
 34 40  1  0  0  0
 36 37  1  0  0  0
 37 38  2  0  0  0
 37 39  1  0  0  0
 40 41  1  0  0  0
 41 42  1  0  0  0
 41 44  1  0  0  0
 42 43  2  0  0  0
 42 51  1  0  0  0
 44 45  1  0  0  0
 45 46  4  0  0  0
 45 47  4  0  0  0
 46 48  4  0  0  0
 47 49  4  0  0  0
 48 50  4  0  0  0
 49 50  4  0  0  0
 51 52  1  0  0  0
 52 53  1  0  0  0
 52 55  1  0  0  0
 53 54  2  0  0  0
 53 59  1  0  0  0
 55 56  1  0  0  0
 55 57  1  0  0  0
 56 58  1  0  0  0
 59 60  1  0  0  0
 60 61  1  0  0  0
 60 63  1  0  0  0
 61 62  2  0  0  0
 61 64  1  0  0  0
 64 65  1  0  0  0
 65 66  1  0  0  0
 65 68  1  0  0  0
 66 67  2  0  0  0
 66 70  1  0  0  0
 68 69  1  0  0  0
 70 71  1  0  0  0
 71 72  1  0  0  0
 72 73  2  0  0  0
 72 74  1  0  0  0
 74 75  1  0  0  0
 75 76  1  0  0  0
 75 78  1  0  0  0
 76 77  2  0  0  0
 76 85  1  0  0  0
 78 79  1  0  0  0
 79 80  1  0  0  0
 80 81  1  0  0  0
 81 82  1  0  0  0
 82 83  2  0  0  0
 82 84  1  0  0  0
 85 86  1  0  0  0
 86 87  1  0  0  0
 86 89  1  0  0  0
 87 88  2  0  0  0
 87 92  1  0  0  0
 89 90  1  0  0  0
 89 91  1  0  0  0
 92 93  1  0  0  0
 93 94  1  0  0  0
 94 95  2  0  0  0
 94 96  1  0  0  0
 96 97  1  0  0  0
 97 98  1  0  0  0
 97100  1  0  0  0
 98 99  2  0  0  0
 98105  1  0  0  0
100101  1  0  0  0
101102  1  0  0  0
102103  1  0  0  0
103104  1  0  0  0
105106  1  0  0  0
106107  1  0  0  0
106109  1  0  0  0
107108  2  0  0  0
107116  1  0  0  0
109110  1  0  0  0
110111  1  0  0  0
111112  1  0  0  0
112113  1  0  0  0
113114  2  0  0  0
113115  1  0  0  0
116117  1  0  0  0
117118  1  0  0  0
117120  1  0  0  0
118119  2  0  0  0
118124  1  0  0  0
120121  1  0  0  0
121122  2  0  0  0
121123  1  0  0  0
124125  1  0  0  0
125126  1  0  0  0
125128  1  0  0  0
126127  2  0  0  0
126129  1  0  0  0
129130  1  0  0  0
130131  1  0  0  0
130133  1  0  0  0
131132  2  0  0  0
131136  1  0  0  0
133134  1  0  0  0
133135  1  0  0  0
  1137  1  0  0  0
  1138  1  0  0  0
  1139  1  0  0  0
  2140  1  0  0  0
  5141  1  0  0  0
  6142  1  0  0  0
  7143  1  0  0  0
  7144  1  0  0  0
  7145  1  0  0  0
  8146  1  0  0  0
  9147  1  0  0  0
 12148  1  0  0  0
 13149  1  0  0  0
 14150  1  0  0  0
 14151  1  0  0  0
 14152  1  0  0  0
 15153  1  0  0  0
 16154  1  0  0  0
 19155  1  0  0  0
 19156  1  0  0  0
 21157  1  0  0  0
 22158  1  0  0  0
 23159  1  0  0  0
 24160  1  0  0  0
 26161  1  0  0  0
 27162  1  0  0  0
 28163  1  0  0  0
 31164  1  0  0  0
 31165  1  0  0  0
 31166  1  0  0  0
 32167  1  0  0  0
 33168  1  0  0  0
 36169  1  0  0  0
 36170  1  0  0  0
 39171  1  0  0  0
 40172  1  0  0  0
 41173  1  0  0  0
 44174  1  0  0  0
 44175  1  0  0  0
 46176  1  0  0  0
 47177  1  0  0  0
 48178  1  0  0  0
 49179  1  0  0  0
 50180  1  0  0  0
 51181  1  0  0  0
 52182  1  0  0  0
 55183  1  0  0  0
 56184  1  0  0  0
 56185  1  0  0  0
 57186  1  0  0  0
 57187  1  0  0  0
 57188  1  0  0  0
 58189  1  0  0  0
 58190  1  0  0  0
 58191  1  0  0  0
 59192  1  0  0  0
 60193  1  0  0  0
 63194  1  0  0  0
 63195  1  0  0  0
 63196  1  0  0  0
 64197  1  0  0  0
 65198  1  0  0  0
 68199  1  0  0  0
 68200  1  0  0  0
 69201  1  0  0  0
 70202  1  0  0  0
 71203  1  0  0  0
 71204  1  0  0  0
 74205  1  0  0  0
 75206  1  0  0  0
 78207  1  0  0  0
 78208  1  0  0  0
 79209  1  0  0  0
 79210  1  0  0  0
 80211  1  0  0  0
 80212  1  0  0  0
 81213  1  0  0  0
 83214  1  0  0  0
 84215  1  0  0  0
 84216  1  0  0  0
 85217  1  0  0  0
 86218  1  0  0  0
 89219  1  0  0  0
 90220  1  0  0  0
 91221  1  0  0  0
 91222  1  0  0  0
 91223  1  0  0  0
 92224  1  0  0  0
 93225  1  0  0  0
 93226  1  0  0  0
 96227  1  0  0  0
 97228  1  0  0  0
100229  1  0  0  0
100230  1  0  0  0
101231  1  0  0  0
101232  1  0  0  0
102233  1  0  0  0
102234  1  0  0  0
103235  1  0  0  0
103236  1  0  0  0
104237  1  0  0  0
104238  1  0  0  0
104239  1  0  0  0
105240  1  0  0  0
106241  1  0  0  0
109242  1  0  0  0
109243  1  0  0  0
110244  1  0  0  0
110245  1  0  0  0
111246  1  0  0  0
111247  1  0  0  0
112248  1  0  0  0
114249  1  0  0  0
115250  1  0  0  0
115251  1  0  0  0
116252  1  0  0  0
117253  1  0  0  0
120254  1  0  0  0
120255  1  0  0  0
123256  1  0  0  0
123257  1  0  0  0
124258  1  0  0  0
125259  1  0  0  0
128260  1  0  0  0
128261  1  0  0  0
128262  1  0  0  0
129263  1  0  0  0
130264  1  0  0  0
133265  1  0  0  0
134266  1  0  0  0
134267  1  0  0  0
134268  1  0  0  0
135269  1  0  0  0
135270  1  0  0  0
135271  1  0  0  0
136272  1  0  0  0
M  END
$$$$
