### 
### Created by X-TOOL on Mon Aug  2 16:12:12 2021
### 

@<TRIPOS>MOLECULE
5ous_ligand
  272   273     1     0     0
SMALL
GAST_HUCK


@<TRIPOS>ATOM
      1 N         -18.6520  -34.9460  -25.7000 N.4       1 THR         0.2398
      2 CA        -17.8260  -34.5370  -24.5650 C.3       1 THR         0.0910
      3 C         -16.8780  -33.4050  -24.9260 C.2       1 THR         0.2293
      4 O         -16.4970  -33.2290  -26.0820 O.2       1 THR        -0.3906
      5 CB        -16.9980  -35.7090  -24.0170 C.3       1 THR         0.1120
      6 OG1       -15.8280  -35.8980  -24.8230 O.3       1 THR        -0.3840
      7 CG2       -17.8240  -36.9770  -24.0450 C.3       1 THR        -0.0314
      8 N         -16.4950  -32.6280  -23.9170 N.am      1 THR        -0.2585
      9 CA        -15.5550  -31.5420  -24.1580 C.3       1 THR         0.1566
     10 C         -14.2390  -32.0660  -24.7280 C.2       1 THR         0.2066
     11 O         -13.6940  -31.4960  -25.6810 O.2       1 THR        -0.3943
     12 CB        -15.3120  -30.7850  -22.8600 C.3       1 THR         0.0924
     13 OG1       -16.5740  -30.3760  -22.3160 O.3       1 THR        -0.3874
     14 CG2       -14.4170  -29.5770  -23.1170 C.3       1 THR        -0.0346
     15 N         -13.7170  -33.1530  -24.1520 N.am      1 THR        -0.2621
     16 CA        -12.4690  -33.7380  -24.6340 C.3       1 THR         0.1390
     17 C         -12.5500  -34.0830  -26.1170 C.2       1 THR         0.2057
     18 O         -11.6410  -33.7540  -26.8890 O.2       1 THR        -0.3942
     19 CB        -12.1290  -34.9880  -23.8230 C.3       1 THR         0.0163
     20 CG        -10.8700  -35.6660  -24.2970 C.ar      1 THR        -0.0493
     21 CD1       -10.9000  -36.9570  -24.8270 C.ar      1 THR        -0.0685
     22 CD2        -9.6490  -35.0040  -24.2390 C.ar      1 THR        -0.0685
     23 CE1        -9.7360  -37.5800  -25.2590 C.ar      1 THR        -0.0398
     24 CE2        -8.4940  -35.6040  -24.6730 C.ar      1 THR        -0.0398
     25 CZ         -8.5380  -36.8910  -25.1800 C.ar      1 THR         0.0805
     26 OH         -7.3710  -37.4690  -25.6100 O.3       1 THR        -0.3376
     27 N         -13.6260  -34.7740  -26.5270 N.am      1 THR        -0.2639
     28 CA        -13.7840  -35.1290  -27.9380 C.3       1 THR         0.1282
     29 C         -13.8580  -33.8800  -28.8030 C.2       1 THR         0.2037
     30 O         -13.2890  -33.8420  -29.9030 O.2       1 THR        -0.3944
     31 CB        -15.0370  -35.9850  -28.1420 C.3       1 THR        -0.0244
     32 N         -14.5550  -32.8430  -28.3160 N.am      1 THR        -0.2622
     33 CA        -14.5660  -31.5650  -29.0210 C.3       1 THR         0.1423
     34 C         -13.1540  -31.0170  -29.1790 C.2       1 THR         0.2057
     35 O         -12.8000  -30.4840  -30.2350 O.2       1 THR        -0.3943
     36 CB        -15.4490  -30.5570  -28.2850 C.3       1 THR         0.0406
     37 CG        -16.9350  -30.8850  -28.3900 C.2       1 THR         0.0393
     38 OD1       -17.3160  -31.6570  -29.2990 O.co2     1 THR        -0.5688
     39 OD2       -17.7200  -30.3520  -27.5690 O.co2     1 THR        -0.5688
     40 N         -12.3300  -31.1470  -28.1400 N.am      1 THR        -0.2618
     41 CA        -10.9530  -30.6730  -28.2290 C.3       1 THR         0.1404
     42 C         -10.2080  -31.3870  -29.3480 C.2       1 THR         0.2060
     43 O          -9.5170  -30.7550  -30.1570 O.2       1 THR        -0.3942
     44 CB        -10.2540  -30.8710  -26.8840 C.3       1 THR         0.0214
     45 CG         -8.8160  -30.4400  -26.8660 C.ar      1 THR        -0.0386
     46 CD1        -7.8440  -31.2650  -26.3260 C.ar      1 THR        -0.0601
     47 CD2        -8.4370  -29.2190  -27.3760 C.ar      1 THR        -0.0601
     48 CE1        -6.5190  -30.8690  -26.2810 C.ar      1 THR        -0.0686
     49 CE2        -7.1130  -28.8210  -27.3370 C.ar      1 THR        -0.0686
     50 CZ         -6.1560  -29.6490  -26.7960 C.ar      1 THR        -0.0687
     51 N         -10.3530  -32.7100  -29.4180 N.am      1 THR        -0.2633
     52 CA         -9.7260  -33.4690  -30.4980 C.3       1 THR         0.1335
     53 C         -10.2790  -33.0390  -31.8530 C.2       1 THR         0.2041
     54 O          -9.5220  -32.8400  -32.8100 O.2       1 THR        -0.3944
     55 CB         -9.9160  -34.9780  -30.2630 C.3       1 THR        -0.0037
     56 CG1        -9.3110  -35.3900  -28.9230 C.3       1 THR        -0.0491
     57 CG2        -9.2750  -35.7690  -31.3780 C.3       1 THR        -0.0582
     58 CD1        -9.6810  -36.8010  -28.5370 C.3       1 THR        -0.0648
     59 N         -11.6070  -32.8870  -31.9570 N.am      1 THR        -0.2640
     60 CA        -12.2140  -32.5050  -33.2280 C.3       1 THR         0.1282
     61 C         -11.8130  -31.1050  -33.6830 C.2       1 THR         0.2037
     62 O         -12.0000  -30.7740  -34.8590 O.2       1 THR        -0.3944
     63 CB        -13.7410  -32.5980  -33.1350 C.3       1 THR        -0.0244
     64 N         -11.2620  -30.2800  -32.7850 N.am      1 THR        -0.2616
     65 CA        -10.9400  -28.8930  -33.1170 C.3       1 THR         0.1539
     66 C          -9.7070  -28.7560  -34.0030 C.2       1 THR         0.2060
     67 O          -9.5470  -27.7210  -34.6540 O.2       1 THR        -0.3943
     68 CB        -10.7070  -28.0760  -31.8450 C.3       1 THR         0.0843
     69 OG         -9.3830  -28.2790  -31.3470 O.3       1 THR        -0.3903
     70 N          -8.8090  -29.7400  -34.0120 N.am      1 THR        -0.2663
     71 CA         -7.5950  -29.6200  -34.7930 C.3       1 THR         0.1201
     72 C          -6.5030  -28.7960  -34.1500 C.2       1 THR         0.2007
     73 O          -5.4460  -28.5960  -34.7640 O.2       1 THR        -0.3947
     74 N          -6.7050  -28.3220  -32.9280 N.am      1 THR        -0.2640
     75 CA         -5.7050  -27.5150  -32.2430 C.3       1 THR         0.1311
     76 C          -5.1230  -28.2490  -31.0340 C.2       1 THR         0.2040
     77 O          -4.8330  -27.6480  -29.9980 O.2       1 THR        -0.3944
     78 CB         -6.3040  -26.1600  -31.8600 C.3       1 THR        -0.0092
     79 CG         -6.8640  -25.4030  -33.0810 C.3       1 THR        -0.0156
     80 CD         -7.3600  -23.9860  -32.7310 C.3       1 THR         0.0627
     81 NE         -6.3190  -23.1740  -32.1030 N.pl3     1 THR        -0.2723
     82 CZ         -5.3940  -22.4910  -32.7690 C.cat     1 THR         0.2882
     83 NH1        -5.3770  -22.5100  -34.0870 N.pl3     1 THR        -0.2849
     84 NH2        -4.4830  -21.7880  -32.1160 N.pl3     1 THR        -0.2849
     85 N          -4.9520  -29.5710  -31.1500 N.am      1 THR        -0.2613
     86 CA         -4.2920  -30.3270  -30.0900 C.3       1 THR         0.1565
     87 C          -2.7690  -30.2730  -30.1920 C.2       1 THR         0.2063
     88 O          -2.0850  -30.6080  -29.2180 O.2       1 THR        -0.3943
     89 CB         -4.7650  -31.7920  -30.0910 C.3       1 THR         0.0924
     90 OG1        -4.3510  -32.4390  -31.2960 O.3       1 THR        -0.3874
     91 CG2        -6.2900  -31.8760  -29.9670 C.3       1 THR        -0.0346
     92 N          -2.2250  -29.8520  -31.3340 N.am      1 THR        -0.2663
     93 CA         -0.7890  -29.7690  -31.5110 C.3       1 THR         0.1201
     94 C          -0.2030  -28.4830  -30.9550 C.2       1 THR         0.2007
     95 O          -0.8910  -27.6380  -30.3820 O.2       1 THR        -0.3947
     96 N           1.1120  -28.3460  -31.1200 N.am      1 THR        -0.2640
     97 CA          1.7870  -27.1160  -30.7280 C.3       1 THR         0.1310
     98 C           1.1710  -25.9350  -31.4660 C.2       1 THR         0.2039
     99 O           0.8870  -26.0100  -32.6660 O.2       1 THR        -0.3944
    100 CB          3.2840  -27.1960  -31.0350 C.3       1 THR        -0.0122
    101 CG          4.0980  -28.1090  -30.1160 C.3       1 THR        -0.0440
    102 CD          5.5080  -27.5180  -29.9300 C.3       1 THR        -0.0124
    103 CE          6.3680  -28.3100  -28.9610 C.3       1 THR        -0.0354
    104 NZ          7.5570  -27.5090  -28.5070 N.4       1 THR         0.2185
    105 N           0.9630  -24.8410  -30.7400 N.am      1 THR        -0.2637
    106 CA          0.2240  -23.6840  -31.2300 C.3       1 THR         0.1311
    107 C           1.1880  -22.5290  -31.4900 C.2       1 THR         0.2040
    108 O           1.9880  -22.1780  -30.6150 O.2       1 THR        -0.3944
    109 CB         -0.8610  -23.2780  -30.2230 C.3       1 THR        -0.0092
    110 CG         -1.9960  -24.2880  -30.1150 C.3       1 THR        -0.0156
    111 CD         -2.6860  -24.2950  -28.7350 C.3       1 THR         0.0627
    112 NE         -1.7880  -24.6170  -27.6170 N.pl3     1 THR        -0.2723
    113 CZ         -2.2120  -24.9620  -26.4020 C.cat     1 THR         0.2882
    114 NH1        -3.5100  -25.0360  -26.1530 N.pl3     1 THR        -0.2849
    115 NH2        -1.3490  -25.2390  -25.4360 N.pl3     1 THR        -0.2849
    116 N           1.1220  -21.9580  -32.7000 N.am      1 THR        -0.2616
    117 CA          1.9570  -20.8190  -33.0810 C.3       1 THR         0.1476
    118 C           1.4690  -19.5340  -32.4300 C.2       1 THR         0.2062
    119 O           0.2720  -19.3490  -32.2090 O.2       1 THR        -0.3942
    120 CB          1.9370  -20.5980  -34.5930 C.3       1 THR         0.0773
    121 CG          2.6140  -21.6920  -35.3520 C.2       1 THR         0.1780
    122 OD1         3.6690  -22.1720  -34.9520 O.2       1 THR        -0.3970
    123 ND2         2.0170  -22.0930  -36.4700 N.am      1 THR        -0.3007
    124 N           2.4010  -18.6120  -32.2110 N.am      1 THR        -0.2639
    125 CA          2.0900  -17.2870  -31.6810 C.3       1 THR         0.1282
    126 C           1.3630  -16.4070  -32.7010 C.2       1 THR         0.2031
    127 O           0.9490  -16.8400  -33.7810 O.2       1 THR        -0.3944
    128 CB          3.3690  -16.5950  -31.2210 C.3       1 THR        -0.0244
    129 N           1.2710  -15.1220  -32.3400 N.am      1 THR        -0.2692
    130 CA          0.6180  -13.9850  -33.0250 C.3       1 THR         0.0967
    131 C          -0.8850  -14.1800  -33.1950 C.2       1 THR         0.0603
    132 O          -1.4010  -15.2510  -33.4930 O.co2     1 THR        -0.5666
    133 CB          1.2910  -13.6310  -34.3850 C.3       1 THR        -0.0118
    134 CG1         0.5640  -14.2620  -35.5810 C.3       1 THR        -0.0590
    135 CG2         2.7860  -13.9230  -34.3540 C.3       1 THR        -0.0590
    136 OXT        -1.6350  -13.2270  -32.9930 O.co2     1 THR        -0.5666
    137 H1        -19.1802  -34.1549  -26.0334 H         1 THR         0.2016
    138 H2        -19.2852  -35.6745  -25.4095 H         1 THR         0.2016
    139 H3        -18.0600  -35.2905  -26.4395 H         1 THR         0.2016
    140 H4        -18.4995  -34.1846  -23.7699 H         1 THR         0.1125
    141 H5        -16.6982  -35.4894  -22.9817 H         1 THR         0.0674
    142 H6        -15.3021  -35.1071  -24.8062 H         1 THR         0.2102
    143 H7        -17.2264  -37.8126  -23.6517 H         1 THR         0.0258
    144 H8        -18.1242  -37.1963  -25.0803 H         1 THR         0.0258
    145 H9        -18.7216  -36.8437  -23.4234 H         1 THR         0.0258
    146 H10       -16.8510  -32.7888  -22.9964 H         1 THR         0.1885
    147 H11       -15.9985  -30.8516  -24.8905 H         1 THR         0.0826
    148 H12       -14.8109  -31.4510  -22.1421 H         1 THR         0.0639
    149 H13       -16.4296  -29.9026  -21.5051 H         1 THR         0.2101
    150 H14       -14.2484  -29.0382  -22.1730 H         1 THR         0.0257
    151 H15       -14.9047  -28.9065  -23.8398 H         1 THR         0.0257
    152 H16       -13.4524  -29.9151  -23.5234 H         1 THR         0.0257
    153 H17       -14.1894  -33.5732  -23.3772 H         1 THR         0.1885
    154 H18       -11.6651  -33.0002  -24.4945 H         1 THR         0.0821
    155 H19       -12.9640  -35.6992  -23.9064 H         1 THR         0.0453
    156 H20       -11.9974  -34.6988  -22.7699 H         1 THR         0.0453
    157 H21       -11.8458  -37.4812  -24.9026 H         1 THR         0.0530
    158 H22        -9.6087  -33.9954  -23.8437 H         1 THR         0.0530
    159 H23        -9.7654  -38.5899  -25.6518 H         1 THR         0.0525
    160 H24        -7.5509  -35.0722  -24.6190 H         1 THR         0.0525
    161 H25        -6.7565  -37.5149  -24.8869 H         1 THR         0.2458
    162 H26       -14.3233  -35.0476  -25.8644 H         1 THR         0.1883
    163 H27       -12.9067  -35.7158  -28.2478 H         1 THR         0.0797
    164 H28       -15.1371  -36.2404  -29.2072 H         1 THR         0.0277
    165 H29       -15.9233  -35.4214  -27.8153 H         1 THR         0.0277
    166 H30       -14.9508  -36.9082  -27.5501 H         1 THR         0.0277
    167 H31       -15.0701  -32.9459  -27.4651 H         1 THR         0.1884
    168 H32       -14.9872  -31.7280  -30.0240 H         1 THR         0.0819
    169 H33       -15.2781  -29.5595  -28.7160 H         1 THR         0.0478
    170 H34       -15.1648  -30.5509  -27.2224 H         1 THR         0.0478
    171 H35       -12.6568  -31.5713  -27.2955 H         1 THR         0.1885
    172 H36       -10.9679  -29.5972  -28.4580 H         1 THR         0.0823
    173 H37       -10.2965  -31.9399  -26.6276 H         1 THR         0.0474
    174 H38       -10.7974  -30.2898  -26.1244 H         1 THR         0.0474
    175 H39        -8.1251  -32.2353  -25.9328 H         1 THR         0.0557
    176 H40        -9.1825  -28.5638  -27.8119 H         1 THR         0.0557
    177 H41        -5.7711  -31.5188  -25.8413 H         1 THR         0.0599
    178 H42        -6.8280  -27.8534  -27.7340 H         1 THR         0.0599
    179 H43        -5.1176  -29.3386  -26.7765 H         1 THR         0.0559
    180 H44       -10.8950  -33.1870  -28.7261 H         1 THR         0.1883
    181 H45        -8.6471  -33.2549  -30.4884 H         1 THR         0.0803
    182 H46       -10.9936  -35.1983  -30.2471 H         1 THR         0.0345
    183 H47        -9.6750  -34.7034  -28.1445 H         1 THR         0.0267
    184 H48        -8.2156  -35.3181  -28.9924 H         1 THR         0.0267
    185 H49        -9.7145  -35.4682  -32.3405 H         1 THR         0.0235
    186 H50        -9.4508  -36.8424  -31.2142 H         1 THR         0.0235
    187 H51        -8.1928  -35.5726  -31.3917 H         1 THR         0.0235
    188 H52        -9.2223  -37.0483  -27.5683 H         1 THR         0.0230
    189 H53        -9.3154  -37.4990  -29.3046 H         1 THR         0.0230
    190 H54       -10.7749  -36.8843  -28.4567 H         1 THR         0.0230
    191 H55       -12.1870  -33.0368  -31.1562 H         1 THR         0.1883
    192 H56       -11.8692  -33.2184  -33.9910 H         1 THR         0.0797
    193 H57       -14.1853  -32.3078  -34.0985 H         1 THR         0.0277
    194 H58       -14.1022  -31.9218  -32.3462 H         1 THR         0.0277
    195 H59       -14.0314  -33.6311  -32.8937 H         1 THR         0.0277
    196 H60       -11.0659  -30.6201  -31.8653 H         1 THR         0.1884
    197 H61       -11.7997  -28.4693  -33.6567 H         1 THR         0.0823
    198 H62       -11.4322  -28.3871  -31.0786 H         1 THR         0.0606
    199 H63       -10.8475  -27.0087  -32.0711 H         1 THR         0.0606
    200 H64        -9.2586  -29.1994  -31.1475 H         1 THR         0.2097
    201 H65        -8.9743  -30.5676  -33.4756 H         1 THR         0.1881
    202 H66        -7.8526  -29.1541  -35.7555 H         1 THR         0.0763
    203 H67        -7.2007  -30.6317  -34.9692 H         1 THR         0.0763
    204 H68        -7.5676  -28.5243  -32.4643 H         1 THR         0.1883
    205 H69        -4.8794  -27.3308  -32.9462 H         1 THR         0.0800
    206 H70        -5.5204  -25.5462  -31.3919 H         1 THR         0.0313
    207 H71        -7.1198  -26.3242  -31.1407 H         1 THR         0.0313
    208 H72        -7.7059  -25.9775  -33.4946 H         1 THR         0.0301
    209 H73        -6.0697  -25.3202  -33.8375 H         1 THR         0.0301
    210 H74        -8.2099  -24.0697  -32.0377 H         1 THR         0.0689
    211 H75        -7.6882  -23.4876  -33.6550 H         1 THR         0.0689
    212 H76        -6.3014  -23.1282  -31.0742 H         1 THR         0.2642
    213 H77        -4.6587  -21.9796  -34.6005 H         1 THR         0.2615
    214 H78        -6.0820  -23.0553  -34.6033 H         1 THR         0.2615
    215 H79        -4.4889  -21.7676  -31.0862 H         1 THR         0.2615
    216 H80        -3.7679  -21.2611  -32.6374 H         1 THR         0.2615
    217 H81        -5.2785  -30.0442  -31.9682 H         1 THR         0.1884
    218 H82        -4.5803  -29.8747  -29.1297 H         1 THR         0.0826
    219 H83        -4.3108  -32.3092  -29.2330 H         1 THR         0.0639
    220 H84        -4.6472  -33.3416  -31.2874 H         1 THR         0.2101
    221 H85        -6.6005  -32.9313  -29.9702 H         1 THR         0.0257
    222 H86        -6.7562  -31.3540  -30.8156 H         1 THR         0.0257
    223 H87        -6.6080  -31.4031  -29.0261 H         1 THR         0.0257
    224 H88        -2.8242  -29.5862  -32.0892 H         1 THR         0.1881
    225 H89        -0.5633  -29.8224  -32.5863 H         1 THR         0.0763
    226 H90        -0.3211  -30.6206  -30.9954 H         1 THR         0.0763
    227 H91         1.6414  -29.0957  -31.5172 H         1 THR         0.1883
    228 H92         1.6554  -26.9694  -29.6458 H         1 THR         0.0800
    229 H93         3.7002  -26.1806  -30.9586 H         1 THR         0.0312
    230 H94         3.3993  -27.5630  -32.0655 H         1 THR         0.0312
    231 H95         4.1755  -29.1094  -30.5668 H         1 THR         0.0269
    232 H96         3.5996  -28.1850  -29.1383 H         1 THR         0.0269
    233 H97         5.4086  -26.4908  -29.5493 H         1 THR         0.0317
    234 H98         6.0107  -27.4996  -30.9082 H         1 THR         0.0317
    235 H99         6.7212  -29.2244  -29.4600 H         1 THR         0.0813
    236 H100        5.7625  -28.5815  -28.0837 H         1 THR         0.0813
    237 H101        8.1078  -28.0589  -27.8665 H         1 THR         0.1994
    238 H102        7.2409  -26.6710  -28.0445 H         1 THR         0.1994
    239 H103        8.1194  -27.2602  -29.3057 H         1 THR         0.1994
    240 H104        1.3320  -24.8102  -29.8111 H         1 THR         0.1883
    241 H105       -0.2643  -23.9531  -32.1782 H         1 THR         0.0800
    242 H106       -1.2831  -22.3117  -30.5362 H         1 THR         0.0313
    243 H107       -0.3946  -23.1707  -29.2326 H         1 THR         0.0313
    244 H108       -1.5879  -25.2917  -30.3050 H         1 THR         0.0301
    245 H109       -2.7495  -24.0477  -30.8795 H         1 THR         0.0301
    246 H110       -3.4931  -25.0421  -28.7560 H         1 THR         0.0689
    247 H111       -3.1143  -23.2974  -28.5578 H         1 THR         0.0689
    248 H112       -0.7723  -24.5734  -27.7823 H         1 THR         0.2642
    249 H113       -3.8400  -25.3025  -25.2144 H         1 THR         0.2615
    250 H114       -4.1900  -24.8271  -26.8979 H         1 THR         0.2615
    251 H115       -0.3368  -25.1847  -25.6185 H         1 THR         0.2615
    252 H116       -1.6902  -25.5087  -24.5023 H         1 THR         0.2615
    253 H117        0.4762  -22.3250  -33.3695 H         1 THR         0.1885
    254 H118        2.9890  -21.0201  -32.7576 H         1 THR         0.0826
    255 H119        2.4475  -19.6494  -34.8154 H         1 THR         0.0551
    256 H120        0.8899  -20.5375  -34.9246 H         1 THR         0.0551
    257 H121        2.4238  -22.8223  -37.0202 H         1 THR         0.1814
    258 H122        1.1611  -21.6654  -36.7609 H         1 THR         0.1814
    259 H123        3.3538  -18.8345  -32.4175 H         1 THR         0.1883
    260 H124        1.4301  -17.4156  -30.8104 H         1 THR         0.0797
    261 H125        3.1244  -15.5988  -30.8239 H         1 THR         0.0277
    262 H126        4.0567  -16.4912  -32.0732 H         1 THR         0.0277
    263 H127        3.8483  -17.1958  -30.4341 H         1 THR         0.0277
    264 H128        1.7124  -14.8948  -31.4719 H         1 THR         0.1875
    265 H129        0.7512  -13.1115  -32.3698 H         1 THR         0.0729
    266 H130        1.1921  -12.5425  -34.5090 H         1 THR         0.0336
    267 H131        1.0781  -13.9815  -36.5121 H         1 THR         0.0234
    268 H132       -0.4741  -13.8996  -35.6119 H         1 THR         0.0234
    269 H133        0.5672  -15.3570  -35.4760 H         1 THR         0.0234
    270 H134        3.2356  -13.4406  -33.4736 H         1 THR         0.0234
    271 H135        3.2555  -13.5293  -35.2675 H         1 THR         0.0234
    272 H136        2.9463  -15.0098  -34.2984 H         1 THR         0.0234
@<TRIPOS>BOND
     1    1    2 1  
     2    2    3 1  
     3    2    5 1  
     4    3    4 2  
     5    3    8 am 
     6    5    6 1  
     7    5    7 1  
     8    8    9 1  
     9    9   10 1  
    10    9   12 1  
    11   10   11 2  
    12   10   15 am 
    13   12   13 1  
    14   12   14 1  
    15   15   16 1  
    16   16   17 1  
    17   16   19 1  
    18   17   18 2  
    19   17   27 am 
    20   19   20 1  
    21   20   21 ar 
    22   20   22 ar 
    23   21   23 ar 
    24   22   24 ar 
    25   23   25 ar 
    26   24   25 ar 
    27   25   26 1  
    28   27   28 1  
    29   28   29 1  
    30   28   31 1  
    31   29   30 2  
    32   29   32 am 
    33   32   33 1  
    34   33   34 1  
    35   33   36 1  
    36   34   35 2  
    37   34   40 am 
    38   36   37 1  
    39   37   38 ar 
    40   37   39 ar 
    41   40   41 1  
    42   41   42 1  
    43   41   44 1  
    44   42   43 2  
    45   42   51 am 
    46   44   45 1  
    47   45   46 ar 
    48   45   47 ar 
    49   46   48 ar 
    50   47   49 ar 
    51   48   50 ar 
    52   49   50 ar 
    53   51   52 1  
    54   52   53 1  
    55   52   55 1  
    56   53   54 2  
    57   53   59 am 
    58   55   56 1  
    59   55   57 1  
    60   56   58 1  
    61   59   60 1  
    62   60   61 1  
    63   60   63 1  
    64   61   62 2  
    65   61   64 am 
    66   64   65 1  
    67   65   66 1  
    68   65   68 1  
    69   66   67 2  
    70   66   70 am 
    71   68   69 1  
    72   70   71 1  
    73   71   72 1  
    74   72   73 2  
    75   72   74 am 
    76   74   75 1  
    77   75   76 1  
    78   75   78 1  
    79   76   77 2  
    80   76   85 am 
    81   78   79 1  
    82   79   80 1  
    83   80   81 1  
    84   81   82 ar 
    85   82   83 ar 
    86   82   84 ar 
    87   85   86 1  
    88   86   87 1  
    89   86   89 1  
    90   87   88 2  
    91   87   92 am 
    92   89   90 1  
    93   89   91 1  
    94   92   93 1  
    95   93   94 1  
    96   94   95 2  
    97   94   96 am 
    98   96   97 1  
    99   97   98 1  
   100   97  100 1  
   101   98   99 2  
   102   98  105 am 
   103  100  101 1  
   104  101  102 1  
   105  102  103 1  
   106  103  104 1  
   107  105  106 1  
   108  106  107 1  
   109  106  109 1  
   110  107  108 2  
   111  107  116 am 
   112  109  110 1  
   113  110  111 1  
   114  111  112 1  
   115  112  113 ar 
   116  113  114 ar 
   117  113  115 ar 
   118  116  117 1  
   119  117  118 1  
   120  117  120 1  
   121  118  119 2  
   122  118  124 am 
   123  120  121 1  
   124  121  122 2  
   125  121  123 am 
   126  124  125 1  
   127  125  126 1  
   128  125  128 1  
   129  126  127 2  
   130  126  129 am 
   131  129  130 1  
   132  130  131 1  
   133  130  133 1  
   134  131  132 ar 
   135  131  136 ar 
   136  133  134 1  
   137  133  135 1  
   138    1  137 1  
   139    1  138 1  
   140    1  139 1  
   141    2  140 1  
   142    5  141 1  
   143    6  142 1  
   144    7  143 1  
   145    7  144 1  
   146    7  145 1  
   147    8  146 1  
   148    9  147 1  
   149   12  148 1  
   150   13  149 1  
   151   14  150 1  
   152   14  151 1  
   153   14  152 1  
   154   15  153 1  
   155   16  154 1  
   156   19  155 1  
   157   19  156 1  
   158   21  157 1  
   159   22  158 1  
   160   23  159 1  
   161   24  160 1  
   162   26  161 1  
   163   27  162 1  
   164   28  163 1  
   165   31  164 1  
   166   31  165 1  
   167   31  166 1  
   168   32  167 1  
   169   33  168 1  
   170   36  169 1  
   171   36  170 1  
   172   40  171 1  
   173   41  172 1  
   174   44  173 1  
   175   44  174 1  
   176   46  175 1  
   177   47  176 1  
   178   48  177 1  
   179   49  178 1  
   180   50  179 1  
   181   51  180 1  
   182   52  181 1  
   183   55  182 1  
   184   56  183 1  
   185   56  184 1  
   186   57  185 1  
   187   57  186 1  
   188   57  187 1  
   189   58  188 1  
   190   58  189 1  
   191   58  190 1  
   192   59  191 1  
   193   60  192 1  
   194   63  193 1  
   195   63  194 1  
   196   63  195 1  
   197   64  196 1  
   198   65  197 1  
   199   68  198 1  
   200   68  199 1  
   201   69  200 1  
   202   70  201 1  
   203   71  202 1  
   204   71  203 1  
   205   74  204 1  
   206   75  205 1  
   207   78  206 1  
   208   78  207 1  
   209   79  208 1  
   210   79  209 1  
   211   80  210 1  
   212   80  211 1  
   213   81  212 1  
   214   83  213 1  
   215   83  214 1  
   216   84  215 1  
   217   84  216 1  
   218   85  217 1  
   219   86  218 1  
   220   89  219 1  
   221   90  220 1  
   222   91  221 1  
   223   91  222 1  
   224   91  223 1  
   225   92  224 1  
   226   93  225 1  
   227   93  226 1  
   228   96  227 1  
   229   97  228 1  
   230  100  229 1  
   231  100  230 1  
   232  101  231 1  
   233  101  232 1  
   234  102  233 1  
   235  102  234 1  
   236  103  235 1  
   237  103  236 1  
   238  104  237 1  
   239  104  238 1  
   240  104  239 1  
   241  105  240 1  
   242  106  241 1  
   243  109  242 1  
   244  109  243 1  
   245  110  244 1  
   246  110  245 1  
   247  111  246 1  
   248  111  247 1  
   249  112  248 1  
   250  114  249 1  
   251  114  250 1  
   252  115  251 1  
   253  115  252 1  
   254  116  253 1  
   255  117  254 1  
   256  120  255 1  
   257  120  256 1  
   258  123  257 1  
   259  123  258 1  
   260  124  259 1  
   261  125  260 1  
   262  128  261 1  
   263  128  262 1  
   264  128  263 1  
   265  129  264 1  
   266  130  265 1  
   267  133  266 1  
   268  134  267 1  
   269  134  268 1  
   270  134  269 1  
   271  135  270 1  
   272  135  271 1  
   273  135  272 1  
@<TRIPOS>SUBSTRUCTURE
     1 THR         1

