2xey_ligand
  -I-interpret- 

 33 37  0  0  0  0  0  0  0  0999 V2000
    0.6380   -4.7300   19.0870 C   0  0  0  0  0
    0.1060   -3.9280   20.0810 C   0  0  0  0  0
   -1.2290   -4.0620   20.4210 C   0  0  0  0  0
   -2.0200   -5.0000   19.7780 C   0  0  0  0  0
   -1.4790   -5.8090   18.7910 C   0  0  0  0  0
   -0.1430   -5.6740   18.4500 C   0  0  0  0  0
    0.6230   -6.2970   17.5610 N   0  0  0  0  0
    1.8580   -5.7990   17.6190 C   0  0  0  0  0
    1.9030   -4.8640   18.5580 C   0  0  0  0  0
    2.9560   -4.0490   18.9480 C   0  0  0  0  0
    2.8930   -2.9740   19.7160 C   0  0  0  0  0
    4.1070   -2.4430   19.8270 N   0  0  0  0  0
    4.9680   -3.1560   19.1130 C   0  0  0  0  0
    6.3280   -3.0300   18.8900 C   0  0  0  0  0
    6.9630   -3.8900   18.1200 N   0  0  0  0  0
    4.2710   -4.1860   18.5160 N   0  0  0  0  0
    4.9630   -5.0930   17.7140 C   0  0  0  0  0
    6.3320   -4.9160   17.5360 C   0  0  0  0  0
    7.0660   -5.7770   16.7290 C   0  0  0  0  0
    8.3460   -5.6600   16.4250 C   0  0  0  0  0
    6.6370   -6.8520   16.0870 C   0  0  0  0  0
    7.6690   -7.3660   15.4250 N   0  0  0  0  0
    8.6630   -6.6690   15.6230 N   0  0  0  0  0
    0.7327   -3.1970   20.5919 H   0  0  0  0  0
   -1.6589   -3.4280   21.1965 H   0  0  0  0  0
   -3.0708   -5.1022   20.0490 H   0  0  0  0  0
   -2.1014   -6.5475   18.2858 H   0  0  0  0  0
    2.6958   -6.1102   16.9951 H   0  0  0  0  0
    1.9888   -2.5848   20.1840 H   0  0  0  0  0
    6.8785   -2.2123   19.3553 H   0  0  0  0  0
    4.4426   -5.9232   17.2365 H   0  0  0  0  0
    9.0203   -4.8763   16.7704 H   0  0  0  0  0
    5.6204   -7.2452   16.0989 H   0  0  0  0  0
  1  2  4  0  0  0
  1  6  4  0  0  0
  1  9  4  0  0  0
  2  3  4  0  0  0
  3  4  4  0  0  0
  4  5  4  0  0  0
  5  6  4  0  0  0
  6  7  4  0  0  0
  7  8  4  0  0  0
  8  9  4  0  0  0
  9 10  1  0  0  0
 10 11  4  0  0  0
 10 16  4  0  0  0
 11 12  4  0  0  0
 12 13  4  0  0  0
 13 14  4  0  0  0
 13 16  4  0  0  0
 14 15  4  0  0  0
 15 18  4  0  0  0
 16 17  4  0  0  0
 17 18  4  0  0  0
 18 19  1  0  0  0
 19 20  4  0  0  0
 19 21  4  0  0  0
 20 23  4  0  0  0
 21 22  4  0  0  0
 22 23  4  0  0  0
  2 24  1  0  0  0
  3 25  1  0  0  0
  4 26  1  0  0  0
  5 27  1  0  0  0
  8 28  1  0  0  0
 11 29  1  0  0  0
 14 30  1  0  0  0
 17 31  1  0  0  0
 20 32  1  0  0  0
 21 33  1  0  0  0
M  END
$$$$
