6ced_ligand
  -I-interpret- 

 29 30  0  0  0  0  0  0  0  0999 V2000
    0.4440    2.5140    7.5200 C   0  0  0  0  0
    1.3930    1.6860    8.3200 C   0  0  0  0  0
    2.8530    1.9660    7.9800 C   0  0  0  0  0
    3.3760    3.3670    8.2300 C   0  0  0  0  0
    0.0600    4.1130    5.9060 C   0  0  0  0  0
    0.5910    4.9750    4.9440 C   0  0  0  0  0
   -0.2550    5.7710    4.1890 C   0  0  0  0  0
   -1.6200    5.7140    4.3810 C   0  0  0  0  0
    4.2550    3.8450    7.5080 O   0  0  0  0  0
    0.9370    3.3300    6.6560 N   0  0  0  0  0
   -0.9220    2.3790    7.7620 N   0  0  0  0  0
   -1.4110    1.4190    8.7370 C   0  0  0  0  0
    2.8620    3.9560    9.3100 O   0  0  0  0  0
   -3.0340    3.0930    7.3410 O   0  0  0  0  0
   -1.8570    3.1630    7.0770 C   0  0  0  0  0
   -1.3210    4.0620    6.0970 C   0  0  0  0  0
   -2.1630    4.8730    5.3310 C   0  0  0  0  0
    1.1930    0.6383    8.0955 H   0  0  0  0  0
    1.2428    1.9287    9.3720 H   0  0  0  0  0
    2.9382    1.8094    6.9047 H   0  0  0  0  0
    3.4353    1.3155    8.6326 H   0  0  0  0  0
    1.6687    5.0214    4.7875 H   0  0  0  0  0
    0.1598    6.4454    3.4398 H   0  0  0  0  0
   -2.2764    6.3396    3.7761 H   0  0  0  0  0
   -1.9628    1.9440    9.5167 H   0  0  0  0  0
   -2.0690    0.7043    8.2428 H   0  0  0  0  0
   -0.5666    0.8911    9.1803 H   0  0  0  0  0
    2.1959    3.3842    9.6985 H   0  0  0  0  0
   -3.2419    4.8414    5.4830 H   0  0  0  0  0
  1  2  1  0  0  0
 10  1  2  0  0  0
  1 11  1  0  0  0
  2  3  1  0  0  0
  3  4  1  0  0  0
  4  9  2  0  0  0
  4 13  1  0  0  0
  5  6  4  0  0  0
  5 10  1  0  0  0
  5 16  4  0  0  0
  6  7  4  0  0  0
  7  8  4  0  0  0
  8 17  4  0  0  0
 11 12  1  0  0  0
 11 15  1  0  0  0
 15 14  2  0  0  0
 15 16  1  0  0  0
 16 17  4  0  0  0
  2 18  1  0  0  0
  2 19  1  0  0  0
  3 20  1  0  0  0
  3 21  1  0  0  0
  6 22  1  0  0  0
  7 23  1  0  0  0
  8 24  1  0  0  0
 12 25  1  0  0  0
 12 26  1  0  0  0
 12 27  1  0  0  0
 13 28  1  0  0  0
 17 29  1  0  0  0
M  END
$$$$
