5opb_ligand
  -I-interpret- 

 50 54  0  0  0  0  0  0  0  0999 V2000
   -4.5210   -6.0110   20.5790 C   0  0  0  0  0
   -0.9130   -5.0000   19.9240 N   0  0  0  0  0
   -2.9400   -4.7310   21.7280 O   0  0  0  0  0
   -3.0540   -5.8530   20.8750 C   0  0  0  0  0
    2.1090   -5.7110   17.2670 N   0  0  0  0  0
    6.8180   -6.4000   15.0110 O   0  0  0  0  0
   -2.2020   -5.6330   19.6540 C   0  0  0  0  0
   -0.1400   -5.9100   17.9120 N   0  0  0  0  0
   -0.6830   -4.2680   21.1870 C   0  0  0  0  0
    4.0530   -3.5130   19.3480 N   0  0  0  0  0
   -1.6370   -4.6330   22.2910 C   0  0  0  0  0
    5.3650   -3.2010   19.2000 N   0  0  0  0  0
   -1.6850   -3.6050   23.4000 C   0  0  0  0  0
    0.1280   -5.1500   18.9980 C   0  0  0  0  0
    1.3670   -4.6240   19.1960 C   0  0  0  0  0
    2.3770   -4.9230   18.3120 C   0  0  0  0  0
    0.8810   -6.1130   17.0900 C   0  0  0  0  0
    3.7340   -4.4320   18.4460 C   0  0  0  0  0
    5.9270   -3.9300   18.2060 C   0  0  0  0  0
    7.2140   -3.9060   17.6940 C   0  0  0  0  0
    7.4710   -4.7670   16.6320 C   0  0  0  0  0
    6.4610   -5.5860   16.1080 C   0  0  0  0  0
    5.7920   -6.8490   14.1340 C   0  0  0  0  0
    5.1450   -5.7240   13.3780 C   0  0  0  0  0
    6.1910   -8.1540   13.5850 C   0  0  0  0  0
    5.0020   -8.0570   14.4730 C   0  0  0  0  0
    5.1750   -5.5850   16.5890 C   0  0  0  0  0
    4.8920   -4.7380   17.6790 C   0  0  0  0  0
   -4.8900   -5.1111   20.0869 H   0  0  0  0  0
   -4.6679   -6.8705   19.9250 H   0  0  0  0  0
   -5.0639   -6.1654   21.5115 H   0  0  0  0  0
   -2.6905   -6.7776   21.3234 H   0  0  0  0  0
   -1.9936   -6.6145   19.2281 H   0  0  0  0  0
   -2.7549   -4.9644   18.9942 H   0  0  0  0  0
   -0.8247   -3.2081   20.9758 H   0  0  0  0  0
    0.3197   -4.5235   21.5297 H   0  0  0  0  0
   -1.2927   -5.5708   22.7270 H   0  0  0  0  0
   -0.6936   -3.5016   23.8410 H   0  0  0  0  0
   -2.0041   -2.6462   22.9913 H   0  0  0  0  0
   -2.3918   -3.9292   24.1638 H   0  0  0  0  0
    1.5574   -3.9713   20.0479 H   0  0  0  0  0
    0.6733   -6.6706   16.1768 H   0  0  0  0  0
    7.9827   -3.2489   18.1007 H   0  0  0  0  0
    8.4716   -4.8054   16.2013 H   0  0  0  0  0
    5.8023   -5.4066   12.5685 H   0  0  0  0  0
    4.1956   -6.0644   12.9646 H   0  0  0  0  0
    4.9691   -4.8874   14.0542 H   0  0  0  0  0
    6.8654   -8.7538   12.9739 H   0  0  0  0  0
    4.1662   -8.5272   14.9910 H   0  0  0  0  0
    4.4036   -6.2144   16.1453 H   0  0  0  0  0
  4  1  1  0  0  0
  2  7  1  0  0  0
  2  9  1  0  0  0
 14  2  1  0  0  0
  4  3  1  0  0  0
 11  3  1  0  0  0
  7  4  1  0  0  0
 16  5  4  0  0  0
  5 17  4  0  0  0
 22  6  1  0  0  0
  6 23  1  0  0  0
 14  8  4  0  0  0
 17  8  4  0  0  0
  9 11  1  0  0  0
 12 10  4  0  0  0
 18 10  4  0  0  0
 11 13  1  0  0  0
 19 12  4  0  0  0
 15 14  4  0  0  0
 16 15  4  0  0  0
 18 16  1  0  0  0
 28 18  4  0  0  0
 20 19  4  0  0  0
 19 28  4  0  0  0
 21 20  4  0  0  0
 21 22  4  0  0  0
 22 27  4  0  0  0
 23 24  1  0  0  0
 23 25  1  0  0  0
 23 26  1  0  0  0
 25 26  2  0  0  0
 27 28  4  0  0  0
  1 29  1  0  0  0
  1 30  1  0  0  0
  1 31  1  0  0  0
  4 32  1  0  0  0
  7 33  1  0  0  0
  7 34  1  0  0  0
  9 35  1  0  0  0
  9 36  1  0  0  0
 11 37  1  0  0  0
 13 38  1  0  0  0
 13 39  1  0  0  0
 13 40  1  0  0  0
 15 41  1  0  0  0
 17 42  1  0  0  0
 20 43  1  0  0  0
 21 44  1  0  0  0
 24 45  1  0  0  0
 24 46  1  0  0  0
 24 47  1  0  0  0
 25 48  1  0  0  0
 26 49  1  0  0  0
 27 50  1  0  0  0
M  END
$$$$
