5ih9_ligand
  -I-interpret- 

 66 70  0  0  0  0  0  0  0  0999 V2000
   -6.9620   -7.6010    5.2340 C   0  0  0  0  0
   -6.3180   -9.8300    5.4020 C   0  0  0  0  0
   -5.6190   -9.8010    4.1660 C   0  0  0  0  0
   -4.9260  -10.8770    3.6280 O   0  0  0  0  0
   -2.2590   -9.0320   -3.0950 C   0  0  0  0  0
   -1.5800  -10.2780   -2.9760 C   0  0  0  0  0
   -1.6690  -10.9800   -1.7370 C   0  0  0  0  0
   -2.3970  -10.4010   -0.6710 C   0  0  0  0  0
    0.1540  -11.8250   -3.9960 C   0  0  0  0  0
    0.3550  -12.5380   -5.3630 C   0  0  0  0  0
   -0.3180  -10.5130   -6.5380 C   0  0  0  0  0
   -0.6070   -9.8100   -5.1990 C   0  0  0  0  0
    0.8660  -12.2140   -7.6640 C   0  0  0  0  0
   -3.1110  -14.0660    4.4870 C   0  0  0  0  0
   -1.9320  -14.8570    3.8660 C   0  0  0  0  0
   -1.0130  -12.7950    2.8280 C   0  0  0  0  0
   -2.1170  -11.9400    3.4990 C   0  0  0  0  0
   -3.4190  -12.7580    3.7000 C   0  0  0  0  0
   -4.5120  -11.9810    4.4490 C   0  0  0  0  0
   -6.9320   -8.7500    5.9340 N   0  0  0  0  0
   -5.6610   -8.5830    3.4230 C   0  0  0  0  0
   -6.3150   -7.4580    4.0070 C   0  0  0  0  0
   -4.3450   -9.3200    1.3360 C   0  0  0  0  0
   -4.9680   -8.3900    2.1380 C   0  0  0  0  0
   -4.8480   -7.1550    1.4350 C   0  0  0  0  0
   -4.1680   -7.3220    0.3090 N   0  0  0  0  0
   -3.8200   -8.6320    0.2680 N   0  0  0  0  0
   -3.0730   -9.1590   -0.8130 C   0  0  0  0  0
   -2.9870   -8.4590   -2.0350 C   0  0  0  0  0
   -0.8670  -10.7670   -4.1070 N   0  0  0  0  0
    0.7240  -11.5370   -6.3850 N   0  3  0  0  0
   -0.7500  -14.0140    3.6120 N   0  3  0  0  0
   -7.5115   -6.7520    5.6406 H   0  0  0  0  0
   -6.3615  -10.7715    5.9495 H   0  0  0  0  0
   -2.2132   -8.5003   -4.0454 H   0  0  0  0  0
   -1.1833  -11.9480   -1.6136 H   0  0  0  0  0
   -2.4406  -10.9218    0.2855 H   0  0  0  0  0
    1.0982  -11.3737   -3.6911 H   0  0  0  0  0
   -0.1763  -12.5585   -3.2605 H   0  0  0  0  0
   -0.5702  -13.0346   -5.6554 H   0  0  0  0  0
    1.1488  -13.2797   -5.2749 H   0  0  0  0  0
    0.0280   -9.7683   -7.2548 H   0  0  0  0  0
   -1.2326  -10.9955   -6.8826 H   0  0  0  0  0
   -1.4968   -9.1935   -5.3266 H   0  0  0  0  0
    0.2704   -9.2216   -4.9304 H   0  0  0  0  0
    1.6447  -12.9728   -7.5875 H   0  0  0  0  0
   -0.0792  -12.6871   -7.9301 H   0  0  0  0  0
    1.1385  -11.4878   -8.4298 H   0  0  0  0  0
   -2.8374  -13.7928    5.5061 H   0  0  0  0  0
   -3.9983  -14.6983    4.4555 H   0  0  0  0  0
   -2.2667  -15.2596    2.9100 H   0  0  0  0  0
   -1.6421  -15.6343    4.5731 H   0  0  0  0  0
   -0.0968  -12.2071    2.7727 H   0  0  0  0  0
   -1.3471  -13.0824    1.8311 H   0  0  0  0  0
   -2.3376  -11.0897    2.8537 H   0  0  0  0  0
   -1.7580  -11.6138    4.4751 H   0  0  0  0  0
   -3.7957  -12.9816    2.7019 H   0  0  0  0  0
   -5.3609  -12.6336    4.6527 H   0  0  0  0  0
   -4.1246  -11.6145    5.3997 H   0  0  0  0  0
   -6.3091   -6.4941    3.4982 H   0  0  0  0  0
   -4.2806  -10.3935    1.5136 H   0  0  0  0  0
   -5.2587   -6.2048    1.7763 H   0  0  0  0  0
   -3.4754   -7.4921   -2.1561 H   0  0  0  0  0
    1.5914  -11.0879   -6.0910 H   0  0  0  0  0
   -0.0965  -14.5784    3.0691 H   0  0  0  0  0
   -0.4034  -13.7103    4.5220 H   0  0  0  0  0
  1 20  4  0  0  0
 22  1  4  0  0  0
  3  2  4  0  0  0
  2 20  4  0  0  0
  3  4  1  0  0  0
 21  3  4  0  0  0
  4 19  1  0  0  0
  6  5  4  0  0  0
  5 29  4  0  0  0
  7  6  4  0  0  0
  6 30  1  0  0  0
  8  7  4  0  0  0
 28  8  4  0  0  0
  9 10  1  0  0  0
 30  9  1  0  0  0
 10 31  1  0  0  0
 12 11  1  0  0  0
 11 31  1  0  0  0
 30 12  1  0  0  0
 31 13  1  0  0  0
 14 15  1  0  0  0
 18 14  1  0  0  0
 15 32  1  0  0  0
 17 16  1  0  0  0
 16 32  1  0  0  0
 18 17  1  0  0  0
 19 18  1  0  0  0
 21 22  4  0  0  0
 24 21  1  0  0  0
 23 24  4  0  0  0
 27 23  4  0  0  0
 25 24  4  0  0  0
 26 25  4  0  0  0
 27 26  4  0  0  0
 27 28  1  0  0  0
 28 29  4  0  0  0
  1 33  1  0  0  0
  2 34  1  0  0  0
  5 35  1  0  0  0
  7 36  1  0  0  0
  8 37  1  0  0  0
  9 38  1  0  0  0
  9 39  1  0  0  0
 10 40  1  0  0  0
 10 41  1  0  0  0
 11 42  1  0  0  0
 11 43  1  0  0  0
 12 44  1  0  0  0
 12 45  1  0  0  0
 13 46  1  0  0  0
 13 47  1  0  0  0
 13 48  1  0  0  0
 14 49  1  0  0  0
 14 50  1  0  0  0
 15 51  1  0  0  0
 15 52  1  0  0  0
 16 53  1  0  0  0
 16 54  1  0  0  0
 17 55  1  0  0  0
 17 56  1  0  0  0
 18 57  1  0  0  0
 19 58  1  0  0  0
 19 59  1  0  0  0
 22 60  1  0  0  0
 23 61  1  0  0  0
 25 62  1  0  0  0
 29 63  1  0  0  0
 31 64  1  0  0  0
 32 65  1  0  0  0
 32 66  1  0  0  0
M  END
$$$$
