4dkt_ligand
  -I-interpret- 

 42 41  0  0  0  0  0  0  0  0999 V2000
  -25.4890   17.8900  -24.4720 N   0  3  0  0  0
  -25.8420   18.2610  -23.1150 C   0  0  0  0  0
  -25.2240   17.3340  -22.1110 C   0  0  0  0  0
  -24.8870   17.7470  -21.0130 O   0  0  0  0  0
  -27.3570   18.2520  -22.9490 C   0  0  0  0  0
  -27.7620   19.3150  -21.9560 C   0  0  0  0  0
  -27.0800   20.3610  -21.8910 O   0  0  0  0  0
  -28.7630   19.1090  -21.2370 O   0  0  0  0  0
  -25.0710   16.0680  -22.4860 N   0  0  0  0  0
  -24.4610   15.0860  -21.6110 C   0  0  0  0  0
  -22.9960   15.3480  -21.4240 C   0  0  0  0  0
  -22.5300   15.3950  -20.2970 O   0  0  0  0  0
  -24.6580   13.6860  -22.1790 C   0  0  0  0  0
  -23.8000   12.6690  -21.4370 C   0  0  0  0  0
  -24.6560   11.5420  -20.8710 C   0  0  0  0  0
  -23.8590   10.3880  -20.5020 N   0  0  0  0  0
  -24.1640    9.1670  -20.9320 C   0  0  0  0  0
  -25.3940    8.9810  -21.7690 C   0  0  0  0  0
  -23.4550    8.1610  -20.6610 N   0  0  0  0  0
  -22.1750   15.5370  -22.5670 N   0  0  0  0  0
  -24.4740   17.8990  -24.5726 H   0  0  0  0  0
  -25.8432   16.9543  -24.6704 H   0  0  0  0  0
  -25.9024   18.5567  -25.1239 H   0  0  0  0  0
  -25.4558   19.2644  -22.9357 H   0  0  0  0  0
  -27.6765   17.2753  -22.5856 H   0  0  0  0  0
  -27.8287   18.4549  -23.9105 H   0  0  0  0  0
  -26.3619   20.3135  -22.5264 H   0  0  0  0  0
  -25.3903   15.7806  -23.4111 H   0  0  0  0  0
  -24.9480   15.1623  -20.6389 H   0  0  0  0  0
  -24.3650   13.6905  -23.2289 H   0  0  0  0  0
  -25.7058   13.4075  -22.0663 H   0  0  0  0  0
  -23.2950   13.1725  -20.6127 H   0  0  0  0  0
  -23.0790   12.2438  -22.1352 H   0  0  0  0  0
  -25.3662   11.2346  -21.6386 H   0  0  0  0  0
  -25.1570   11.9108  -19.9760 H   0  0  0  0  0
  -23.0462   10.5156  -19.8991 H   0  0  0  0  0
  -25.1130    8.5724  -22.7397 H   0  0  0  0  0
  -26.0733    8.2925  -21.2663 H   0  0  0  0  0
  -25.8867    9.9434  -21.9073 H   0  0  0  0  0
  -22.6143    8.2676  -20.0934 H   0  0  0  0  0
  -21.1771   15.7157  -22.4543 H   0  0  0  0  0
  -22.5831   15.4940  -23.5008 H   0  0  0  0  0
  1  2  1  0  0  0
  2  3  1  0  0  0
  2  5  1  0  0  0
  3  4  2  0  0  0
  3  9  1  0  0  0
  5  6  1  0  0  0
  6  7  1  0  0  0
  6  8  2  0  0  0
  9 10  1  0  0  0
 10 11  1  0  0  0
 10 13  1  0  0  0
 11 12  2  0  0  0
 11 20  1  0  0  0
 13 14  1  0  0  0
 14 15  1  0  0  0
 15 16  1  0  0  0
 16 17  1  0  0  0
 17 18  1  0  0  0
 17 19  2  0  0  0
  1 21  1  0  0  0
  1 22  1  0  0  0
  1 23  1  0  0  0
  2 24  1  0  0  0
  5 25  1  0  0  0
  5 26  1  0  0  0
  7 27  1  0  0  0
  9 28  1  0  0  0
 10 29  1  0  0  0
 13 30  1  0  0  0
 13 31  1  0  0  0
 14 32  1  0  0  0
 14 33  1  0  0  0
 15 34  1  0  0  0
 15 35  1  0  0  0
 16 36  1  0  0  0
 18 37  1  0  0  0
 18 38  1  0  0  0
 18 39  1  0  0  0
 19 40  1  0  0  0
 20 41  1  0  0  0
 20 42  1  0  0  0
M  END
$$$$
