### 
### Created by X-TOOL on Mon Sep 10 21:13:10 2018
### 

@<TRIPOS>MOLECULE
4dkt_ligand
   41    40     1     0     0
SMALL
GAST_HUCK


@<TRIPOS>ATOM
      1 N         -25.4890   17.8900  -24.4720 N.4       1 ASP         0.2391
      2 CA        -25.8420   18.2610  -23.1150 C.3       1 ASP         0.0764
      3 C         -25.2240   17.3340  -22.1110 C.2       1 ASP         0.2284
      4 O         -24.8870   17.7470  -21.0130 O.2       1 ASP        -0.3906
      5 CB        -27.3570   18.2520  -22.9490 C.3       1 ASP         0.0607
      6 CG        -27.7620   19.3150  -21.9560 C.2       1 ASP         0.0425
      7 OD1       -27.0800   20.3610  -21.8910 O.co2     1 ASP        -0.5686
      8 OD2       -28.7630   19.1090  -21.2370 O.co2     1 ASP        -0.5686
      9 N10       -25.0710   16.0680  -22.4860 N.am      1 FIO        -0.2609
     10 C11       -24.4610   15.0860  -21.6110 C.3       1 FIO         0.1308
     11 C12       -22.9960   15.3480  -21.4240 C.2       1 FIO         0.1992
     12 O14       -22.5300   15.3950  -20.2970 O.2       1 FIO        -0.3947
     13 C15       -24.6580   13.6860  -22.1790 C.3       1 FIO        -0.0105
     14 C16       -23.8000   12.6690  -21.4370 C.3       1 FIO        -0.0275
     15 C17       -24.6560   11.5420  -20.8710 C.3       1 FIO         0.0351
     16 N18       -23.8590   10.3880  -20.5020 N.pl3     1 FIO        -0.2896
     17 C19       -24.1640    9.1670  -20.9320 C.2       1 FIO         0.0851
     18 C20       -25.3940    8.9810  -21.7690 C.3       1 FIO         0.0183
     19 N21       -23.4550    8.1610  -20.6610 N.2       1 FIO        -0.3925
     20 N         -22.1750   15.5370  -22.5670 N.am      1 NH2        -0.2990
     21 H         -24.4740   17.8990  -24.5726 H         1 ASP         0.2016
     22 H         -25.8432   16.9543  -24.6704 H         1 ASP         0.2016
     23 H         -25.9024   18.5567  -25.1239 H         1 ASP         0.2016
     24 H         -25.4558   19.2644  -22.9357 H         1 ASP         0.1117
     25 H         -27.6765   17.2753  -22.5856 H         1 ASP         0.0512
     26 H         -27.8287   18.4549  -23.9105 H         1 ASP         0.0512
     27 H         -25.3903   15.7806  -23.4111 H         1 FIO         0.1885
     28 H         -24.9480   15.1623  -20.6389 H         1 FIO         0.0800
     29 H         -24.3650   13.6905  -23.2289 H         1 FIO         0.0313
     30 H         -25.7058   13.4075  -22.0663 H         1 FIO         0.0313
     31 H         -23.2950   13.1725  -20.6127 H         1 FIO         0.0288
     32 H         -23.0790   12.2438  -22.1352 H         1 FIO         0.0288
     33 H         -25.3662   11.2346  -21.6386 H         1 FIO         0.0533
     34 H         -25.1570   11.9108  -19.9760 H         1 FIO         0.0533
     35 H         -23.0462   10.5156  -19.8991 H         1 FIO         0.1931
     36 H         -25.1130    8.5724  -22.7397 H         1 FIO         0.0525
     37 H         -26.0733    8.2925  -21.2663 H         1 FIO         0.0525
     38 H         -25.8867    9.9434  -21.9073 H         1 FIO         0.0525
     39 H         -22.6143    8.2676  -20.0934 H         1 FIO         0.0591
     40 H         -21.1771   15.7157  -22.4543 H         1 NH2         0.1815
     41 H         -22.5831   15.4940  -23.5008 H         1 NH2         0.1815
@<TRIPOS>BOND
     1    1    2 1  
     2    2    3 1  
     3    2    5 1  
     4    3    4 2  
     5    3    9 am 
     6    5    6 1  
     7    6    7 ar 
     8    6    8 ar 
     9    9   10 1  
    10   10   11 1  
    11   10   13 1  
    12   11   12 2  
    13   11   20 am 
    14   13   14 1  
    15   14   15 1  
    16   15   16 1  
    17   16   17 1  
    18   17   18 1  
    19   17   19 2  
    20    1   21 1  
    21    1   22 1  
    22    1   23 1  
    23    2   24 1  
    24    5   25 1  
    25    5   26 1  
    26    9   27 1  
    27   10   28 1  
    28   13   29 1  
    29   13   30 1  
    30   14   31 1  
    31   14   32 1  
    32   15   33 1  
    33   15   34 1  
    34   16   35 1  
    35   18   36 1  
    36   18   37 1  
    37   18   38 1  
    38   19   39 1  
    39   20   40 1  
    40   20   41 1  
@<TRIPOS>SUBSTRUCTURE
     1 ASP         1

