5jap_ligand
  -I-interpret- 

 40 42  0  0  0  0  0  0  0  0999 V2000
   14.8530   10.1020   -4.1450 C   0  0  0  0  0
   15.5800   10.4370   -5.4210 C   0  0  0  0  0
   15.4460   11.7210   -5.9420 C   0  0  0  0  0
   16.8730   11.1740   -7.7680 C   0  0  0  0  0
   17.0300    9.8960   -7.2730 C   0  0  0  0  0
   16.3850    9.5020   -6.1010 C   0  0  0  0  0
   16.6260    8.1050   -5.6300 C   0  0  0  0  0
   18.1460    6.5870   -4.5060 C   0  0  0  0  0
   17.2500    5.5480   -4.7130 C   0  0  0  0  0
   16.0640    5.7700   -5.3870 C   0  0  0  0  0
   15.7370    7.0380   -5.8610 C   0  0  0  0  0
   14.4300    7.2360   -6.5850 C   0  0  0  0  0
   19.4270    6.3390   -3.7680 C   0  0  0  0  0
   22.3030    7.3510   -5.7080 C   0  0  0  0  0
   21.8350    6.6740   -3.5460 C   0  0  0  0  0
   16.0860   12.0810   -7.1070 C   0  0  0  0  0
   17.8170    7.8570   -4.9590 C   0  0  0  0  0
   19.3820    5.8280   -2.6520 O   0  0  0  0  0
   20.5960    6.6770   -4.3330 N   0  0  0  0  0
   20.8200    7.2230   -5.6780 C   0  0  0  0  0
   22.8500    7.0270   -4.5770 C   0  0  0  0  0
   15.1944   10.7640   -3.3492 H   0  0  0  0  0
   13.7812   10.2333   -4.2938 H   0  0  0  0  0
   15.0591    9.0671   -3.8719 H   0  0  0  0  0
   14.8264   12.4509   -5.4210 H   0  0  0  0  0
   17.3774   11.4641   -8.6897 H   0  0  0  0  0
   17.6650    9.1865   -7.8036 H   0  0  0  0  0
   17.4830    4.5501   -4.3416 H   0  0  0  0  0
   15.3751    4.9412   -5.5498 H   0  0  0  0  0
   13.8177    7.9525   -6.0374 H   0  0  0  0  0
   14.6256    7.6151   -7.5881 H   0  0  0  0  0
   13.9049    6.2831   -6.6513 H   0  0  0  0  0
   22.8658    7.6798   -6.5817 H   0  0  0  0  0
   22.0321    5.7234   -3.0505 H   0  0  0  0  0
   21.8150    7.3640   -2.7025 H   0  0  0  0  0
   15.9665   13.0890   -7.5042 H   0  0  0  0  0
   18.5100    8.6800   -4.7840 H   0  0  0  0  0
   20.4217    6.5942   -6.4743 H   0  0  0  0  0
   20.2988    8.1632   -5.8579 H   0  0  0  0  0
   23.9258    7.0146   -4.4020 H   0  0  0  0  0
  2  1  1  0  0  0
  2  3  4  0  0  0
  6  2  4  0  0  0
  3 16  4  0  0  0
  5  4  4  0  0  0
  4 16  4  0  0  0
  6  5  4  0  0  0
  7  6  1  0  0  0
  7 11  4  0  0  0
 17  7  4  0  0  0
  8  9  4  0  0  0
 13  8  1  0  0  0
  8 17  4  0  0  0
  9 10  4  0  0  0
 10 11  4  0  0  0
 11 12  1  0  0  0
 13 18  2  0  0  0
 19 13  1  0  0  0
 14 20  1  0  0  0
 21 14  2  0  0  0
 15 19  1  0  0  0
 15 21  1  0  0  0
 19 20  1  0  0  0
  1 22  1  0  0  0
  1 23  1  0  0  0
  1 24  1  0  0  0
  3 25  1  0  0  0
  4 26  1  0  0  0
  5 27  1  0  0  0
  9 28  1  0  0  0
 10 29  1  0  0  0
 12 30  1  0  0  0
 12 31  1  0  0  0
 12 32  1  0  0  0
 14 33  1  0  0  0
 15 34  1  0  0  0
 15 35  1  0  0  0
 16 36  1  0  0  0
 17 37  1  0  0  0
 20 38  1  0  0  0
 20 39  1  0  0  0
 21 40  1  0  0  0
M  END
$$$$
