3p4f_ligand
  -I-interpret- 

143143  0  0  0  0  0  0  0  0999 V2000
    1.5880  -22.8730    7.7760 N   0  3  0  0  0
    2.6180  -23.8200    7.3370 C   0  0  0  0  0
    3.5970  -23.1230    6.3710 C   0  0  0  0  0
    3.3190  -23.0220    5.1730 O   0  0  0  0  0
    1.9850  -25.0710    6.6880 C   0  0  0  0  0
    1.1560  -25.9330    7.6320 C   0  0  0  0  0
    0.0510  -26.7720    7.0070 C   0  0  0  0  0
   -0.2390  -26.6010    5.8000 O   0  0  0  0  0
   -0.5550  -27.5800    7.7470 O   0  0  0  0  0
    4.7360  -22.6350    6.9090 N   0  0  0  0  0
    5.7610  -21.9030    6.1520 C   0  0  0  0  0
    6.5330  -22.7300    5.1270 C   0  0  0  0  0
    7.0280  -23.8140    5.4370 O   0  0  0  0  0
    6.7150  -21.1310    7.0790 C   0  0  0  0  0
    6.0790  -19.9030    7.7220 C   0  0  0  0  0
    6.8940  -18.6210    7.6780 C   0  0  0  0  0
    6.3050  -17.5440    7.9270 O   0  0  0  0  0
    8.1130  -18.6860    7.3950 O   0  0  0  0  0
    6.6300  -22.1900    3.9030 N   0  0  0  0  0
    7.3130  -22.7550    2.7340 C   0  0  0  0  0
    8.6350  -21.9770    2.4880 C   0  0  0  0  0
    8.6400  -20.7500    2.5110 O   0  0  0  0  0
    6.3620  -22.6930    1.5040 C   0  0  0  0  0
    7.0000  -23.3000    0.2690 C   0  0  0  0  0
    5.0390  -23.3840    1.7950 C   0  0  0  0  0
    9.7460  -22.6880    2.2960 N   0  0  0  0  0
   11.0350  -22.0580    2.0030 C   0  0  0  0  0
   11.2960  -22.1930    0.4980 C   0  0  0  0  0
   11.6880  -23.2510    0.0000 O   0  0  0  0  0
   12.1880  -22.6500    2.8450 C   0  0  0  0  0
   13.4930  -21.8540    2.7890 C   0  0  0  0  0
   13.7860  -21.2430    1.7200 O   0  0  0  0  0
   14.2420  -21.8690    3.7930 O   0  0  0  0  0
   11.0680  -21.0920   -0.2050 N   0  0  0  0  0
   11.1550  -20.9640   -1.6460 C   0  0  0  0  0
   12.5610  -20.5870   -2.1860 C   0  0  0  0  0
   12.8320  -20.8030   -3.3630 O   0  0  0  0  0
    9.9980  -20.0120   -2.0530 C   0  0  0  0  0
   10.4440  -18.8210   -2.8920 C   0  0  0  0  0
    8.8550  -20.7750   -2.6900 C   0  0  0  0  0
   13.4670  -20.1060   -1.3070 N   0  0  0  0  0
   14.8110  -19.6190   -1.6620 C   0  0  0  0  0
   15.9910  -20.5160   -1.2760 C   0  0  0  0  0
   17.0360  -20.4810   -1.9570 O   0  0  0  0  0
   15.0430  -18.2530   -1.0000 C   0  0  0  0  0
   14.7560  -18.3540    0.4070 O   0  0  0  0  0
   14.2100  -17.1680   -1.6200 C   0  0  0  0  0
   15.8660  -21.2440   -0.1460 N   0  0  0  0  0
   16.9820  -22.0540    0.3370 C   0  0  0  0  0
   17.2890  -23.2680   -0.4840 C   0  0  0  0  0
   16.4450  -24.1610   -0.6710 O   0  0  0  0  0
   16.8550  -22.4200    1.8110 C   0  0  0  0  0
   16.5980  -21.2770    2.6090 O   0  0  0  0  0
   18.5390  -23.2820   -0.9580 N   0  0  0  0  0
   19.1440  -24.3560   -1.7100 C   0  0  0  0  0
   19.6950  -25.3570   -0.6800 C   0  0  0  0  0
   20.3000  -24.9450    0.3110 O   0  0  0  0  0
   20.2550  -23.7740   -2.6090 C   0  0  0  0  0
   20.9690  -24.8580   -3.4030 C   0  0  0  0  0
   19.6950  -22.7060   -3.5370 C   0  0  0  0  0
   19.4610  -26.6640   -0.9150 N   0  0  0  0  0
   19.9650  -27.7850   -0.1180 C   0  0  0  0  0
   19.8350  -29.1180   -0.8570 C   0  0  0  0  0
   20.7300  -29.9760   -0.6830 O   0  0  0  0  0
   19.3930  -27.8530    1.3110 C   0  0  0  0  0
   17.9000  -28.0400    1.4220 C   0  0  0  0  0
   17.3350  -29.3150    1.4210 C   0  0  0  0  0
   17.0620  -26.9570    1.6730 C   0  0  0  0  0
   15.9630  -29.5000    1.5820 C   0  0  0  0  0
   15.6900  -27.1300    1.8630 C   0  0  0  0  0
   15.1430  -28.4030    1.8010 C   0  0  0  0  0
   13.7880  -28.5720    1.9540 O   0  0  0  0  0
   18.8780  -29.2660   -1.6530 O   0  0  0  0  0
    2.0342  -22.0593    8.1993 H   0  0  0  0  0
    1.0337  -22.5785    6.9720 H   0  0  0  0  0
    0.9822  -23.3248    8.4610 H   0  0  0  0  0
    3.1759  -24.1569    8.2107 H   0  0  0  0  0
    2.8070  -25.6925    6.3328 H   0  0  0  0  0
    1.3095  -24.7154    5.9100 H   0  0  0  0  0
    0.6573  -25.2394    8.3090 H   0  0  0  0  0
    1.8531  -26.6423    8.0781 H   0  0  0  0  0
    0.3464  -25.9408    5.4218 H   0  0  0  0  0
    4.8949  -22.7843    7.9054 H   0  0  0  0  0
    5.1914  -21.1879    5.5585 H   0  0  0  0  0
    7.5526  -20.7861    6.4727 H   0  0  0  0  0
    7.0081  -21.8064    7.8827 H   0  0  0  0  0
    5.9510  -20.1450    8.7771 H   0  0  0  0  0
    5.1680  -19.7028    7.1581 H   0  0  0  0  0
    8.3563  -19.6019    7.2416 H   0  0  0  0  0
    6.1783  -21.2852    3.7701 H   0  0  0  0  0
    7.5680  -23.8007    2.9057 H   0  0  0  0  0
    6.1712  -21.6382    1.3063 H   0  0  0  0  0
    7.9112  -22.7532    0.0263 H   0  0  0  0  0
    7.2425  -24.3448    0.4631 H   0  0  0  0  0
    6.3032  -23.2366   -0.5668 H   0  0  0  0  0
    5.2231  -24.4300    2.0401 H   0  0  0  0  0
    4.5514  -22.8926    2.6369 H   0  0  0  0  0
    4.3976  -23.3229    0.9158 H   0  0  0  0  0
    9.6966  -23.7051    2.3552 H   0  0  0  0  0
   10.9930  -21.0045    2.2796 H   0  0  0  0  0
   12.4017  -23.6392    2.4400 H   0  0  0  0  0
   11.8575  -22.6456    3.8837 H   0  0  0  0  0
   13.0784  -21.3598    1.0818 H   0  0  0  0  0
   10.8067  -20.2561    0.3179 H   0  0  0  0  0
   11.0284  -21.9321   -2.1307 H   0  0  0  0  0
    9.6277  -19.5739   -1.1262 H   0  0  0  0  0
   11.1651  -18.2301   -2.3273 H   0  0  0  0  0
   10.9065  -19.1790   -3.8118 H   0  0  0  0  0
    9.5783  -18.2049   -3.1350 H   0  0  0  0  0
    9.2143  -21.2864   -3.5830 H   0  0  0  0  0
    8.4689  -21.5073   -1.9810 H   0  0  0  0  0
    8.0622  -20.0784   -2.9628 H   0  0  0  0  0
   13.2002  -20.0779   -0.3229 H   0  0  0  0  0
   14.8004  -19.5875   -2.7515 H   0  0  0  0  0
   16.0868  -17.9794   -1.1539 H   0  0  0  0  0
   14.9001  -17.5013    0.8239 H   0  0  0  0  0
   14.4613  -17.0778   -2.6768 H   0  0  0  0  0
   13.1542  -17.4182   -1.5163 H   0  0  0  0  0
   14.4121  -16.2233   -1.1153 H   0  0  0  0  0
   14.9881  -21.2285    0.3732 H   0  0  0  0  0
   17.8392  -21.3911    0.2191 H   0  0  0  0  0
   17.7941  -22.8660    2.1385 H   0  0  0  0  0
   16.0227  -23.1147    1.9241 H   0  0  0  0  0
   16.5237  -21.5406    3.5291 H   0  0  0  0  0
   19.1161  -22.4618   -0.7721 H   0  0  0  0  0
   18.4343  -24.8623   -2.3643 H   0  0  0  0  0
   20.9932  -23.3115   -1.9539 H   0  0  0  0  0
   21.4242  -25.5704   -2.7149 H   0  0  0  0  0
   20.2498  -25.3740   -4.0391 H   0  0  0  0  0
   21.7427  -24.4034   -4.0217 H   0  0  0  0  0
   18.9236  -23.1446   -4.1700 H   0  0  0  0  0
   19.2644  -21.8998   -2.9430 H   0  0  0  0  0
   20.4973  -22.3112   -4.1604 H   0  0  0  0  0
   18.8799  -26.8930   -1.7214 H   0  0  0  0  0
   21.0283  -27.5853    0.0145 H   0  0  0  0  0
   19.6148  -26.8915    1.7740 H   0  0  0  0  0
   19.8451  -28.7275    1.7788 H   0  0  0  0  0
   17.9795  -30.1845    1.2917 H   0  0  0  0  0
   17.4857  -25.9539    1.7221 H   0  0  0  0  0
   15.5364  -30.5020    1.5360 H   0  0  0  0  0
   15.0515  -26.2686    2.0592 H   0  0  0  0  0
   13.3741  -27.7176    2.0962 H   0  0  0  0  0
   18.3165  -28.4878   -1.6248 H   0  0  0  0  0
  1  2  1  0  0  0
  2  3  1  0  0  0
  2  5  1  0  0  0
  3  4  2  0  0  0
  3 10  1  0  0  0
  5  6  1  0  0  0
  6  7  1  0  0  0
  7  8  1  0  0  0
  7  9  2  0  0  0
 10 11  1  0  0  0
 11 12  1  0  0  0
 11 14  1  0  0  0
 12 13  2  0  0  0
 12 19  1  0  0  0
 14 15  1  0  0  0
 15 16  1  0  0  0
 16 17  2  0  0  0
 16 18  1  0  0  0
 19 20  1  0  0  0
 20 21  1  0  0  0
 20 23  1  0  0  0
 21 22  2  0  0  0
 21 26  1  0  0  0
 23 24  1  0  0  0
 23 25  1  0  0  0
 26 27  1  0  0  0
 27 28  1  0  0  0
 27 30  1  0  0  0
 28 29  2  0  0  0
 28 34  1  0  0  0
 30 31  1  0  0  0
 31 32  1  0  0  0
 31 33  2  0  0  0
 34 35  1  0  0  0
 35 36  1  0  0  0
 35 38  1  0  0  0
 36 37  2  0  0  0
 36 41  1  0  0  0
 38 39  1  0  0  0
 38 40  1  0  0  0
 41 42  1  0  0  0
 42 43  1  0  0  0
 42 45  1  0  0  0
 43 44  2  0  0  0
 43 48  1  0  0  0
 45 46  1  0  0  0
 45 47  1  0  0  0
 48 49  1  0  0  0
 49 50  1  0  0  0
 49 52  1  0  0  0
 50 51  2  0  0  0
 50 54  1  0  0  0
 52 53  1  0  0  0
 54 55  1  0  0  0
 55 56  1  0  0  0
 55 58  1  0  0  0
 56 57  2  0  0  0
 56 61  1  0  0  0
 58 59  1  0  0  0
 58 60  1  0  0  0
 61 62  1  0  0  0
 62 63  1  0  0  0
 62 65  1  0  0  0
 63 64  2  0  0  0
 63 73  1  0  0  0
 65 66  1  0  0  0
 66 67  4  0  0  0
 66 68  4  0  0  0
 67 69  4  0  0  0
 68 70  4  0  0  0
 69 71  4  0  0  0
 70 71  4  0  0  0
 71 72  1  0  0  0
  1 74  1  0  0  0
  1 75  1  0  0  0
  1 76  1  0  0  0
  2 77  1  0  0  0
  5 78  1  0  0  0
  5 79  1  0  0  0
  6 80  1  0  0  0
  6 81  1  0  0  0
  8 82  1  0  0  0
 10 83  1  0  0  0
 11 84  1  0  0  0
 14 85  1  0  0  0
 14 86  1  0  0  0
 15 87  1  0  0  0
 15 88  1  0  0  0
 18 89  1  0  0  0
 19 90  1  0  0  0
 20 91  1  0  0  0
 23 92  1  0  0  0
 24 93  1  0  0  0
 24 94  1  0  0  0
 24 95  1  0  0  0
 25 96  1  0  0  0
 25 97  1  0  0  0
 25 98  1  0  0  0
 26 99  1  0  0  0
 27100  1  0  0  0
 30101  1  0  0  0
 30102  1  0  0  0
 32103  1  0  0  0
 34104  1  0  0  0
 35105  1  0  0  0
 38106  1  0  0  0
 39107  1  0  0  0
 39108  1  0  0  0
 39109  1  0  0  0
 40110  1  0  0  0
 40111  1  0  0  0
 40112  1  0  0  0
 41113  1  0  0  0
 42114  1  0  0  0
 45115  1  0  0  0
 46116  1  0  0  0
 47117  1  0  0  0
 47118  1  0  0  0
 47119  1  0  0  0
 48120  1  0  0  0
 49121  1  0  0  0
 52122  1  0  0  0
 52123  1  0  0  0
 53124  1  0  0  0
 54125  1  0  0  0
 55126  1  0  0  0
 58127  1  0  0  0
 59128  1  0  0  0
 59129  1  0  0  0
 59130  1  0  0  0
 60131  1  0  0  0
 60132  1  0  0  0
 60133  1  0  0  0
 61134  1  0  0  0
 62135  1  0  0  0
 65136  1  0  0  0
 65137  1  0  0  0
 67138  1  0  0  0
 68139  1  0  0  0
 69140  1  0  0  0
 70141  1  0  0  0
 72142  1  0  0  0
 73143  1  0  0  0
M  END
$$$$
