### 
### Created by X-TOOL on Mon Sep 10 21:13:03 2018
### 

@<TRIPOS>MOLECULE
3p4f_ligand
  139   139     1     0     0
SMALL
GAST_HUCK


@<TRIPOS>ATOM
      1 N           1.5880  -22.8730    7.7760 N.4       1 GLU         0.2380
      2 CA          2.6180  -23.8200    7.3370 C.3       1 GLU         0.0665
      3 C           3.5970  -23.1230    6.3710 C.2       1 GLU         0.2268
      4 O           3.3190  -23.0220    5.1730 O.2       1 GLU        -0.3907
      5 CB          1.9850  -25.0710    6.6880 C.3       1 GLU         0.0194
      6 CG          1.1560  -25.9330    7.6320 C.3       1 GLU         0.0075
      7 CD          0.0510  -26.7720    7.0070 C.2       1 GLU         0.0351
      8 OE1        -0.2390  -26.6010    5.8000 O.co2     1 GLU        -0.5690
      9 OE2        -0.5550  -27.5800    7.7470 O.co2     1 GLU        -0.5690
     10 N           4.7360  -22.6350    6.9090 N.am      1 GLU        -0.2609
     11 CA          5.7610  -21.9030    6.1520 C.3       1 GLU         0.1326
     12 C           6.5330  -22.7300    5.1270 C.2       1 GLU         0.2040
     13 O           7.0280  -23.8140    5.4370 O.2       1 GLU        -0.3944
     14 CB          6.7150  -21.1310    7.0790 C.3       1 GLU        -0.0008
     15 CG          6.0790  -19.9030    7.7220 C.3       1 GLU         0.0044
     16 CD          6.8940  -18.6210    7.6780 C.2       1 GLU         0.0350
     17 OE1         6.3050  -17.5440    7.9270 O.co2     1 GLU        -0.5690
     18 OE2         8.1130  -18.6860    7.3950 O.co2     1 GLU        -0.5690
     19 N           6.6300  -22.1900    3.9030 N.am      1 VAL        -0.2635
     20 CA          7.3130  -22.7550    2.7340 C.3       1 VAL         0.1333
     21 C           8.6350  -21.9770    2.4880 C.2       1 VAL         0.2042
     22 O           8.6400  -20.7500    2.5110 O.2       1 VAL        -0.3944
     23 CB          6.3620  -22.6930    1.5040 C.3       1 VAL        -0.0063
     24 CG1         7.0000  -23.3000    0.2690 C.3       1 VAL        -0.0584
     25 CG2         5.0390  -23.3840    1.7950 C.3       1 VAL        -0.0584
     26 N           9.7460  -22.6880    2.2960 N.am      1 ASP        -0.2622
     27 CA         11.0350  -22.0580    2.0030 C.3       1 ASP         0.1423
     28 C          11.2960  -22.1930    0.4980 C.2       1 ASP         0.2056
     29 O          11.6880  -23.2510    0.0000 O.2       1 ASP        -0.3943
     30 CB         12.1880  -22.6500    2.8450 C.3       1 ASP         0.0406
     31 CG         13.4930  -21.8540    2.7890 C.2       1 ASP         0.0393
     32 OD1        13.7860  -21.2430    1.7200 O.co2     1 ASP        -0.5688
     33 OD2        14.2420  -21.8690    3.7930 O.co2     1 ASP        -0.5688
     34 N          11.0680  -21.0920   -0.2050 N.am      1 VAL        -0.2634
     35 CA         11.1550  -20.9640   -1.6460 C.3       1 VAL         0.1333
     36 C          12.5610  -20.5870   -2.1860 C.2       1 VAL         0.2042
     37 O          12.8320  -20.8030   -3.3630 O.2       1 VAL        -0.3944
     38 CB          9.9980  -20.0120   -2.0530 C.3       1 VAL        -0.0063
     39 CG1        10.4440  -18.8210   -2.8920 C.3       1 VAL        -0.0584
     40 CG2         8.8550  -20.7750   -2.6900 C.3       1 VAL        -0.0584
     41 N          13.4670  -20.1060   -1.3070 N.am      1 THR        -0.2613
     42 CA         14.8110  -19.6190   -1.6620 C.3       1 THR         0.1565
     43 C          15.9910  -20.5160   -1.2760 C.2       1 THR         0.2065
     44 O          17.0360  -20.4810   -1.9570 O.2       1 THR        -0.3943
     45 CB         15.0430  -18.2530   -1.0000 C.3       1 THR         0.0924
     46 OG1        14.7560  -18.3540    0.4070 O.3       1 THR        -0.3874
     47 CG2        14.2100  -17.1680   -1.6200 C.3       1 THR        -0.0346
     48 N          15.8660  -21.2440   -0.1460 N.am      1 SER        -0.2615
     49 CA         16.9820  -22.0540    0.3370 C.3       1 SER         0.1539
     50 C          17.2890  -23.2680   -0.4840 C.2       1 SER         0.2062
     51 O          16.4450  -24.1610   -0.6710 O.2       1 SER        -0.3943
     52 CB         16.8550  -22.4200    1.8110 C.3       1 SER         0.0843
     53 OG         16.5980  -21.2770    2.6090 O.3       1 SER        -0.3903
     54 N          18.5390  -23.2820   -0.9580 N.am      1 VAL        -0.2634
     55 CA         19.1440  -24.3560   -1.7100 C.3       1 VAL         0.1332
     56 C          19.6950  -25.3570   -0.6800 C.2       1 VAL         0.2037
     57 O          20.3000  -24.9450    0.3110 O.2       1 VAL        -0.3944
     58 CB         20.2550  -23.7740   -2.6090 C.3       1 VAL        -0.0063
     59 CG1        20.9690  -24.8580   -3.4030 C.3       1 VAL        -0.0584
     60 CG2        19.6950  -22.7060   -3.5370 C.3       1 VAL        -0.0584
     61 N          19.4610  -26.6640   -0.9150 N.am      1 TYR        -0.2679
     62 CA         19.9650  -27.7850   -0.1180 C.3       1 TYR         0.1025
     63 C          19.8350  -29.1180   -0.8570 C.2       1 TYR         0.0619
     64 O          20.7300  -29.9760   -0.6830 O.co2     1 TYR        -0.5665
     65 CB         19.3930  -27.8530    1.3110 C.3       1 TYR         0.0108
     66 CG         17.9000  -28.0400    1.4220 C.ar      1 TYR        -0.0499
     67 CD1        17.3350  -29.3150    1.4210 C.ar      1 TYR        -0.0686
     68 CD2        17.0620  -26.9570    1.6730 C.ar      1 TYR        -0.0686
     69 CE1        15.9630  -29.5000    1.5820 C.ar      1 TYR        -0.0398
     70 CE2        15.6900  -27.1300    1.8630 C.ar      1 TYR        -0.0398
     71 CZ         15.1430  -28.4030    1.8010 C.ar      1 TYR         0.0805
     72 OH         13.7880  -28.5720    1.9540 O.3       1 TYR        -0.3376
     73 OXT        18.8780  -29.2660   -1.6530 O.co2     1 TYR        -0.5665
     74 H           2.0342  -22.0593    8.1993 H         1 GLU         0.2015
     75 H           1.0337  -22.5785    6.9720 H         1 GLU         0.2015
     76 H           0.9822  -23.3248    8.4610 H         1 GLU         0.2015
     77 H           3.1759  -24.1569    8.2107 H         1 GLU         0.1099
     78 H           2.8070  -25.6925    6.3328 H         1 GLU         0.0363
     79 H           1.3095  -24.7154    5.9100 H         1 GLU         0.0363
     80 H           0.6573  -25.2394    8.3090 H         1 GLU         0.0434
     81 H           1.8531  -26.6423    8.0781 H         1 GLU         0.0434
     82 H           4.8949  -22.7843    7.9054 H         1 GLU         0.1885
     83 H           5.1914  -21.1879    5.5585 H         1 GLU         0.0801
     84 H           7.5526  -20.7861    6.4727 H         1 GLU         0.0330
     85 H           7.0081  -21.8064    7.8827 H         1 GLU         0.0330
     86 H           5.9510  -20.1450    8.7771 H         1 GLU         0.0433
     87 H           5.1680  -19.7028    7.1581 H         1 GLU         0.0433
     88 H           6.1783  -21.2852    3.7701 H         1 VAL         0.1883
     89 H           7.5680  -23.8007    2.9057 H         1 VAL         0.0802
     90 H           6.1712  -21.6382    1.3063 H         1 VAL         0.0343
     91 H           7.9112  -22.7532    0.0263 H         1 VAL         0.0234
     92 H           7.2425  -24.3448    0.4631 H         1 VAL         0.0234
     93 H           6.3032  -23.2366   -0.5668 H         1 VAL         0.0234
     94 H           5.2231  -24.4300    2.0401 H         1 VAL         0.0234
     95 H           4.5514  -22.8926    2.6369 H         1 VAL         0.0234
     96 H           4.3976  -23.3229    0.9158 H         1 VAL         0.0234
     97 H           9.6966  -23.7051    2.3552 H         1 ASP         0.1884
     98 H          10.9930  -21.0045    2.2796 H         1 ASP         0.0819
     99 H          12.4017  -23.6392    2.4400 H         1 ASP         0.0478
    100 H          11.8575  -22.6456    3.8837 H         1 ASP         0.0478
    101 H          10.8067  -20.2561    0.3179 H         1 VAL         0.1883
    102 H          11.0284  -21.9321   -2.1307 H         1 VAL         0.0802
    103 H           9.6277  -19.5739   -1.1262 H         1 VAL         0.0343
    104 H          11.1651  -18.2301   -2.3273 H         1 VAL         0.0234
    105 H          10.9065  -19.1790   -3.8118 H         1 VAL         0.0234
    106 H           9.5783  -18.2049   -3.1350 H         1 VAL         0.0234
    107 H           9.2143  -21.2864   -3.5830 H         1 VAL         0.0234
    108 H           8.4689  -21.5073   -1.9810 H         1 VAL         0.0234
    109 H           8.0622  -20.0784   -2.9628 H         1 VAL         0.0234
    110 H          13.2002  -20.0779   -0.3229 H         1 THR         0.1884
    111 H          14.8004  -19.5875   -2.7515 H         1 THR         0.0826
    112 H          16.0868  -17.9794   -1.1539 H         1 THR         0.0639
    113 H          15.3357  -19.0079    0.8046 H         1 THR         0.2101
    114 H          14.4613  -17.0778   -2.6768 H         1 THR         0.0257
    115 H          13.1542  -17.4182   -1.5163 H         1 THR         0.0257
    116 H          14.4121  -16.2233   -1.1153 H         1 THR         0.0257
    117 H          14.9881  -21.2285    0.3732 H         1 SER         0.1884
    118 H          17.8392  -21.3911    0.2191 H         1 SER         0.0823
    119 H          17.7941  -22.8660    2.1385 H         1 SER         0.0606
    120 H          16.0227  -23.1147    1.9241 H         1 SER         0.0606
    121 H          15.7774  -20.8677    2.3249 H         1 SER         0.2097
    122 H          19.1161  -22.4618   -0.7721 H         1 VAL         0.1883
    123 H          18.4343  -24.8623   -2.3643 H         1 VAL         0.0802
    124 H          20.9932  -23.3115   -1.9539 H         1 VAL         0.0343
    125 H          21.4242  -25.5704   -2.7149 H         1 VAL         0.0234
    126 H          20.2498  -25.3740   -4.0391 H         1 VAL         0.0234
    127 H          21.7427  -24.4034   -4.0217 H         1 VAL         0.0234
    128 H          18.9236  -23.1446   -4.1700 H         1 VAL         0.0234
    129 H          19.2644  -21.8998   -2.9430 H         1 VAL         0.0234
    130 H          20.4973  -22.3112   -4.1604 H         1 VAL         0.0234
    131 H          18.8799  -26.8930   -1.7214 H         1 TYR         0.1877
    132 H          21.0283  -27.5853    0.0145 H         1 TYR         0.0747
    133 H          19.6148  -26.8915    1.7740 H         1 TYR         0.0446
    134 H          19.8451  -28.7275    1.7788 H         1 TYR         0.0446
    135 H          17.9795  -30.1845    1.2917 H         1 TYR         0.0530
    136 H          17.4857  -25.9539    1.7221 H         1 TYR         0.0530
    137 H          15.5364  -30.5020    1.5360 H         1 TYR         0.0525
    138 H          15.0515  -26.2686    2.0592 H         1 TYR         0.0525
    139 H          13.3264  -28.0848    1.2677 H         1 TYR         0.2458
@<TRIPOS>BOND
     1    1    2 1  
     2    2    3 1  
     3    2    5 1  
     4    3    4 2  
     5    3   10 am 
     6    5    6 1  
     7    6    7 1  
     8    7    8 ar 
     9    7    9 ar 
    10   10   11 1  
    11   11   12 1  
    12   11   14 1  
    13   12   13 2  
    14   12   19 am 
    15   14   15 1  
    16   15   16 1  
    17   16   17 ar 
    18   16   18 ar 
    19   19   20 1  
    20   20   21 1  
    21   20   23 1  
    22   21   22 2  
    23   21   26 am 
    24   23   24 1  
    25   23   25 1  
    26   26   27 1  
    27   27   28 1  
    28   27   30 1  
    29   28   29 2  
    30   28   34 am 
    31   30   31 1  
    32   31   32 ar 
    33   31   33 ar 
    34   34   35 1  
    35   35   36 1  
    36   35   38 1  
    37   36   37 2  
    38   36   41 am 
    39   38   39 1  
    40   38   40 1  
    41   41   42 1  
    42   42   43 1  
    43   42   45 1  
    44   43   44 2  
    45   43   48 am 
    46   45   46 1  
    47   45   47 1  
    48   48   49 1  
    49   49   50 1  
    50   49   52 1  
    51   50   51 2  
    52   50   54 am 
    53   52   53 1  
    54   54   55 1  
    55   55   56 1  
    56   55   58 1  
    57   56   57 2  
    58   56   61 am 
    59   58   59 1  
    60   58   60 1  
    61   61   62 1  
    62   62   63 1  
    63   62   65 1  
    64   63   64 ar 
    65   63   73 ar 
    66   65   66 1  
    67   66   67 ar 
    68   66   68 ar 
    69   67   69 ar 
    70   68   70 ar 
    71   69   71 ar 
    72   70   71 ar 
    73   71   72 1  
    74    1   74 1  
    75    1   75 1  
    76    1   76 1  
    77    2   77 1  
    78    5   78 1  
    79    5   79 1  
    80    6   80 1  
    81    6   81 1  
    82   10   82 1  
    83   11   83 1  
    84   14   84 1  
    85   14   85 1  
    86   15   86 1  
    87   15   87 1  
    88   19   88 1  
    89   20   89 1  
    90   23   90 1  
    91   24   91 1  
    92   24   92 1  
    93   24   93 1  
    94   25   94 1  
    95   25   95 1  
    96   25   96 1  
    97   26   97 1  
    98   27   98 1  
    99   30   99 1  
   100   30  100 1  
   101   34  101 1  
   102   35  102 1  
   103   38  103 1  
   104   39  104 1  
   105   39  105 1  
   106   39  106 1  
   107   40  107 1  
   108   40  108 1  
   109   40  109 1  
   110   41  110 1  
   111   42  111 1  
   112   45  112 1  
   113   46  113 1  
   114   47  114 1  
   115   47  115 1  
   116   47  116 1  
   117   48  117 1  
   118   49  118 1  
   119   52  119 1  
   120   52  120 1  
   121   53  121 1  
   122   54  122 1  
   123   55  123 1  
   124   58  124 1  
   125   59  125 1  
   126   59  126 1  
   127   59  127 1  
   128   60  128 1  
   129   60  129 1  
   130   60  130 1  
   131   61  131 1  
   132   62  132 1  
   133   65  133 1  
   134   65  134 1  
   135   67  135 1  
   136   68  136 1  
   137   69  137 1  
   138   70  138 1  
   139   72  139 1  
@<TRIPOS>SUBSTRUCTURE
     1 GLU         1

