3n45_ligand
  -I-interpret- 

 37 39  0  0  0  0  0  0  0  0999 V2000
    4.5460   73.2960   23.5110 N   0  0  0  0  0
    5.7470   73.0190   22.6980 C   0  0  0  0  0
    6.5980   72.0370   23.6420 C   0  0  0  0  0
    5.6340   71.7010   24.7870 C   0  0  0  0  0
    4.5120   72.4600   24.6380 C   0  0  0  0  0
    3.4400   72.3840   25.5500 C   0  0  0  0  0
    3.5730   71.4690   26.6160 C   0  0  0  0  0
    4.7360   70.6770   26.7560 C   0  0  0  0  0
    5.7990   70.7930   25.8400 C   0  0  0  0  0
    5.3130   72.1280   21.5630 C   0  0  0  0  0
    5.7320   72.2870   20.4320 O   0  0  0  0  0
    4.4450   71.1590   21.8670 O   0  0  0  0  0
    3.6260   74.2520   23.1560 C   0  0  0  0  0
    3.7160   74.9300   22.1320 O   0  0  0  0  0
    2.6050   74.3980   24.0310 O   0  0  0  0  0
    1.6670   75.4680   23.7040 C   0  0  0  0  0
    2.1990   76.8940   23.9590 C   0  0  0  0  0
    1.3220   77.9890   23.8110 C   0  0  0  0  0
    1.7660   79.2970   24.0520 C   0  0  0  0  0
    3.1000   79.5130   24.4360 C   0  0  0  0  0
    3.9820   78.4290   24.5740 C   0  0  0  0  0
    3.5350   77.1190   24.3370 C   0  0  0  0  0
    6.2548   73.9208   22.3559 H   0  0  0  0  0
    7.5188   72.4992   23.9977 H   0  0  0  0  0
    6.9397   71.1471   23.1133 H   0  0  0  0  0
    2.5500   73.0030   25.4371 H   0  0  0  0  0
    2.7666   71.3712   27.3428 H   0  0  0  0  0
    4.8104   69.9693   27.5817 H   0  0  0  0  0
    6.7092   70.2027   25.9458 H   0  0  0  0  0
    4.2378   71.1988   22.8035 H   0  0  0  0  0
    0.7973   75.3345   24.3474 H   0  0  0  0  0
    1.4606   75.3931   22.6363 H   0  0  0  0  0
    0.2897   77.8167   23.5065 H   0  0  0  0  0
    1.0822   80.1387   23.9424 H   0  0  0  0  0
    3.4520   80.5266   24.6277 H   0  0  0  0  0
    5.0173   78.6050   24.8661 H   0  0  0  0  0
    4.2213   76.2791   24.4456 H   0  0  0  0  0
  1  2  1  0  0  0
  1  5  1  0  0  0
  1 13  1  0  0  0
  2  3  1  0  0  0
  2 10  1  0  0  0
  3  4  1  0  0  0
  4  5  4  0  0  0
  4  9  4  0  0  0
  5  6  4  0  0  0
  6  7  4  0  0  0
  7  8  4  0  0  0
  8  9  4  0  0  0
 10 11  2  0  0  0
 10 12  1  0  0  0
 13 14  2  0  0  0
 13 15  1  0  0  0
 15 16  1  0  0  0
 16 17  1  0  0  0
 17 18  4  0  0  0
 17 22  4  0  0  0
 18 19  4  0  0  0
 19 20  4  0  0  0
 20 21  4  0  0  0
 21 22  4  0  0  0
  2 23  1  0  0  0
  3 24  1  0  0  0
  3 25  1  0  0  0
  6 26  1  0  0  0
  7 27  1  0  0  0
  8 28  1  0  0  0
  9 29  1  0  0  0
 12 30  1  0  0  0
 16 31  1  0  0  0
 16 32  1  0  0  0
 18 33  1  0  0  0
 19 34  1  0  0  0
 20 35  1  0  0  0
 21 36  1  0  0  0
 22 37  1  0  0  0
M  END
$$$$
