5om2_ligand
  -I-interpret- 

 57 60  0  0  0  0  0  0  0  0999 V2000
    2.4900  -16.7200  -15.7290 C   0  0  0  0  0
    1.3800  -17.2280  -15.6950 O   0  0  0  0  0
    2.9510  -15.8470  -16.7800 C   0  0  0  0  0
    2.7960  -15.6090  -19.1690 O   0  0  0  0  0
    2.2770  -15.9480  -18.1140 C   0  0  0  0  0
    0.9900  -16.4680  -18.0760 N   0  0  0  0  0
    4.0940  -15.1400  -16.7210 C   0  0  0  0  0
    4.7260  -14.6440  -17.7970 O   0  0  0  0  0
    4.9860  -15.1600  -15.5100 C   0  0  0  0  0
    4.5100  -14.0630  -14.5120 N   0  3  0  0  0
    4.3930  -12.7280  -15.2270 C   0  0  0  0  0
    5.5310  -13.8580  -13.3950 C   0  0  0  0  0
    4.9290  -16.5750  -14.8730 C   0  0  0  0  0
    5.7480  -17.5980  -15.7080 C   0  0  0  0  0
    7.0570  -17.1290  -15.8710 O   0  0  0  0  0
    5.7680  -18.9960  -15.0390 C   0  0  0  0  0
    6.3310  -20.1340  -15.9490 C   0  0  0  0  0
    7.6900  -19.7630  -16.5360 C   0  0  0  0  0
    6.3370  -21.4590  -15.2110 C   0  0  0  0  0
    7.3080  -22.4330  -15.4210 C   0  0  0  0  0
    7.2820  -23.6430  -14.7380 C   0  0  0  0  0
    6.2930  -23.9260  -13.8270 C   0  0  0  0  0
    5.3130  -22.9480  -13.6030 C   0  0  0  0  0
    4.3580  -23.2730  -12.6830 O   0  0  0  0  0
    5.3330  -21.7340  -14.2860 C   0  0  0  0  0
    4.3010  -20.7690  -13.9970 C   0  0  0  0  0
    3.3390  -21.0780  -13.2840 O   0  0  0  0  0
    4.4150  -19.4020  -14.5250 C   0  0  0  0  0
    3.4520  -18.5040  -14.1910 C   0  0  0  0  0
    2.3220  -18.7550  -13.5180 O   0  0  0  0  0
    3.4570  -17.0070  -14.5620 C   0  0  0  0  0
    3.0400  -16.2820  -13.4480 O   0  0  0  0  0
    0.4571  -16.5740  -18.9392 H   0  0  0  0  0
    0.5775  -16.7440  -17.1849 H   0  0  0  0  0
    5.5166  -14.1778  -17.5157 H   0  0  0  0  0
    6.0197  -14.9460  -15.7817 H   0  0  0  0  0
    3.6147  -14.3712  -14.1327 H   0  0  0  0  0
    5.3652  -12.4481  -15.6325 H   0  0  0  0  0
    3.6705  -12.8141  -16.0386 H   0  0  0  0  0
    4.0596  -11.9672  -14.5212 H   0  0  0  0  0
    5.6642  -14.7926  -12.8502 H   0  0  0  0  0
    6.4829  -13.5489  -13.8268 H   0  0  0  0  0
    5.1721  -13.0867  -12.7135 H   0  0  0  0  0
    5.4185  -16.5450  -13.8996 H   0  0  0  0  0
    5.2678  -17.7023  -16.6809 H   0  0  0  0  0
    7.5608  -17.7626  -16.3871 H   0  0  0  0  0
    6.4559  -18.8757  -14.2021 H   0  0  0  0  0
    5.6648  -20.2562  -16.8030 H   0  0  0  0  0
    7.5904  -18.8588  -17.1365 H   0  0  0  0  0
    8.3982  -19.5868  -15.7264 H   0  0  0  0  0
    8.0487  -20.5794  -17.1629 H   0  0  0  0  0
    8.1072  -22.2427  -16.1374 H   0  0  0  0  0
    8.0608  -24.3814  -14.9285 H   0  0  0  0  0
    6.2709  -24.8780  -13.2966 H   0  0  0  0  0
    3.7360  -22.5466  -12.5988 H   0  0  0  0  0
    1.8221  -17.9414  -13.4195 H   0  0  0  0  0
    2.1371  -16.5242  -13.2296 H   0  0  0  0  0
  1  2  2  0  0  0
  1  3  1  0  0  0
  1 31  1  0  0  0
  3  5  1  0  0  0
  3  7  2  0  0  0
  5  4  2  0  0  0
  5  6  1  0  0  0
  7  8  1  0  0  0
  7  9  1  0  0  0
  9 10  1  0  0  0
  9 13  1  0  0  0
 10 11  1  0  0  0
 10 12  1  0  0  0
 13 14  1  0  0  0
 13 31  1  0  0  0
 14 15  1  0  0  0
 14 16  1  0  0  0
 16 17  1  0  0  0
 16 28  1  0  0  0
 17 18  1  0  0  0
 17 19  1  0  0  0
 19 20  4  0  0  0
 19 25  4  0  0  0
 20 21  4  0  0  0
 21 22  4  0  0  0
 22 23  4  0  0  0
 23 24  1  0  0  0
 23 25  4  0  0  0
 25 26  1  0  0  0
 26 27  2  0  0  0
 26 28  1  0  0  0
 28 29  2  0  0  0
 29 30  1  0  0  0
 29 31  1  0  0  0
 31 32  1  0  0  0
  6 33  1  0  0  0
  6 34  1  0  0  0
  8 35  1  0  0  0
  9 36  1  0  0  0
 10 37  1  0  0  0
 11 38  1  0  0  0
 11 39  1  0  0  0
 11 40  1  0  0  0
 12 41  1  0  0  0
 12 42  1  0  0  0
 12 43  1  0  0  0
 13 44  1  0  0  0
 14 45  1  0  0  0
 15 46  1  0  0  0
 16 47  1  0  0  0
 17 48  1  0  0  0
 18 49  1  0  0  0
 18 50  1  0  0  0
 18 51  1  0  0  0
 20 52  1  0  0  0
 21 53  1  0  0  0
 22 54  1  0  0  0
 24 55  1  0  0  0
 30 56  1  0  0  0
 32 57  1  0  0  0
M  END
$$$$
