1hbv_ligand
  -I-interpret- 

 95 96  0  0  0  0  0  0  0  0999 V2000
   -4.4280   16.7710   18.8980 N   0  3  0  0  0
   -4.3680   17.2180   20.3280 C   0  0  0  0  0
   -3.3620   18.3720   20.4750 C   0  0  0  0  0
   -5.7600   17.7000   20.7290 C   0  0  0  0  0
   -6.2830   18.5900   20.0580 O   0  0  0  0  0
   -6.3570   17.1560   21.7790 N   0  0  0  0  0
   -7.6830   17.5640   22.2180 C   0  0  0  0  0
   -8.7050   16.7170   21.4720 C   0  0  0  0  0
   -7.6940   17.3450   23.7270 C   0  0  0  0  0
   -7.0530   18.2710   24.5480 C   0  0  0  0  0
   -7.0060   18.1300   26.0900 C   0  0  0  0  0
   -5.8960   19.0210   26.6480 C   0  0  0  0  0
   -4.6210   18.4400   26.0610 C   0  0  0  0  0
   -3.8370   19.2340   25.2190 C   0  0  0  0  0
   -2.7210   18.6870   24.5850 C   0  0  0  0  0
   -2.3980   17.3520   24.7890 C   0  0  0  0  0
   -3.1800   16.5660   25.6330 C   0  0  0  0  0
   -4.2900   17.0960   26.2770 C   0  0  0  0  0
   -8.3400   18.4400   26.7670 C   0  0  0  0  0
   -8.3080   16.0710   24.2740 C   0  0  0  0  0
   -8.8420   16.1310   25.7390 C   0  0  0  0  0
   -9.3220   17.4680   26.2090 N   0  3  0  0  0
  -10.7340   17.5520   26.6530 C   0  0  0  0  0
  -11.5120   16.7700   25.5720 C   0  0  0  0  0
  -11.1870   17.1440   28.0890 C   0  0  0  0  0
  -10.8830   17.8630   29.0480 O   0  0  0  0  0
  -11.9160   16.0210   28.2460 N   0  0  0  0  0
  -12.4280   15.5100   29.5150 C   0  0  0  0  0
  -13.4480   14.3020   29.2470 C   0  0  0  0  0
  -14.2960   14.1470   30.4660 C   0  0  0  0  0
  -12.7940   12.9710   28.9620 C   0  0  0  0  0
  -11.2970   15.0750   30.4500 C   0  0  0  0  0
  -10.3540   14.3820   30.0320 O   0  0  0  0  0
  -11.4050   15.4490   31.7110 N   0  0  0  0  0
  -10.4580   15.0950   32.7660 C   0  0  0  0  0
   -9.2350   16.0340   33.0340 C   0  0  0  0  0
   -8.8090   16.9480   31.9160 C   0  0  0  0  0
   -8.0810   15.0700   33.1780 C   0  0  0  0  0
  -11.3900   15.2500   33.9910 C   0  0  0  0  0
  -12.0240   16.3120   34.1420 O   0  0  0  0  0
  -11.8900   14.1670   34.6250 O   0  0  0  0  0
  -12.4540   13.1010   33.7960 C   0  0  0  0  0
   -3.5070   16.4436   18.6064 H   0  0  0  0  0
   -5.1040   16.0124   18.8082 H   0  0  0  0  0
   -4.7137   17.5540   18.3100 H   0  0  0  0  0
   -4.0487   16.3944   20.9666 H   0  0  0  0  0
   -3.6609   19.1974   19.8289 H   0  0  0  0  0
   -3.3455   18.7081   21.5118 H   0  0  0  0  0
   -2.3691   18.0255   20.1882 H   0  0  0  0  0
   -5.8700   16.4254   22.2981 H   0  0  0  0  0
   -7.9302   18.6046   22.0078 H   0  0  0  0  0
   -8.4995   15.6614   21.6500 H   0  0  0  0  0
   -9.7059   16.9589   21.8295 H   0  0  0  0  0
   -8.6386   16.9264   20.4044 H   0  0  0  0  0
   -6.5649   19.1293   24.0864 H   0  0  0  0  0
   -6.7943   17.0843   26.3133 H   0  0  0  0  0
   -5.8818   19.0263   27.7379 H   0  0  0  0  0
   -6.0337   20.0678   26.3771 H   0  0  0  0  0
   -4.0974   20.2801   25.0578 H   0  0  0  0  0
   -2.1050   19.3053   23.9320 H   0  0  0  0  0
   -1.5321   16.9186   24.2885 H   0  0  0  0  0
   -2.9165   15.5200   25.7899 H   0  0  0  0  0
   -4.8940   16.4764   26.9399 H   0  0  0  0  0
   -8.6499   19.4672   26.5750 H   0  0  0  0  0
   -8.2636   18.3449   27.8502 H   0  0  0  0  0
   -7.5118   15.3266   24.2725 H   0  0  0  0  0
   -9.1726   15.8577   23.6454 H   0  0  0  0  0
   -8.0028   15.8643   26.3815 H   0  0  0  0  0
   -9.7045   15.4657   25.7775 H   0  0  0  0  0
   -9.3909   17.9325   25.3035 H   0  0  0  0  0
  -10.9386   18.6177   26.7550 H   0  0  0  0  0
  -11.3570   17.2420   24.6018 H   0  0  0  0  0
  -11.1515   15.7419   25.5391 H   0  0  0  0  0
  -12.5746   16.7762   25.8149 H   0  0  0  0  0
  -12.1283   15.4818   27.4066 H   0  0  0  0  0
  -12.9612   16.3187   30.0148 H   0  0  0  0  0
  -14.0124   14.5631   28.3518 H   0  0  0  0  0
  -13.6605   13.9249   31.3233 H   0  0  0  0  0
  -14.8422   15.0727   30.6472 H   0  0  0  0  0
  -15.0022   13.3307   30.3144 H   0  0  0  0  0
  -12.1688   13.0577   28.0733 H   0  0  0  0  0
  -12.1789   12.6801   29.8135 H   0  0  0  0  0
  -13.5639   12.2179   28.7941 H   0  0  0  0  0
  -12.2062   16.0260   31.9673 H   0  0  0  0  0
   -9.9846   14.1438   32.5227 H   0  0  0  0  0
   -9.5061   16.6787   33.8701 H   0  0  0  0  0
   -8.5331   16.3518   31.0462 H   0  0  0  0  0
   -9.6340   17.6115   31.6565 H   0  0  0  0  0
   -7.9526   17.5401   32.2388 H   0  0  0  0  0
   -8.2766   14.3928   34.0094 H   0  0  0  0  0
   -7.9719   14.4958   32.2579 H   0  0  0  0  0
   -7.1647   15.6282   33.3702 H   0  0  0  0  0
  -13.2806   13.4990   33.2074 H   0  0  0  0  0
  -11.6834   12.7154   33.1284 H   0  0  0  0  0
  -12.8166   12.2974   34.4369 H   0  0  0  0  0
  2  1  1  0  0  0
  2  3  1  0  0  0
  2  4  1  0  0  0
  4  5  2  0  0  0
  4  6  1  0  0  0
  6  7  1  0  0  0
  7  8  1  0  0  0
  7  9  1  0  0  0
  9 10  2  0  0  0
  9 20  1  0  0  0
 10 11  1  0  0  0
 11 12  1  0  0  0
 11 19  1  0  0  0
 12 13  1  0  0  0
 13 14  4  0  0  0
 13 18  4  0  0  0
 14 15  4  0  0  0
 15 16  4  0  0  0
 16 17  4  0  0  0
 18 17  4  0  0  0
 19 22  1  0  0  0
 20 21  1  0  0  0
 22 21  1  0  0  0
 22 23  1  0  0  0
 23 24  1  0  0  0
 23 25  1  0  0  0
 25 26  2  0  0  0
 25 27  1  0  0  0
 27 28  1  0  0  0
 28 29  1  0  0  0
 28 32  1  0  0  0
 29 30  1  0  0  0
 29 31  1  0  0  0
 32 33  2  0  0  0
 32 34  1  0  0  0
 34 35  1  0  0  0
 35 36  1  0  0  0
 35 39  1  0  0  0
 36 37  1  0  0  0
 36 38  1  0  0  0
 39 40  2  0  0  0
 39 41  1  0  0  0
 41 42  1  0  0  0
  1 43  1  0  0  0
  1 44  1  0  0  0
  1 45  1  0  0  0
  2 46  1  0  0  0
  3 47  1  0  0  0
  3 48  1  0  0  0
  3 49  1  0  0  0
  6 50  1  0  0  0
  7 51  1  0  0  0
  8 52  1  0  0  0
  8 53  1  0  0  0
  8 54  1  0  0  0
 10 55  1  0  0  0
 11 56  1  0  0  0
 12 57  1  0  0  0
 12 58  1  0  0  0
 14 59  1  0  0  0
 15 60  1  0  0  0
 16 61  1  0  0  0
 17 62  1  0  0  0
 18 63  1  0  0  0
 19 64  1  0  0  0
 19 65  1  0  0  0
 20 66  1  0  0  0
 20 67  1  0  0  0
 21 68  1  0  0  0
 21 69  1  0  0  0
 22 70  1  0  0  0
 23 71  1  0  0  0
 24 72  1  0  0  0
 24 73  1  0  0  0
 24 74  1  0  0  0
 27 75  1  0  0  0
 28 76  1  0  0  0
 29 77  1  0  0  0
 30 78  1  0  0  0
 30 79  1  0  0  0
 30 80  1  0  0  0
 31 81  1  0  0  0
 31 82  1  0  0  0
 31 83  1  0  0  0
 34 84  1  0  0  0
 35 85  1  0  0  0
 36 86  1  0  0  0
 37 87  1  0  0  0
 37 88  1  0  0  0
 37 89  1  0  0  0
 38 90  1  0  0  0
 38 91  1  0  0  0
 38 92  1  0  0  0
 42 93  1  0  0  0
 42 94  1  0  0  0
 42 95  1  0  0  0
M  END
$$$$
