4pnc_ligand
  -I-interpret- 

 28 29  0  0  0  0  0  0  0  0999 V2000
   23.2090   -0.8300    7.9330 O   0  0  0  0  0
   24.1680   -0.3070    8.4670 C   0  0  0  0  0
   24.6690    0.9180    7.8750 C   0  0  0  0  0
   24.7110   -0.9410    9.6620 C   0  0  0  0  0
   24.5070   -2.4020    9.3880 C   0  0  0  0  0
   26.1230   -0.4840    9.8430 C   0  0  0  0  0
   26.2250    1.0050    9.8570 C   0  0  0  0  0
   25.7020    1.6090    8.5660 C   0  0  0  0  0
   26.2130    2.8140    8.0610 C   0  0  0  0  0
   25.7040    3.3350    6.8920 C   0  0  0  0  0
   24.6680    2.6400    6.2130 C   0  0  0  0  0
   24.1260    1.4340    6.6970 C   0  0  0  0  0
   24.2350    3.2650    5.0520 O   0  0  0  0  0
   23.2730    2.6010    4.2930 C   0  0  0  0  0
   24.2408   -0.6895   10.6127 H   0  0  0  0  0
   25.0276   -2.6743    8.4699 H   0  0  0  0  0
   24.9040   -2.9851   10.2190 H   0  0  0  0  0
   23.4417   -2.6042    9.2768 H   0  0  0  0  0
   26.7150   -0.8605    9.0088 H   0  0  0  0  0
   26.4859   -0.8617   10.7989 H   0  0  0  0  0
   27.2743    1.2788    9.9667 H   0  0  0  0  0
   25.6256    1.3850   10.6843 H   0  0  0  0  0
   27.0095    3.3357    8.5915 H   0  0  0  0  0
   26.0925    4.2715    6.4919 H   0  0  0  0  0
   23.3166    0.9247    6.1740 H   0  0  0  0  0
   23.6656    1.6349    3.9757 H   0  0  0  0  0
   22.3771    2.4505    4.8953 H   0  0  0  0  0
   23.0266    3.2001    3.4164 H   0  0  0  0  0
  1  2  2  0  0  0
  2  3  1  0  0  0
  2  4  1  0  0  0
  3  8  4  0  0  0
  3 12  4  0  0  0
  4  5  1  0  0  0
  4  6  1  0  0  0
  6  7  1  0  0  0
  7  8  1  0  0  0
  8  9  4  0  0  0
  9 10  4  0  0  0
 10 11  4  0  0  0
 11 12  4  0  0  0
 11 13  1  0  0  0
 13 14  1  0  0  0
  4 15  1  0  0  0
  5 16  1  0  0  0
  5 17  1  0  0  0
  5 18  1  0  0  0
  6 19  1  0  0  0
  6 20  1  0  0  0
  7 21  1  0  0  0
  7 22  1  0  0  0
  9 23  1  0  0  0
 10 24  1  0  0  0
 12 25  1  0  0  0
 14 26  1  0  0  0
 14 27  1  0  0  0
 14 28  1  0  0  0
M  END
$$$$
