3kac_ligand
  -I-interpret- 

 23 24  0  0  0  0  0  0  0  0999 V2000
   43.9090    5.9710   -3.4080 C   0  0  0  0  0
   44.7800    6.1860   -2.3450 C   0  0  0  0  0
   44.9830    5.1880   -1.3990 C   0  0  0  0  0
   43.2410    4.7580   -3.5250 C   0  0  0  0  0
   42.9540    2.5350   -2.4400 N   0  0  0  0  0
   43.4460    3.7620   -2.5780 C   0  0  0  0  0
   44.3140    3.9760   -1.5190 C   0  0  0  0  0
   44.3140    2.8710   -0.7820 N   0  0  0  0  0
   43.4840    1.9920   -1.3440 C   0  0  0  0  0
   43.1880    0.5860   -0.8170 C   0  0  0  0  0
   43.6770   -0.4810   -1.7980 C   0  0  0  0  0
   42.9710   -1.8160   -1.5530 C   0  0  0  0  0
   42.3060   -2.3420   -2.4430 O   0  0  0  0  0
   43.0620   -2.3770   -0.4620 O   0  0  0  0  0
   43.7504    6.7541   -4.1494 H   0  0  0  0  0
   45.3036    7.1376   -2.2538 H   0  0  0  0  0
   45.6650    5.3556   -0.5654 H   0  0  0  0  0
   42.5581    4.5883   -4.3574 H   0  0  0  0  0
   42.1105    0.4789   -0.6921 H   0  0  0  0  0
   43.7063    0.4520    0.1325 H   0  0  0  0  0
   44.7487   -0.6211   -1.6566 H   0  0  0  0  0
   43.4568   -0.1501   -2.8129 H   0  0  0  0  0
   43.6091   -1.8485    0.1237 H   0  0  0  0  0
  1  2  4  0  0  0
  1  4  4  0  0  0
  2  3  4  0  0  0
  3  7  4  0  0  0
  4  6  4  0  0  0
  6  5  4  0  0  0
  5  9  4  0  0  0
  6  7  4  0  0  0
  7  8  4  0  0  0
  8  9  4  0  0  0
  9 10  1  0  0  0
 10 11  1  0  0  0
 11 12  1  0  0  0
 12 13  2  0  0  0
 12 14  1  0  0  0
  1 15  1  0  0  0
  2 16  1  0  0  0
  3 17  1  0  0  0
  4 18  1  0  0  0
 10 19  1  0  0  0
 10 20  1  0  0  0
 11 21  1  0  0  0
 11 22  1  0  0  0
 14 23  1  0  0  0
M  END
$$$$
