4c1w_ligand
  -I-interpret- 

 82 84  0  0  0  0  0  0  0  0999 V2000
    2.0070    1.0270    5.0070 O   0  0  0  0  0
    2.6600    1.0020    6.0710 C   0  0  0  0  0
    4.1010    0.5640    6.0940 C   0  0  0  0  0
    2.1830    1.3380    7.2850 N   0  0  0  0  0
    0.8920    1.9970    7.4900 C   0  0  0  0  0
   -0.1590    0.9480    7.9320 C   0  0  0  0  0
   -1.4340    1.5950    8.1150 O   0  0  0  0  0
   -0.3800   -0.2190    6.9830 C   0  0  0  0  0
   -0.5950    0.2610    5.6320 O   0  0  0  0  0
   -1.5940   -1.0700    7.4220 C   0  0  0  0  0
   -1.5750   -1.3330    8.8360 O   0  0  0  0  0
   -1.6140   -2.3870    6.6580 C   0  0  0  0  0
   -2.8910   -3.0080    6.8350 O   0  0  0  0  0
    0.9580    3.0720    8.5680 C   0  0  0  0  0
    1.8690    4.0980    8.1450 O   0  0  0  0  0
   -0.4120    3.6850    8.8700 C   0  0  0  0  0
   -1.4300    2.5740    9.1720 C   0  0  0  0  0
   -1.2250    1.9070   10.5510 C   0  0  0  0  0
   -1.4110    0.6550   10.6280 O   0  0  0  0  0
   -0.9280    2.6120   11.5750 O   0  0  0  0  0
   -2.7110    3.1950    9.1220 O   0  0  0  0  0
   -3.7700    2.3450    9.5570 C   0  0  0  0  0
   -4.4480    2.9720   10.7910 C   0  0  0  0  0
   -5.8230    2.3330   11.0570 C   0  0  0  0  0
   -6.6540    2.3210    9.9110 O   0  0  0  0  0
   -6.5590    3.0820   12.1330 C   0  0  0  0  0
   -7.5670    2.1510   12.4980 O   0  0  0  0  0
   -4.6410    4.3710   10.5600 O   0  0  0  0  0
   -4.7400    2.1850    8.3720 C   0  0  0  0  0
   -4.1380    1.3970    7.3070 O   0  0  0  0  0
   -6.0430    1.5550    8.8620 C   0  0  0  0  0
   -6.9220    1.4390    7.7420 O   0  0  0  0  0
   -7.9710    0.5120    8.0310 C   0  0  0  0  0
   -7.7540   -0.8200    7.2840 C   0  0  0  0  0
   -8.9220   -1.6840    7.2020 O   0  0  0  0  0
   -6.5940   -1.5850    7.9370 C   0  0  0  0  0
   -5.5280   -1.3960    7.0000 O   0  0  0  0  0
   -9.3300    1.1240    7.6700 C   0  0  0  0  0
   -9.5370    2.4220    8.2320 O   0  0  0  0  0
  -10.3300    0.0840    8.1810 C   0  0  0  0  0
  -11.6560    0.6090    8.3330 O   0  0  0  0  0
  -10.2450   -1.0960    7.2010 C   0  0  0  0  0
  -10.5170   -0.6210    5.8740 O   0  0  0  0  0
    4.1737   -0.4609    5.7303 H   0  0  0  0  0
    4.6893    1.2209    5.4533 H   0  0  0  0  0
    4.4790    0.6162    7.1150 H   0  0  0  0  0
    2.7510    1.1220    8.1043 H   0  0  0  0  0
    0.6182    2.4648    6.5443 H   0  0  0  0  0
    0.2531    0.5279    8.8495 H   0  0  0  0  0
    0.5145   -0.8413    7.0099 H   0  0  0  0  0
    0.1580    0.7897    5.3578 H   0  0  0  0  0
   -2.4947   -0.4995    7.1956 H   0  0  0  0  0
   -2.3406   -1.8618    9.0723 H   0  0  0  0  0
   -0.8302   -3.0434    7.0359 H   0  0  0  0  0
   -1.4394   -2.2003    5.5984 H   0  0  0  0  0
   -2.9104   -3.8395    6.3555 H   0  0  0  0  0
    1.3055    2.6034    9.4888 H   0  0  0  0  0
    2.7253    3.7066    7.9575 H   0  0  0  0  0
   -0.7490    4.2543    8.0037 H   0  0  0  0  0
   -0.3284    4.3401    9.7371 H   0  0  0  0  0
   -0.8288    3.5300   11.3122 H   0  0  0  0  0
   -3.4116    1.3603    9.8572 H   0  0  0  0  0
   -3.8047    2.8017   11.6543 H   0  0  0  0  0
   -5.6150    1.3067   11.3595 H   0  0  0  0  0
   -6.9552    4.0412   11.7998 H   0  0  0  0  0
   -5.9226    3.3805   12.9661 H   0  0  0  0  0
   -8.1117    2.5270   13.1933 H   0  0  0  0  0
   -5.0632    4.7655   11.3266 H   0  0  0  0  0
   -4.9609    3.1685    7.9572 H   0  0  0  0  0
   -4.7613    1.3121    6.5818 H   0  0  0  0  0
   -5.8294    0.5739    9.2863 H   0  0  0  0  0
   -7.9575    0.2986    9.0998 H   0  0  0  0  0
   -7.5273   -0.5442    6.2541 H   0  0  0  0  0
   -6.8233   -2.6356    8.1151 H   0  0  0  0  0
   -6.3527   -1.2214    8.9358 H   0  0  0  0  0
   -4.7404   -1.8430    7.3186 H   0  0  0  0  0
   -9.4278    1.3134    6.6010 H   0  0  0  0  0
  -10.4010    2.7486    7.9705 H   0  0  0  0  0
  -10.0782   -0.2396    9.1909 H   0  0  0  0  0
  -12.2382   -0.0833    8.6545 H   0  0  0  0  0
  -10.9708   -1.8477    7.5111 H   0  0  0  0  0
  -11.3916   -0.2260    5.8497 H   0  0  0  0  0
  1  2  2  0  0  0
  2  3  1  0  0  0
  2  4  1  0  0  0
  4  5  1  0  0  0
  5  6  1  0  0  0
  5 14  1  0  0  0
  6  7  1  0  0  0
  6  8  1  0  0  0
  7 17  1  0  0  0
  8  9  1  0  0  0
  8 10  1  0  0  0
 10 11  1  0  0  0
 10 12  1  0  0  0
 12 13  1  0  0  0
 14 15  1  0  0  0
 14 16  1  0  0  0
 16 17  1  0  0  0
 17 18  1  0  0  0
 17 21  1  0  0  0
 18 19  2  0  0  0
 18 20  1  0  0  0
 21 22  1  0  0  0
 22 23  1  0  0  0
 22 29  1  0  0  0
 23 24  1  0  0  0
 23 28  1  0  0  0
 24 25  1  0  0  0
 24 26  1  0  0  0
 25 31  1  0  0  0
 26 27  1  0  0  0
 29 30  1  0  0  0
 29 31  1  0  0  0
 31 32  1  0  0  0
 32 33  1  0  0  0
 33 34  1  0  0  0
 33 38  1  0  0  0
 34 35  1  0  0  0
 34 36  1  0  0  0
 35 42  1  0  0  0
 36 37  1  0  0  0
 38 39  1  0  0  0
 38 40  1  0  0  0
 40 41  1  0  0  0
 40 42  1  0  0  0
 42 43  1  0  0  0
  3 44  1  0  0  0
  3 45  1  0  0  0
  3 46  1  0  0  0
  4 47  1  0  0  0
  5 48  1  0  0  0
  6 49  1  0  0  0
  8 50  1  0  0  0
  9 51  1  0  0  0
 10 52  1  0  0  0
 11 53  1  0  0  0
 12 54  1  0  0  0
 12 55  1  0  0  0
 13 56  1  0  0  0
 14 57  1  0  0  0
 15 58  1  0  0  0
 16 59  1  0  0  0
 16 60  1  0  0  0
 20 61  1  0  0  0
 22 62  1  0  0  0
 23 63  1  0  0  0
 24 64  1  0  0  0
 26 65  1  0  0  0
 26 66  1  0  0  0
 27 67  1  0  0  0
 28 68  1  0  0  0
 29 69  1  0  0  0
 30 70  1  0  0  0
 31 71  1  0  0  0
 33 72  1  0  0  0
 34 73  1  0  0  0
 36 74  1  0  0  0
 36 75  1  0  0  0
 37 76  1  0  0  0
 38 77  1  0  0  0
 39 78  1  0  0  0
 40 79  1  0  0  0
 41 80  1  0  0  0
 42 81  1  0  0  0
 43 82  1  0  0  0
M  END
$$$$
