### 
### Created by X-TOOL on Mon Sep 10 21:13:09 2018
### 

@<TRIPOS>MOLECULE
3uqp_ligand
  150   152     1     0     0
SMALL
GAST_HUCK


@<TRIPOS>ATOM
      1 O1        -21.8390  -15.4180    1.6730 O.2       1 BOC        -0.3774
      2 C         -21.8750  -16.6220    1.4370 C.2       1 BOC         0.3223
      3 O2        -22.9310  -17.1240    0.6600 O.3       1 BOC        -0.2580
      4 CT        -24.1050  -16.3390    0.4220 C.3       1 BOC         0.0905
      5 C1        -23.7570  -15.1630   -0.4740 C.3       1 BOC        -0.0320
      6 C2        -25.1660  -17.1460   -0.2480 C.3       1 BOC        -0.0320
      7 C3        -24.6690  -15.8450    1.7400 C.3       1 BOC        -0.0320
      8 N         -21.1530  -17.5030    2.3770 N.am      1 VAL        -0.2409
      9 CA        -20.6520  -18.7390    1.8150 C.3       1 VAL         0.1353
     10 C         -21.7690  -19.7970    1.7120 C.2       1 VAL         0.2064
     11 O         -22.7460  -19.6910    2.4420 O.2       1 VAL        -0.3942
     12 CB        -19.5320  -19.3780    2.6500 C.3       1 VAL        -0.0063
     13 CG1       -18.2300  -18.6280    2.4480 C.3       1 VAL        -0.0584
     14 CG2       -19.9150  -19.3310    4.1420 C.3       1 VAL        -0.0584
     15 C1        -20.5060  -21.0950   -0.1040 C.3       1 GNC         0.0254
     16 NE2       -24.9090  -19.5860   -2.4070 N.am      1 GNC        -0.3009
     17 OE1       -26.4740  -20.8920   -1.3750 O.2       1 GNC        -0.3973
     18 O         -22.1200  -23.9860   -0.4850 O.2       1 GNC        -0.3945
     19 CG        -24.5510  -20.5630   -0.1220 C.3       1 GNC         0.0412
     20 CB        -23.6080  -21.6530   -0.4890 C.3       1 GNC         0.0047
     21 CD        -25.3910  -20.3620   -1.3240 C.2       1 GNC         0.1737
     22 C         -22.0760  -23.3410    0.5600 C.2       1 GNC         0.2025
     23 CA        -22.6950  -21.9390    0.6890 C.3       1 GNC         0.1353
     24 N         -21.6420  -20.9290    0.7750 N.am      1 GNC        -0.2527
     25 N         -21.4030  -23.8630    1.7690 N.am      1 PSA        -0.2774
     26 CA        -20.7740  -25.2080    1.7840 C.3       1 PSA         0.0795
     27 CB        -19.3640  -25.1410    2.3660 C.3       1 PSA         0.0065
     28 CG        -18.5320  -24.0870    1.5780 C.ar      1 PSA        -0.0408
     29 CD1       -18.5010  -24.0870    0.0780 C.ar      1 PSA        -0.0603
     30 CD2       -17.7410  -23.0430    2.3280 C.ar      1 PSA        -0.0603
     31 CE1       -17.6960  -23.0670   -0.6820 C.ar      1 PSA        -0.0686
     32 CE2       -16.9220  -22.0270    1.5650 C.ar      1 PSA        -0.0686
     33 CZ        -16.9020  -22.0330    0.0670 C.ar      1 PSA        -0.0687
     34 CH        -21.6930  -26.1120    2.6140 C.3       1 PSA         0.0965
     35 OH        -21.6300  -26.0020    3.9880 O.3       1 PSA        -0.3870
     36 CM        -23.0220  -26.5880    1.9680 C.3       1 PSA         0.0657
     37 C         -22.6840  -27.6870    0.9480 C.2       1 PSA         0.1808
     38 O         -22.4970  -27.4290   -0.2330 O.2       1 PSA        -0.3968
     39 N         -22.5630  -29.0720    1.4190 N.am      1 LEU        -0.2655
     40 CA        -22.2250  -30.1640    0.4790 C.3       1 LEU         0.1311
     41 C         -23.3500  -30.3620   -0.5500 C.2       1 LEU         0.2039
     42 O         -24.4820  -30.6170   -0.1610 O.2       1 LEU        -0.3944
     43 CB        -21.9370  -31.4250    1.2780 C.3       1 LEU        -0.0101
     44 CG        -21.6210  -32.6120    0.3500 C.3       1 LEU        -0.0425
     45 CD1       -20.2280  -32.4330   -0.2070 C.3       1 LEU        -0.0625
     46 CD2       -21.6370  -33.8760    1.2280 C.3       1 LEU        -0.0625
     47 N         -23.0650  -30.2650   -1.9830 N.am      1 ALA        -0.2640
     48 CA        -24.1270  -30.4990   -2.9740 C.3       1 ALA         0.1284
     49 C         -24.0450  -31.9850   -3.2750 C.2       1 ALA         0.2060
     50 O         -22.9400  -32.4840   -3.4570 O.2       1 ALA        -0.3942
     51 CB        -23.9100  -29.7600   -4.2500 C.3       1 ALA        -0.0244
     52 N         -25.2290  -32.8700   -3.3340 N.am      1 ZAE        -0.2511
     53 CA        -24.9820  -34.3020   -3.6170 C.3       1 ZAE         0.1431
     54 C         -25.3130  -35.1970   -2.3860 C.2       1 ZAE         0.2087
     55 O         -26.4740  -35.4930   -2.0840 O.2       1 ZAE        -0.3940
     56 CB        -25.5660  -34.6930   -4.9640 C.3       1 ZAE         0.0216
     57 CG        -24.5960  -34.1690   -6.0360 C.ar      1 ZAE        -0.0385
     58 CD1       -23.7030  -35.1240   -6.8040 C.ar      1 ZAE        -0.0601
     59 CD2       -24.4980  -32.6980   -6.3390 C.ar      1 ZAE        -0.0601
     60 CE1       -22.7390  -34.6170   -7.8560 C.ar      1 ZAE        -0.0686
     61 CE2       -23.5350  -32.1840   -7.3870 C.ar      1 ZAE        -0.0686
     62 CZ        -22.6550  -33.1470   -8.1420 C.ar      1 ZAE        -0.0687
     63 C10       -26.5700  -32.3640   -3.1160 C.3       1 ZAE         0.0256
     64 CM        -26.0830  -39.1180    1.2460 C.3       1 PDW         0.0658
     65 O         -24.0620  -38.8050   -0.4410 O.2       1 PDW        -0.3678
     66 CG        -21.9070  -36.3170   -1.2090 C.3       1 PDW        -0.0280
     67 CB        -22.7030  -36.7720   -0.0300 C.3       1 PDW        -0.0090
     68 CD        -22.7920  -35.3000   -1.8790 C.3       1 PDW         0.0371
     69 OXT       -25.9380  -37.9560    0.4570 O.3       1 PDW        -0.2784
     70 C         -24.8050  -37.8160   -0.3360 C.2       1 PDW         0.2595
     71 CA        -24.1270  -36.4690   -0.3320 C.3       1 PDW         0.1450
     72 N         -24.1570  -35.6630   -1.5460 N.am      1 PDW        -0.2483
     73 H         -24.6554  -14.5768   -0.6672 H         1 BOC         0.0260
     74 H         -23.0135  -14.5383    0.0210 H         1 BOC         0.0260
     75 H         -23.3533  -15.5329   -1.4165 H         1 BOC         0.0260
     76 H         -25.4374  -17.9876    0.3893 H         1 BOC         0.0260
     77 H         -26.0424  -16.5209   -0.4193 H         1 BOC         0.0260
     78 H         -24.7907  -17.5170   -1.2017 H         1 BOC         0.0260
     79 H         -25.5502  -15.2323    1.5498 H         1 BOC         0.0260
     80 H         -24.9453  -16.6990    2.3584 H         1 BOC         0.0260
     81 H         -23.9155  -15.2498    2.2559 H         1 BOC         0.0260
     82 H         -21.0165  -17.2567    3.3574 H         1 VAL         0.1899
     83 H         -20.2653  -18.4581    0.8354 H         1 VAL         0.0802
     84 H         -19.4015  -20.4118    2.3300 H         1 VAL         0.0342
     85 H         -17.9523  -18.6620    1.3945 H         1 VAL         0.0234
     86 H         -18.3577  -17.5909    2.7581 H         1 VAL         0.0234
     87 H         -17.4472  -19.0938    3.0467 H         1 VAL         0.0234
     88 H         -20.0515  -18.2939    4.4482 H         1 VAL         0.0234
     89 H         -20.8432  -19.8816    4.2950 H         1 VAL         0.0234
     90 H         -19.1202  -19.7844    4.7343 H         1 VAL         0.0234
     91 H         -20.4308  -20.2319   -0.7654 H         1 GNC         0.0488
     92 H         -19.5967  -21.1785    0.4913 H         1 GNC         0.0488
     93 H         -20.6371  -21.9993   -0.6982 H         1 GNC         0.0488
     94 H         -25.4795  -19.4692   -3.2444 H         1 GNC         0.1814
     95 H         -23.9915  -19.1441   -2.3492 H         1 GNC         0.1814
     96 H         -24.0244  -19.6512    0.1598 H         1 GNC         0.0504
     97 H         -25.1501  -20.8240    0.7504 H         1 GNC         0.0504
     98 H         -23.0117  -21.3474   -1.3487 H         1 GNC         0.0337
     99 H         -24.1689  -22.5520   -0.7443 H         1 GNC         0.0337
    100 H         -23.2891  -21.9024    1.6021 H         1 GNC         0.0803
    101 H         -21.3702  -23.2870    2.6102 H         1 PSA         0.1857
    102 H         -20.6640  -25.6061    0.7753 H         1 PSA         0.0606
    103 H         -18.8880  -26.1180    2.2829 H         1 PSA         0.0449
    104 H         -19.4159  -24.8540    3.4163 H         1 PSA         0.0449
    105 H         -19.0705  -24.8375   -0.4702 H         1 PSA         0.0557
    106 H         -17.7603  -23.0217    3.4176 H         1 PSA         0.0557
    107 H         -17.6887  -23.0780   -1.7719 H         1 PSA         0.0599
    108 H         -16.3406  -21.2832    2.1098 H         1 PSA         0.0599
    109 H         -16.3154  -21.2923   -0.4765 H         1 PSA         0.0559
    110 H         -21.1472  -27.0503    2.5149 H         1 PSA         0.0643
    111 H         -20.7399  -26.2066    4.2838 H         1 PSA         0.2101
    112 H         -23.5213  -25.7547    1.4737 H         1 PSA         0.0529
    113 H         -23.6955  -26.9762    2.7321 H         1 PSA         0.0529
    114 H         -22.7136  -29.2842    2.4053 H         1 LEU         0.1883
    115 H         -21.3315  -29.9085   -0.0907 H         1 LEU         0.0800
    116 H         -22.8188  -31.6710    1.8696 H         1 LEU         0.0315
    117 H         -21.0725  -31.2426    1.9163 H         1 LEU         0.0315
    118 H         -22.3386  -32.6813   -0.4675 H         1 LEU         0.0298
    119 H         -20.1797  -31.4999   -0.7684 H         1 LEU         0.0232
    120 H         -19.5111  -32.4024    0.6135 H         1 LEU         0.0232
    121 H         -19.9917  -33.2680   -0.8666 H         1 LEU         0.0232
    122 H         -20.8835  -33.7831    2.0101 H         1 LEU         0.0232
    123 H         -22.6215  -33.9892    1.6818 H         1 LEU         0.0232
    124 H         -21.4172  -34.7477    0.6117 H         1 LEU         0.0232
    125 H         -22.1225  -30.0333   -2.2967 H         1 ALA         0.1883
    126 H         -25.0851  -30.1623   -2.5780 H         1 ALA         0.0797
    127 H         -23.8770  -28.6895   -4.0473 H         1 ALA         0.0277
    128 H         -22.9667  -30.0760   -4.6955 H         1 ALA         0.0277
    129 H         -24.7281  -29.9760   -4.9371 H         1 ALA         0.0277
    130 H         -23.9167  -34.4907   -3.7494 H         1 ZAE         0.0825
    131 H         -26.5591  -34.2634   -5.0959 H         1 ZAE         0.0474
    132 H         -25.6795  -35.7745   -5.0386 H         1 ZAE         0.0474
    133 H         -23.7558  -36.1926   -6.5955 H         1 ZAE         0.0557
    134 H         -25.1288  -31.9938   -5.7965 H         1 ZAE         0.0557
    135 H         -22.1085  -35.3177   -8.4034 H         1 ZAE         0.0599
    136 H         -23.4776  -31.1158   -7.5962 H         1 ZAE         0.0599
    137 H         -21.9590  -32.7759   -8.8943 H         1 ZAE         0.0559
    138 H         -26.6354  -31.9299   -2.1183 H         1 ZAE         0.0488
    139 H         -26.7946  -31.6008   -3.8611 H         1 ZAE         0.0488
    140 H         -27.2847  -33.1822   -3.2052 H         1 ZAE         0.0488
    141 H         -26.0910  -39.9957    0.5998 H         1 PDW         0.0577
    142 H         -25.2494  -39.1874    1.9449 H         1 PDW         0.0577
    143 H         -27.0201  -39.0647    1.8002 H         1 PDW         0.0577
    144 H         -21.6486  -37.1407   -1.8745 H         1 PDW         0.0287
    145 H         -20.9437  -35.8976   -0.9188 H         1 PDW         0.0287
    146 H         -22.3811  -36.2596    0.8766 H         1 PDW         0.0314
    147 H         -22.5619  -37.8385    0.1452 H         1 PDW         0.0314
    148 H         -22.6395  -35.2989   -2.9583 H         1 PDW         0.0524
    149 H         -22.5600  -34.2921   -1.5349 H         1 PDW         0.0524
    150 H         -24.6770  -35.8553    0.3815 H         1 PDW         0.0818
@<TRIPOS>BOND
     1    2    1 2  
     2    2    3 1  
     3    8    2 am 
     4    3    4 1  
     5    4    5 1  
     6    4    6 1  
     7    4    7 1  
     8    9    8 1  
     9   10    9 1  
    10    9   12 1  
    11   10   11 2  
    12   24   10 am 
    13   12   13 1  
    14   12   14 1  
    15   24   15 1  
    16   21   16 am 
    17   21   17 2  
    18   22   18 2  
    19   20   19 1  
    20   19   21 1  
    21   23   20 1  
    22   22   23 1  
    23   25   22 am 
    24   23   24 1  
    25   26   25 1  
    26   26   27 1  
    27   34   26 1  
    28   27   28 1  
    29   28   29 ar 
    30   28   30 ar 
    31   29   31 ar 
    32   30   32 ar 
    33   31   33 ar 
    34   32   33 ar 
    35   34   35 1  
    36   36   34 1  
    37   37   36 1  
    38   37   38 2  
    39   39   37 am 
    40   40   39 1  
    41   41   40 1  
    42   40   43 1  
    43   41   42 2  
    44   47   41 am 
    45   43   44 1  
    46   44   45 1  
    47   44   46 1  
    48   48   47 1  
    49   49   48 1  
    50   48   51 1  
    51   49   50 2  
    52   52   49 am 
    53   53   52 1  
    54   52   63 1  
    55   54   53 1  
    56   53   56 1  
    57   54   55 2  
    58   72   54 am 
    59   56   57 1  
    60   57   58 ar 
    61   57   59 ar 
    62   58   60 ar 
    63   59   61 ar 
    64   60   62 ar 
    65   61   62 ar 
    66   69   64 1  
    67   70   65 2  
    68   67   66 1  
    69   66   68 1  
    70   71   67 1  
    71   68   72 1  
    72   70   69 1  
    73   70   71 1  
    74   71   72 1  
    75    5   73 1  
    76    5   74 1  
    77    5   75 1  
    78    6   76 1  
    79    6   77 1  
    80    6   78 1  
    81    7   79 1  
    82    7   80 1  
    83    7   81 1  
    84    8   82 1  
    85    9   83 1  
    86   12   84 1  
    87   13   85 1  
    88   13   86 1  
    89   13   87 1  
    90   14   88 1  
    91   14   89 1  
    92   14   90 1  
    93   15   91 1  
    94   15   92 1  
    95   15   93 1  
    96   16   94 1  
    97   16   95 1  
    98   19   96 1  
    99   19   97 1  
   100   20   98 1  
   101   20   99 1  
   102   23  100 1  
   103   25  101 1  
   104   26  102 1  
   105   27  103 1  
   106   27  104 1  
   107   29  105 1  
   108   30  106 1  
   109   31  107 1  
   110   32  108 1  
   111   33  109 1  
   112   34  110 1  
   113   35  111 1  
   114   36  112 1  
   115   36  113 1  
   116   39  114 1  
   117   40  115 1  
   118   43  116 1  
   119   43  117 1  
   120   44  118 1  
   121   45  119 1  
   122   45  120 1  
   123   45  121 1  
   124   46  122 1  
   125   46  123 1  
   126   46  124 1  
   127   47  125 1  
   128   48  126 1  
   129   51  127 1  
   130   51  128 1  
   131   51  129 1  
   132   53  130 1  
   133   56  131 1  
   134   56  132 1  
   135   58  133 1  
   136   59  134 1  
   137   60  135 1  
   138   61  136 1  
   139   62  137 1  
   140   63  138 1  
   141   63  139 1  
   142   63  140 1  
   143   64  141 1  
   144   64  142 1  
   145   64  143 1  
   146   66  144 1  
   147   66  145 1  
   148   67  146 1  
   149   67  147 1  
   150   68  148 1  
   151   68  149 1  
   152   71  150 1  
@<TRIPOS>SUBSTRUCTURE
     1 BOC         1

