3uqp_ligand
  -I-interpret- 

150152  0  0  0  0  0  0  0  0999 V2000
  -21.8390  -15.4180    1.6730 O   0  0  0  0  0
  -21.8750  -16.6220    1.4370 C   0  0  0  0  0
  -22.9310  -17.1240    0.6600 O   0  0  0  0  0
  -24.1050  -16.3390    0.4220 C   0  0  0  0  0
  -23.7570  -15.1630   -0.4740 C   0  0  0  0  0
  -25.1660  -17.1460   -0.2480 C   0  0  0  0  0
  -24.6690  -15.8450    1.7400 C   0  0  0  0  0
  -21.1530  -17.5030    2.3770 N   0  0  0  0  0
  -20.6520  -18.7390    1.8150 C   0  0  0  0  0
  -21.7690  -19.7970    1.7120 C   0  0  0  0  0
  -22.7460  -19.6910    2.4420 O   0  0  0  0  0
  -19.5320  -19.3780    2.6500 C   0  0  0  0  0
  -18.2300  -18.6280    2.4480 C   0  0  0  0  0
  -19.9150  -19.3310    4.1420 C   0  0  0  0  0
  -20.5060  -21.0950   -0.1040 C   0  0  0  0  0
  -24.9090  -19.5860   -2.4070 N   0  0  0  0  0
  -26.4740  -20.8920   -1.3750 O   0  0  0  0  0
  -22.1200  -23.9860   -0.4850 O   0  0  0  0  0
  -24.5510  -20.5630   -0.1220 C   0  0  0  0  0
  -23.6080  -21.6530   -0.4890 C   0  0  0  0  0
  -25.3910  -20.3620   -1.3240 C   0  0  0  0  0
  -22.0760  -23.3410    0.5600 C   0  0  0  0  0
  -22.6950  -21.9390    0.6890 C   0  0  0  0  0
  -21.6420  -20.9290    0.7750 N   0  0  0  0  0
  -21.4030  -23.8630    1.7690 N   0  0  0  0  0
  -20.7740  -25.2080    1.7840 C   0  0  0  0  0
  -19.3640  -25.1410    2.3660 C   0  0  0  0  0
  -18.5320  -24.0870    1.5780 C   0  0  0  0  0
  -18.5010  -24.0870    0.0780 C   0  0  0  0  0
  -17.7410  -23.0430    2.3280 C   0  0  0  0  0
  -17.6960  -23.0670   -0.6820 C   0  0  0  0  0
  -16.9220  -22.0270    1.5650 C   0  0  0  0  0
  -16.9020  -22.0330    0.0670 C   0  0  0  0  0
  -21.6930  -26.1120    2.6140 C   0  0  0  0  0
  -21.6300  -26.0020    3.9880 O   0  0  0  0  0
  -23.0220  -26.5880    1.9680 C   0  0  0  0  0
  -22.6840  -27.6870    0.9480 C   0  0  0  0  0
  -22.4970  -27.4290   -0.2330 O   0  0  0  0  0
  -22.5630  -29.0720    1.4190 N   0  0  0  0  0
  -22.2250  -30.1640    0.4790 C   0  0  0  0  0
  -23.3500  -30.3620   -0.5500 C   0  0  0  0  0
  -24.4820  -30.6170   -0.1610 O   0  0  0  0  0
  -21.9370  -31.4250    1.2780 C   0  0  0  0  0
  -21.6210  -32.6120    0.3500 C   0  0  0  0  0
  -20.2280  -32.4330   -0.2070 C   0  0  0  0  0
  -21.6370  -33.8760    1.2280 C   0  0  0  0  0
  -23.0650  -30.2650   -1.9830 N   0  0  0  0  0
  -24.1270  -30.4990   -2.9740 C   0  0  0  0  0
  -24.0450  -31.9850   -3.2750 C   0  0  0  0  0
  -22.9400  -32.4840   -3.4570 O   0  0  0  0  0
  -23.9100  -29.7600   -4.2500 C   0  0  0  0  0
  -25.2290  -32.8700   -3.3340 N   0  0  0  0  0
  -24.9820  -34.3020   -3.6170 C   0  0  0  0  0
  -25.3130  -35.1970   -2.3860 C   0  0  0  0  0
  -26.4740  -35.4930   -2.0840 O   0  0  0  0  0
  -25.5660  -34.6930   -4.9640 C   0  0  0  0  0
  -24.5960  -34.1690   -6.0360 C   0  0  0  0  0
  -23.7030  -35.1240   -6.8040 C   0  0  0  0  0
  -24.4980  -32.6980   -6.3390 C   0  0  0  0  0
  -22.7390  -34.6170   -7.8560 C   0  0  0  0  0
  -23.5350  -32.1840   -7.3870 C   0  0  0  0  0
  -22.6550  -33.1470   -8.1420 C   0  0  0  0  0
  -26.5700  -32.3640   -3.1160 C   0  0  0  0  0
  -26.0830  -39.1180    1.2460 C   0  0  0  0  0
  -24.0620  -38.8050   -0.4410 O   0  0  0  0  0
  -21.9070  -36.3170   -1.2090 C   0  0  0  0  0
  -22.7030  -36.7720   -0.0300 C   0  0  0  0  0
  -22.7920  -35.3000   -1.8790 C   0  0  0  0  0
  -25.9380  -37.9560    0.4570 O   0  0  0  0  0
  -24.8050  -37.8160   -0.3360 C   0  0  0  0  0
  -24.1270  -36.4690   -0.3320 C   0  0  0  0  0
  -24.1570  -35.6630   -1.5460 N   0  0  0  0  0
  -24.6554  -14.5768   -0.6672 H   0  0  0  0  0
  -23.0135  -14.5383    0.0210 H   0  0  0  0  0
  -23.3533  -15.5329   -1.4165 H   0  0  0  0  0
  -25.4374  -17.9876    0.3893 H   0  0  0  0  0
  -26.0424  -16.5209   -0.4193 H   0  0  0  0  0
  -24.7907  -17.5170   -1.2017 H   0  0  0  0  0
  -25.5502  -15.2323    1.5498 H   0  0  0  0  0
  -24.9453  -16.6990    2.3584 H   0  0  0  0  0
  -23.9155  -15.2498    2.2559 H   0  0  0  0  0
  -21.0165  -17.2567    3.3574 H   0  0  0  0  0
  -20.2653  -18.4581    0.8354 H   0  0  0  0  0
  -19.4015  -20.4118    2.3300 H   0  0  0  0  0
  -17.9523  -18.6620    1.3945 H   0  0  0  0  0
  -18.3577  -17.5909    2.7581 H   0  0  0  0  0
  -17.4472  -19.0938    3.0467 H   0  0  0  0  0
  -20.0515  -18.2939    4.4482 H   0  0  0  0  0
  -20.8432  -19.8816    4.2950 H   0  0  0  0  0
  -19.1202  -19.7844    4.7343 H   0  0  0  0  0
  -20.4308  -20.2319   -0.7654 H   0  0  0  0  0
  -19.5967  -21.1785    0.4913 H   0  0  0  0  0
  -20.6371  -21.9993   -0.6982 H   0  0  0  0  0
  -25.4795  -19.4692   -3.2444 H   0  0  0  0  0
  -23.9915  -19.1441   -2.3492 H   0  0  0  0  0
  -24.0244  -19.6512    0.1598 H   0  0  0  0  0
  -25.1501  -20.8240    0.7504 H   0  0  0  0  0
  -23.0117  -21.3474   -1.3487 H   0  0  0  0  0
  -24.1689  -22.5520   -0.7443 H   0  0  0  0  0
  -23.2891  -21.9024    1.6021 H   0  0  0  0  0
  -21.3702  -23.2870    2.6102 H   0  0  0  0  0
  -20.6640  -25.6061    0.7753 H   0  0  0  0  0
  -18.8880  -26.1180    2.2829 H   0  0  0  0  0
  -19.4159  -24.8540    3.4163 H   0  0  0  0  0
  -19.0705  -24.8375   -0.4702 H   0  0  0  0  0
  -17.7603  -23.0217    3.4176 H   0  0  0  0  0
  -17.6887  -23.0780   -1.7719 H   0  0  0  0  0
  -16.3406  -21.2832    2.1098 H   0  0  0  0  0
  -16.3154  -21.2923   -0.4765 H   0  0  0  0  0
  -21.1472  -27.0503    2.5149 H   0  0  0  0  0
  -22.2501  -26.6174    4.3859 H   0  0  0  0  0
  -23.5213  -25.7547    1.4737 H   0  0  0  0  0
  -23.6955  -26.9762    2.7321 H   0  0  0  0  0
  -22.7136  -29.2842    2.4053 H   0  0  0  0  0
  -21.3315  -29.9085   -0.0907 H   0  0  0  0  0
  -22.8188  -31.6710    1.8696 H   0  0  0  0  0
  -21.0725  -31.2426    1.9163 H   0  0  0  0  0
  -22.3386  -32.6813   -0.4675 H   0  0  0  0  0
  -20.1797  -31.4999   -0.7684 H   0  0  0  0  0
  -19.5111  -32.4024    0.6135 H   0  0  0  0  0
  -19.9917  -33.2680   -0.8666 H   0  0  0  0  0
  -20.8835  -33.7831    2.0101 H   0  0  0  0  0
  -22.6215  -33.9892    1.6818 H   0  0  0  0  0
  -21.4172  -34.7477    0.6117 H   0  0  0  0  0
  -22.1225  -30.0333   -2.2967 H   0  0  0  0  0
  -25.0851  -30.1623   -2.5780 H   0  0  0  0  0
  -23.8770  -28.6895   -4.0473 H   0  0  0  0  0
  -22.9667  -30.0760   -4.6955 H   0  0  0  0  0
  -24.7281  -29.9760   -4.9371 H   0  0  0  0  0
  -23.9167  -34.4907   -3.7494 H   0  0  0  0  0
  -26.5591  -34.2634   -5.0959 H   0  0  0  0  0
  -25.6795  -35.7745   -5.0386 H   0  0  0  0  0
  -23.7558  -36.1926   -6.5955 H   0  0  0  0  0
  -25.1288  -31.9938   -5.7965 H   0  0  0  0  0
  -22.1085  -35.3177   -8.4034 H   0  0  0  0  0
  -23.4776  -31.1158   -7.5962 H   0  0  0  0  0
  -21.9590  -32.7759   -8.8943 H   0  0  0  0  0
  -26.6354  -31.9299   -2.1183 H   0  0  0  0  0
  -26.7946  -31.6008   -3.8611 H   0  0  0  0  0
  -27.2847  -33.1822   -3.2052 H   0  0  0  0  0
  -26.0910  -39.9957    0.5998 H   0  0  0  0  0
  -25.2494  -39.1874    1.9449 H   0  0  0  0  0
  -27.0201  -39.0647    1.8002 H   0  0  0  0  0
  -21.6486  -37.1407   -1.8745 H   0  0  0  0  0
  -20.9437  -35.8976   -0.9188 H   0  0  0  0  0
  -22.3811  -36.2596    0.8766 H   0  0  0  0  0
  -22.5619  -37.8385    0.1452 H   0  0  0  0  0
  -22.6395  -35.2989   -2.9583 H   0  0  0  0  0
  -22.5600  -34.2921   -1.5349 H   0  0  0  0  0
  -24.6770  -35.8553    0.3815 H   0  0  0  0  0
  2  1  2  0  0  0
  2  3  1  0  0  0
  8  2  1  0  0  0
  3  4  1  0  0  0
  4  5  1  0  0  0
  4  6  1  0  0  0
  4  7  1  0  0  0
  9  8  1  0  0  0
 10  9  1  0  0  0
  9 12  1  0  0  0
 10 11  2  0  0  0
 24 10  1  0  0  0
 12 13  1  0  0  0
 12 14  1  0  0  0
 24 15  1  0  0  0
 21 16  1  0  0  0
 21 17  2  0  0  0
 22 18  2  0  0  0
 20 19  1  0  0  0
 19 21  1  0  0  0
 23 20  1  0  0  0
 22 23  1  0  0  0
 25 22  1  0  0  0
 23 24  1  0  0  0
 26 25  1  0  0  0
 26 27  1  0  0  0
 34 26  1  0  0  0
 27 28  1  0  0  0
 28 29  4  0  0  0
 28 30  4  0  0  0
 29 31  4  0  0  0
 30 32  4  0  0  0
 31 33  4  0  0  0
 32 33  4  0  0  0
 34 35  1  0  0  0
 36 34  1  0  0  0
 37 36  1  0  0  0
 37 38  2  0  0  0
 39 37  1  0  0  0
 40 39  1  0  0  0
 41 40  1  0  0  0
 40 43  1  0  0  0
 41 42  2  0  0  0
 47 41  1  0  0  0
 43 44  1  0  0  0
 44 45  1  0  0  0
 44 46  1  0  0  0
 48 47  1  0  0  0
 49 48  1  0  0  0
 48 51  1  0  0  0
 49 50  2  0  0  0
 52 49  1  0  0  0
 53 52  1  0  0  0
 52 63  1  0  0  0
 54 53  1  0  0  0
 53 56  1  0  0  0
 54 55  2  0  0  0
 72 54  1  0  0  0
 56 57  1  0  0  0
 57 58  4  0  0  0
 57 59  4  0  0  0
 58 60  4  0  0  0
 59 61  4  0  0  0
 60 62  4  0  0  0
 61 62  4  0  0  0
 69 64  1  0  0  0
 70 65  2  0  0  0
 67 66  1  0  0  0
 66 68  1  0  0  0
 71 67  1  0  0  0
 68 72  1  0  0  0
 70 69  1  0  0  0
 70 71  1  0  0  0
 71 72  1  0  0  0
  5 73  1  0  0  0
  5 74  1  0  0  0
  5 75  1  0  0  0
  6 76  1  0  0  0
  6 77  1  0  0  0
  6 78  1  0  0  0
  7 79  1  0  0  0
  7 80  1  0  0  0
  7 81  1  0  0  0
  8 82  1  0  0  0
  9 83  1  0  0  0
 12 84  1  0  0  0
 13 85  1  0  0  0
 13 86  1  0  0  0
 13 87  1  0  0  0
 14 88  1  0  0  0
 14 89  1  0  0  0
 14 90  1  0  0  0
 15 91  1  0  0  0
 15 92  1  0  0  0
 15 93  1  0  0  0
 16 94  1  0  0  0
 16 95  1  0  0  0
 19 96  1  0  0  0
 19 97  1  0  0  0
 20 98  1  0  0  0
 20 99  1  0  0  0
 23100  1  0  0  0
 25101  1  0  0  0
 26102  1  0  0  0
 27103  1  0  0  0
 27104  1  0  0  0
 29105  1  0  0  0
 30106  1  0  0  0
 31107  1  0  0  0
 32108  1  0  0  0
 33109  1  0  0  0
 34110  1  0  0  0
 35111  1  0  0  0
 36112  1  0  0  0
 36113  1  0  0  0
 39114  1  0  0  0
 40115  1  0  0  0
 43116  1  0  0  0
 43117  1  0  0  0
 44118  1  0  0  0
 45119  1  0  0  0
 45120  1  0  0  0
 45121  1  0  0  0
 46122  1  0  0  0
 46123  1  0  0  0
 46124  1  0  0  0
 47125  1  0  0  0
 48126  1  0  0  0
 51127  1  0  0  0
 51128  1  0  0  0
 51129  1  0  0  0
 53130  1  0  0  0
 56131  1  0  0  0
 56132  1  0  0  0
 58133  1  0  0  0
 59134  1  0  0  0
 60135  1  0  0  0
 61136  1  0  0  0
 62137  1  0  0  0
 63138  1  0  0  0
 63139  1  0  0  0
 63140  1  0  0  0
 64141  1  0  0  0
 64142  1  0  0  0
 64143  1  0  0  0
 66144  1  0  0  0
 66145  1  0  0  0
 67146  1  0  0  0
 67147  1  0  0  0
 68148  1  0  0  0
 68149  1  0  0  0
 71150  1  0  0  0
M  END
$$$$
