5moe_ligand
  -I-interpret- 

 25 26  0  0  0  0  0  0  0  0999 V2000
   33.6930  149.8330  368.3620 C   0  0  0  0  0
   34.5220  150.3750  365.4440 Cl  0  0  0  0  0
   34.0810  148.8270  366.0860 C   0  0  0  0  0
   34.1150  147.7410  365.2320 C   0  0  0  0  0
   33.7470  146.4800  365.6820 C   0  0  0  0  0
   33.7860  145.3000  364.7520 C   0  0  0  0  0
   34.8020  144.3100  365.0810 N   0  3  0  0  0
   33.6910  148.6950  367.4130 C   0  0  0  0  0
   33.3200  147.4280  367.8560 C   0  0  0  0  0
   33.3500  146.3420  367.0000 C   0  0  0  0  0
   32.5320  150.2350  369.0750 C   0  0  0  0  0
   32.8800  151.2630  369.8540 C   0  0  0  0  0
   34.6730  150.6660  368.7710 C   0  0  0  0  0
   34.2000  151.5550  369.6910 O   0  0  0  0  0
   34.4329  147.8753  364.1981 H   0  0  0  0  0
   34.0211  145.6825  363.7587 H   0  0  0  0  0
   32.8187  144.8028  364.8245 H   0  0  0  0  0
   34.7622  143.5464  364.4059 H   0  0  0  0  0
   35.7234  144.7464  365.0486 H   0  0  0  0  0
   34.6296  143.9461  366.0182 H   0  0  0  0  0
   33.0022  147.2905  368.8895 H   0  0  0  0  0
   33.0556  145.3601  367.3704 H   0  0  0  0  0
   31.5409  149.7876  369.0003 H   0  0  0  0  0
   32.2035  151.7927  370.5247 H   0  0  0  0  0
   35.7025  150.6328  368.4146 H   0  0  0  0  0
  8  1  1  0  0  0
  1 11  4  0  0  0
  1 13  4  0  0  0
  3  2  1  0  0  0
  3  4  4  0  0  0
  3  8  4  0  0  0
  4  5  4  0  0  0
  5  6  1  0  0  0
  5 10  4  0  0  0
  6  7  1  0  0  0
  8  9  4  0  0  0
  9 10  4  0  0  0
 11 12  4  0  0  0
 12 14  4  0  0  0
 13 14  4  0  0  0
  4 15  1  0  0  0
  6 16  1  0  0  0
  6 17  1  0  0  0
  7 18  1  0  0  0
  7 19  1  0  0  0
  7 20  1  0  0  0
  9 21  1  0  0  0
 10 22  1  0  0  0
 11 23  1  0  0  0
 12 24  1  0  0  0
 13 25  1  0  0  0
M  END
$$$$
