4d0x_ligand
  -I-interpret- 

 36 38  0  0  0  0  0  0  0  0999 V2000
   30.6670  -14.9690    1.7840 Cl  0  0  0  0  0
   31.1840  -15.7410    3.2490 C   0  0  0  0  0
   31.3330  -17.1240    3.2270 C   0  0  0  0  0
   31.8350  -17.6960    4.3280 C   0  0  0  0  0
   32.1490  -16.9100    5.4610 C   0  0  0  0  0
   32.7040  -17.6310    6.6520 C   0  0  0  0  0
   32.8540  -16.8390    7.6950 F   0  0  0  0  0
   33.9640  -17.9470    6.3790 F   0  0  0  0  0
   31.9980  -18.7250    6.8920 F   0  0  0  0  0
   31.9990  -15.5360    5.4930 C   0  0  0  0  0
   31.4860  -14.9330    4.3740 C   0  0  0  0  0
   31.3600  -13.4660    4.3250 C   0  0  0  0  0
   32.2630  -12.6750    3.6360 N   0  0  0  0  0
   30.3380  -12.6300    4.8250 C   0  0  0  0  0
   29.1080  -13.1810    5.5370 C   0  0  0  0  0
   29.0520  -14.3880    5.9740 N   0  0  0  0  0
   28.0990  -12.4590    5.6910 O   0  0  0  0  0
   30.6420  -11.3100    4.4660 C   0  0  0  0  0
   31.8680  -11.3760    3.7540 C   0  0  0  0  0
   32.5710  -10.2600    3.1130 C   0  0  0  0  0
   32.1470   -8.9490    3.1970 C   0  0  0  0  0
   32.8770   -8.0090    2.5180 C   0  0  0  0  0
   33.9600   -8.3640    1.7890 N   0  0  0  0  0
   34.3520   -9.6710    1.7070 C   0  0  0  0  0
   33.6780  -10.6200    2.3890 N   0  0  0  0  0
   35.4580  -10.0880    1.0020 N   0  0  0  0  0
   31.0540  -17.7141    2.3540 H   0  0  0  0  0
   32.0026  -18.7728    4.3515 H   0  0  0  0  0
   32.2775  -14.9556    6.3726 H   0  0  0  0  0
   28.2041  -14.7271    6.4284 H   0  0  0  0  0
   29.8555  -15.0071    5.8665 H   0  0  0  0  0
   30.0576  -10.4170    4.6878 H   0  0  0  0  0
   31.2679   -8.6730    3.7793 H   0  0  0  0  0
   32.5811   -6.9610    2.5659 H   0  0  0  0  0
   36.0329   -9.4072    0.5056 H   0  0  0  0  0
   35.7028  -11.0778    0.9759 H   0  0  0  0  0
  1  2  1  0  0  0
  2  3  4  0  0  0
  2 11  4  0  0  0
  3  4  4  0  0  0
  4  5  4  0  0  0
  5  6  1  0  0  0
  5 10  4  0  0  0
  6  7  1  0  0  0
  6  8  1  0  0  0
  6  9  1  0  0  0
 10 11  4  0  0  0
 11 12  1  0  0  0
 12 13  4  0  0  0
 12 14  4  0  0  0
 13 19  4  0  0  0
 14 15  1  0  0  0
 14 18  4  0  0  0
 15 16  1  0  0  0
 15 17  2  0  0  0
 18 19  4  0  0  0
 19 20  1  0  0  0
 20 21  4  0  0  0
 20 25  4  0  0  0
 21 22  4  0  0  0
 22 23  4  0  0  0
 23 24  4  0  0  0
 24 25  4  0  0  0
 24 26  1  0  0  0
  3 27  1  0  0  0
  4 28  1  0  0  0
 10 29  1  0  0  0
 16 30  1  0  0  0
 16 31  1  0  0  0
 18 32  1  0  0  0
 21 33  1  0  0  0
 22 34  1  0  0  0
 26 35  1  0  0  0
 26 36  1  0  0  0
M  END
$$$$
