5e0h_ligand
  -I-interpret- 

 66 67  0  0  0  0  0  0  0  0999 V2000
  -22.3370   40.5260  -16.4220 C   0  0  0  0  0
  -22.7860   40.4070  -17.7960 O   0  0  0  0  0
  -22.0070   41.6210  -16.0570 O   0  0  0  0  0
  -23.2620   33.1860  -13.5200 N   0  0  0  0  0
  -23.9030   34.0830  -12.6150 C   0  0  0  0  0
  -24.9900   34.8630  -13.5170 C   0  0  0  0  0
  -25.6400   35.8620  -12.5810 C   0  0  0  0  0
  -24.9820   37.0490  -12.9210 N   0  0  0  0  0
  -23.7530   37.4920  -12.5140 C   0  0  0  0  0
  -23.4700   38.7440  -13.1270 C   0  0  0  0  0
  -22.2720   39.6660  -13.0170 C   0  0  0  0  0
  -21.4830   39.6150  -14.2880 C   0  0  0  0  0
  -22.2890   39.3520  -15.4990 N   0  0  0  0  0
  -20.4560   38.5310  -14.1090 C   0  0  0  0  0
  -20.5710   37.4620  -14.6910 O   0  0  0  0  0
  -24.5820   38.9530  -13.8920 N   0  0  0  0  0
  -25.4370   37.9660  -13.7780 N   0  0  0  0  0
  -19.3870   38.8620  -13.2080 N   0  0  0  0  0
  -18.3060   37.9800  -12.9350 C   0  0  0  0  0
  -18.8150   36.7870  -12.1840 C   0  0  0  0  0
  -19.7980   36.8670  -11.3870 O   0  0  0  0  0
  -17.2740   38.6800  -12.0990 C   0  0  0  0  0
  -16.7500   39.9610  -12.8300 C   0  0  0  0  0
  -15.8230   39.6250  -13.9860 C   0  0  0  0  0
  -16.0880   40.8540  -11.7960 C   0  0  0  0  0
  -18.1270   35.5420  -12.4010 N   0  0  0  0  0
  -18.6080   34.3830  -11.7430 C   0  0  0  0  0
  -19.3670   33.5730  -12.7500 C   0  0  0  0  0
  -20.8480   34.1500  -12.8790 C   0  0  0  0  0
  -21.8000   33.1640  -13.7090 C   0  0  0  0  0
  -21.3690   32.3580  -14.5360 O   0  0  0  0  0
  -17.4430   33.6090  -11.2270 C   0  0  0  0  0
  -16.8700   34.3820  -10.3390 O   0  0  0  0  0
  -23.0227   39.4943  -17.9762 H   0  0  0  0  0
  -23.8364   32.5357  -14.0563 H   0  0  0  0  0
  -23.1941   34.7671  -12.1485 H   0  0  0  0  0
  -24.3674   33.5575  -11.7806 H   0  0  0  0  0
  -25.7220   34.1786  -13.9458 H   0  0  0  0  0
  -24.5248   35.3557  -14.3707 H   0  0  0  0  0
  -25.5377   35.5977  -11.5285 H   0  0  0  0  0
  -26.7224   35.9201  -12.6954 H   0  0  0  0  0
  -23.0919   36.9659  -11.8253 H   0  0  0  0  0
  -21.6429   39.3460  -12.1864 H   0  0  0  0  0
  -22.6141   40.6862  -12.8430 H   0  0  0  0  0
  -21.0408   40.5968  -14.4571 H   0  0  0  0  0
  -22.7604   38.4666  -15.6841 H   0  0  0  0  0
  -19.4044   39.7700  -12.7437 H   0  0  0  0  0
  -17.8573   37.6639  -13.8767 H   0  0  0  0  0
  -16.4371   38.0023  -11.9301 H   0  0  0  0  0
  -17.7265   38.9738  -11.1519 H   0  0  0  0  0
  -17.5863   40.4916  -13.2853 H   0  0  0  0  0
  -14.9614   39.0730  -13.6105 H   0  0  0  0  0
  -16.3581   39.0148  -14.7136 H   0  0  0  0  0
  -15.4868   40.5470  -14.4603 H   0  0  0  0  0
  -16.8173   41.1271  -11.0333 H   0  0  0  0  0
  -15.2591   40.3187  -11.3328 H   0  0  0  0  0
  -15.7140   41.7551  -12.2821 H   0  0  0  0  0
  -17.3128   35.4949  -13.0136 H   0  0  0  0  0
  -19.2585   34.6388  -10.9066 H   0  0  0  0  0
  -19.4068   32.5326  -12.4273 H   0  0  0  0  0
  -18.8669   33.6299  -13.7168 H   0  0  0  0  0
  -20.7998   35.1034  -13.4051 H   0  0  0  0  0
  -21.2609   34.2617  -11.8764 H   0  0  0  0  0
  -16.7536   33.3458  -12.0292 H   0  0  0  0  0
  -17.7576   32.6628  -10.7868 H   0  0  0  0  0
  -16.1067   33.9320   -9.9696 H   0  0  0  0  0
  1  2  1  0  0  0
  1  3  2  0  0  0
 13  1  1  0  0  0
  5  4  1  0  0  0
  4 30  1  0  0  0
  6  5  1  0  0  0
  7  6  1  0  0  0
  8  7  1  0  0  0
  9  8  4  0  0  0
  8 17  4  0  0  0
 10  9  4  0  0  0
 11 10  1  0  0  0
 10 16  4  0  0  0
 12 11  1  0  0  0
 12 13  1  0  0  0
 12 14  1  0  0  0
 14 15  2  0  0  0
 14 18  1  0  0  0
 16 17  4  0  0  0
 18 19  1  0  0  0
 19 20  1  0  0  0
 19 22  1  0  0  0
 20 21  2  0  0  0
 20 26  1  0  0  0
 22 23  1  0  0  0
 23 24  1  0  0  0
 23 25  1  0  0  0
 26 27  1  0  0  0
 27 28  1  0  0  0
 27 32  1  0  0  0
 28 29  1  0  0  0
 29 30  1  0  0  0
 30 31  2  0  0  0
 32 33  1  0  0  0
  2 34  1  0  0  0
  4 35  1  0  0  0
  5 36  1  0  0  0
  5 37  1  0  0  0
  6 38  1  0  0  0
  6 39  1  0  0  0
  7 40  1  0  0  0
  7 41  1  0  0  0
  9 42  1  0  0  0
 11 43  1  0  0  0
 11 44  1  0  0  0
 12 45  1  0  0  0
 13 46  1  0  0  0
 18 47  1  0  0  0
 19 48  1  0  0  0
 22 49  1  0  0  0
 22 50  1  0  0  0
 23 51  1  0  0  0
 24 52  1  0  0  0
 24 53  1  0  0  0
 24 54  1  0  0  0
 25 55  1  0  0  0
 25 56  1  0  0  0
 25 57  1  0  0  0
 26 58  1  0  0  0
 27 59  1  0  0  0
 28 60  1  0  0  0
 28 61  1  0  0  0
 29 62  1  0  0  0
 29 63  1  0  0  0
 32 64  1  0  0  0
 32 65  1  0  0  0
 33 66  1  0  0  0
M  END
$$$$
