3q2m_ligand
  -I-interpret- 

 31 32  0  0  0  0  0  0  0  0999 V2000
   -2.4990   25.7210   34.9530 C   0  0  0  0  0
   -3.7550   25.3540   34.4580 N   0  0  0  0  0
   -4.2200   26.0290   33.3340 C   0  0  0  0  0
   -3.4820   27.0690   32.6710 C   0  0  0  0  0
   -1.3960   28.4810   32.5650 C   0  0  0  0  0
   -1.9380   29.3370   31.1660 Cl  0  0  0  0  0
   -0.1200   28.8300   33.1050 C   0  0  0  0  0
    0.3890   28.1610   34.2620 C   0  0  0  0  0
   -0.3670   27.1200   34.9030 C   0  0  0  0  0
   -1.6780   26.7520   34.3600 C   0  0  0  0  0
   -2.1920   27.4400   33.1870 C   0  0  0  0  0
    0.3790   26.3510   36.3540 S   0  0  0  0  0
   -0.0940   27.0960   37.4950 O   0  0  0  0  0
    1.7900   26.4910   36.1770 O   0  0  0  0  0
   -0.0870   24.7070   36.5620 N   0  0  0  0  0
    0.9110   23.5600   36.5900 C   0  0  0  0  0
    2.4410   23.7290   36.3760 C   0  0  0  0  0
    2.7990   24.7910   35.4460 N   0  3  0  0  0
   -2.1194   25.2016   35.8329 H   0  0  0  0  0
   -5.1964   25.7545   32.9347 H   0  0  0  0  0
   -3.8927   27.5675   31.7930 H   0  0  0  0  0
    0.4710   29.6135   32.6307 H   0  0  0  0  0
    1.3623   28.4440   34.6627 H   0  0  0  0  0
   -1.0781   24.4923   36.6715 H   0  0  0  0  0
    0.6136   22.9634   35.7276 H   0  0  0  0  0
    0.8507   23.2159   37.6225 H   0  0  0  0  0
    2.8125   22.7943   35.9559 H   0  0  0  0  0
    2.8746   23.9873   37.3421 H   0  0  0  0  0
    3.8143   24.8381   35.3600 H   0  0  0  0  0
    2.3880   24.5949   34.5333 H   0  0  0  0  0
    2.4446   25.6813   35.7956 H   0  0  0  0  0
  2  1  4  0  0  0
  1 10  4  0  0  0
  3  2  4  0  0  0
  4  3  4  0  0  0
 11  4  4  0  0  0
  5  6  1  0  0  0
  5  7  4  0  0  0
  5 11  4  0  0  0
  7  8  4  0  0  0
  8  9  4  0  0  0
  9 10  4  0  0  0
  9 12  1  0  0  0
 10 11  4  0  0  0
 12 13  2  0  0  0
 12 14  2  0  0  0
 12 15  1  0  0  0
 15 16  1  0  0  0
 16 17  1  0  0  0
 17 18  1  0  0  0
  1 19  1  0  0  0
  3 20  1  0  0  0
  4 21  1  0  0  0
  7 22  1  0  0  0
  8 23  1  0  0  0
 15 24  1  0  0  0
 16 25  1  0  0  0
 16 26  1  0  0  0
 17 27  1  0  0  0
 17 28  1  0  0  0
 18 29  1  0  0  0
 18 30  1  0  0  0
 18 31  1  0  0  0
M  END
$$$$
