6qra_ligand
  -I-interpret- 

 56 60  0  0  0  0  0  0  0  0999 V2000
  -24.0860  -19.2050   11.7420 C   0  0  0  0  0
  -24.7170  -22.8140   11.1590 C   0  0  0  0  0
  -22.5470  -23.9280   11.5490 C   0  0  0  0  0
  -21.8500  -23.4820    9.0280 C   0  0  0  0  0
  -19.8150  -25.7100    6.6400 C   0  0  0  0  0
  -18.2860  -25.4980    5.0840 C   0  0  0  0  0
  -16.0100  -24.8630    5.8000 C   0  0  0  0  0
  -17.8240  -24.9670    7.4470 C   0  0  0  0  0
  -21.2370  -25.5350   10.2270 C   0  0  0  0  0
  -17.7710  -16.4380   12.7690 N   0  0  0  0  0
  -18.6280  -17.5920   12.7270 C   0  0  0  0  0
  -18.2170  -18.8920   12.9540 N   0  0  0  0  0
  -19.3250  -19.7310   12.8330 N   0  0  0  0  0
  -20.3980  -18.9910   12.5720 C   0  0  0  0  0
  -21.7350  -19.5320   12.2780 C   0  0  0  0  0
  -21.8150  -20.9170   12.0660 C   0  0  0  0  0
  -23.0830  -21.4520   11.7040 C   0  0  0  0  0
  -24.1820  -20.6180   11.5510 C   0  0  0  0  0
  -22.8370  -18.6540   12.1010 C   0  0  0  0  0
  -25.2270  -21.4670   11.1890 C   0  0  0  0  0
  -23.4630  -22.7680   11.4530 N   0  0  0  0  0
  -21.8530  -24.3280   10.2450 C   0  0  0  0  0
  -21.2150  -23.9090    7.9060 C   0  0  0  0  0
  -20.5470  -25.1870    7.8950 C   0  0  0  0  0
  -18.7720  -25.0850    6.3530 N   0  3  0  0  0
  -16.7690  -25.6730    4.9140 C   0  0  0  0  0
  -16.3520  -25.2100    7.1400 C   0  0  0  0  0
  -20.5730  -25.9880    9.0480 C   0  0  0  0  0
  -20.0130  -17.6270   12.4440 C   0  0  0  0  0
  -24.9594  -18.5658   11.6131 H   0  0  0  0  0
  -25.2898  -23.7123   10.9286 H   0  0  0  0  0
  -23.1556  -24.7803   11.8512 H   0  0  0  0  0
  -21.7586  -23.6445   12.2462 H   0  0  0  0  0
  -22.3574  -22.5173    9.0335 H   0  0  0  0  0
  -20.4989  -25.5942    5.7992 H   0  0  0  0  0
  -19.5243  -26.7403    6.8453 H   0  0  0  0  0
  -18.5639  -24.7007    4.3947 H   0  0  0  0  0
  -18.7113  -26.4881    4.9200 H   0  0  0  0  0
  -16.2306  -23.8106    5.6215 H   0  0  0  0  0
  -14.9455  -25.0285    5.6341 H   0  0  0  0  0
  -18.1044  -25.7423    8.1600 H   0  0  0  0  0
  -17.8855  -23.9293    7.7747 H   0  0  0  0  0
  -21.2488  -26.1630   11.1178 H   0  0  0  0  0
  -16.7788  -16.5470   12.9789 H   0  0  0  0  0
  -18.1553  -15.5105   12.5889 H   0  0  0  0  0
  -20.9400  -21.5579   12.1744 H   0  0  0  0  0
  -22.7210  -17.5790   12.2392 H   0  0  0  0  0
  -26.2505  -21.1646   10.9675 H   0  0  0  0  0
  -21.2103  -23.2848    7.0124 H   0  0  0  0  0
  -18.9947  -24.0974    6.2285 H   0  0  0  0  0
  -16.5143  -25.3777    3.8961 H   0  0  0  0  0
  -16.5300  -26.7140    5.1313 H   0  0  0  0  0
  -15.7609  -24.5863    7.8105 H   0  0  0  0  0
  -16.1512  -26.2729    7.2742 H   0  0  0  0  0
  -20.0830  -26.9617    9.0424 H   0  0  0  0  0
  -20.6528  -16.7843   12.1822 H   0  0  0  0  0
 18  1  4  0  0  0
  1 19  4  0  0  0
  2 20  4  0  0  0
 21  2  4  0  0  0
  3 21  1  0  0  0
 22  3  1  0  0  0
  4 22  4  0  0  0
 23  4  4  0  0  0
 24  5  1  0  0  0
  5 25  1  0  0  0
 25  6  1  0  0  0
  6 26  1  0  0  0
 26  7  1  0  0  0
 27  7  1  0  0  0
 25  8  1  0  0  0
  8 27  1  0  0  0
 22  9  4  0  0  0
  9 28  4  0  0  0
 11 10  1  0  0  0
 11 12  4  0  0  0
 29 11  4  0  0  0
 13 12  4  0  0  0
 14 13  4  0  0  0
 15 14  1  0  0  0
 14 29  4  0  0  0
 16 15  4  0  0  0
 15 19  4  0  0  0
 17 16  4  0  0  0
 17 18  4  0  0  0
 21 17  4  0  0  0
 18 20  4  0  0  0
 23 24  4  0  0  0
 24 28  4  0  0  0
  1 30  1  0  0  0
  2 31  1  0  0  0
  3 32  1  0  0  0
  3 33  1  0  0  0
  4 34  1  0  0  0
  5 35  1  0  0  0
  5 36  1  0  0  0
  6 37  1  0  0  0
  6 38  1  0  0  0
  7 39  1  0  0  0
  7 40  1  0  0  0
  8 41  1  0  0  0
  8 42  1  0  0  0
  9 43  1  0  0  0
 10 44  1  0  0  0
 10 45  1  0  0  0
 16 46  1  0  0  0
 19 47  1  0  0  0
 20 48  1  0  0  0
 23 49  1  0  0  0
 25 50  1  0  0  0
 26 51  1  0  0  0
 26 52  1  0  0  0
 27 53  1  0  0  0
 27 54  1  0  0  0
 28 55  1  0  0  0
 29 56  1  0  0  0
M  END
$$$$
