1xh6_ligand
  -I-interpret- 

 76 80  0  0  0  0  0  0  0  0999 V2000
    1.0590   37.0850   17.1780 O   0  0  0  0  0
    2.0490   36.3820   16.9600 C   0  0  0  0  0
    2.9150   36.7430   15.8230 C   0  0  0  0  0
    3.2520   35.8760   14.7710 C   0  0  0  0  0
    4.0700   36.3320   13.7130 C   0  0  0  0  0
    4.5570   37.6370   13.7220 C   0  0  0  0  0
    4.2340   38.5370   14.7620 C   0  0  0  0  0
    4.7240   39.8280   14.7530 N   0  0  0  0  0
    5.0870   40.4190   13.4470 C   0  0  0  0  0
    6.1200   41.5400   13.6260 C   0  0  0  0  0
    5.6070   42.5680   14.6420 C   0  0  0  0  0
    5.3080   41.8820   15.9840 C   0  0  0  0  0
    4.2700   40.7680   15.7990 C   0  0  0  0  0
    3.4220   38.0680   15.8090 C   0  0  0  0  0
    2.7830   34.5790   14.7380 O   0  0  0  0  0
    2.3290   35.3920   17.9960 C   0  0  0  0  0
    3.6400   34.9000   18.1880 C   0  0  0  0  0
    3.8910   34.0040   19.2250 C   0  0  0  0  0
    1.2890   34.9850   18.8480 C   0  0  0  0  0
    1.5430   34.0910   19.8780 C   0  0  0  0  0
    2.8420   33.5940   20.0710 C   0  0  0  0  0
    3.1180   32.6760   21.1680 C   0  0  0  0  0
    2.3840   32.5910   22.1620 O   0  0  0  0  0
    4.3020   31.9500   21.1250 N   0  0  0  0  0
    4.8260   31.2720   22.3510 C   0  0  0  0  0
    5.3170   32.3850   23.3020 C   0  0  0  0  0
    6.3600   33.3590   22.7450 C   0  0  0  0  0
    7.7540   32.7450   22.7840 C   0  0  0  0  0
    7.8310   31.5730   21.8140 N   0  3  0  0  0
    7.2760   30.2750   22.3610 C   0  0  0  0  0
    5.7950   30.1130   21.9840 C   0  0  0  0  0
    5.3390   28.8370   22.5820 N   0  0  0  0  0
    5.1350   27.7290   21.7710 C   0  0  0  0  0
    5.0420   27.9100   20.5470 O   0  0  0  0  0
    4.9520   26.3930   22.3360 C   0  0  0  0  0
    4.7250   25.3160   21.4600 C   0  0  0  0  0
    4.5500   24.0400   21.9890 C   0  0  0  0  0
    4.5340   23.8190   23.3090 N   0  0  0  0  0
    4.7440   24.8330   24.1500 C   0  0  0  0  0
    4.9400   26.1380   23.7050 C   0  0  0  0  0
    4.3199   35.6626   12.8898 H   0  0  0  0  0
    5.2014   37.9711   12.9088 H   0  0  0  0  0
    4.1907   40.8363   12.9881 H   0  0  0  0  0
    5.5173   39.6413   12.8161 H   0  0  0  0  0
    6.2837   42.0333   12.6679 H   0  0  0  0  0
    7.0544   41.1122   13.9891 H   0  0  0  0  0
    4.6920   43.0212   14.2607 H   0  0  0  0  0
    6.3696   43.3320   14.7934 H   0  0  0  0  0
    4.9126   42.6223   16.6795 H   0  0  0  0  0
    6.2290   41.4468   16.3719 H   0  0  0  0  0
    4.1485   40.2295   16.7388 H   0  0  0  0  0
    3.3190   41.2082   15.4992 H   0  0  0  0  0
    3.1755   38.7396   16.6314 H   0  0  0  0  0
    3.1142   34.1401   13.9511 H   0  0  0  0  0
    4.4483   35.2190   17.5300 H   0  0  0  0  0
    4.8991   33.6203   19.3816 H   0  0  0  0  0
    0.2809   35.3722   18.6996 H   0  0  0  0  0
    0.7346   33.7746   20.5371 H   0  0  0  0  0
    4.8190   31.8787   20.2486 H   0  0  0  0  0
    4.0702   30.7239   22.9135 H   0  0  0  0  0
    5.7991   31.8749   24.1360 H   0  0  0  0  0
    4.4394   32.9877   23.5357 H   0  0  0  0  0
    6.3577   34.2617   23.3559 H   0  0  0  0  0
    6.1072   33.5886   21.7099 H   0  0  0  0  0
    7.9629   32.3908   23.7934 H   0  0  0  0  0
    8.4872   33.4986   22.4965 H   0  0  0  0  0
    8.8181   31.4156   21.6108 H   0  0  0  0  0
    7.2694   31.8201   20.9992 H   0  0  0  0  0
    7.3630   30.2857   23.4475 H   0  0  0  0  0
    7.8398   29.4447   21.9358 H   0  0  0  0  0
    5.7550   30.1260   20.8948 H   0  0  0  0  0
    5.1754   28.7726   23.5867 H   0  0  0  0  0
    4.6867   25.4780   20.3828 H   0  0  0  0  0
    4.4225   23.1976   21.3092 H   0  0  0  0  0
    4.7628   24.6334   25.2214 H   0  0  0  0  0
    5.0822   26.9493   24.4190 H   0  0  0  0  0
  1  2  2  0  0  0
  2  3  1  0  0  0
  2 16  1  0  0  0
  3  4  4  0  0  0
  3 14  4  0  0  0
  4  5  4  0  0  0
  4 15  1  0  0  0
  5  6  4  0  0  0
  6  7  4  0  0  0
  7  8  1  0  0  0
  7 14  4  0  0  0
  8  9  1  0  0  0
  8 13  1  0  0  0
  9 10  1  0  0  0
 10 11  1  0  0  0
 11 12  1  0  0  0
 12 13  1  0  0  0
 16 17  4  0  0  0
 16 19  4  0  0  0
 17 18  4  0  0  0
 18 21  4  0  0  0
 19 20  4  0  0  0
 20 21  4  0  0  0
 21 22  1  0  0  0
 22 23  2  0  0  0
 22 24  1  0  0  0
 24 25  1  0  0  0
 25 26  1  0  0  0
 25 31  1  0  0  0
 26 27  1  0  0  0
 27 28  1  0  0  0
 28 29  1  0  0  0
 29 30  1  0  0  0
 30 31  1  0  0  0
 31 32  1  0  0  0
 32 33  1  0  0  0
 33 34  2  0  0  0
 33 35  1  0  0  0
 35 36  4  0  0  0
 35 40  4  0  0  0
 36 37  4  0  0  0
 37 38  4  0  0  0
 38 39  4  0  0  0
 39 40  4  0  0  0
  5 41  1  0  0  0
  6 42  1  0  0  0
  9 43  1  0  0  0
  9 44  1  0  0  0
 10 45  1  0  0  0
 10 46  1  0  0  0
 11 47  1  0  0  0
 11 48  1  0  0  0
 12 49  1  0  0  0
 12 50  1  0  0  0
 13 51  1  0  0  0
 13 52  1  0  0  0
 14 53  1  0  0  0
 15 54  1  0  0  0
 17 55  1  0  0  0
 18 56  1  0  0  0
 19 57  1  0  0  0
 20 58  1  0  0  0
 24 59  1  0  0  0
 25 60  1  0  0  0
 26 61  1  0  0  0
 26 62  1  0  0  0
 27 63  1  0  0  0
 27 64  1  0  0  0
 28 65  1  0  0  0
 28 66  1  0  0  0
 29 67  1  0  0  0
 29 68  1  0  0  0
 30 69  1  0  0  0
 30 70  1  0  0  0
 31 71  1  0  0  0
 32 72  1  0  0  0
 36 73  1  0  0  0
 37 74  1  0  0  0
 39 75  1  0  0  0
 40 76  1  0  0  0
M  END
$$$$
