6b7f_ligand
  -I-interpret- 

 36 38  0  0  0  0  0  0  0  0999 V2000
   29.1440  123.6840  165.8090 C   0  0  0  0  0
   29.9770  124.7900  165.6040 C   0  0  0  0  0
   29.7720  125.9680  166.3400 C   0  0  0  0  0
   25.3640  126.8340  169.7980 C   0  0  0  0  0
   25.3530  126.8110  167.3010 C   0  0  0  0  0
   28.5110  124.8630  170.2130 C   0  0  0  0  0
   27.5520  123.8390  171.8990 C   0  0  0  0  0
   26.6580  124.0240  170.8860 C   0  0  0  0  0
   25.2410  123.5640  171.0090 C   0  0  0  0  0
   24.2760  123.5420  170.0730 C   0  0  0  0  0
   26.7800  125.0970  168.5440 C   0  0  0  0  0
   28.1120  123.7920  166.7550 C   0  0  0  0  0
   27.9030  124.9660  167.4940 C   0  0  0  0  0
   28.7430  126.0590  167.2790 C   0  0  0  0  0
   28.4910  127.3170  168.0790 C   0  0  0  0  0
   26.2500  126.5670  168.5500 C   0  0  0  0  0
   27.2720  124.6640  169.8690 N   0  0  0  0  0
   28.7470  124.4200  171.3630 N   0  0  0  0  0
   29.3770  128.1420  168.2490 O   0  0  0  0  0
   27.2930  127.5810  168.6200 O   0  0  0  0  0
   29.2928  122.7614  165.2480 H   0  0  0  0  0
   30.7843  124.7368  164.8735 H   0  0  0  0  0
   30.4261  126.8243  166.1757 H   0  0  0  0  0
   24.5118  126.1544  169.7891 H   0  0  0  0  0
   25.9518  126.6699  170.7011 H   0  0  0  0  0
   25.0090  127.8643  169.7762 H   0  0  0  0  0
   25.9378  126.6423  166.3967 H   0  0  0  0  0
   24.5078  126.1230  167.3222 H   0  0  0  0  0
   24.9876  127.8379  167.3127 H   0  0  0  0  0
   29.2515  125.3533  169.5811 H   0  0  0  0  0
   27.3969  123.3686  172.8699 H   0  0  0  0  0
   24.9501  123.1958  171.9928 H   0  0  0  0  0
   24.4879  123.8939  169.0634 H   0  0  0  0  0
   23.2818  123.1723  170.3238 H   0  0  0  0  0
   25.9444  124.4450  168.2896 H   0  0  0  0  0
   27.4541  122.9388  166.9200 H   0  0  0  0  0
  1  2  4  0  0  0
 12  1  4  0  0  0
  2  3  4  0  0  0
  3 14  4  0  0  0
 16  4  1  0  0  0
 16  5  1  0  0  0
 17  6  4  0  0  0
  6 18  4  0  0  0
  8  7  4  0  0  0
  7 18  4  0  0  0
  8  9  1  0  0  0
 17  8  4  0  0  0
  9 10  2  0  0  0
 13 11  1  0  0  0
 11 16  1  0  0  0
 11 17  1  0  0  0
 12 13  4  0  0  0
 13 14  4  0  0  0
 14 15  1  0  0  0
 15 19  2  0  0  0
 15 20  1  0  0  0
 16 20  1  0  0  0
  1 21  1  0  0  0
  2 22  1  0  0  0
  3 23  1  0  0  0
  4 24  1  0  0  0
  4 25  1  0  0  0
  4 26  1  0  0  0
  5 27  1  0  0  0
  5 28  1  0  0  0
  5 29  1  0  0  0
  6 30  1  0  0  0
  7 31  1  0  0  0
  9 32  1  0  0  0
 10 33  1  0  0  0
 10 34  1  0  0  0
 11 35  1  0  0  0
 12 36  1  0  0  0
M  END
$$$$
