1w8l_ligand
  -I-interpret- 

 25 25  0  0  0  0  0  0  0  0999 V2000
    1.4880   58.6170   54.3490 C   0  0  0  0  0
    2.4200   57.4550   54.5740 C   0  0  0  0  0
    3.8500   57.9340   54.4520 C   0  0  0  0  0
    2.1810   56.8540   55.9540 C   0  0  0  0  0
    3.1800   55.7490   56.2560 C   0  0  0  0  0
    4.7750   56.8440   54.7510 N   0  0  0  0  0
    4.6170   56.2190   56.0630 C   0  0  0  0  0
    5.7530   57.0940   52.4950 C   0  0  0  0  0
    5.7070   56.4400   53.8730 C   0  0  0  0  0
    6.4980   55.5320   54.1010 O   0  0  0  0  0
    0.4563   58.2719   54.4165 H   0  0  0  0  0
    1.6684   59.3781   55.1082 H   0  0  0  0  0
    1.6674   59.0388   53.3601 H   0  0  0  0  0
    2.2319   56.6859   53.8249 H   0  0  0  0  0
    4.0155   58.7463   55.1597 H   0  0  0  0  0
    4.0243   58.2802   53.4333 H   0  0  0  0  0
    1.1771   56.4302   55.9787 H   0  0  0  0  0
    2.2976   57.6404   56.6997 H   0  0  0  0  0
    2.9945   54.9219   55.5707 H   0  0  0  0  0
    3.0543   55.4475   57.2959 H   0  0  0  0  0
    5.2843   55.3598   56.1303 H   0  0  0  0  0
    4.8595   56.9483   56.8359 H   0  0  0  0  0
    6.7401   57.5269   52.3325 H   0  0  0  0  0
    5.5541   56.3426   51.7308 H   0  0  0  0  0
    4.9976   57.8780   52.4409 H   0  0  0  0  0
  1  2  1  0  0  0
  2  3  1  0  0  0
  2  4  1  0  0  0
  3  6  1  0  0  0
  4  5  1  0  0  0
  5  7  1  0  0  0
  6  7  1  0  0  0
  6  9  1  0  0  0
  9  8  1  0  0  0
  9 10  2  0  0  0
  1 11  1  0  0  0
  1 12  1  0  0  0
  1 13  1  0  0  0
  2 14  1  0  0  0
  3 15  1  0  0  0
  3 16  1  0  0  0
  4 17  1  0  0  0
  4 18  1  0  0  0
  5 19  1  0  0  0
  5 20  1  0  0  0
  7 21  1  0  0  0
  7 22  1  0  0  0
  8 23  1  0  0  0
  8 24  1  0  0  0
  8 25  1  0  0  0
M  END
$$$$
