4uda_ligand
  -I-interpret- 

 57 60  0  0  0  0  0  0  0  0999 V2000
    0.0550  -15.1190    1.3980 C   0  0  0  0  0
    1.3910  -15.0480    1.4260 C   0  0  0  0  0
    2.0620  -14.2380    0.3930 C   0  0  0  0  0
    1.2600  -13.6140   -0.6960 C   0  0  0  0  0
   -0.0810  -13.7380   -0.6850 C   0  0  0  0  0
   -0.8820  -13.1230   -1.8080 C   0  0  0  0  0
   -1.9490  -14.0680   -2.3530 C   0  0  0  0  0
   -2.7230  -14.7540   -1.2310 C   0  0  0  0  0
   -1.7740  -15.4790   -0.2500 C   0  0  0  0  0
   -0.8450  -14.4320    0.4170 C   0  0  0  0  0
   -2.4870  -16.4490    0.7260 C   0  0  0  0  0
   -3.5790  -17.2960    0.0870 C   0  0  0  0  0
   -4.5930  -16.4490   -0.6860 C   0  0  0  0  0
   -3.8270  -15.6750   -1.7510 C   0  0  0  0  0
   -4.8850  -15.1310   -2.6830 C   0  0  0  0  0
   -5.9860  -16.1730   -2.6330 C   0  0  0  0  0
   -5.5800  -17.2240   -1.5750 C   0  0  0  0  0
   -5.3700  -15.5430    0.2890 C   0  0  0  0  0
   -1.5430  -13.3330    1.2290 C   0  0  0  0  0
   -6.7370  -17.8250   -0.7750 C   0  0  0  0  0
   -6.5220  -19.1180   -0.0200 C   0  0  0  0  0
   -6.2540  -16.6660   -4.0430 C   0  0  0  0  0
   -1.0010  -16.3300   -1.0110 F   0  0  0  0  0
    3.2810  -14.1310    0.4280 O   0  0  0  0  0
   -3.0270  -15.8010    1.8720 O   0  0  0  0  0
   -4.9430  -18.3420   -2.2100 O   0  0  0  0  0
   -7.8390  -17.3050   -0.7130 O   0  0  0  0  0
   -7.6110  -19.2500    0.8890 O   0  0  0  0  0
   -0.4231  -15.7342    2.1602 H   0  0  0  0  0
    1.9655  -15.5730    2.1892 H   0  0  0  0  0
    1.7543  -13.0616   -1.4952 H   0  0  0  0  0
   -0.1948  -12.8882   -2.6209 H   0  0  0  0  0
   -1.3851  -12.2389   -1.4163 H   0  0  0  0  0
   -1.4554  -14.8359   -2.9486 H   0  0  0  0  0
   -2.6519  -13.4851   -2.9482 H   0  0  0  0  0
   -3.2287  -13.9661   -0.6728 H   0  0  0  0  0
   -1.6806  -17.1140    1.0352 H   0  0  0  0  0
   -4.1108  -17.8184    0.8822 H   0  0  0  0  0
   -3.1069  -17.9831   -0.6152 H   0  0  0  0  0
   -3.1593  -16.3057   -2.3378 H   0  0  0  0  0
   -4.5067  -14.9767   -3.6935 H   0  0  0  0  0
   -5.2351  -14.1441   -2.3806 H   0  0  0  0  0
   -6.9532  -15.7944   -2.3024 H   0  0  0  0  0
   -5.8965  -16.1612    1.0161 H   0  0  0  0  0
   -4.6717  -14.8857    0.8070 H   0  0  0  0  0
   -6.0894  -14.9436   -0.2690 H   0  0  0  0  0
   -2.2134  -12.7721    0.5778 H   0  0  0  0  0
   -2.1158  -13.7883    2.0369 H   0  0  0  0  0
   -0.7939  -12.6606    1.6471 H   0  0  0  0  0
   -5.5717  -19.1017    0.5136 H   0  0  0  0  0
   -6.4842  -19.9650   -0.7050 H   0  0  0  0  0
   -6.5648  -15.8278   -4.6667 H   0  0  0  0  0
   -5.3446  -17.1068   -4.4514 H   0  0  0  0  0
   -7.0444  -17.4162   -4.0201 H   0  0  0  0  0
   -3.4533  -16.4514    2.4348 H   0  0  0  0  0
   -5.5821  -18.8050   -2.7566 H   0  0  0  0  0
   -7.5113  -20.0627    1.3901 H   0  0  0  0  0
  1  2  2  0  0  0
  1 10  1  0  0  0
  2  3  1  0  0  0
  3  4  1  0  0  0
  3 24  2  0  0  0
  4  5  2  0  0  0
  5  6  1  0  0  0
  5 10  1  0  0  0
  6  7  1  0  0  0
  7  8  1  0  0  0
  8  9  1  0  0  0
  8 14  1  0  0  0
  9 10  1  0  0  0
  9 11  1  0  0  0
  9 23  1  0  0  0
 10 19  1  0  0  0
 11 12  1  0  0  0
 11 25  1  0  0  0
 12 13  1  0  0  0
 13 14  1  0  0  0
 13 17  1  0  0  0
 13 18  1  0  0  0
 14 15  1  0  0  0
 15 16  1  0  0  0
 16 17  1  0  0  0
 16 22  1  0  0  0
 17 20  1  0  0  0
 17 26  1  0  0  0
 20 21  1  0  0  0
 20 27  2  0  0  0
 21 28  1  0  0  0
  1 29  1  0  0  0
  2 30  1  0  0  0
  4 31  1  0  0  0
  6 32  1  0  0  0
  6 33  1  0  0  0
  7 34  1  0  0  0
  7 35  1  0  0  0
  8 36  1  0  0  0
 11 37  1  0  0  0
 12 38  1  0  0  0
 12 39  1  0  0  0
 14 40  1  0  0  0
 15 41  1  0  0  0
 15 42  1  0  0  0
 16 43  1  0  0  0
 18 44  1  0  0  0
 18 45  1  0  0  0
 18 46  1  0  0  0
 19 47  1  0  0  0
 19 48  1  0  0  0
 19 49  1  0  0  0
 21 50  1  0  0  0
 21 51  1  0  0  0
 22 52  1  0  0  0
 22 53  1  0  0  0
 22 54  1  0  0  0
 25 55  1  0  0  0
 26 56  1  0  0  0
 28 57  1  0  0  0
M  END
$$$$
