3m37_ligand
  -I-interpret- 

 57 60  0  0  0  0  0  0  0  0999 V2000
   11.3150   45.6470   64.9240 C   0  0  0  0  0
    2.8260   44.9640   64.8540 F   0  0  0  0  0
    7.1720   44.4470   64.4720 N   0  0  0  0  0
    6.4450   38.3020   56.5730 S   0  0  0  0  0
   10.4370   46.2580   63.9360 C   0  0  0  0  0
    3.3990   43.7710   66.5540 F   0  0  0  0  0
    6.5940   39.8920   56.3900 N   0  0  0  0  0
    9.0410   45.8790   63.7470 C   0  0  0  0  0
    3.9540   45.8430   66.5040 F   0  0  0  0  0
    9.4880   42.7560   67.7260 N   0  3  0  0  0
    8.3670   42.8150   62.5050 O   0  0  0  0  0
    8.5030   44.8260   64.6030 C   0  0  0  0  0
    7.7220   42.5810   59.8210 F   0  0  0  0  0
    5.5750   38.0820   57.6770 O   0  0  0  0  0
    9.3600   44.2100   65.5990 C   0  0  0  0  0
    6.4340   41.6570   62.1760 N   0  0  0  0  0
    6.0800   37.7860   55.2840 O   0  0  0  0  0
   10.7730   44.6080   65.7680 C   0  0  0  0  0
    6.2240   45.0220   65.2600 N   0  0  0  0  0
    6.9580   40.8000   61.2380 C   0  0  0  0  0
    7.1810   42.6370   62.7690 C   0  0  0  0  0
    8.7750   43.1040   66.4720 C   0  0  0  0  0
    5.0350   44.4320   65.0300 C   0  0  0  0  0
    3.7500   44.7580   65.7620 C   0  0  0  0  0
    5.1920   43.4300   64.0340 C   0  0  0  0  0
    6.5790   43.4700   63.7130 C   0  0  0  0  0
    8.2150   40.3770   59.0650 C   0  0  0  0  0
   10.0230   37.4150   58.5730 C   0  0  0  0  0
    8.1180   38.9530   59.3290 C   0  0  0  0  0
    8.7040   38.0100   58.3100 C   0  0  0  0  0
    7.4450   38.4750   60.5290 C   0  0  0  0  0
    8.0620   37.6770   57.0370 C   0  0  0  0  0
    6.8570   39.3740   61.4950 C   0  0  0  0  0
   10.6350   36.5420   57.5790 C   0  0  0  0  0
    8.6890   36.7940   56.0450 C   0  0  0  0  0
    9.9900   36.2130   56.3150 C   0  0  0  0  0
    7.6260   41.2690   60.0320 C   0  0  0  0  0
   12.3528   45.9651   65.0238 H   0  0  0  0  0
   10.8464   47.0438   63.3011 H   0  0  0  0  0
    6.1010   40.5261   57.0186 H   0  0  0  0  0
    7.1816   40.2668   55.6452 H   0  0  0  0  0
    8.4215   46.3649   62.9932 H   0  0  0  0  0
    8.9873   42.0066   68.2036 H   0  0  0  0  0
   10.4340   42.4463   67.5031 H   0  0  0  0  0
    9.5311   43.5767   68.3302 H   0  0  0  0  0
    5.4534   41.5586   62.4391 H   0  0  0  0  0
   11.3974   44.1242   66.5191 H   0  0  0  0  0
    7.7980   43.4705   66.7870 H   0  0  0  0  0
    8.8103   42.2030   65.8596 H   0  0  0  0  0
    4.4258   42.7795   63.6122 H   0  0  0  0  0
    8.7127   40.7561   58.1724 H   0  0  0  0  0
   10.5413   37.6262   59.5083 H   0  0  0  0  0
    7.3828   37.4010   60.7044 H   0  0  0  0  0
    6.3552   38.9954   62.3855 H   0  0  0  0  0
   11.6165   36.1176   57.7904 H   0  0  0  0  0
    8.1774   36.5758   55.1076 H   0  0  0  0  0
   10.4702   35.5508   55.5946 H   0  0  0  0  0
  5  1  4  0  0  0
 18  1  4  0  0  0
 24  2  1  0  0  0
  3 12  1  0  0  0
  3 19  4  0  0  0
 26  3  4  0  0  0
  4  7  1  0  0  0
  4 14  2  0  0  0
  4 17  2  0  0  0
 32  4  1  0  0  0
  8  5  4  0  0  0
 24  6  1  0  0  0
 12  8  4  0  0  0
 24  9  1  0  0  0
 22 10  1  0  0  0
 21 11  2  0  0  0
 12 15  4  0  0  0
 37 13  1  0  0  0
 15 18  4  0  0  0
 15 22  1  0  0  0
 20 16  1  0  0  0
 16 21  1  0  0  0
 23 19  4  0  0  0
 20 33  4  0  0  0
 37 20  4  0  0  0
 21 26  1  0  0  0
 23 24  1  0  0  0
 25 23  4  0  0  0
 26 25  4  0  0  0
 29 27  4  0  0  0
 27 37  4  0  0  0
 30 28  4  0  0  0
 28 34  4  0  0  0
 30 29  1  0  0  0
 29 31  4  0  0  0
 30 32  4  0  0  0
 31 33  4  0  0  0
 32 35  4  0  0  0
 34 36  4  0  0  0
 35 36  4  0  0  0
  1 38  1  0  0  0
  5 39  1  0  0  0
  7 40  1  0  0  0
  7 41  1  0  0  0
  8 42  1  0  0  0
 10 43  1  0  0  0
 10 44  1  0  0  0
 10 45  1  0  0  0
 16 46  1  0  0  0
 18 47  1  0  0  0
 22 48  1  0  0  0
 22 49  1  0  0  0
 25 50  1  0  0  0
 27 51  1  0  0  0
 28 52  1  0  0  0
 31 53  1  0  0  0
 33 54  1  0  0  0
 34 55  1  0  0  0
 35 56  1  0  0  0
 36 57  1  0  0  0
M  END
$$$$
