5m51_ligand
  -I-interpret- 

 48 51  0  0  0  0  0  0  0  0999 V2000
   29.5190   -4.7310   17.4460 O   0  0  0  0  0
   29.9140   -3.9810   16.5740 C   0  0  0  0  0
   29.1340   -3.7610   15.4050 N   0  0  0  0  0
   31.2410   -3.2850   16.7420 C   0  0  0  0  0
   31.4640   -2.4550   17.8350 C   0  0  0  0  0
   32.6870   -1.8220   17.9760 C   0  0  0  0  0
   33.6770   -2.0160   17.0230 C   0  0  0  0  0
   33.4580   -2.8410   15.9220 C   0  0  0  0  0
   34.5220   -3.0060   14.9750 N   0  0  0  0  0
   34.4830   -3.6910   13.7220 C   0  0  0  0  0
   35.5530   -3.5710   12.9500 N   0  0  0  0  0
   35.6240   -4.1970   11.7260 C   0  0  0  0  0
   36.5890   -4.2310   10.7480 N   0  0  0  0  0
   36.1500   -5.0010    9.7300 C   0  0  0  0  0
   34.9200   -5.4580   10.0400 N   0  0  0  0  0
   34.5750   -4.9650   11.2720 C   0  0  0  0  0
   33.4520   -5.0750   12.1500 C   0  0  0  0  0
   32.3690   -5.8510   11.7120 O   0  0  0  0  0
   31.5650   -6.4620   12.6950 C   0  0  0  0  0
   30.1600   -6.3290   12.1530 C   0  0  0  0  0
   30.1770   -6.6980   10.6770 C   0  0  0  0  0
   29.9460   -8.1640   10.3940 C   0  0  0  0  0
   28.7320   -8.6860   11.1300 C   0  0  0  0  0
   28.9150   -8.5140   12.6200 C   0  0  0  0  0
   29.1380   -7.0660   13.0050 C   0  0  0  0  0
   33.4530   -4.4310   13.3310 N   0  0  0  0  0
   32.2340   -3.4750   15.7910 C   0  0  0  0  0
   28.2370   -4.2337   15.2940 H   0  0  0  0  0
   29.4717   -3.1305   14.6778 H   0  0  0  0  0
   30.6800   -2.3036   18.5769 H   0  0  0  0  0
   32.8718   -1.1736   18.8324 H   0  0  0  0  0
   34.6389   -1.5162   17.1375 H   0  0  0  0  0
   35.4153   -2.5828   15.2266 H   0  0  0  0  0
   36.6973   -5.2169    8.8124 H   0  0  0  0  0
   31.6773   -5.9913   13.6717 H   0  0  0  0  0
   31.8439   -7.5012   12.8694 H   0  0  0  0  0
   29.8194   -5.2956   12.2182 H   0  0  0  0  0
   31.1694   -6.4530   10.2987 H   0  0  0  0  0
   29.3634   -6.1497   10.2021 H   0  0  0  0  0
   30.8199   -8.7224   10.7297 H   0  0  0  0  0
   29.7803   -8.2871    9.3237 H   0  0  0  0  0
   28.6049   -9.7449   10.9049 H   0  0  0  0  0
   27.8522   -8.1273   10.8106 H   0  0  0  0  0
   29.7931   -9.0846   12.9222 H   0  0  0  0  0
   28.0084   -8.8612   13.1156 H   0  0  0  0  0
   28.1857   -6.5529   12.8711 H   0  0  0  0  0
   29.5184   -7.0653   14.0265 H   0  0  0  0  0
   32.0494   -4.1265   14.9369 H   0  0  0  0  0
  1  2  2  0  0  0
  2  3  1  0  0  0
  2  4  1  0  0  0
  4  5  4  0  0  0
  4 27  4  0  0  0
  5  6  4  0  0  0
  6  7  4  0  0  0
  7  8  4  0  0  0
  8  9  1  0  0  0
  8 27  4  0  0  0
  9 10  1  0  0  0
 10 11  4  0  0  0
 10 26  4  0  0  0
 11 12  4  0  0  0
 12 13  4  0  0  0
 12 16  4  0  0  0
 13 14  4  0  0  0
 14 15  4  0  0  0
 15 16  4  0  0  0
 16 17  4  0  0  0
 17 18  1  0  0  0
 17 26  4  0  0  0
 18 19  1  0  0  0
 19 20  1  0  0  0
 20 21  1  0  0  0
 20 25  1  0  0  0
 21 22  1  0  0  0
 22 23  1  0  0  0
 23 24  1  0  0  0
 24 25  1  0  0  0
  3 28  1  0  0  0
  3 29  1  0  0  0
  5 30  1  0  0  0
  6 31  1  0  0  0
  7 32  1  0  0  0
  9 33  1  0  0  0
 14 34  1  0  0  0
 19 35  1  0  0  0
 19 36  1  0  0  0
 20 37  1  0  0  0
 21 38  1  0  0  0
 21 39  1  0  0  0
 22 40  1  0  0  0
 22 41  1  0  0  0
 23 42  1  0  0  0
 23 43  1  0  0  0
 24 44  1  0  0  0
 24 45  1  0  0  0
 25 46  1  0  0  0
 25 47  1  0  0  0
 27 48  1  0  0  0
M  END
$$$$
