### 
### Created by X-TOOL on Mon Sep 10 21:13:11 2018
### 

@<TRIPOS>MOLECULE
4ef4_ligand
   68    74     1     0     0
SMALL
GAST_HUCK


@<TRIPOS>ATOM
      1 P1        -10.8060   18.9340  -15.1560 P.3       1 C2E         0.2557
      2 O2P       -10.9240   20.0180  -14.1640 O.co2     1 C2E        -0.6177
      3 O1P        -9.3760   18.9510  -15.6810 O.co2     1 C2E        -0.6177
      4 O5'       -11.6700   19.1510  -16.4650 O.3       1 C2E        -0.2514
      5 C5'       -13.1360   19.0850  -16.3750 C.3       1 C2E         0.1128
      6 C4'       -13.8340   19.0840  -17.6680 C.3       1 C2E         0.1242
      7 O4'       -13.5060   20.2500  -18.3440 O.3       1 C2E        -0.3359
      8 C3'       -13.3460   18.0170  -18.5270 C.3       1 C2E         0.1540
      9 O3'       -14.0030   16.7810  -18.1870 O.3       1 C2E        -0.2453
     10 C2'       -13.7700   18.4570  -19.7690 C.3       1 C2E         0.1440
     11 O2'       -15.1220   18.2130  -19.9480 O.3       1 C2E        -0.3832
     12 C1'       -13.4590   19.9250  -19.7050 C.3       1 C2E         0.1996
     13 N9        -12.1110   20.1310  -20.2530 N.pl3     1 C2E        -0.2101
     14 C8        -10.9150   20.0190  -19.6490 C.2       1 C2E         0.0957
     15 N7         -9.9650   20.2600  -20.5690 N.2       1 C2E        -0.3235
     16 C5        -10.5650   20.5140  -21.7590 C.2       1 C2E         0.0926
     17 C6        -10.0950   20.8320  -23.0440 C.2       1 C2E         0.2135
     18 O6         -8.7050   20.9280  -23.2810 O.2       1 C2E        -0.4091
     19 N1        -10.9730   21.0470  -24.0330 N.am      1 C2E        -0.1839
     20 C2        -12.2860   20.9590  -23.7890 C.2       1 C2E         0.2340
     21 N2        -13.2130   21.1880  -24.8830 N.pl3     1 C2E        -0.2807
     22 N3        -12.7830   20.6540  -22.5700 N.2       1 C2E        -0.2765
     23 C4        -11.9390   20.4280  -21.5500 C.2       1 C2E         0.1159
     24 P11       -13.3040   15.3530  -18.2330 P.3       1 C2E         0.2557
     25 O21       -14.2770   14.2460  -18.2180 O.co2     1 C2E        -0.6177
     26 O11       -12.5590   15.2610  -19.5100 O.co2     1 C2E        -0.6177
     27 O5A       -12.1680   15.1670  -17.0720 O.3       1 C2E        -0.2514
     28 C5A       -12.5150   14.9390  -15.6910 C.3       1 C2E         0.1128
     29 C4A       -11.4830   15.0870  -14.7840 C.3       1 C2E         0.1242
     30 O4A       -10.5910   13.8930  -14.8760 O.3       1 C2E        -0.3359
     31 C3A       -10.5880   16.2200  -15.0910 C.3       1 C2E         0.1540
     32 O3A       -11.0200   17.4310  -14.5270 O.3       1 C2E        -0.2453
     33 C2A        -9.3340   15.7970  -14.4530 C.3       1 C2E         0.1440
     34 O2A        -9.3210   16.0870  -13.1200 O.3       1 C2E        -0.3832
     35 C1A        -9.2900   14.3370  -14.6800 C.3       1 C2E         0.1996
     36 N91        -8.4420   13.9860  -15.8690 N.pl3     1 C2E        -0.2101
     37 C81        -8.8060   14.0140  -17.1680 C.2       1 C2E         0.0957
     38 N71        -7.7510   13.6370  -17.9120 N.2       1 C2E        -0.3235
     39 C51        -6.7040   13.3610  -17.0950 C.2       1 C2E         0.0926
     40 C61        -5.3820   12.9370  -17.2620 C.2       1 C2E         0.2135
     41 O61        -4.8540   12.6860  -18.5260 O.2       1 C2E        -0.4091
     42 N11        -4.6110   12.7660  -16.1670 N.am      1 C2E        -0.1839
     43 C21        -5.1020   13.0010  -14.9370 C.2       1 C2E         0.2340
     44 N21        -4.2700   12.8160  -13.8070 N.pl3     1 C2E        -0.2807
     45 N31        -6.3610   13.4130  -14.7400 N.2       1 C2E        -0.2765
     46 C41        -7.1640   13.5950  -15.7960 C.2       1 C2E         0.1159
     47 H1        -13.4830   19.9560  -15.7997 H         1 C2E         0.0647
     48 H2        -13.4047   18.1619  -15.8406 H         1 C2E         0.0647
     49 H3        -14.9197   18.9989  -17.5131 H         1 C2E         0.0655
     50 H4        -12.2532   17.9025  -18.4748 H         1 C2E         0.0712
     51 H5        -13.2049   17.9705  -20.5777 H         1 C2E         0.0681
     52 H6        -15.2855   17.2794  -19.8831 H         1 C2E         0.2102
     53 H7        -14.1933   20.5156  -20.2724 H         1 C2E         0.0998
     54 H8        -10.7460   19.7762  -18.6009 H         1 C2E         0.1179
     55 H9        -10.6480   21.2727  -24.9514 H         1 C2E         0.2515
     56 H10       -14.2280   21.1258  -24.7195 H         1 C2E         0.1897
     57 H11       -12.8555   21.4127  -25.8225 H         1 C2E         0.1897
     58 H12       -12.8978   13.9115  -15.6034 H         1 C2E         0.0647
     59 H13       -13.3088   15.6505  -15.4195 H         1 C2E         0.0647
     60 H14       -11.9009   15.1955  -13.7723 H         1 C2E         0.0655
     61 H15       -10.4691   16.3440  -16.1775 H         1 C2E         0.0712
     62 H16        -8.4752   16.2878  -14.9343 H         1 C2E         0.0681
     63 H17        -8.4977   15.8001  -12.7427 H         1 C2E         0.2102
     64 H18        -8.8676   13.8479  -13.7899 H         1 C2E         0.0998
     65 H19        -9.7870   14.2941  -17.5490 H         1 C2E         0.1179
     66 H20        -3.6643   12.4612  -16.2716 H         1 C2E         0.2515
     67 H21        -4.6383   12.9938  -12.8617 H         1 C2E         0.1897
     68 H22        -3.2963   12.5036  -13.9300 H         1 C2E         0.1897
@<TRIPOS>BOND
     1    1    2 ar 
     2    1    3 ar 
     3    1    4 1  
     4    1   32 1  
     5    4    5 1  
     6    5    6 1  
     7    6    7 1  
     8    6    8 1  
     9    7   12 1  
    10    8    9 1  
    11    8   10 1  
    12    9   24 1  
    13   10   11 1  
    14   10   12 1  
    15   12   13 1  
    16   13   14 1  
    17   13   23 1  
    18   14   15 2  
    19   15   16 1  
    20   16   17 1  
    21   16   23 2  
    22   17   18 2  
    23   17   19 am 
    24   19   20 am 
    25   20   21 1  
    26   20   22 2  
    27   22   23 1  
    28   24   25 ar 
    29   24   26 ar 
    30   24   27 1  
    31   27   28 1  
    32   28   29 1  
    33   29   30 1  
    34   29   31 1  
    35   30   35 1  
    36   31   32 1  
    37   31   33 1  
    38   33   34 1  
    39   33   35 1  
    40   35   36 1  
    41   36   37 1  
    42   36   46 1  
    43   37   38 2  
    44   38   39 1  
    45   39   40 1  
    46   39   46 2  
    47   40   41 2  
    48   40   42 am 
    49   42   43 am 
    50   43   44 1  
    51   43   45 2  
    52   45   46 1  
    53    5   47 1  
    54    5   48 1  
    55    6   49 1  
    56    8   50 1  
    57   10   51 1  
    58   11   52 1  
    59   12   53 1  
    60   14   54 1  
    61   19   55 1  
    62   21   56 1  
    63   21   57 1  
    64   28   58 1  
    65   28   59 1  
    66   29   60 1  
    67   31   61 1  
    68   33   62 1  
    69   34   63 1  
    70   35   64 1  
    71   37   65 1  
    72   42   66 1  
    73   44   67 1  
    74   44   68 1  
@<TRIPOS>SUBSTRUCTURE
     1 C2E         1

