6i78_ligand
  -I-interpret- 

 57 60  0  0  0  0  0  0  0  0999 V2000
  -20.3260    8.2530   -1.5500 C   0  0  0  0  0
  -23.5400    7.5720   -1.7670 C   0  0  0  0  0
  -22.8210    8.5140   -2.4910 C   0  0  0  0  0
  -20.3950    5.3110    0.4840 C   0  0  0  0  0
  -18.0400    7.5330   -1.5440 C   0  0  0  0  0
  -18.4090    6.4790   -0.5080 C   0  0  0  0  0
  -24.4340    6.7360   -2.4080 C   0  0  0  0  0
  -19.8950    6.1860   -0.6110 C   0  0  0  0  0
  -15.8670    8.3530   -0.5210 C   0  0  0  0  0
   -9.3640   11.1860    2.3720 C   0  0  0  0  0
  -10.8930    9.6590    0.8850 C   0  0  0  0  0
  -11.1440    9.8460   -0.4720 C   0  0  0  0  0
  -12.3180    9.4440   -1.0720 C   0  0  0  0  0
  -13.3210    8.8110   -0.3650 C   0  0  0  0  0
  -14.5780    8.3580   -0.9900 C   0  0  0  0  0
  -24.6450    6.8180   -3.7790 C   0  0  0  0  0
  -25.6060    5.8910   -4.4740 C   0  0  0  0  0
  -23.9280    7.7740   -4.4890 C   0  0  0  0  0
  -23.0230    8.6110   -3.8610 C   0  0  0  0  0
  -18.9060    8.8130   -1.4700 C   0  0  0  0  0
  -13.0800    8.6160    0.9810 C   0  0  0  0  0
  -11.9210    9.0410    1.5880 C   0  0  0  0  0
  -10.2120   10.4260   -1.2460 F   0  0  0  0  0
  -12.4910    9.6480   -2.3850 F   0  0  0  0  0
  -14.0170    8.0210    1.7200 F   0  0  0  0  0
  -11.8280    8.8910    2.9090 F   0  0  0  0  0
   -9.6330   10.0400    1.5190 N   0  0  0  0  0
  -16.5950    7.8070   -1.5060 N   0  0  0  0  0
  -15.8170    7.4830   -2.5610 N   0  0  0  0  0
  -14.5920    7.8220   -2.2440 N   0  0  0  0  0
  -18.1310    6.9700    0.7890 O   0  0  0  0  0
  -21.7500    5.0570    0.2490 O   0  0  0  0  0
  -20.5870    7.4240   -0.4410 O   0  0  0  0  0
  -18.6430    9.6180   -2.6070 O   0  0  0  0  0
  -21.6210    9.5010   -1.6260 S   0  0  0  0  0
  -20.3546    7.6985   -2.4880 H   0  0  0  0  0
  -23.3986    7.4919   -0.6892 H   0  0  0  0  0
  -20.2655    5.8027    1.4481 H   0  0  0  0  0
  -19.8346    4.3763    0.5051 H   0  0  0  0  0
  -18.2741    7.1152   -2.5232 H   0  0  0  0  0
  -17.8307    5.5730   -0.6890 H   0  0  0  0  0
  -24.9851    5.9970   -1.8263 H   0  0  0  0  0
  -20.0597    5.6955   -1.5704 H   0  0  0  0  0
  -16.2227    8.7147    0.4438 H   0  0  0  0  0
   -9.5723   12.1036    1.8219 H   0  0  0  0  0
  -10.0013   11.1376    3.2550 H   0  0  0  0  0
   -8.3175   11.1730    2.6765 H   0  0  0  0  0
  -25.2838    4.8599   -4.3284 H   0  0  0  0  0
  -26.6037    6.0238   -4.0557 H   0  0  0  0  0
  -25.6239    6.1204   -5.5394 H   0  0  0  0  0
  -24.0822    7.8662   -5.5641 H   0  0  0  0  0
  -22.4681    9.3473   -4.4424 H   0  0  0  0  0
  -18.7261    9.4258   -0.5867 H   0  0  0  0  0
   -8.8407    9.4229    1.3402 H   0  0  0  0  0
  -17.1927    7.1585    0.8643 H   0  0  0  0  0
  -22.0941    4.4927    0.9453 H   0  0  0  0  0
  -19.1785   10.4137   -2.5651 H   0  0  0  0  0
 20  1  1  0  0  0
  1 33  1  0  0  0
  1 35  1  0  0  0
  3  2  4  0  0  0
  2  7  4  0  0  0
  3 19  4  0  0  0
 35  3  1  0  0  0
  8  4  1  0  0  0
  4 32  1  0  0  0
  5  6  1  0  0  0
  5 20  1  0  0  0
 28  5  1  0  0  0
  6  8  1  0  0  0
  6 31  1  0  0  0
  7 16  4  0  0  0
  8 33  1  0  0  0
 15  9  4  0  0  0
  9 28  4  0  0  0
 27 10  1  0  0  0
 12 11  4  0  0  0
 11 22  4  0  0  0
 11 27  1  0  0  0
 13 12  4  0  0  0
 12 23  1  0  0  0
 14 13  4  0  0  0
 13 24  1  0  0  0
 14 15  1  0  0  0
 14 21  4  0  0  0
 15 30  4  0  0  0
 16 17  1  0  0  0
 16 18  4  0  0  0
 18 19  4  0  0  0
 20 34  1  0  0  0
 21 22  4  0  0  0
 21 25  1  0  0  0
 22 26  1  0  0  0
 28 29  4  0  0  0
 29 30  4  0  0  0
  1 36  1  0  0  0
  2 37  1  0  0  0
  4 38  1  0  0  0
  4 39  1  0  0  0
  5 40  1  0  0  0
  6 41  1  0  0  0
  7 42  1  0  0  0
  8 43  1  0  0  0
  9 44  1  0  0  0
 10 45  1  0  0  0
 10 46  1  0  0  0
 10 47  1  0  0  0
 17 48  1  0  0  0
 17 49  1  0  0  0
 17 50  1  0  0  0
 18 51  1  0  0  0
 19 52  1  0  0  0
 20 53  1  0  0  0
 27 54  1  0  0  0
 31 55  1  0  0  0
 32 56  1  0  0  0
 34 57  1  0  0  0
M  END
$$$$
