4ibc_ligand
  -I-interpret- 

 50 53  0  0  0  0  0  0  0  0999 V2000
    3.0620   24.3680    1.0870 Cl  0  0  0  0  0
    2.2250   23.4680    2.3010 C   0  0  0  0  0
    1.4750   24.1800    3.2280 C   0  0  0  0  0
    0.7890   23.5130    4.2270 C   0  0  0  0  0
    0.8480   22.1300    4.3020 C   0  0  0  0  0
    1.5980   21.4130    3.3830 C   0  0  0  0  0
    2.2850   22.0760    2.3730 C   0  0  0  0  0
    3.0740   21.2310    1.4250 C   0  0  0  0  0
    2.4490   20.3910    0.5870 N   0  0  0  0  0
    1.3350   20.7420   -0.2420 C   0  0  0  0  0
    0.0820   20.2280    0.0490 C   0  0  0  0  0
   -1.0010   20.5620   -0.7510 C   0  0  0  0  0
   -0.8290   21.4110   -1.8340 C   0  0  0  0  0
   -2.0040   21.7520   -2.6870 C   0  0  0  0  0
   -2.5440   20.6210   -3.5010 C   0  0  0  0  0
   -1.8150   20.0660   -4.3720 O   0  0  0  0  0
   -3.7210   20.2130   -3.3090 O   0  0  0  0  0
    0.4260   21.9240   -2.1290 C   0  0  0  0  0
    1.5110   21.5880   -1.3280 C   0  0  0  0  0
    3.0730   19.2060    0.5470 C   0  0  0  0  0
    2.6840   18.1130   -0.1920 O   0  0  0  0  0
    4.1870   19.2720    1.3710 C   0  0  0  0  0
    5.1000   18.2700    1.5980 O   0  0  0  0  0
    4.1990   20.5610    1.9030 C   0  0  0  0  0
    5.3240   21.2370    2.6160 C   0  0  0  0  0
    5.3390   22.4510    2.6590 O   0  0  0  0  0
    6.4360   20.5100    3.2890 C   0  0  0  0  0
    6.1750   19.5610    4.2730 C   0  0  0  0  0
    4.5470   19.1700    4.7230 Cl  0  0  0  0  0
    7.2320   18.9110    4.8940 C   0  0  0  0  0
    8.5350   19.2210    4.5360 C   0  0  0  0  0
    8.7940   20.1790    3.5630 C   0  0  0  0  0
    7.7450   20.8280    2.9390 C   0  0  0  0  0
    1.4268   25.2673    3.1682 H   0  0  0  0  0
    0.2026   24.0743    4.9545 H   0  0  0  0  0
    0.3028   21.6047    5.0862 H   0  0  0  0  0
    1.6491   20.3264    3.4526 H   0  0  0  0  0
    3.3765   22.1090    0.8544 H   0  0  0  0  0
   -0.0524   19.5640    0.9029 H   0  0  0  0  0
   -1.9880   20.1568   -0.5282 H   0  0  0  0  0
   -1.6708   22.5148   -3.3907 H   0  0  0  0  0
   -2.8020   22.0633   -2.0130 H   0  0  0  0  0
   -0.9564   20.4951   -4.3896 H   0  0  0  0  0
    0.5602   22.5867   -2.9840 H   0  0  0  0  0
    2.4995   21.9887   -1.5526 H   0  0  0  0  0
    4.8448   17.4880    1.1031 H   0  0  0  0  0
    7.0387   18.1600    5.6599 H   0  0  0  0  0
    9.3647   18.7082    5.0226 H   0  0  0  0  0
    9.8224   20.4182    3.2924 H   0  0  0  0  0
    7.9416   21.5834    2.1782 H   0  0  0  0  0
  1  2  1  0  0  0
  2  3  4  0  0  0
  2  7  4  0  0  0
  3  4  4  0  0  0
  4  5  4  0  0  0
  5  6  4  0  0  0
  6  7  4  0  0  0
  7  8  1  0  0  0
  8  9  1  0  0  0
  8 24  1  0  0  0
  9 10  1  0  0  0
  9 20  1  0  0  0
 10 11  4  0  0  0
 10 19  4  0  0  0
 11 12  4  0  0  0
 12 13  4  0  0  0
 13 14  1  0  0  0
 13 18  4  0  0  0
 14 15  1  0  0  0
 15 16  1  0  0  0
 15 17  2  0  0  0
 18 19  4  0  0  0
 20 21  2  0  0  0
 20 22  1  0  0  0
 22 23  1  0  0  0
 22 24  2  0  0  0
 24 25  1  0  0  0
 25 26  2  0  0  0
 25 27  1  0  0  0
 27 28  4  0  0  0
 27 33  4  0  0  0
 28 29  1  0  0  0
 28 30  4  0  0  0
 30 31  4  0  0  0
 31 32  4  0  0  0
 32 33  4  0  0  0
  3 34  1  0  0  0
  4 35  1  0  0  0
  5 36  1  0  0  0
  6 37  1  0  0  0
  8 38  1  0  0  0
 11 39  1  0  0  0
 12 40  1  0  0  0
 14 41  1  0  0  0
 14 42  1  0  0  0
 16 43  1  0  0  0
 18 44  1  0  0  0
 19 45  1  0  0  0
 23 46  1  0  0  0
 30 47  1  0  0  0
 31 48  1  0  0  0
 32 49  1  0  0  0
 33 50  1  0  0  0
M  END
$$$$
