6f9t_ligand
  -I-interpret- 

 81 82  0  0  0  0  0  0  0  0999 V2000
  -13.2550   -5.8660   12.1430 C   0  0  0  0  0
  -14.3780   -3.9260   14.9590 C   0  0  0  0  0
  -15.4360   -3.1270   15.7400 C   0  0  0  0  0
  -15.6260   -1.6590   15.2820 C   0  0  0  0  0
  -14.3840   -0.8110   15.5630 C   0  0  0  0  0
  -14.7050    0.6570   15.2610 C   0  0  0  0  0
  -14.5780   -5.3820   15.4090 C   0  0  0  0  0
  -13.8470   -7.2170   16.9760 C   0  0  0  0  0
  -13.9210   -7.1470   18.5250 C   0  0  0  0  0
  -14.2280   -8.5730   19.0370 C   0  0  0  0  0
  -14.4840   -8.7600   20.5500 C   0  0  0  0  0
  -14.8190  -10.3790   20.8340 C   0  0  0  0  0
  -16.1650  -10.4050   21.2130 C   0  0  0  0  0
  -16.4360   -9.0410   21.9790 C   0  0  0  0  0
  -15.5950   -8.0520   21.0420 C   0  0  0  0  0
  -13.1780   -8.5170   21.2780 C   0  0  0  0  0
  -12.2270   -8.0610   23.5720 C   0  0  0  0  0
  -12.6340   -7.2180   24.7800 C   0  0  0  0  0
  -13.9950   -7.5620   25.3760 C   0  0  0  0  0
  -15.0950   -6.8380   24.9370 C   0  0  0  0  0
  -16.3400   -7.1190   25.4620 C   0  0  0  0  0
  -16.4530   -8.0810   26.4400 C   0  0  0  0  0
  -15.3550   -8.7920   26.8970 C   0  0  0  0  0
  -14.1090   -8.5150   26.3630 C   0  0  0  0  0
  -11.7460   -9.4350   24.0010 C   0  0  0  0  0
  -14.9530   -6.1280   18.9250 C   0  0  0  0  0
  -14.6400   -3.8450   13.5520 N   0  0  0  0  0
  -13.5190    1.3990   14.8770 N   0  3  0  0  0
  -13.7010   -5.8670   16.4550 N   0  0  0  0  0
  -13.3670   -8.2250   22.6720 N   0  0  0  0  0
  -12.1720   -3.5320   13.0700 O   0  0  0  0  0
  -13.7200   -3.4180   11.2330 O   0  0  0  0  0
  -15.3980   -6.0700   14.9250 O   0  0  0  0  0
  -12.0750   -8.6270   20.7600 O   0  0  0  0  0
  -17.7180   -8.3470   26.9730 O   0  0  0  0  0
  -10.6810   -9.5120   24.6980 O   0  0  0  0  0
  -12.3940  -10.4790   23.6750 O   0  0  0  0  0
  -14.6400   -5.1860   19.7060 O   0  0  0  0  0
  -16.1470   -6.2250   18.4690 O   0  0  0  0  0
  -13.3680   -4.0960   12.4790 S   0  0  0  0  0
  -12.4343   -6.0513   11.4500 H   0  0  0  0  0
  -13.0727   -6.4006   13.0753 H   0  0  0  0  0
  -14.1899   -6.2111   11.7016 H   0  0  0  0  0
  -13.3706   -3.5519   15.1415 H   0  0  0  0  0
  -15.0984   -3.0902   16.7758 H   0  0  0  0  0
  -16.3894   -3.6305   15.5797 H   0  0  0  0  0
  -16.4637   -1.2334   15.8345 H   0  0  0  0  0
  -15.8069   -1.6561   14.2071 H   0  0  0  0  0
  -13.5600   -1.1448   14.9324 H   0  0  0  0  0
  -14.0948   -0.9170   16.6086 H   0  0  0  0  0
  -15.1163    1.1106   16.1628 H   0  0  0  0  0
  -15.4131    0.6899   14.4330 H   0  0  0  0  0
  -14.7568   -7.6698   16.5818 H   0  0  0  0  0
  -12.9947   -7.8251   16.6730 H   0  0  0  0  0
  -12.9827   -6.8216   18.9743 H   0  0  0  0  0
  -13.3338   -9.1573   18.8202 H   0  0  0  0  0
  -15.1582   -8.8623   18.5480 H   0  0  0  0  0
  -14.1724  -10.7976   21.6052 H   0  0  0  0  0
  -14.6342  -10.9921   19.9519 H   0  0  0  0  0
  -16.3770  -11.2629   21.8512 H   0  0  0  0  0
  -16.8160  -10.5039   20.3443 H   0  0  0  0  0
  -16.1424   -9.0385   23.0287 H   0  0  0  0  0
  -17.4882   -8.7804   22.0931 H   0  0  0  0  0
  -16.2128   -7.6992   20.2162 H   0  0  0  0  0
  -15.2658   -7.1827   21.6113 H   0  0  0  0  0
  -11.4149   -7.5422   23.0627 H   0  0  0  0  0
  -12.6921   -6.1847   24.4378 H   0  0  0  0  0
  -11.8934   -7.4041   25.5578 H   0  0  0  0  0
  -14.9768   -6.0566   24.1863 H   0  0  0  0  0
  -17.2221   -6.5862   25.1069 H   0  0  0  0  0
  -15.4710   -9.5571   27.6647 H   0  0  0  0  0
  -13.2266   -9.0459   26.7202 H   0  0  0  0  0
  -15.5781   -3.6395   13.2082 H   0  0  0  0  0
  -13.7730    2.3680   14.6849 H   0  0  0  0  0
  -12.8395    1.3687   15.6371 H   0  0  0  0  0
  -13.1136    0.9802   14.0400 H   0  0  0  0  0
  -12.9748   -5.2564   16.8294 H   0  0  0  0  0
  -14.3135   -8.1305   23.0402 H   0  0  0  0  0
  -17.6452   -9.0344   27.6392 H   0  0  0  0  0
  -10.3317   -8.6300   24.8450 H   0  0  0  0  0
  -16.2079   -6.9924   17.8955 H   0  0  0  0  0
 40  1  1  0  0  0
  2  3  1  0  0  0
  2  7  1  0  0  0
 27  2  1  0  0  0
  3  4  1  0  0  0
  4  5  1  0  0  0
  5  6  1  0  0  0
  6 28  1  0  0  0
  7 29  1  0  0  0
  7 33  2  0  0  0
  8  9  1  0  0  0
 29  8  1  0  0  0
  9 10  1  0  0  0
  9 26  1  0  0  0
 10 11  1  0  0  0
 11 12  1  0  0  0
 11 15  1  0  0  0
 11 16  1  0  0  0
 12 13  1  0  0  0
 14 13  1  0  0  0
 15 14  1  0  0  0
 16 30  1  0  0  0
 16 34  2  0  0  0
 17 18  1  0  0  0
 17 25  1  0  0  0
 30 17  1  0  0  0
 18 19  1  0  0  0
 19 20  4  0  0  0
 19 24  4  0  0  0
 20 21  4  0  0  0
 21 22  4  0  0  0
 23 22  4  0  0  0
 22 35  1  0  0  0
 24 23  4  0  0  0
 25 36  1  0  0  0
 25 37  2  0  0  0
 26 38  2  0  0  0
 26 39  1  0  0  0
 27 40  1  0  0  0
 40 31  2  0  0  0
 40 32  2  0  0  0
  1 41  1  0  0  0
  1 42  1  0  0  0
  1 43  1  0  0  0
  2 44  1  0  0  0
  3 45  1  0  0  0
  3 46  1  0  0  0
  4 47  1  0  0  0
  4 48  1  0  0  0
  5 49  1  0  0  0
  5 50  1  0  0  0
  6 51  1  0  0  0
  6 52  1  0  0  0
  8 53  1  0  0  0
  8 54  1  0  0  0
  9 55  1  0  0  0
 10 56  1  0  0  0
 10 57  1  0  0  0
 12 58  1  0  0  0
 12 59  1  0  0  0
 13 60  1  0  0  0
 13 61  1  0  0  0
 14 62  1  0  0  0
 14 63  1  0  0  0
 15 64  1  0  0  0
 15 65  1  0  0  0
 17 66  1  0  0  0
 18 67  1  0  0  0
 18 68  1  0  0  0
 20 69  1  0  0  0
 21 70  1  0  0  0
 23 71  1  0  0  0
 24 72  1  0  0  0
 27 73  1  0  0  0
 28 74  1  0  0  0
 28 75  1  0  0  0
 28 76  1  0  0  0
 29 77  1  0  0  0
 30 78  1  0  0  0
 35 79  1  0  0  0
 36 80  1  0  0  0
 39 81  1  0  0  0
M  END
$$$$
