3rv6_ligand
  -I-interpret- 

 34 35  0  0  0  0  0  0  0  0999 V2000
   11.9800   42.0910   24.7790 C   0  0  0  0  0
   13.4380   42.1400   30.9360 C   0  0  0  0  0
   12.0080   42.7250   26.0770 C   0  0  0  0  0
   11.6840   41.9780   27.2110 C   0  0  0  0  0
   11.3190   40.5280   27.1610 O   0  0  0  0  0
   11.7000   42.5810   28.5370 C   0  0  0  0  0
   11.3390   41.6330   29.4820 O   0  0  0  0  0
   12.0150   43.8690   28.5960 C   0  0  0  0  0
   12.2960   44.6340   27.3930 C   0  0  0  0  0
   12.3680   44.1150   26.2510 C   0  0  0  0  0
   11.8990   41.8060   30.8550 C   0  0  0  0  0
   11.1300   41.6790   31.8360 C   0  0  0  0  0
   11.3420   41.7630   33.3420 C   0  0  0  0  0
   11.5910   40.7960   24.6950 O   0  0  0  0  0
   12.2980   42.7610   23.8350 O   0  0  0  0  0
   12.6470   41.4290   34.0890 C   0  0  0  0  0
   12.8170   41.5260   35.4340 C   0  0  0  0  0
   11.7570   41.8970   36.1980 C   0  0  0  0  0
   10.4090   42.2780   35.6780 C   0  0  0  0  0
   10.2510   42.1870   34.1500 C   0  0  0  0  0
   13.6990   43.1120   31.6510 O   0  0  0  0  0
   14.1470   41.6040   30.3100 O   0  0  0  0  0
   11.1347   40.2147   28.0495 H   0  0  0  0  0
   12.0639   44.3629   29.5665 H   0  0  0  0  0
   12.4517   45.7088   27.4857 H   0  0  0  0  0
   12.6991   44.7076   25.3982 H   0  0  0  0  0
   10.0991   41.4647   31.5543 H   0  0  0  0  0
   11.3858   40.4671   25.5732 H   0  0  0  0  0
   13.4962   41.0901   33.4956 H   0  0  0  0  0
   13.7834   41.3107   35.8898 H   0  0  0  0  0
   11.9014   41.9185   37.2782 H   0  0  0  0  0
    9.5977   42.5968   36.3325 H   0  0  0  0  0
    9.3002   42.4483   33.6855 H   0  0  0  0  0
   12.9014   43.4003   32.1008 H   0  0  0  0  0
  3  1  1  0  0  0
  1 14  1  0  0  0
  1 15  2  0  0  0
 11  2  1  0  0  0
  2 21  1  0  0  0
  2 22  2  0  0  0
  4  3  4  0  0  0
  3 10  4  0  0  0
  4  5  1  0  0  0
  6  4  4  0  0  0
  7  6  1  0  0  0
  6  8  4  0  0  0
  7 11  1  0  0  0
  8  9  4  0  0  0
  9 10  4  0  0  0
 11 12  2  0  0  0
 12 13  1  0  0  0
 13 16  4  0  0  0
 13 20  4  0  0  0
 16 17  4  0  0  0
 17 18  4  0  0  0
 18 19  4  0  0  0
 19 20  4  0  0  0
  5 23  1  0  0  0
  8 24  1  0  0  0
  9 25  1  0  0  0
 10 26  1  0  0  0
 12 27  1  0  0  0
 14 28  1  0  0  0
 16 29  1  0  0  0
 17 30  1  0  0  0
 18 31  1  0  0  0
 19 32  1  0  0  0
 20 33  1  0  0  0
 21 34  1  0  0  0
M  END
$$$$
