4qr5_ligand
  -I-interpret- 

 48 51  0  0  0  0  0  0  0  0999 V2000
   -4.7190   -6.8130   -2.5670 O   0  0  0  0  0
   -4.1020   -7.5580   -1.8030 C   0  0  0  0  0
   -4.7010   -8.1300   -0.7110 N   0  0  0  0  0
   -6.1330   -7.9710   -0.2350 C   0  0  0  0  0
   -7.0330   -7.1620   -0.8100 C   0  0  0  0  0
   -8.3440   -7.0870   -0.2970 C   0  0  0  0  0
   -9.3280   -6.1750   -0.9230 C   0  0  0  0  0
   -8.9450   -5.2770   -1.9740 C   0  0  0  0  0
  -10.3520   -4.4000   -2.3680 S   0  0  0  0  0
  -11.3700   -5.2010   -1.1530 C   0  0  0  0  0
  -12.5110   -4.9800   -0.9610 O   0  0  0  0  0
  -10.6320   -6.0890   -0.5200 N   0  0  0  0  0
   -8.6660   -7.7700    0.7570 C   0  0  0  0  0
   -7.7260   -8.6180    1.3550 C   0  0  0  0  0
   -8.1310   -9.5980    2.8610 S   0  0  0  0  0
   -9.1380  -10.5040    2.6150 O   0  0  0  0  0
   -6.9750  -10.4590    3.2390 O   0  0  0  0  0
   -8.5860   -8.5450    4.0110 N   0  0  0  0  0
   -7.5210   -7.7120    4.5200 C   0  0  0  0  0
   -7.1940   -6.5420    3.6480 C   0  0  0  0  0
   -6.8720   -5.3130    4.5450 C   0  0  0  0  0
   -7.4700   -5.5920    5.8770 C   0  0  0  0  0
   -7.9530   -7.1220    5.8590 C   0  0  0  0  0
   -6.4740   -8.6960    0.8650 C   0  0  0  0  0
   -2.6460   -7.9060   -2.0030 C   0  0  0  0  0
   -2.1100   -6.7150   -2.8620 C   0  0  0  0  0
   -2.5430   -8.0370   -3.5560 C   0  0  0  0  0
   -4.1092   -8.7398   -0.1468 H   0  0  0  0  0
   -6.7514   -6.5615   -1.6750 H   0  0  0  0  0
   -7.9586   -5.1764   -2.4267 H   0  0  0  0  0
  -11.0092   -6.6758    0.2241 H   0  0  0  0  0
   -9.6680   -7.6840    1.1773 H   0  0  0  0  0
   -9.5467   -8.4773    4.3469 H   0  0  0  0  0
   -6.6459   -8.3588    4.5831 H   0  0  0  0  0
   -8.0447   -6.3143    3.0057 H   0  0  0  0  0
   -6.3306   -6.7782    3.0260 H   0  0  0  0  0
   -7.2841   -4.3994    4.1166 H   0  0  0  0  0
   -5.7957   -5.1607    4.6254 H   0  0  0  0  0
   -8.3087   -4.9237    6.0723 H   0  0  0  0  0
   -6.7417   -5.4255    6.6707 H   0  0  0  0  0
   -7.5080   -7.6761    6.6855 H   0  0  0  0  0
   -9.0347   -7.1858    5.9769 H   0  0  0  0  0
   -5.7366   -9.3374    1.3476 H   0  0  0  0  0
   -2.3037   -8.4661   -1.1328 H   0  0  0  0  0
   -1.2629   -6.0291   -2.8682 H   0  0  0  0  0
   -2.2798   -5.6435   -2.9682 H   0  0  0  0  0
   -3.1679   -8.3532   -4.3912 H   0  0  0  0  0
   -2.1498   -8.7392   -4.2911 H   0  0  0  0  0
  1  2  2  0  0  0
  2  3  1  0  0  0
  2 25  1  0  0  0
  3  4  1  0  0  0
  4  5  4  0  0  0
  4 24  4  0  0  0
  5  6  4  0  0  0
  6  7  1  0  0  0
  6 13  4  0  0  0
  7  8  2  0  0  0
  7 12  1  0  0  0
  8  9  1  0  0  0
  9 10  1  0  0  0
 10 11  2  0  0  0
 10 12  1  0  0  0
 13 14  4  0  0  0
 14 15  1  0  0  0
 14 24  4  0  0  0
 15 16  2  0  0  0
 15 17  2  0  0  0
 15 18  1  0  0  0
 18 19  1  0  0  0
 19 20  1  0  0  0
 19 23  1  0  0  0
 20 21  1  0  0  0
 21 22  1  0  0  0
 22 23  1  0  0  0
 25 26  1  0  0  0
 25 27  1  0  0  0
 26 27  1  0  0  0
  3 28  1  0  0  0
  5 29  1  0  0  0
  8 30  1  0  0  0
 12 31  1  0  0  0
 13 32  1  0  0  0
 18 33  1  0  0  0
 19 34  1  0  0  0
 20 35  1  0  0  0
 20 36  1  0  0  0
 21 37  1  0  0  0
 21 38  1  0  0  0
 22 39  1  0  0  0
 22 40  1  0  0  0
 23 41  1  0  0  0
 23 42  1  0  0  0
 24 43  1  0  0  0
 25 44  1  0  0  0
 26 45  1  0  0  0
 26 46  1  0  0  0
 27 47  1  0  0  0
 27 48  1  0  0  0
M  END
$$$$
