### 
### Created by X-TOOL on Mon Sep 10 21:12:47 2018
### 

@<TRIPOS>MOLECULE
1c5f_ligand
  196   196     1     0     0
SMALL
GAST_HUCK


@<TRIPOS>ATOM
      1 N          -4.0440   -8.4980   47.4340 N.am      1 BMT        -0.2503
      2 CN         -4.0730   -9.9820   47.6770 C.3       1 BMT         0.0255
      3 CA         -5.2810   -7.7590   47.1980 C.3       1 BMT         0.1594
      4 C          -6.2150   -7.6820   48.4050 C.2       1 BMT         0.2067
      5 O          -6.0250   -8.3780   49.4090 O.2       1 BMT        -0.3943
      6 CB         -6.0640   -8.3290   45.9800 C.3       1 BMT         0.0994
      7 OG1        -6.5070   -9.6640   46.2570 O.3       1 BMT        -0.3867
      8 CG2        -5.1710   -8.3280   44.7230 C.3       1 BMT        -0.0069
      9 CD1        -4.6880   -6.9190   44.4260 C.3       1 BMT        -0.0583
     10 CD2        -5.9650   -8.8740   43.5270 C.3       1 BMT        -0.0313
     11 CE         -7.2800   -8.1430   43.2430 C.2       1 BMT        -0.0986
     12 CZ         -8.2350   -8.6620   42.3330 C.2       1 BMT        -0.1017
     13 CH         -9.5410   -7.9190   42.0920 C.3       1 BMT        -0.0486
     14 N          -7.2340   -6.8360   48.2930 N.am      1 ABA        -0.2636
     15 CA         -8.1750   -6.6350   49.3850 C.3       1 ABA         0.1309
     16 C          -9.6080   -7.0080   49.0010 C.2       1 ABA         0.2059
     17 O         -10.4060   -6.1280   48.6660 O.2       1 ABA        -0.3942
     18 CB         -8.1240   -5.1690   49.8210 C.3       1 ABA        -0.0152
     19 CG         -6.7170   -4.6090   49.9010 C.3       1 ABA        -0.0610
     20 N          -9.9380   -8.3000   49.0640 N.am      1 SAR        -0.2556
     21 CA        -11.2820   -8.7290   48.7030 C.3       1 SAR         0.1227
     22 C         -11.2490   -9.9640   47.8090 C.2       1 SAR         0.2032
     23 O         -11.6900  -11.0440   48.2100 O.2       1 SAR        -0.3945
     24 CN         -8.9150   -9.3320   49.4530 C.3       1 SAR         0.0252
     25 N         -10.7230   -9.8220   46.5950 N.am      1 MLE        -0.2531
     26 CN        -10.1900   -8.4920   46.1490 C.3       1 MLE         0.0254
     27 CA        -10.6480  -10.9660   45.7020 C.3       1 MLE         0.1336
     28 CB        -11.0330  -10.5730   44.2710 C.3       1 MLE        -0.0099
     29 CG        -11.0240  -11.7340   43.2650 C.3       1 MLE        -0.0425
     30 CD1       -11.9790  -12.8100   43.7510 C.3       1 MLE        -0.0625
     31 CD2       -11.4150  -11.2450   41.8630 C.3       1 MLE        -0.0625
     32 C          -9.2370  -11.5200   45.7120 C.2       1 MLE         0.2041
     33 O          -8.3890  -11.1150   44.9130 O.2       1 MLE        -0.3944
     34 N          -8.9820  -12.4480   46.6220 N.am      1 VAL        -0.2635
     35 CA         -7.6640  -13.0430   46.7170 C.3       1 VAL         0.1334
     36 C          -7.4480  -14.1120   45.6400 C.2       1 VAL         0.2064
     37 O          -8.2980  -14.9870   45.4450 O.2       1 VAL        -0.3942
     38 CB         -7.4550  -13.6750   48.0990 C.3       1 VAL        -0.0062
     39 CG1        -6.0510  -14.2410   48.2000 C.3       1 VAL        -0.0584
     40 CG2        -7.6900  -12.6340   49.1830 C.3       1 VAL        -0.0584
     41 N          -6.3190  -14.0330   44.9380 N.am      1 MLE        -0.2529
     42 CN         -5.3590  -12.9070   45.1870 C.3       1 MLE         0.0254
     43 CA         -6.0100  -15.0130   43.9000 C.3       1 MLE         0.1336
     44 CB         -5.5850  -14.3220   42.5890 C.3       1 MLE        -0.0099
     45 CG         -6.6600  -13.4350   41.9320 C.3       1 MLE        -0.0425
     46 CD1        -6.1620  -12.8880   40.6070 C.3       1 MLE        -0.0625
     47 CD2        -7.9330  -14.2440   41.7100 C.3       1 MLE        -0.0625
     48 C          -4.8760  -15.8830   44.4190 C.2       1 MLE         0.2041
     49 O          -4.3360  -15.6270   45.4920 O.2       1 MLE        -0.3944
     50 N          -4.5260  -16.9190   43.6710 N.am      1 ALA        -0.2640
     51 CA         -3.4430  -17.7970   44.0780 C.3       1 ALA         0.1282
     52 C          -2.1240  -17.1860   43.6130 C.2       1 ALA         0.2036
     53 O          -2.1210  -16.1830   42.9000 O.2       1 ALA        -0.3944
     54 CB         -3.6340  -19.1700   43.4630 C.3       1 ALA        -0.0244
     55 N          -1.0110  -17.7860   44.0200 N.am      1 DAL        -0.2640
     56 CA          0.3050  -17.2870   43.6220 C.3       1 DAL         0.1284
     57 CB          1.3020  -18.4290   43.5540 C.3       1 DAL        -0.0244
     58 C           0.8330  -16.2150   44.5850 C.2       1 DAL         0.2059
     59 O           0.8310  -16.4160   45.8010 O.2       1 DAL        -0.3942
     60 N           1.2550  -15.0670   44.0500 N.am      1 MLE        -0.2529
     61 CN          0.9840  -14.7550   42.6030 C.3       1 MLE         0.0254
     62 CA          1.8290  -14.0410   44.9110 C.3       1 MLE         0.1338
     63 CB          3.3540  -14.0150   44.7210 C.3       1 MLE        -0.0099
     64 CG          4.1250  -15.3390   44.8350 C.3       1 MLE        -0.0425
     65 CD1         5.5940  -15.1230   44.4700 C.3       1 MLE        -0.0625
     66 CD2         4.0060  -15.8850   46.2470 C.3       1 MLE        -0.0625
     67 C           1.2750  -12.6250   44.7130 C.2       1 MLE         0.2064
     68 O           1.9980  -11.7330   44.2680 O.2       1 MLE        -0.3942
     69 N           0.0000  -12.4130   45.0270 N.am      1 MLE        -0.2529
     70 CN         -0.8940  -13.5720   45.3730 C.3       1 MLE         0.0254
     71 CA         -0.5660  -11.0710   44.8980 C.3       1 MLE         0.1338
     72 CB         -1.7640  -11.0800   43.9410 C.3       1 MLE        -0.0099
     73 CG         -1.5120  -11.4970   42.4840 C.3       1 MLE        -0.0425
     74 CD1        -2.8280  -11.4700   41.7100 C.3       1 MLE        -0.0625
     75 CD2        -0.5060  -10.5570   41.8390 C.3       1 MLE        -0.0625
     76 C          -1.0080  -10.5540   46.2730 C.2       1 MLE         0.2064
     77 O          -1.1640  -11.3380   47.2150 O.2       1 MLE        -0.3942
     78 N          -1.1810   -9.2390   46.4070 N.am      1 MVA        -0.2526
     79 CN         -0.8090   -8.3060   45.2940 C.3       1 MVA         0.0254
     80 CA         -1.6370   -8.6930   47.6830 C.3       1 MVA         0.1359
     81 CB         -0.5690   -7.8100   48.3630 C.3       1 MVA        -0.0061
     82 CG1        -1.0400   -7.4300   49.7650 C.3       1 MVA        -0.0584
     83 CG2         0.7670   -8.5480   48.4290 C.3       1 MVA        -0.0584
     84 C          -2.8870   -7.8490   47.4500 C.2       1 MVA         0.2067
     85 O          -2.8070   -6.6320   47.2880 O.2       1 MVA        -0.3942
     86 H1         -5.1113  -10.3417   47.6257 H         1 BMT         0.0488
     87 H2         -3.6587  -10.1987   48.6727 H         1 BMT         0.0488
     88 H3         -3.4704  -10.4910   46.9103 H         1 BMT         0.0488
     89 H4         -4.9878   -6.7278   46.9519 H         1 BMT         0.0828
     90 H5         -6.9421   -7.6932   45.7938 H         1 BMT         0.0646
     91 H6         -6.9830  -10.0005   45.5069 H         1 BMT         0.2101
     92 H7         -4.2993   -8.9748   44.9013 H         1 BMT         0.0345
     93 H8         -4.0526   -6.9309   43.5282 H         1 BMT         0.0235
     94 H9         -4.1074   -6.5425   45.2811 H         1 BMT         0.0235
     95 H10        -5.5541   -6.2632   44.2536 H         1 BMT         0.0235
     96 H11        -6.1966   -9.9312   43.7237 H         1 BMT         0.0391
     97 H12        -5.3307   -8.7980   42.6315 H         1 BMT         0.0391
     98 H13        -7.4864   -7.2026   43.7519 H         1 BMT         0.0450
     99 H14        -8.0338   -9.5934   41.8058 H         1 BMT         0.0447
    100 H15       -10.1477   -8.4719   41.3597 H         1 BMT         0.0353
    101 H16        -9.3243   -6.9130   41.7035 H         1 BMT         0.0353
    102 H17       -10.0952   -7.8351   43.0385 H         1 BMT         0.0353
    103 H18        -7.3566   -6.3271   47.4409 H         1 ABA         0.1883
    104 H19        -7.8681   -7.2701   50.2291 H         1 ABA         0.0800
    105 H20        -8.5888   -5.0851   50.8144 H         1 ABA         0.0310
    106 H21        -8.6960   -4.5705   49.0967 H         1 ABA         0.0310
    107 H22        -6.7587   -3.5567   50.2188 H         1 ABA         0.0232
    108 H23        -6.2394   -4.6747   48.9123 H         1 ABA         0.0232
    109 H24        -6.1323   -5.1893   50.6300 H         1 ABA         0.0232
    110 H25       -11.7868   -7.9120   48.1666 H         1 SAR         0.0765
    111 H26       -11.8409   -8.9658   49.6203 H         1 SAR         0.0765
    112 H27        -7.9640   -8.8336   49.6921 H         1 SAR         0.0488
    113 H28        -8.7628  -10.0307   48.6171 H         1 SAR         0.0488
    114 H29        -9.2701   -9.8863   50.3343 H         1 SAR         0.0488
    115 H30       -10.3323   -7.7524   46.9508 H         1 MLE         0.0488
    116 H31       -10.7293   -8.1643   45.2480 H         1 MLE         0.0488
    117 H32        -9.1178   -8.5843   45.9214 H         1 MLE         0.0488
    118 H33       -11.3432  -11.7410   46.0571 H         1 MLE         0.0802
    119 H34       -10.3215   -9.8105   43.9213 H         1 MLE         0.0315
    120 H35       -12.0465  -10.1461   44.2932 H         1 MLE         0.0315
    121 H36       -10.0090  -12.1551   43.2163 H         1 MLE         0.0298
    122 H37       -11.9811  -13.6476   43.0380 H         1 MLE         0.0232
    123 H38       -12.9935  -12.3920   43.8286 H         1 MLE         0.0232
    124 H39       -11.6541  -13.1699   44.7384 H         1 MLE         0.0232
    125 H40       -10.7087  -10.4678   41.5356 H         1 MLE         0.0232
    126 H41       -12.4324  -10.8277   41.8907 H         1 MLE         0.0232
    127 H42       -11.3839  -12.0891   41.1583 H         1 MLE         0.0232
    128 H43        -9.7046  -12.7404   47.2484 H         1 VAL         0.1883
    129 H44        -6.9168  -12.2482   46.5755 H         1 VAL         0.0803
    130 H45        -8.1778  -14.4937   48.2306 H         1 VAL         0.0343
    131 H46        -5.9082  -14.6923   49.1929 H         1 VAL         0.0234
    132 H47        -5.3186  -13.4330   48.0558 H         1 VAL         0.0234
    133 H48        -5.9082  -15.0081   47.4246 H         1 VAL         0.0234
    134 H49        -8.7115  -12.2358   49.0937 H         1 VAL         0.0234
    135 H50        -6.9656  -11.8143   49.0675 H         1 VAL         0.0234
    136 H51        -7.5629  -13.0990   50.1717 H         1 VAL         0.0234
    137 H52        -5.7446  -12.2685   45.9955 H         1 MLE         0.0488
    138 H53        -5.2480  -12.3101   44.2697 H         1 MLE         0.0488
    139 H54        -4.3807  -13.3169   45.4784 H         1 MLE         0.0488
    140 H55        -6.8966  -15.6345   43.7061 H         1 MLE         0.0802
    141 H56        -5.3035  -15.1042   41.8686 H         1 MLE         0.0315
    142 H57        -4.7103  -13.6912   42.8057 H         1 MLE         0.0315
    143 H58        -6.8838  -12.5924   42.6028 H         1 MLE         0.0298
    144 H59        -6.9419  -12.2583   40.1539 H         1 MLE         0.0232
    145 H60        -5.9263  -13.7230   39.9309 H         1 MLE         0.0232
    146 H61        -5.2569  -12.2860   40.7757 H         1 MLE         0.0232
    147 H62        -8.2896  -14.6380   42.6731 H         1 MLE         0.0232
    148 H63        -7.7217  -15.0803   41.0274 H         1 MLE         0.0232
    149 H64        -8.7062  -13.5974   41.2695 H         1 MLE         0.0232
    150 H65        -5.0131  -17.0985   42.8163 H         1 ALA         0.1883
    151 H66        -3.4370  -17.8900   45.1740 H         1 ALA         0.0797
    152 H67        -2.8107  -19.8293   43.7753 H         1 ALA         0.0277
    153 H68        -3.6385  -19.0832   42.3664 H         1 ALA         0.0277
    154 H69        -4.5912  -19.5934   43.8013 H         1 ALA         0.0277
    155 H70        -1.0739  -18.5922   44.6083 H         1 DAL         0.1883
    156 H71         0.2128  -16.8387   42.6218 H         1 DAL         0.0797
    157 H72         2.2859  -18.0393   43.2539 H         1 DAL         0.0277
    158 H73         0.9607  -19.1703   42.8164 H         1 DAL         0.0277
    159 H74         1.3822  -18.9051   44.5424 H         1 DAL         0.0277
    160 H75         0.5543  -15.6402   42.1113 H         1 MLE         0.0488
    161 H76         1.9252  -14.4796   42.1048 H         1 MLE         0.0488
    162 H77         0.2744  -13.9172   42.5352 H         1 MLE         0.0488
    163 H78         1.6129  -14.3316   45.9497 H         1 MLE         0.0802
    164 H79         3.7651  -13.3325   45.4794 H         1 MLE         0.0315
    165 H80         3.5503  -13.6093   43.7176 H         1 MLE         0.0315
    166 H81         3.6890  -16.0668   44.1348 H         1 MLE         0.0298
    167 H82         6.1368  -16.0760   44.5547 H         1 MLE         0.0232
    168 H83         6.0377  -14.3862   45.1557 H         1 MLE         0.0232
    169 H84         5.6644  -14.7515   43.4370 H         1 MLE         0.0232
    170 H85         2.9446  -16.0347   46.4940 H         1 MLE         0.0232
    171 H86         4.4499  -15.1700   46.9553 H         1 MLE         0.0232
    172 H87         4.5372  -16.8459   46.3146 H         1 MLE         0.0232
    173 H88        -0.2957  -14.4935   45.4260 H         1 MLE         0.0488
    174 H89        -1.6683  -13.6816   44.5994 H         1 MLE         0.0488
    175 H90        -1.3718  -13.3886   46.3467 H         1 MLE         0.0488
    176 H91         0.2056  -10.3988   44.4947 H         1 MLE         0.0802
    177 H92        -2.1783  -10.0612   43.9239 H         1 MLE         0.0315
    178 H93        -2.5108  -11.7727   44.3563 H         1 MLE         0.0315
    179 H94        -1.1068  -12.5195   42.4678 H         1 MLE         0.0298
    180 H95        -2.6462  -11.7687   40.6671 H         1 MLE         0.0232
    181 H96        -3.2458  -10.4527   41.7324 H         1 MLE         0.0232
    182 H97        -3.5400  -12.1691   42.1728 H         1 MLE         0.0232
    183 H98         0.4370  -10.5850   42.4047 H         1 MLE         0.0232
    184 H99        -0.9061   -9.5324   41.8438 H         1 MLE         0.0232
    185 H100       -0.3209  -10.8736   40.8019 H         1 MLE         0.0232
    186 H101       -0.4918   -8.8894   44.4171 H         1 MVA         0.0488
    187 H102        0.0166   -7.6565   45.6204 H         1 MVA         0.0488
    188 H103       -1.6788   -7.6875   45.0278 H         1 MVA         0.0488
    189 H104       -1.8820   -9.5295   48.3540 H         1 MVA         0.0804
    190 H105       -0.4360   -6.8922   47.7714 H         1 MVA         0.0343
    191 H106       -0.2789   -6.8008   50.2495 H         1 MVA         0.0234
    192 H107       -1.1943   -8.3423   50.3599 H         1 MVA         0.0234
    193 H108       -1.9861   -6.8731   49.6956 H         1 MVA         0.0234
    194 H109        1.0900   -8.8133   47.4115 H         1 MVA         0.0234
    195 H110        0.6509   -9.4637   49.0273 H         1 MVA         0.0234
    196 H111        1.5221   -7.8984   48.8957 H         1 MVA         0.0234
@<TRIPOS>BOND
     1    1    2 1  
     2    1    3 1  
     3    1   84 am 
     4    3    4 1  
     5    3    6 1  
     6    4    5 2  
     7    4   14 am 
     8    6    7 1  
     9    6    8 1  
    10    8    9 1  
    11    8   10 1  
    12   10   11 1  
    13   11   12 2  
    14   12   13 1  
    15   14   15 1  
    16   15   16 1  
    17   15   18 1  
    18   16   17 2  
    19   16   20 am 
    20   18   19 1  
    21   20   21 1  
    22   20   24 1  
    23   21   22 1  
    24   22   23 2  
    25   22   25 am 
    26   25   26 1  
    27   25   27 1  
    28   27   28 1  
    29   27   32 1  
    30   28   29 1  
    31   29   30 1  
    32   29   31 1  
    33   32   33 2  
    34   32   34 am 
    35   34   35 1  
    36   35   36 1  
    37   35   38 1  
    38   36   37 2  
    39   36   41 am 
    40   38   39 1  
    41   38   40 1  
    42   41   42 1  
    43   41   43 1  
    44   43   44 1  
    45   43   48 1  
    46   44   45 1  
    47   45   46 1  
    48   45   47 1  
    49   48   49 2  
    50   48   50 am 
    51   50   51 1  
    52   51   52 1  
    53   51   54 1  
    54   52   53 2  
    55   52   55 am 
    56   55   56 1  
    57   56   57 1  
    58   56   58 1  
    59   58   59 2  
    60   58   60 am 
    61   60   61 1  
    62   60   62 1  
    63   62   63 1  
    64   62   67 1  
    65   63   64 1  
    66   64   65 1  
    67   64   66 1  
    68   67   68 2  
    69   67   69 am 
    70   69   70 1  
    71   69   71 1  
    72   71   72 1  
    73   71   76 1  
    74   72   73 1  
    75   73   74 1  
    76   73   75 1  
    77   76   77 2  
    78   76   78 am 
    79   78   79 1  
    80   78   80 1  
    81   80   81 1  
    82   80   84 1  
    83   81   82 1  
    84   81   83 1  
    85   84   85 2  
    86    2   86 1  
    87    2   87 1  
    88    2   88 1  
    89    3   89 1  
    90    6   90 1  
    91    7   91 1  
    92    8   92 1  
    93    9   93 1  
    94    9   94 1  
    95    9   95 1  
    96   10   96 1  
    97   10   97 1  
    98   11   98 1  
    99   12   99 1  
   100   13  100 1  
   101   13  101 1  
   102   13  102 1  
   103   14  103 1  
   104   15  104 1  
   105   18  105 1  
   106   18  106 1  
   107   19  107 1  
   108   19  108 1  
   109   19  109 1  
   110   21  110 1  
   111   21  111 1  
   112   24  112 1  
   113   24  113 1  
   114   24  114 1  
   115   26  115 1  
   116   26  116 1  
   117   26  117 1  
   118   27  118 1  
   119   28  119 1  
   120   28  120 1  
   121   29  121 1  
   122   30  122 1  
   123   30  123 1  
   124   30  124 1  
   125   31  125 1  
   126   31  126 1  
   127   31  127 1  
   128   34  128 1  
   129   35  129 1  
   130   38  130 1  
   131   39  131 1  
   132   39  132 1  
   133   39  133 1  
   134   40  134 1  
   135   40  135 1  
   136   40  136 1  
   137   42  137 1  
   138   42  138 1  
   139   42  139 1  
   140   43  140 1  
   141   44  141 1  
   142   44  142 1  
   143   45  143 1  
   144   46  144 1  
   145   46  145 1  
   146   46  146 1  
   147   47  147 1  
   148   47  148 1  
   149   47  149 1  
   150   50  150 1  
   151   51  151 1  
   152   54  152 1  
   153   54  153 1  
   154   54  154 1  
   155   55  155 1  
   156   56  156 1  
   157   57  157 1  
   158   57  158 1  
   159   57  159 1  
   160   61  160 1  
   161   61  161 1  
   162   61  162 1  
   163   62  163 1  
   164   63  164 1  
   165   63  165 1  
   166   64  166 1  
   167   65  167 1  
   168   65  168 1  
   169   65  169 1  
   170   66  170 1  
   171   66  171 1  
   172   66  172 1  
   173   70  173 1  
   174   70  174 1  
   175   70  175 1  
   176   71  176 1  
   177   72  177 1  
   178   72  178 1  
   179   73  179 1  
   180   74  180 1  
   181   74  181 1  
   182   74  182 1  
   183   75  183 1  
   184   75  184 1  
   185   75  185 1  
   186   79  186 1  
   187   79  187 1  
   188   79  188 1  
   189   80  189 1  
   190   81  190 1  
   191   82  191 1  
   192   82  192 1  
   193   82  193 1  
   194   83  194 1  
   195   83  195 1  
   196   83  196 1  
@<TRIPOS>SUBSTRUCTURE
     1 BMT         1

