1c5f_ligand
  -I-interpret- 

196196  0  0  0  0  0  0  0  0999 V2000
   -4.0440   -8.4980   47.4340 N   0  0  0  0  0
   -4.0730   -9.9820   47.6770 C   0  0  0  0  0
   -5.2810   -7.7590   47.1980 C   0  0  0  0  0
   -6.2150   -7.6820   48.4050 C   0  0  0  0  0
   -6.0250   -8.3780   49.4090 O   0  0  0  0  0
   -6.0640   -8.3290   45.9800 C   0  0  0  0  0
   -6.5070   -9.6640   46.2570 O   0  0  0  0  0
   -5.1710   -8.3280   44.7230 C   0  0  0  0  0
   -4.6880   -6.9190   44.4260 C   0  0  0  0  0
   -5.9650   -8.8740   43.5270 C   0  0  0  0  0
   -7.2800   -8.1430   43.2430 C   0  0  0  0  0
   -8.2350   -8.6620   42.3330 C   0  0  0  0  0
   -9.5410   -7.9190   42.0920 C   0  0  0  0  0
   -7.2340   -6.8360   48.2930 N   0  0  0  0  0
   -8.1750   -6.6350   49.3850 C   0  0  0  0  0
   -9.6080   -7.0080   49.0010 C   0  0  0  0  0
  -10.4060   -6.1280   48.6660 O   0  0  0  0  0
   -8.1240   -5.1690   49.8210 C   0  0  0  0  0
   -6.7170   -4.6090   49.9010 C   0  0  0  0  0
   -9.9380   -8.3000   49.0640 N   0  0  0  0  0
  -11.2820   -8.7290   48.7030 C   0  0  0  0  0
  -11.2490   -9.9640   47.8090 C   0  0  0  0  0
  -11.6900  -11.0440   48.2100 O   0  0  0  0  0
   -8.9150   -9.3320   49.4530 C   0  0  0  0  0
  -10.7230   -9.8220   46.5950 N   0  0  0  0  0
  -10.1900   -8.4920   46.1490 C   0  0  0  0  0
  -10.6480  -10.9660   45.7020 C   0  0  0  0  0
  -11.0330  -10.5730   44.2710 C   0  0  0  0  0
  -11.0240  -11.7340   43.2650 C   0  0  0  0  0
  -11.9790  -12.8100   43.7510 C   0  0  0  0  0
  -11.4150  -11.2450   41.8630 C   0  0  0  0  0
   -9.2370  -11.5200   45.7120 C   0  0  0  0  0
   -8.3890  -11.1150   44.9130 O   0  0  0  0  0
   -8.9820  -12.4480   46.6220 N   0  0  0  0  0
   -7.6640  -13.0430   46.7170 C   0  0  0  0  0
   -7.4480  -14.1120   45.6400 C   0  0  0  0  0
   -8.2980  -14.9870   45.4450 O   0  0  0  0  0
   -7.4550  -13.6750   48.0990 C   0  0  0  0  0
   -6.0510  -14.2410   48.2000 C   0  0  0  0  0
   -7.6900  -12.6340   49.1830 C   0  0  0  0  0
   -6.3190  -14.0330   44.9380 N   0  0  0  0  0
   -5.3590  -12.9070   45.1870 C   0  0  0  0  0
   -6.0100  -15.0130   43.9000 C   0  0  0  0  0
   -5.5850  -14.3220   42.5890 C   0  0  0  0  0
   -6.6600  -13.4350   41.9320 C   0  0  0  0  0
   -6.1620  -12.8880   40.6070 C   0  0  0  0  0
   -7.9330  -14.2440   41.7100 C   0  0  0  0  0
   -4.8760  -15.8830   44.4190 C   0  0  0  0  0
   -4.3360  -15.6270   45.4920 O   0  0  0  0  0
   -4.5260  -16.9190   43.6710 N   0  0  0  0  0
   -3.4430  -17.7970   44.0780 C   0  0  0  0  0
   -2.1240  -17.1860   43.6130 C   0  0  0  0  0
   -2.1210  -16.1830   42.9000 O   0  0  0  0  0
   -3.6340  -19.1700   43.4630 C   0  0  0  0  0
   -1.0110  -17.7860   44.0200 N   0  0  0  0  0
    0.3050  -17.2870   43.6220 C   0  0  0  0  0
    1.3020  -18.4290   43.5540 C   0  0  0  0  0
    0.8330  -16.2150   44.5850 C   0  0  0  0  0
    0.8310  -16.4160   45.8010 O   0  0  0  0  0
    1.2550  -15.0670   44.0500 N   0  0  0  0  0
    0.9840  -14.7550   42.6030 C   0  0  0  0  0
    1.8290  -14.0410   44.9110 C   0  0  0  0  0
    3.3540  -14.0150   44.7210 C   0  0  0  0  0
    4.1250  -15.3390   44.8350 C   0  0  0  0  0
    5.5940  -15.1230   44.4700 C   0  0  0  0  0
    4.0060  -15.8850   46.2470 C   0  0  0  0  0
    1.2750  -12.6250   44.7130 C   0  0  0  0  0
    1.9980  -11.7330   44.2680 O   0  0  0  0  0
    0.0000  -12.4130   45.0270 N   0  0  0  0  0
   -0.8940  -13.5720   45.3730 C   0  0  0  0  0
   -0.5660  -11.0710   44.8980 C   0  0  0  0  0
   -1.7640  -11.0800   43.9410 C   0  0  0  0  0
   -1.5120  -11.4970   42.4840 C   0  0  0  0  0
   -2.8280  -11.4700   41.7100 C   0  0  0  0  0
   -0.5060  -10.5570   41.8390 C   0  0  0  0  0
   -1.0080  -10.5540   46.2730 C   0  0  0  0  0
   -1.1640  -11.3380   47.2150 O   0  0  0  0  0
   -1.1810   -9.2390   46.4070 N   0  0  0  0  0
   -0.8090   -8.3060   45.2940 C   0  0  0  0  0
   -1.6370   -8.6930   47.6830 C   0  0  0  0  0
   -0.5690   -7.8100   48.3630 C   0  0  0  0  0
   -1.0400   -7.4300   49.7650 C   0  0  0  0  0
    0.7670   -8.5480   48.4290 C   0  0  0  0  0
   -2.8870   -7.8490   47.4500 C   0  0  0  0  0
   -2.8070   -6.6320   47.2880 O   0  0  0  0  0
   -3.4755  -10.4851   46.9167 H   0  0  0  0  0
   -3.6622  -10.1954   48.6638 H   0  0  0  0  0
   -5.1022  -10.3372   47.6259 H   0  0  0  0  0
   -4.9503   -6.7416   46.9891 H   0  0  0  0  0
   -6.9324   -7.6954   45.7995 H   0  0  0  0  0
   -7.0624   -9.6597   47.0400 H   0  0  0  0  0
   -4.3042   -8.9647   44.9002 H   0  0  0  0  0
   -4.0459   -6.9345   43.5454 H   0  0  0  0  0
   -5.5465   -6.2737   44.2399 H   0  0  0  0  0
   -4.1262   -6.5412   45.2803 H   0  0  0  0  0
   -6.2212   -9.9071   43.7619 H   0  0  0  0  0
   -5.3362   -8.7488   42.6455 H   0  0  0  0  0
   -7.4866   -7.2017   43.7523 H   0  0  0  0  0
   -8.0337   -9.5943   41.8053 H   0  0  0  0  0
  -10.0891   -7.8365   43.0305 H   0  0  0  0  0
   -9.3249   -6.9224   41.7071 H   0  0  0  0  0
  -10.1412   -8.4678   41.3663 H   0  0  0  0  0
   -7.3591   -6.3170   47.4239 H   0  0  0  0  0
   -7.8816   -7.2928   50.2031 H   0  0  0  0  0
   -8.5571   -5.1094   50.8195 H   0  0  0  0  0
   -8.6659   -4.5869   49.0756 H   0  0  0  0  0
   -6.1387   -5.1848   50.6235 H   0  0  0  0  0
   -6.2449   -4.6747   48.9207 H   0  0  0  0  0
   -6.7597   -3.5664   50.2160 H   0  0  0  0  0
  -11.7697   -7.9201   48.1589 H   0  0  0  0  0
  -11.8239   -8.9762   49.6159 H   0  0  0  0  0
   -8.0898   -9.3100   48.7412 H   0  0  0  0  0
   -8.5403   -9.1115   50.4525 H   0  0  0  0  0
   -9.3763  -10.3196   49.4461 H   0  0  0  0  0
  -10.9919   -7.7541   46.1730 H   0  0  0  0  0
   -9.3878   -8.1806   46.8181 H   0  0  0  0  0
   -9.8045   -8.5786   45.1331 H   0  0  0  0  0
  -11.3497  -11.7236   46.0509 H   0  0  0  0  0
  -10.2923   -9.8500   43.9293 H   0  0  0  0  0
  -12.0538  -10.1928   44.3091 H   0  0  0  0  0
  -10.0179  -12.1476   43.1951 H   0  0  0  0  0
  -11.6560  -13.1657   44.7294 H   0  0  0  0  0
  -12.9838  -12.3946   43.8275 H   0  0  0  0  0
  -11.9802  -13.6393   43.0437 H   0  0  0  0  0
  -12.4164  -10.8157   41.8955 H   0  0  0  0  0
  -10.7041  -10.4877   41.5324 H   0  0  0  0  0
  -11.4011  -12.0857   41.1694 H   0  0  0  0  0
   -9.7191  -12.7462   47.2609 H   0  0  0  0  0
   -6.9399  -12.2426   46.5650 H   0  0  0  0  0
   -8.1682  -14.4878   48.2358 H   0  0  0  0  0
   -5.9108  -15.0009   47.4312 H   0  0  0  0  0
   -5.3263  -13.4395   48.0569 H   0  0  0  0  0
   -5.9107  -14.6879   49.1842 H   0  0  0  0  0
   -6.9876  -11.8107   49.0527 H   0  0  0  0  0
   -8.7104  -12.2579   49.1087 H   0  0  0  0  0
   -7.5398  -13.0900   50.1616 H   0  0  0  0  0
   -5.8574  -11.9570   44.9942 H   0  0  0  0  0
   -5.0241  -12.9393   46.2238 H   0  0  0  0  0
   -4.5005  -13.0096   44.5232 H   0  0  0  0  0
   -6.8946  -15.6105   43.6798 H   0  0  0  0  0
   -5.3587  -15.1161   41.8774 H   0  0  0  0  0
   -4.7503  -13.6669   42.8385 H   0  0  0  0  0
   -6.8742  -12.5981   42.5967 H   0  0  0  0  0
   -5.2652  -12.2918   40.7755 H   0  0  0  0  0
   -5.9288  -13.7164   39.9380 H   0  0  0  0  0
   -6.9356  -12.2643   40.1591 H   0  0  0  0  0
   -7.7153  -15.0899   41.0579 H   0  0  0  0  0
   -8.3023  -14.6082   42.6687 H   0  0  0  0  0
   -8.6883  -13.6103   41.2452 H   0  0  0  0  0
   -5.0229  -17.1021   42.7992 H   0  0  0  0  0
   -3.4349  -17.9060   45.1625 H   0  0  0  0  0
   -4.5828  -19.5884   43.7989 H   0  0  0  0  0
   -3.6383  -19.0826   42.3765 H   0  0  0  0  0
   -2.8177  -19.8224   43.7731 H   0  0  0  0  0
   -1.0751  -18.6083   44.6200 H   0  0  0  0  0
    0.1884  -16.8322   42.6383 H   0  0  0  0  0
    1.3805  -18.8999   44.5339 H   0  0  0  0  0
    0.9627  -19.1628   42.8229 H   0  0  0  0  0
    2.2765  -18.0417   43.2565 H   0  0  0  0  0
    1.4441  -15.5185   41.9757 H   0  0  0  0  0
   -0.0922  -14.7416   42.4309 H   0  0  0  0  0
    1.4046  -13.7797   42.3580 H   0  0  0  0  0
    1.5444  -14.3248   45.9242 H   0  0  0  0  0
    3.7331  -13.3919   45.5310 H   0  0  0  0  0
    3.5093  -13.6803   43.6954 H   0  0  0  0  0
    3.6970  -16.0626   44.1413 H   0  0  0  0  0
    5.6624  -14.7549   43.4463 H   0  0  0  0  0
    6.0324  -14.3927   45.1501 H   0  0  0  0  0
    6.1307  -16.0679   44.5543 H   0  0  0  0  0
    4.4221  -15.1637   46.9504 H   0  0  0  0  0
    2.9556  -16.0581   46.4809 H   0  0  0  0  0
    4.5552  -16.8237   46.3197 H   0  0  0  0  0
   -0.9416  -14.2577   44.5270 H   0  0  0  0  0
   -0.4918  -14.0926   46.2421 H   0  0  0  0  0
   -1.8941  -13.2027   45.5998 H   0  0  0  0  0
    0.2013  -10.4113   44.4927 H   0  0  0  0  0
   -2.1065  -10.0463   43.8932 H   0  0  0  0  0
   -2.4519  -11.8242   44.3423 H   0  0  0  0  0
   -1.1060  -12.5084   42.4648 H   0  0  0  0  0
   -3.5326  -12.1631   42.1696 H   0  0  0  0  0
   -3.2410  -10.4615   41.7330 H   0  0  0  0  0
   -2.6465  -11.7662   40.6768 H   0  0  0  0  0
   -0.8969   -9.5397   41.8584 H   0  0  0  0  0
    0.4329  -10.5974   42.3911 H   0  0  0  0  0
   -0.3353  -10.8624   40.8067 H   0  0  0  0  0
    0.2544   -8.4070   45.0770 H   0  0  0  0  0
   -1.3878   -8.5546   44.4045 H   0  0  0  0  0
   -1.0240   -7.2804   45.5941 H   0  0  0  0  0
   -1.8448   -9.5370   48.3408 H   0  0  0  0  0
   -0.4273   -6.9022   47.7766 H   0  0  0  0  0
   -1.9775   -6.8783   49.6949 H   0  0  0  0  0
   -1.1925   -8.3348   50.3533 H   0  0  0  0  0
   -0.2850   -6.8066   50.2440 H   0  0  0  0  0
    0.6455   -9.4661   49.0038 H   0  0  0  0  0
    1.0966   -8.7912   47.4189 H   0  0  0  0  0
    1.5088   -7.9114   48.9112 H   0  0  0  0  0
  1  2  1  0  0  0
  1  3  1  0  0  0
  1 84  1  0  0  0
  3  4  1  0  0  0
  3  6  1  0  0  0
  4  5  2  0  0  0
  4 14  1  0  0  0
  6  7  1  0  0  0
  6  8  1  0  0  0
  8  9  1  0  0  0
  8 10  1  0  0  0
 10 11  1  0  0  0
 11 12  2  0  0  0
 12 13  1  0  0  0
 14 15  1  0  0  0
 15 16  1  0  0  0
 15 18  1  0  0  0
 16 17  2  0  0  0
 16 20  1  0  0  0
 18 19  1  0  0  0
 20 21  1  0  0  0
 20 24  1  0  0  0
 21 22  1  0  0  0
 22 23  2  0  0  0
 22 25  1  0  0  0
 25 26  1  0  0  0
 25 27  1  0  0  0
 27 28  1  0  0  0
 27 32  1  0  0  0
 28 29  1  0  0  0
 29 30  1  0  0  0
 29 31  1  0  0  0
 32 33  2  0  0  0
 32 34  1  0  0  0
 34 35  1  0  0  0
 35 36  1  0  0  0
 35 38  1  0  0  0
 36 37  2  0  0  0
 36 41  1  0  0  0
 38 39  1  0  0  0
 38 40  1  0  0  0
 41 42  1  0  0  0
 41 43  1  0  0  0
 43 44  1  0  0  0
 43 48  1  0  0  0
 44 45  1  0  0  0
 45 46  1  0  0  0
 45 47  1  0  0  0
 48 49  2  0  0  0
 48 50  1  0  0  0
 50 51  1  0  0  0
 51 52  1  0  0  0
 51 54  1  0  0  0
 52 53  2  0  0  0
 52 55  1  0  0  0
 55 56  1  0  0  0
 56 57  1  0  0  0
 56 58  1  0  0  0
 58 59  2  0  0  0
 58 60  1  0  0  0
 60 61  1  0  0  0
 60 62  1  0  0  0
 62 63  1  0  0  0
 62 67  1  0  0  0
 63 64  1  0  0  0
 64 65  1  0  0  0
 64 66  1  0  0  0
 67 68  2  0  0  0
 67 69  1  0  0  0
 69 70  1  0  0  0
 69 71  1  0  0  0
 71 72  1  0  0  0
 71 76  1  0  0  0
 72 73  1  0  0  0
 73 74  1  0  0  0
 73 75  1  0  0  0
 76 77  2  0  0  0
 76 78  1  0  0  0
 78 79  1  0  0  0
 78 80  1  0  0  0
 80 81  1  0  0  0
 80 84  1  0  0  0
 81 82  1  0  0  0
 81 83  1  0  0  0
 84 85  2  0  0  0
  2 86  1  0  0  0
  2 87  1  0  0  0
  2 88  1  0  0  0
  3 89  1  0  0  0
  6 90  1  0  0  0
  7 91  1  0  0  0
  8 92  1  0  0  0
  9 93  1  0  0  0
  9 94  1  0  0  0
  9 95  1  0  0  0
 10 96  1  0  0  0
 10 97  1  0  0  0
 11 98  1  0  0  0
 12 99  1  0  0  0
 13100  1  0  0  0
 13101  1  0  0  0
 13102  1  0  0  0
 14103  1  0  0  0
 15104  1  0  0  0
 18105  1  0  0  0
 18106  1  0  0  0
 19107  1  0  0  0
 19108  1  0  0  0
 19109  1  0  0  0
 21110  1  0  0  0
 21111  1  0  0  0
 24112  1  0  0  0
 24113  1  0  0  0
 24114  1  0  0  0
 26115  1  0  0  0
 26116  1  0  0  0
 26117  1  0  0  0
 27118  1  0  0  0
 28119  1  0  0  0
 28120  1  0  0  0
 29121  1  0  0  0
 30122  1  0  0  0
 30123  1  0  0  0
 30124  1  0  0  0
 31125  1  0  0  0
 31126  1  0  0  0
 31127  1  0  0  0
 34128  1  0  0  0
 35129  1  0  0  0
 38130  1  0  0  0
 39131  1  0  0  0
 39132  1  0  0  0
 39133  1  0  0  0
 40134  1  0  0  0
 40135  1  0  0  0
 40136  1  0  0  0
 42137  1  0  0  0
 42138  1  0  0  0
 42139  1  0  0  0
 43140  1  0  0  0
 44141  1  0  0  0
 44142  1  0  0  0
 45143  1  0  0  0
 46144  1  0  0  0
 46145  1  0  0  0
 46146  1  0  0  0
 47147  1  0  0  0
 47148  1  0  0  0
 47149  1  0  0  0
 50150  1  0  0  0
 51151  1  0  0  0
 54152  1  0  0  0
 54153  1  0  0  0
 54154  1  0  0  0
 55155  1  0  0  0
 56156  1  0  0  0
 57157  1  0  0  0
 57158  1  0  0  0
 57159  1  0  0  0
 61160  1  0  0  0
 61161  1  0  0  0
 61162  1  0  0  0
 62163  1  0  0  0
 63164  1  0  0  0
 63165  1  0  0  0
 64166  1  0  0  0
 65167  1  0  0  0
 65168  1  0  0  0
 65169  1  0  0  0
 66170  1  0  0  0
 66171  1  0  0  0
 66172  1  0  0  0
 70173  1  0  0  0
 70174  1  0  0  0
 70175  1  0  0  0
 71176  1  0  0  0
 72177  1  0  0  0
 72178  1  0  0  0
 73179  1  0  0  0
 74180  1  0  0  0
 74181  1  0  0  0
 74182  1  0  0  0
 75183  1  0  0  0
 75184  1  0  0  0
 75185  1  0  0  0
 79186  1  0  0  0
 79187  1  0  0  0
 79188  1  0  0  0
 80189  1  0  0  0
 81190  1  0  0  0
 82191  1  0  0  0
 82192  1  0  0  0
 82193  1  0  0  0
 83194  1  0  0  0
 83195  1  0  0  0
 83196  1  0  0  0
M  END
$$$$
