5lyw_ligand
  -I-interpret- 

 41 44  0  0  0  0  0  0  0  0999 V2000
   26.8220   17.2980   15.6130 C   0  0  0  0  0
   26.2560   15.9150   15.2890 C   0  0  0  0  0
   24.8580   15.9380   15.8860 C   0  0  0  0  0
   29.9560   17.0390   17.4960 C   0  0  0  0  0
   29.7920   17.4620   18.8140 C   0  0  0  0  0
   30.8840   17.4570   19.6700 C   0  0  0  0  0
   32.1220   17.0380   19.2170 C   0  0  0  0  0
   32.2820   16.6360   17.9000 C   0  0  0  0  0
   31.2080   16.6280   17.0130 C   0  0  0  0  0
   25.6430   19.5400   15.5830 C   0  0  0  0  0
   26.9070   21.4690   15.6680 C   0  0  0  0  0
   24.4890   20.3500   15.5290 C   0  0  0  0  0
   22.5720   21.2690   15.4570 C   0  0  0  0  0
   24.3870   17.3600   15.6860 C   0  0  0  0  0
   25.6240   18.1530   15.6330 N   0  0  0  0  0
   27.6160   17.3650   16.9050 C   0  0  0  0  0
   28.9440   16.9290   16.5770 O   0  0  0  0  0
   25.8980   22.3370   15.6090 N   0  0  0  0  0
   26.8660   20.1260   15.6430 N   0  0  0  0  0
   24.6980   21.7170   15.5220 C   0  0  0  0  0
   23.1290   20.0750   15.4880 N   0  0  0  0  0
   23.4560   22.2850   15.4570 N   0  0  0  0  0
   31.3880   16.2020   15.5780 C   0  0  0  0  0
   27.5646   17.6120   14.8795 H   0  0  0  0  0
   26.8673   15.1123   15.7015 H   0  0  0  0  0
   26.2435   15.7153   14.2175 H   0  0  0  0  0
   24.8571   15.6505   16.9374 H   0  0  0  0  0
   24.1963   15.2164   15.4069 H   0  0  0  0  0
   28.8160   17.7933   19.1685 H   0  0  0  0  0
   30.7659   17.7844   20.7030 H   0  0  0  0  0
   32.9737   17.0239   19.8971 H   0  0  0  0  0
   33.2657   16.3206   17.5524 H   0  0  0  0  0
   27.9015   21.9081   15.7474 H   0  0  0  0  0
   21.4928   21.4206   15.4335 H   0  0  0  0  0
   23.7253   17.6880   16.4877 H   0  0  0  0  0
   23.7920   17.4698   14.7794 H   0  0  0  0  0
   27.1720   16.7332   17.6743 H   0  0  0  0  0
   27.6220   18.3759   17.3125 H   0  0  0  0  0
   30.7439   15.3475   15.3705 H   0  0  0  0  0
   31.1214   17.0282   14.9189 H   0  0  0  0  0
   32.4284   15.9234   15.4108 H   0  0  0  0  0
  1  2  1  0  0  0
  1 15  1  0  0  0
 16  1  1  0  0  0
  2  3  1  0  0  0
 14  3  1  0  0  0
  4  5  4  0  0  0
  4  9  4  0  0  0
 17  4  1  0  0  0
  5  6  4  0  0  0
  6  7  4  0  0  0
  8  7  4  0  0  0
  9  8  4  0  0  0
  9 23  1  0  0  0
 10 12  4  0  0  0
 15 10  1  0  0  0
 10 19  4  0  0  0
 11 18  4  0  0  0
 19 11  4  0  0  0
 12 20  4  0  0  0
 12 21  4  0  0  0
 21 13  4  0  0  0
 13 22  4  0  0  0
 15 14  1  0  0  0
 16 17  1  0  0  0
 18 20  4  0  0  0
 20 22  4  0  0  0
  1 24  1  0  0  0
  2 25  1  0  0  0
  2 26  1  0  0  0
  3 27  1  0  0  0
  3 28  1  0  0  0
  5 29  1  0  0  0
  6 30  1  0  0  0
  7 31  1  0  0  0
  8 32  1  0  0  0
 11 33  1  0  0  0
 13 34  1  0  0  0
 14 35  1  0  0  0
 14 36  1  0  0  0
 16 37  1  0  0  0
 16 38  1  0  0  0
 23 39  1  0  0  0
 23 40  1  0  0  0
 23 41  1  0  0  0
M  END
$$$$
