1v0m_ligand
  -I-interpret- 

 38 39  0  0  0  0  0  0  0  0999 V2000
   10.5150   17.8060   15.2180 C   0  0  0  0  0
   10.5110   17.4590   16.7080 C   0  0  0  0  0
   11.7630   17.7910   17.2680 O   0  0  0  0  0
   10.1140   15.9960   16.9980 C   0  0  0  0  0
    9.8660   15.8360   18.3700 O   0  0  0  0  0
    8.8210   15.7330   16.2490 C   0  0  0  0  0
    8.3830   14.4030   16.5540 O   0  0  0  0  0
    9.0590   15.9010   14.7450 C   0  0  0  0  0
    9.2850   17.3470   14.5170 N   0  3  0  0  0
    6.9970   14.2200   16.3310 C   0  0  0  0  0
    6.6920   12.7820   16.5940 C   0  0  0  0  0
    5.1880   12.5430   16.5000 C   0  0  0  0  0
    4.4050   13.5800   17.2910 C   0  0  0  0  0
    4.8970   14.9850   16.9530 C   0  0  0  0  0
    7.3640   11.9670   15.6590 O   0  0  0  0  0
    4.8780   11.2400   16.9870 O   0  0  0  0  0
    3.0260   13.4940   16.9780 O   0  0  0  0  0
    6.2990   15.0520   17.1950 O   0  0  0  0  0
   11.3676   17.3044   14.7602 H   0  0  0  0  0
   10.5661   18.8910   15.1276 H   0  0  0  0  0
    9.7341   18.0557   17.1860 H   0  0  0  0  0
   11.9707   18.7060   17.0648 H   0  0  0  0  0
   10.9090   15.3155   16.6930 H   0  0  0  0  0
   10.6745   15.9988   18.8613 H   0  0  0  0  0
    8.0499   16.4416   16.5514 H   0  0  0  0  0
    8.2042   15.5432   14.1711 H   0  0  0  0  0
    9.9169   15.3142   14.4166 H   0  0  0  0  0
    9.3968   17.5088   13.5161 H   0  0  0  0  0
    8.4859   17.8663   14.8804 H   0  0  0  0  0
    6.7069   14.4699   15.3105 H   0  0  0  0  0
    7.0321   12.5272   17.5978 H   0  0  0  0  0
    4.9003   12.6292   15.4522 H   0  0  0  0  0
    4.5554   13.3837   18.3526 H   0  0  0  0  0
    4.3800   15.7164   17.5741 H   0  0  0  0  0
    4.6924   15.2055   15.9053 H   0  0  0  0  0
    7.1619   11.0454   15.8360 H   0  0  0  0  0
    3.9312   11.0937   16.9261 H   0  0  0  0  0
    2.5428   14.1524   17.4826 H   0  0  0  0  0
  1  2  1  0  0  0
  1  9  1  0  0  0
  2  3  1  0  0  0
  2  4  1  0  0  0
  4  5  1  0  0  0
  4  6  1  0  0  0
  6  7  1  0  0  0
  6  8  1  0  0  0
  7 10  1  0  0  0
  8  9  1  0  0  0
 10 11  1  0  0  0
 10 18  1  0  0  0
 11 12  1  0  0  0
 11 15  1  0  0  0
 12 13  1  0  0  0
 12 16  1  0  0  0
 13 14  1  0  0  0
 13 17  1  0  0  0
 14 18  1  0  0  0
  1 19  1  0  0  0
  1 20  1  0  0  0
  2 21  1  0  0  0
  3 22  1  0  0  0
  4 23  1  0  0  0
  5 24  1  0  0  0
  6 25  1  0  0  0
  8 26  1  0  0  0
  8 27  1  0  0  0
  9 28  1  0  0  0
  9 29  1  0  0  0
 10 30  1  0  0  0
 11 31  1  0  0  0
 12 32  1  0  0  0
 13 33  1  0  0  0
 14 34  1  0  0  0
 14 35  1  0  0  0
 15 36  1  0  0  0
 16 37  1  0  0  0
 17 38  1  0  0  0
M  END
$$$$
