5W14_LIGAND
  -I-interpret- 

 45 47  0  0  0  0  0  0  0  0999 V2000
   39.8280  -11.4500   -9.7630 C   0  0  0  0  0
   40.9920  -11.7820   -8.8300 C   0  0  0  0  0
   42.4810   -9.8330   -8.0250 C   0  0  0  0  0
   38.3340  -11.4840   -9.1140 B   0  0  0  0  0
   37.9810  -10.1500   -8.4700 O   0  0  0  0  0
   38.1650  -12.5060   -8.0100 O   0  0  0  0  0
   40.0910  -10.1660  -10.4010 N   0  0  0  0  0
   41.4350  -10.6650   -8.0100 N   0  0  0  0  0
   42.3420   -9.0190   -6.9140 C   0  0  0  0  0
   41.2610   -9.4000   -6.2360 N   0  0  0  0  0
   40.6570  -10.4570   -6.9040 N   0  0  0  0  0
   43.2410   -7.9190   -6.4700 C   0  0  0  0  0
   43.8920   -7.1000   -7.4170 C   0  0  0  0  0
   44.7560   -6.0490   -7.0130 C   0  0  0  0  0
   44.9300   -5.8580   -5.6370 C   0  0  0  0  0
   44.2740   -6.6750   -4.6770 C   0  0  0  0  0
   43.4100   -7.7040   -5.0830 C   0  0  0  0  0
   45.4800   -5.1730   -8.0490 C   0  0  0  0  0
   45.6250   -5.6120   -9.2210 O   0  0  0  0  0
   45.9170   -4.0070   -7.7980 O   0  0  0  0  0
   40.9260   -9.9700  -11.4300 C   0  0  0  0  0
   41.6950  -10.8070  -11.8710 O   0  0  0  0  0
   40.8610   -8.6260  -12.1130 C   0  0  0  0  0
   42.2190   -8.0380  -12.3710 C   0  0  0  0  0
   43.0470   -7.9790  -13.4890 C   0  0  0  0  0
   44.2380   -7.2860  -13.2460 C   0  0  0  0  0
   44.3030   -6.8060  -11.9330 C   0  0  0  0  0
   42.8910   -7.2130  -11.0090 S   0  0  0  0  0
   39.7962  -12.2644  -10.4867 H   0  0  0  0  0
   41.8340  -12.0748   -9.4573 H   0  0  0  0  0
   40.6483  -12.5629   -8.1517 H   0  0  0  0  0
   43.2822   -9.8018   -8.7634 H   0  0  0  0  0
   38.0675   -9.4492   -9.1203 H   0  0  0  0  0
   38.3735  -13.3795   -8.3494 H   0  0  0  0  0
   39.5995   -9.3509  -10.0343 H   0  0  0  0  0
   43.7280   -7.2781   -8.4798 H   0  0  0  0  0
   45.5874   -5.0598   -5.2922 H   0  0  0  0  0
   44.4435   -6.5008   -3.6144 H   0  0  0  0  0
   42.8854   -8.3185   -4.3513 H   0  0  0  0  0
   45.7459   -3.7936   -6.8778 H   0  0  0  0  0
   40.3210   -7.9437  -11.4565 H   0  0  0  0  0
   40.3687   -8.7642  -13.0756 H   0  0  0  0  0
   42.7943   -8.4251  -14.4509 H   0  0  0  0  0
   45.0209   -7.1378  -13.9898 H   0  0  0  0  0
   45.1455   -6.2402  -11.5353 H   0  0  0  0  0
  1  2  1  0  0  0
  1  4  1  0  0  0
  1  7  1  0  0  0
  2  8  1  0  0  0
  8  3  4  0  0  0
  3  9  4  0  0  0
  4  5  1  0  0  0
  4  6  1  0  0  0
  7 21  1  0  0  0
  8 11  4  0  0  0
  9 10  4  0  0  0
  9 12  1  0  0  0
 10 11  4  0  0  0
 12 13  4  0  0  0
 12 17  4  0  0  0
 13 14  4  0  0  0
 14 15  4  0  0  0
 14 18  1  0  0  0
 15 16  4  0  0  0
 16 17  4  0  0  0
 18 19  2  0  0  0
 18 20  1  0  0  0
 21 22  2  0  0  0
 21 23  1  0  0  0
 23 24  1  0  0  0
 24 25  4  0  0  0
 24 28  4  0  0  0
 25 26  4  0  0  0
 26 27  4  0  0  0
 27 28  4  0  0  0
  1 29  1  0  0  0
  2 30  1  0  0  0
  2 31  1  0  0  0
  3 32  1  0  0  0
  5 33  1  0  0  0
  6 34  1  0  0  0
  7 35  1  0  0  0
 13 36  1  0  0  0
 15 37  1  0  0  0
 16 38  1  0  0  0
 17 39  1  0  0  0
 20 40  1  0  0  0
 23 41  1  0  0  0
 23 42  1  0  0  0
 25 43  1  0  0  0
 26 44  1  0  0  0
 27 45  1  0  0  0
M  END
$$$$
