### 
### Created by X-TOOL on Mon Sep 10 21:13:33 2018
### 

@<TRIPOS>MOLECULE
5W14_LIGAND
   44    46     1     0     0
SMALL
GAST_HUCK


@<TRIPOS>ATOM
      1 C2         39.8280  -11.4500   -9.7630 C.3       1 9TJ        -0.1934
      2 C6         40.9920  -11.7820   -8.8300 C.3       1 9TJ        -0.0231
      3 C8         42.4810   -9.8330   -8.0250 C.2       1 9TJ         0.0848
      4 B1         38.3340  -11.4840   -9.1140 B         1 9TJ         3.0000
      5 O3         37.9810  -10.1500   -8.4700 O.3       1 9TJ        -0.8710
      6 O4         38.1650  -12.5060   -8.0100 O.3       1 9TJ        -0.8710
      7 N5         40.0910  -10.1660  -10.4010 N.am      1 9TJ        -0.4337
      8 N7         41.4350  -10.6650   -8.0100 N.pl3     1 9TJ        -0.1955
      9 C9         42.3420   -9.0190   -6.9140 C.2       1 9TJ         0.0706
     10 N10        41.2610   -9.4000   -6.2360 N.2       1 9TJ        -0.2165
     11 N11        40.6570  -10.4570   -6.9040 N.2       1 9TJ        -0.0929
     12 C13        43.2410   -7.9190   -6.4700 C.ar      1 9TJ        -0.0160
     13 C14        43.8920   -7.1000   -7.4170 C.ar      1 9TJ        -0.0458
     14 C15        44.7560   -6.0490   -7.0130 C.ar      1 9TJ         0.0059
     15 C16        44.9300   -5.8580   -5.6370 C.ar      1 9TJ        -0.0520
     16 C17        44.2740   -6.6750   -4.6770 C.ar      1 9TJ        -0.0626
     17 C18        43.4100   -7.7040   -5.0830 C.ar      1 9TJ        -0.0576
     18 C19        45.4800   -5.1730   -8.0490 C.2       1 9TJ         0.0619
     19 O20        45.6250   -5.6120   -9.2210 O.co2     1 9TJ        -0.5607
     20 O21        45.9170   -4.0070   -7.7980 O.co2     1 9TJ        -0.5607
     21 C22        40.9260   -9.9700  -11.4300 C.2       1 9TJ         0.1614
     22 O23        41.6950  -10.8070  -11.8710 O.2       1 9TJ        -0.3962
     23 C24        40.8610   -8.6260  -12.1130 C.3       1 9TJ         0.0793
     24 C25        42.2190   -8.0380  -12.3710 C.2       1 9TJ         0.0306
     25 C26        43.0470   -7.9790  -13.4890 C.2       1 9TJ        -0.0791
     26 C27        44.2380   -7.2860  -13.2460 C.2       1 9TJ        -0.0924
     27 C28        44.3030   -6.8060  -11.9330 C.2       1 9TJ        -0.0189
     28 S29        42.8910   -7.2130  -11.0090 S.3       1 9TJ        -0.0419
     29 H          39.7962  -12.2644  -10.4867 H         1 9TJ        -0.1795
     30 H          41.8340  -12.0748   -9.4573 H         1 9TJ         0.0317
     31 H          40.6483  -12.5629   -8.1517 H         1 9TJ         0.0317
     32 H          43.2822   -9.8018   -8.7634 H         1 9TJ         0.1076
     33 H          38.5769   -9.9826   -7.7363 H         1 9TJ        -0.1290
     34 H          37.2573  -12.4910   -7.6978 H         1 9TJ        -0.1290
     35 H          39.5995   -9.3509  -10.0343 H         1 9TJ         0.1461
     36 H          43.7280   -7.2781   -8.4798 H         1 9TJ         0.0616
     37 H          45.5874   -5.0598   -5.2922 H         1 9TJ         0.0614
     38 H          44.4435   -6.5008   -3.6144 H         1 9TJ         0.0612
     39 H          42.8854   -8.3185   -4.3513 H         1 9TJ         0.0602
     40 H          40.3210   -7.9437  -11.4565 H         1 9TJ         0.0684
     41 H          40.3687   -8.7642  -13.0756 H         1 9TJ         0.0684
     42 H          42.7943   -8.4251  -14.4509 H         1 9TJ         0.0284
     43 H          45.0209   -7.1378  -13.9898 H         1 9TJ         0.0373
     44 H          45.1455   -6.2402  -11.5353 H         1 9TJ         0.0603
@<TRIPOS>BOND
     1    1    2 1  
     2    1    4 1  
     3    1    7 1  
     4    2    8 1  
     5    8    3 1  
     6    3    9 2  
     7    4    5 1  
     8    4    6 1  
     9    7   21 am 
    10    8   11 1  
    11    9   10 1  
    12    9   12 1  
    13   10   11 2  
    14   12   13 ar 
    15   12   17 ar 
    16   13   14 ar 
    17   14   15 ar 
    18   14   18 1  
    19   15   16 ar 
    20   16   17 ar 
    21   18   19 ar 
    22   18   20 ar 
    23   21   22 2  
    24   21   23 1  
    25   23   24 1  
    26   24   25 2  
    27   24   28 1  
    28   25   26 1  
    29   26   27 2  
    30   27   28 1  
    31    1   29 1  
    32    2   30 1  
    33    2   31 1  
    34    3   32 1  
    35    5   33 1  
    36    6   34 1  
    37    7   35 1  
    38   13   36 1  
    39   15   37 1  
    40   16   38 1  
    41   17   39 1  
    42   23   40 1  
    43   23   41 1  
    44   25   42 1  
    45   26   43 1  
    46   27   44 1  
@<TRIPOS>SUBSTRUCTURE
     1 9TJ         1

