1t69_ligand
  -I-interpret- 

 39 39  0  0  0  0  0  0  0  0999 V2000
   28.1170   -2.3830   -6.7170 O   0  0  0  0  0
   28.9070   -1.2850   -8.9660 O   0  0  0  0  0
   29.2620   -2.5080   -7.1600 N   0  0  0  0  0
   29.4990   -2.2090   -8.4230 C   0  0  0  0  0
   30.5260   -3.0790   -9.1240 C   0  0  0  0  0
   30.2290   -3.1560  -10.6170 C   0  0  0  0  0
   30.1860   -4.5830  -11.1480 C   0  0  0  0  0
   29.0160   -4.7240  -12.1150 C   0  0  0  0  0
   29.4480   -5.1720  -13.5050 C   0  0  0  0  0
   29.1480   -4.0950  -14.5380 C   0  0  0  0  0
   30.0860   -4.2530  -15.7110 C   0  0  0  0  0
   31.1070   -4.9240  -15.6220 O   0  0  0  0  0
   29.6830   -3.6430  -16.8310 N   0  0  0  0  0
   30.4660   -3.0430  -17.7610 C   0  0  0  0  0
   29.9570   -1.9040  -18.4040 C   0  0  0  0  0
   30.7120   -1.2440  -19.3730 C   0  0  0  0  0
   31.9770   -1.7310  -19.7030 C   0  0  0  0  0
   32.4830   -2.8780  -19.0690 C   0  0  0  0  0
   31.7290   -3.5420  -18.1010 C   0  0  0  0  0
   28.1038   -2.6369   -5.7913 H   0  0  0  0  0
   30.0157   -2.8383   -6.5573 H   0  0  0  0  0
   30.4867   -4.0834   -8.7025 H   0  0  0  0  0
   31.5154   -2.6444   -8.9813 H   0  0  0  0  0
   31.0295   -2.6331  -11.1402 H   0  0  0  0  0
   29.2468   -2.7128  -10.7815 H   0  0  0  0  0
   30.0599   -5.2781  -10.3180 H   0  0  0  0  0
   31.1179   -4.8082  -11.6666 H   0  0  0  0  0
   28.5438   -3.7463  -12.2117 H   0  0  0  0  0
   28.3424   -5.4818  -11.7149 H   0  0  0  0  0
   28.8985   -6.0754  -13.7696 H   0  0  0  0  0
   30.5215   -5.3605  -13.4956 H   0  0  0  0  0
   29.2867   -3.1111  -14.0900 H   0  0  0  0  0
   28.1175   -4.1937  -14.8791 H   0  0  0  0  0
   28.6779   -3.6276  -17.0041 H   0  0  0  0  0
   28.9655   -1.5331  -18.1444 H   0  0  0  0  0
   30.3177   -0.3564  -19.8677 H   0  0  0  0  0
   32.5757   -1.2191  -20.4564 H   0  0  0  0  0
   33.4717   -3.2518  -19.3353 H   0  0  0  0  0
   32.1181   -4.4373  -17.6160 H   0  0  0  0  0
  3  1  1  0  0  0
  4  2  2  0  0  0
  3  4  1  0  0  0
  4  5  1  0  0  0
  5  6  1  0  0  0
  6  7  1  0  0  0
  7  8  1  0  0  0
  8  9  1  0  0  0
  9 10  1  0  0  0
 10 11  1  0  0  0
 11 12  2  0  0  0
 11 13  1  0  0  0
 13 14  1  0  0  0
 14 15  4  0  0  0
 14 19  4  0  0  0
 15 16  4  0  0  0
 16 17  4  0  0  0
 17 18  4  0  0  0
 18 19  4  0  0  0
  1 20  1  0  0  0
  3 21  1  0  0  0
  5 22  1  0  0  0
  5 23  1  0  0  0
  6 24  1  0  0  0
  6 25  1  0  0  0
  7 26  1  0  0  0
  7 27  1  0  0  0
  8 28  1  0  0  0
  8 29  1  0  0  0
  9 30  1  0  0  0
  9 31  1  0  0  0
 10 32  1  0  0  0
 10 33  1  0  0  0
 13 34  1  0  0  0
 15 35  1  0  0  0
 16 36  1  0  0  0
 17 37  1  0  0  0
 18 38  1  0  0  0
 19 39  1  0  0  0
M  END
$$$$
