3fck_ligand
  -I-interpret- 

 44 45  0  0  0  0  0  0  0  0999 V2000
  -18.0920   -2.4200    9.2670 C   0  0  0  0  0
  -17.3120   -1.7000    8.3680 C   0  0  0  0  0
  -17.4500   -1.8990    6.9970 C   0  0  0  0  0
  -18.3790   -2.8250    6.5370 C   0  0  0  0  0
  -19.1630   -3.5500    7.4280 C   0  0  0  0  0
  -19.0170   -3.3450    8.7980 C   0  0  0  0  0
  -16.8390    0.3650    4.0530 C   0  0  0  0  0
  -20.2450   -4.7070    5.7370 O   0  0  0  0  0
  -20.1320   -4.5210    6.9090 C   0  0  0  0  0
  -20.8660   -5.1690    7.8290 O   0  0  0  0  0
  -16.6190   -1.1330    6.0060 C   0  0  0  0  0
  -17.4370   -0.1610    5.2810 N   0  3  0  0  0
  -17.0630   -0.5600    2.8500 C   0  0  0  0  0
  -16.4860    0.0100    1.5520 C   0  0  0  0  0
  -16.7490   -0.8900    0.5000 O   0  0  0  0  0
  -15.8620   -0.8430   -0.7620 N   0  0  0  0  0
  -16.4230   -1.0440   -1.8730 C   0  0  0  0  0
  -15.8400   -0.5190   -3.1330 C   0  0  0  0  0
  -15.1420    0.6320   -3.1460 N   0  0  0  0  0
  -16.0230   -1.2210   -4.3230 C   0  0  0  0  0
  -15.4740   -0.7110   -5.4960 C   0  0  0  0  0
  -15.6180   -1.3140   -6.5800 O   0  0  0  0  0
  -14.7850    0.4380   -5.4550 N   0  0  0  0  0
  -14.6210    1.0980   -4.2980 C   0  0  0  0  0
  -13.9740    2.1640   -4.3060 O   0  0  0  0  0
  -17.9777   -2.2587   10.3389 H   0  0  0  0  0
  -16.5878   -0.9750    8.7395 H   0  0  0  0  0
  -18.4944   -2.9849    5.4650 H   0  0  0  0  0
  -19.6281   -3.9099    9.5020 H   0  0  0  0  0
  -15.7646    0.4554    4.2132 H   0  0  0  0  0
  -17.3089    1.3236    3.8331 H   0  0  0  0  0
  -20.6152   -4.8693    8.7059 H   0  0  0  0  0
  -16.1911   -1.8348    5.2901 H   0  0  0  0  0
  -15.8347   -0.6000    6.5435 H   0  0  0  0  0
  -18.2918   -0.6449    5.0062 H   0  0  0  0  0
  -17.5693    0.6342    5.9060 H   0  0  0  0  0
  -18.1380   -0.6792    2.7147 H   0  0  0  0  0
  -16.5581   -1.5040    3.0548 H   0  0  0  0  0
  -15.4100    0.1486    1.6573 H   0  0  0  0  0
  -16.9477    0.9735    1.3360 H   0  0  0  0  0
  -17.3520   -1.6130   -1.9089 H   0  0  0  0  0
  -17.1000   -1.2155   -4.4905 H   0  0  0  0  0
  -15.5190   -2.1749   -4.1676 H   0  0  0  0  0
  -14.3810    0.8148   -6.3124 H   0  0  0  0  0
  2  1  4  0  0  0
  1  6  4  0  0  0
  3  2  4  0  0  0
  3  4  4  0  0  0
 11  3  1  0  0  0
  4  5  4  0  0  0
  5  6  4  0  0  0
  5  9  1  0  0  0
 12  7  1  0  0  0
  7 13  1  0  0  0
  9  8  2  0  0  0
  9 10  1  0  0  0
 11 12  1  0  0  0
 13 14  1  0  0  0
 14 15  1  0  0  0
 15 16  1  0  0  0
 16 17  2  0  0  0
 17 18  1  0  0  0
 18 19  2  0  0  0
 18 20  1  0  0  0
 19 24  1  0  0  0
 20 21  1  0  0  0
 21 22  2  0  0  0
 21 23  1  0  0  0
 23 24  1  0  0  0
 24 25  2  0  0  0
  1 26  1  0  0  0
  2 27  1  0  0  0
  4 28  1  0  0  0
  6 29  1  0  0  0
  7 30  1  0  0  0
  7 31  1  0  0  0
 10 32  1  0  0  0
 11 33  1  0  0  0
 11 34  1  0  0  0
 12 35  1  0  0  0
 12 36  1  0  0  0
 13 37  1  0  0  0
 13 38  1  0  0  0
 14 39  1  0  0  0
 14 40  1  0  0  0
 17 41  1  0  0  0
 20 42  1  0  0  0
 20 43  1  0  0  0
 23 44  1  0  0  0
M  END
$$$$
