5mn1_ligand
  -I-interpret- 

 13 13  0  0  0  0  0  0  0  0999 V2000
   -2.3850  -14.1490  -17.6780 N   0  0  0  0  0
   -1.6970  -15.2460  -17.3250 C   0  0  0  0  0
   -1.1550  -15.3990  -16.0400 C   0  0  0  0  0
   -1.3360  -14.3750  -15.1300 C   0  0  0  0  0
   -2.0380  -13.2520  -15.4940 C   0  0  0  0  0
   -2.5330  -13.1840  -16.7610 C   0  0  0  0  0
   -1.5130  -16.1650  -18.2690 N   0  0  0  0  0
   -0.6064  -16.3005  -15.7671 H   0  0  0  0  0
   -0.9224  -14.4583  -14.1250 H   0  0  0  0  0
   -2.1948  -12.4368  -14.7876 H   0  0  0  0  0
   -3.0842  -12.2881  -17.0467 H   0  0  0  0  0
   -1.8878  -16.0159  -19.2059 H   0  0  0  0  0
   -0.9971  -17.0187  -18.0560 H   0  0  0  0  0
  1  2  4  0  0  0
  1  6  4  0  0  0
  2  3  4  0  0  0
  2  7  1  0  0  0
  3  4  4  0  0  0
  4  5  4  0  0  0
  5  6  4  0  0  0
  3  8  1  0  0  0
  4  9  1  0  0  0
  5 10  1  0  0  0
  6 11  1  0  0  0
  7 12  1  0  0  0
  7 13  1  0  0  0
M  END
$$$$
