4avs_ligand
  -I-interpret- 

 22 22  0  0  0  0  0  0  0  0999 V2000
   16.5450   15.5850   58.4540 O   0  0  0  0  0
   16.3940   15.9630   57.2300 C   0  0  0  0  0
   15.4300   16.7020   56.9370 O   0  0  0  0  0
   17.3170   15.5830   56.1390 C   0  0  0  0  0
   18.6450   15.4350   56.6320 N   0  0  0  0  0
   19.3880   16.4750   57.3780 C   0  0  0  0  0
   20.5370   16.2370   57.7540 O   0  0  0  0  0
   18.7410   17.7790   57.6550 C   0  0  0  0  0
   19.1590   14.1440   56.3020 C   0  0  0  0  0
   18.2190   13.5700   55.2980 C   0  0  0  0  0
   16.9150   14.2700   55.5660 C   0  0  0  0  0
   17.3228   15.0263   58.5216 H   0  0  0  0  0
   17.2760   16.3695   55.3854 H   0  0  0  0  0
   18.6899   17.9362   58.7324 H   0  0  0  0  0
   19.3251   18.5774   57.1973 H   0  0  0  0  0
   17.7338   17.7792   57.2383 H   0  0  0  0  0
   19.2276   13.5094   57.1856 H   0  0  0  0  0
   20.1701   14.2131   55.9009 H   0  0  0  0  0
   18.1302   12.4876   55.3913 H   0  0  0  0  0
   18.5654   13.7253   54.2762 H   0  0  0  0  0
   16.3148   14.3816   54.6630 H   0  0  0  0  0
   16.2757   13.7038   56.2434 H   0  0  0  0  0
  1  2  1  0  0  0
  2  3  2  0  0  0
  2  4  1  0  0  0
  4  5  1  0  0  0
  4 11  1  0  0  0
  5  6  1  0  0  0
  5  9  1  0  0  0
  6  7  2  0  0  0
  6  8  1  0  0  0
  9 10  1  0  0  0
 10 11  1  0  0  0
  1 12  1  0  0  0
  4 13  1  0  0  0
  8 14  1  0  0  0
  8 15  1  0  0  0
  8 16  1  0  0  0
  9 17  1  0  0  0
  9 18  1  0  0  0
 10 19  1  0  0  0
 10 20  1  0  0  0
 11 21  1  0  0  0
 11 22  1  0  0  0
M  END
$$$$
