2x7u_ligand
  -I-interpret- 

 53 56  0  0  0  0  0  0  0  0999 V2000
    2.0780    4.8580  -17.8680 C   0  0  0  0  0
    1.6100    7.6880  -19.3780 O   0  0  0  0  0
   -0.4850    7.1710  -18.4600 O   0  0  0  0  0
    1.2370    3.7880  -18.4550 C   0  0  0  0  0
    1.7790    2.5940  -18.8920 C   0  0  0  0  0
    3.1370    2.3610  -18.7950 C   0  0  0  0  0
    0.9190    7.3540  -18.1810 S   0  0  0  0  0
    1.1080    8.5450  -17.1320 N   0  0  0  0  0
    1.5310    6.0330  -17.3960 O   0  0  0  0  0
    4.0130    3.4010  -18.1940 C   0  0  0  0  0
    3.4510    4.6110  -17.7520 C   0  0  0  0  0
   -0.0980    3.9070  -18.5740 O   0  0  0  0  0
   -0.8100    2.8730  -17.8960 C   0  0  0  0  0
    3.6520    1.0560  -19.2750 C   0  0  0  0  0
    5.8200    1.6400  -18.0950 C   0  0  0  0  0
    5.5060    3.1400  -18.0830 C   0  0  0  0  0
    3.0630    0.6460  -20.6320 C   0  0  0  0  0
    3.4200   -0.8190  -20.9370 C   0  0  0  0  0
    4.9140   -1.0980  -20.7630 C   0  0  0  0  0
    5.2380   -2.5660  -20.5550 C   0  0  0  0  0
    5.6410   -0.4890  -21.9720 C   0  0  0  0  0
    5.3860   -0.5510  -19.4160 C   0  0  0  0  0
    6.7480   -1.1950  -19.1610 C   0  0  0  0  0
    6.6160   -2.5720  -19.8730 C   0  0  0  0  0
    5.1760    0.9620  -19.3030 C   0  0  0  0  0
    5.2270   -3.2950  -21.7860 O   0  0  0  0  0
    1.1289    1.8293  -19.3170 H   0  0  0  0  0
    1.6567    9.3664  -17.3864 H   0  0  0  0  0
    0.6799    8.4837  -16.2082 H   0  0  0  0  0
    4.0960    5.3709  -17.3108 H   0  0  0  0  0
   -0.5240    1.9057  -18.3090 H   0  0  0  0  0
   -0.5667    2.9023  -16.8339 H   0  0  0  0  0
   -1.8813    3.0239  -18.0289 H   0  0  0  0  0
    3.3067    0.3427  -18.5266 H   0  0  0  0  0
    5.4224    1.1899  -17.1854 H   0  0  0  0  0
    6.9004    1.5070  -18.1513 H   0  0  0  0  0
    5.8591    3.5578  -17.1402 H   0  0  0  0  0
    6.0004    3.6018  -18.9376 H   0  0  0  0  0
    3.4761    1.2863  -21.4113 H   0  0  0  0  0
    1.9787    0.7525  -20.6001 H   0  0  0  0  0
    3.1554   -1.0236  -21.9744 H   0  0  0  0  0
    2.8730   -1.4536  -20.2397 H   0  0  0  0  0
    4.4903   -3.0687  -19.9415 H   0  0  0  0  0
    5.2707   -0.9506  -22.8874 H   0  0  0  0  0
    5.4544    0.5844  -22.0036 H   0  0  0  0  0
    6.7118   -0.6704  -21.8796 H   0  0  0  0  0
    4.7848   -0.8324  -18.5514 H   0  0  0  0  0
    6.9826   -1.2862  -18.1005 H   0  0  0  0  0
    7.5775   -0.5985  -19.5408 H   0  0  0  0  0
    7.4153   -2.7192  -20.5993 H   0  0  0  0  0
    6.7011   -3.3938  -19.1621 H   0  0  0  0  0
    5.6631    1.4969  -20.1183 H   0  0  0  0  0
    5.4357   -4.2159  -21.6131 H   0  0  0  0  0
  1  4  4  0  0  0
  9  1  1  0  0  0
  1 11  4  0  0  0
  7  2  2  0  0  0
  7  3  2  0  0  0
  4  5  4  0  0  0
  4 12  1  0  0  0
  5  6  4  0  0  0
  6 10  4  0  0  0
  6 14  1  0  0  0
  7  8  1  0  0  0
  7  9  1  0  0  0
 10 11  4  0  0  0
 10 16  1  0  0  0
 12 13  1  0  0  0
 14 17  1  0  0  0
 14 25  1  0  0  0
 16 15  1  0  0  0
 15 25  1  0  0  0
 17 18  1  0  0  0
 18 19  1  0  0  0
 19 20  1  0  0  0
 19 21  1  0  0  0
 19 22  1  0  0  0
 20 24  1  0  0  0
 20 26  1  0  0  0
 22 23  1  0  0  0
 22 25  1  0  0  0
 23 24  1  0  0  0
  5 27  1  0  0  0
  8 28  1  0  0  0
  8 29  1  0  0  0
 11 30  1  0  0  0
 13 31  1  0  0  0
 13 32  1  0  0  0
 13 33  1  0  0  0
 14 34  1  0  0  0
 15 35  1  0  0  0
 15 36  1  0  0  0
 16 37  1  0  0  0
 16 38  1  0  0  0
 17 39  1  0  0  0
 17 40  1  0  0  0
 18 41  1  0  0  0
 18 42  1  0  0  0
 20 43  1  0  0  0
 21 44  1  0  0  0
 21 45  1  0  0  0
 21 46  1  0  0  0
 22 47  1  0  0  0
 23 48  1  0  0  0
 23 49  1  0  0  0
 24 50  1  0  0  0
 24 51  1  0  0  0
 25 52  1  0  0  0
 26 53  1  0  0  0
M  END
$$$$
