### 
### Created by X-TOOL on Mon Sep 10 21:12:53 2018
### 

@<TRIPOS>MOLECULE
2o9k_ligand
  111   110     1     0     0
SMALL
GAST_HUCK


@<TRIPOS>ATOM
      1 N         -31.1180   28.5300    2.7730 N.4       1 ALA         0.2377
      2 CA        -30.5230   28.2100    4.1040 C.3       1 ALA         0.0621
      3 C         -31.5860   27.9500    5.2100 C.2       1 ALA         0.2264
      4 O         -32.7910   28.0380    4.9680 O.2       1 ALA        -0.3907
      5 CB        -29.5520   29.3130    4.5030 C.3       1 ALA        -0.0040
      6 N         -31.1130   27.5990    6.4110 N.am      1 ARG        -0.2610
      7 CA        -31.9330   27.3640    7.6000 C.3       1 ARG         0.1312
      8 C         -32.7450   28.6110    7.9790 C.2       1 ARG         0.2040
      9 O         -33.7810   28.5250    8.6600 O.2       1 ARG        -0.3944
     10 CB        -31.0260   26.9050    8.7580 C.3       1 ARG        -0.0092
     11 CG        -31.6290   26.9800   10.1760 C.3       1 ARG        -0.0156
     12 CD        -30.5110   26.8830   11.2590 C.3       1 ARG         0.0627
     13 NE        -29.5790   25.7690   11.0420 N.pl3     1 ARG        -0.2723
     14 CZ        -29.7620   24.5130   11.4820 C.cat     1 ARG         0.2882
     15 NH1       -28.8520   23.5730   11.2410 N.pl3     1 ARG        -0.2849
     16 NH2       -30.8400   24.1880   12.1850 N.pl3     1 ARG        -0.2849
     17 N         -32.3060   29.7580    7.4730 N.am      1 THR        -0.2613
     18 CA        -32.9710   31.0400    7.7590 C.3       1 THR         0.1565
     19 C         -34.2510   31.2880    6.9220 C.2       1 THR         0.2065
     20 O         -34.9740   32.2820    7.1360 O.2       1 THR        -0.3943
     21 CB        -31.9840   32.2100    7.5770 C.3       1 THR         0.0924
     22 OG1       -31.4690   32.1860    6.2480 O.3       1 THR        -0.3874
     23 CG2       -30.8200   32.1430    8.6120 C.3       1 THR        -0.0346
     24 N         -34.5260   30.3880    5.9780 N.am      1 MLY        -0.2637
     25 CA        -35.7500   30.4210    5.1780 C.3       1 MLY         0.1310
     26 CB        -35.4780   30.4200    3.6660 C.3       1 MLY        -0.0122
     27 CG        -34.7760   31.6690    3.1730 C.3       1 MLY        -0.0440
     28 CD        -35.5400   32.9430    3.5390 C.3       1 MLY        -0.0123
     29 CE        -35.0110   34.1420    2.7430 C.3       1 MLY        -0.0324
     30 NZ        -35.2870   35.3800    3.4870 N.4       1 MLY         0.2309
     31 CH1       -34.5000   36.4940    2.9040 C.3       1 MLY        -0.0433
     32 CH2       -36.7270   35.6970    3.4070 C.3       1 MLY        -0.0433
     33 C         -36.5460   29.2050    5.4930 C.2       1 MLY         0.2039
     34 O         -35.9880   28.1260    5.6410 O.2       1 MLY        -0.3944
     35 N         -37.8640   29.3320    5.5810 N.am      1 GLN        -0.2636
     36 CA        -38.6510   28.1450    5.9330 C.3       1 GLN         0.1330
     37 C         -38.8970   27.2020    4.7540 C.2       1 GLN         0.2042
     38 O         -39.2190   27.6380    3.6450 O.2       1 GLN        -0.3944
     39 CB        -39.9260   28.4750    6.7020 C.3       1 GLN         0.0045
     40 CG        -40.8270   29.5110    6.1120 C.3       1 GLN         0.0412
     41 CD        -42.2590   29.3350    6.5910 C.2       1 GLN         0.1737
     42 OE1       -42.9840   30.3070    6.7660 O.2       1 GLN        -0.3973
     43 NE2       -42.6730   28.0810    6.7980 N.am      1 GLN        -0.3009
     44 N         -38.6890   25.9090    5.0050 N.am      1 THR        -0.2602
     45 CA        -38.7180   24.8870    3.9540 C.3       1 THR         0.1677
     46 C         -39.4460   23.6290    4.4370 C.2       1 THR         0.2597
     47 O         -39.3870   22.5760    3.7890 O.2       1 THR        -0.3679
     48 CB        -37.2740   24.5020    3.4540 C.3       1 THR         0.0937
     49 OG1       -36.5420   23.8680    4.5110 O.3       1 THR        -0.3873
     50 CG2       -36.4870   25.7370    2.9450 C.3       1 THR        -0.0344
     51 O1        -40.1493   23.6684    5.5651 O.3       1 THR        -0.2909
     52 H1        -30.3803   28.6869    2.1042 H         1 ALA         0.2015
     53 H2        -31.6847   29.3602    2.8491 H         1 ALA         0.2015
     54 H3        -31.6907   27.7591    2.4668 H         1 ALA         0.2015
     55 H4        -29.9453   27.2808    3.9906 H         1 ALA         0.1095
     56 H5        -29.1130   29.0779    5.4838 H         1 ALA         0.0310
     57 H6        -30.0894   30.2710    4.5619 H         1 ALA         0.0310
     58 H7        -28.7521   29.3869    3.7516 H         1 ALA         0.0310
     59 H8        -30.1234   27.4888    6.5034 H         1 ARG         0.1884
     60 H9        -32.6433   26.5545    7.3757 H         1 ARG         0.0800
     61 H10       -30.1235   27.5337    8.7450 H         1 ARG         0.0313
     62 H11       -30.7464   25.8581    8.5688 H         1 ARG         0.0313
     63 H12       -32.3358   26.1481   10.3118 H         1 ARG         0.0301
     64 H13       -32.1610   27.9358   10.2916 H         1 ARG         0.0301
     65 H14       -30.9884   26.7510   12.2412 H         1 ARG         0.0689
     66 H15       -29.9382   27.8221   11.2530 H         1 ARG         0.0689
     67 H16       -28.7184   25.9659   10.5114 H         1 ARG         0.2642
     68 H17       -29.0008   22.6126   11.5823 H         1 ARG         0.2615
     69 H18       -27.9987   23.8056   10.7132 H         1 ARG         0.2615
     70 H19       -31.5584   24.8987   12.3844 H         1 ARG         0.2615
     71 H20       -30.9581   23.2251   12.5311 H         1 ARG         0.2615
     72 H21       -31.5004   29.7505    6.8806 H         1 THR         0.1884
     73 H22       -33.2750   31.0170    8.8159 H         1 THR         0.0826
     74 H23       -32.5280   33.1539    7.7291 H         1 THR         0.0639
     75 H24       -32.1891   32.2274    5.6298 H         1 THR         0.2101
     76 H25       -30.1379   32.9911    8.4521 H         1 THR         0.0257
     77 H26       -30.2687   31.1998    8.4833 H         1 THR         0.0257
     78 H27       -31.2320   32.1909    9.6308 H         1 THR         0.0257
     79 H28       -33.8652   29.6567    5.8090 H         1 MLY         0.1883
     80 H29       -36.3225   31.3233    5.4391 H         1 MLY         0.0800
     81 H30       -36.4401   30.3318    3.1400 H         1 MLY         0.0312
     82 H31       -34.8483   29.5504    3.4269 H         1 MLY         0.0312
     83 H32       -34.6822   31.6142    2.0784 H         1 MLY         0.0269
     84 H33       -33.7742   31.7143    3.6251 H         1 MLY         0.0269
     85 H34       -35.4171   33.1412    4.6140 H         1 MLY         0.0317
     86 H35       -36.6070   32.8017    3.3118 H         1 MLY         0.0317
     87 H36       -35.5111   34.1825    1.7641 H         1 MLY         0.0814
     88 H37       -33.9260   34.0357    2.5964 H         1 MLY         0.0814
     89 H38       -35.0256   35.2551    4.4525 H         1 MLY         0.2028
     90 H39       -34.7069   37.4198    3.4609 H         1 MLY         0.0777
     91 H40       -34.7821   36.6297    1.8495 H         1 MLY         0.0777
     92 H41       -33.4275   36.2587    2.9693 H         1 MLY         0.0777
     93 H42       -37.3091   34.8700    3.8397 H         1 MLY         0.0777
     94 H43       -37.0140   35.8358    2.3542 H         1 MLY         0.0777
     95 H44       -36.9307   36.6213    3.9675 H         1 MLY         0.0777
     96 H45       -38.3082   30.2119    5.4122 H         1 GLN         0.1883
     97 H46       -38.0230   27.5773    6.6353 H         1 GLN         0.0801
     98 H47       -39.6291   28.8245    7.7018 H         1 GLN         0.0337
     99 H48       -40.5066   27.5454    6.7959 H         1 GLN         0.0337
    100 H49       -40.8027   29.4247    5.0157 H         1 GLN         0.0504
    101 H50       -40.4697   30.5080    6.4093 H         1 GLN         0.0504
    102 H51       -43.6061   27.9081    7.1134 H         1 GLN         0.1814
    103 H52       -42.0496   27.3157    6.6374 H         1 GLN         0.1814
    104 H53       -38.5062   25.6254    5.9464 H         1 THR         0.1885
    105 H54       -39.2741   25.3006    3.0998 H         1 THR         0.0843
    106 H55       -37.3770   23.7910    2.6210 H         1 THR         0.0641
    107 H56       -36.4223   24.4831    5.2250 H         1 THR         0.2101
    108 H57       -35.4887   25.4219    2.6073 H         1 THR         0.0257
    109 H58       -36.3844   26.4680    3.7605 H         1 THR         0.0257
    110 H59       -37.0295   26.1972    2.1060 H         1 THR         0.0257
    111 H60       -39.7960   23.0358    6.1795 H         1 THR         0.2540
@<TRIPOS>BOND
     1    2    1 1  
     2    2    5 1  
     3    3    2 1  
     4    3    4 2  
     5    7    6 1  
     6    7   10 1  
     7    8    7 1  
     8    8    9 2  
     9   10   11 1  
    10   11   12 1  
    11   12   13 1  
    12   13   14 ar 
    13   14   16 ar 
    14   14   15 ar 
    15    6    3 am 
    16   18   17 1  
    17   18   21 1  
    18   19   18 1  
    19   19   20 2  
    20   21   23 1  
    21   21   22 1  
    22   17    8 am 
    23   35   36 1  
    24   36   39 1  
    25   36   37 1  
    26   37   38 2  
    27   39   40 1  
    28   40   41 1  
    29   41   43 am 
    30   41   42 2  
    31   44   45 1  
    32   45   48 1  
    33   45   46 1  
    34   46   47 2  
    35   48   50 1  
    36   48   49 1  
    37   37   44 am 
    38   24   25 1  
    39   25   26 1  
    40   25   33 1  
    41   26   27 1  
    42   27   28 1  
    43   28   29 1  
    44   29   30 1  
    45   30   31 1  
    46   30   32 1  
    47   33   34 2  
    48   33   35 am 
    49   24   19 am 
    50   46   51 1  
    51    1   52 1  
    52    1   53 1  
    53    1   54 1  
    54    2   55 1  
    55    5   56 1  
    56    5   57 1  
    57    5   58 1  
    58    6   59 1  
    59    7   60 1  
    60   10   61 1  
    61   10   62 1  
    62   11   63 1  
    63   11   64 1  
    64   12   65 1  
    65   12   66 1  
    66   13   67 1  
    67   15   68 1  
    68   15   69 1  
    69   16   70 1  
    70   16   71 1  
    71   17   72 1  
    72   18   73 1  
    73   21   74 1  
    74   22   75 1  
    75   23   76 1  
    76   23   77 1  
    77   23   78 1  
    78   24   79 1  
    79   25   80 1  
    80   26   81 1  
    81   26   82 1  
    82   27   83 1  
    83   27   84 1  
    84   28   85 1  
    85   28   86 1  
    86   29   87 1  
    87   29   88 1  
    88   30   89 1  
    89   31   90 1  
    90   31   91 1  
    91   31   92 1  
    92   32   93 1  
    93   32   94 1  
    94   32   95 1  
    95   35   96 1  
    96   36   97 1  
    97   39   98 1  
    98   39   99 1  
    99   40  100 1  
   100   40  101 1  
   101   43  102 1  
   102   43  103 1  
   103   44  104 1  
   104   45  105 1  
   105   48  106 1  
   106   49  107 1  
   107   50  108 1  
   108   50  109 1  
   109   50  110 1  
   110   51  111 1  
@<TRIPOS>SUBSTRUCTURE
     1 ALA         1

