2o9k_ligand
  -I-interpret- 

110109  0  0  0  0  0  0  0  0999 V2000
  -31.1180   28.5300    2.7730 N   0  3  0  0  0
  -30.5230   28.2100    4.1040 C   0  0  0  0  0
  -31.5860   27.9500    5.2100 C   0  0  0  0  0
  -32.7910   28.0380    4.9680 O   0  0  0  0  0
  -29.5520   29.3130    4.5030 C   0  0  0  0  0
  -31.1130   27.5990    6.4110 N   0  0  0  0  0
  -31.9330   27.3640    7.6000 C   0  0  0  0  0
  -32.7450   28.6110    7.9790 C   0  0  0  0  0
  -33.7810   28.5250    8.6600 O   0  0  0  0  0
  -31.0260   26.9050    8.7580 C   0  0  0  0  0
  -31.6290   26.9800   10.1760 C   0  0  0  0  0
  -30.5110   26.8830   11.2590 C   0  0  0  0  0
  -29.5790   25.7690   11.0420 N   0  0  0  0  0
  -29.7620   24.5130   11.4820 C   0  0  0  0  0
  -28.8520   23.5730   11.2410 N   0  0  0  0  0
  -30.8400   24.1880   12.1850 N   0  0  0  0  0
  -32.3060   29.7580    7.4730 N   0  0  0  0  0
  -32.9710   31.0400    7.7590 C   0  0  0  0  0
  -34.2510   31.2880    6.9220 C   0  0  0  0  0
  -34.9740   32.2820    7.1360 O   0  0  0  0  0
  -31.9840   32.2100    7.5770 C   0  0  0  0  0
  -31.4690   32.1860    6.2480 O   0  0  0  0  0
  -30.8200   32.1430    8.6120 C   0  0  0  0  0
  -34.5260   30.3880    5.9780 N   0  0  0  0  0
  -35.7500   30.4210    5.1780 C   0  0  0  0  0
  -35.4780   30.4200    3.6660 C   0  0  0  0  0
  -34.7760   31.6690    3.1730 C   0  0  0  0  0
  -35.5400   32.9430    3.5390 C   0  0  0  0  0
  -35.0110   34.1420    2.7430 C   0  0  0  0  0
  -35.2870   35.3800    3.4870 N   0  3  0  0  0
  -34.5000   36.4940    2.9040 C   0  0  0  0  0
  -36.7270   35.6970    3.4070 C   0  0  0  0  0
  -36.5460   29.2050    5.4930 C   0  0  0  0  0
  -35.9880   28.1260    5.6410 O   0  0  0  0  0
  -37.8640   29.3320    5.5810 N   0  0  0  0  0
  -38.6510   28.1450    5.9330 C   0  0  0  0  0
  -38.8970   27.2020    4.7540 C   0  0  0  0  0
  -39.2190   27.6380    3.6450 O   0  0  0  0  0
  -39.9260   28.4750    6.7020 C   0  0  0  0  0
  -40.8270   29.5110    6.1120 C   0  0  0  0  0
  -42.2590   29.3350    6.5910 C   0  0  0  0  0
  -42.9840   30.3070    6.7660 O   0  0  0  0  0
  -42.6730   28.0810    6.7980 N   0  0  0  0  0
  -38.6890   25.9090    5.0050 N   0  0  0  0  0
  -38.7180   24.8870    3.9540 C   0  0  0  0  0
  -39.4460   23.6290    4.4370 C   0  0  0  0  0
  -39.3870   22.5760    3.7890 O   0  0  0  0  0
  -37.2740   24.5020    3.4540 C   0  0  0  0  0
  -36.5420   23.8680    4.5110 O   0  0  0  0  0
  -36.4870   25.7370    2.9450 C   0  0  0  0  0
  -40.1493   23.6684    5.5651 O   0  0  0  0  0
  -30.3707   28.6885    2.0971 H   0  0  0  0  0
  -31.6973   27.7493    2.4643 H   0  0  0  0  0
  -31.6912   29.3701    2.8512 H   0  0  0  0  0
  -29.9815   27.2692    4.0050 H   0  0  0  0  0
  -30.1041   30.2374    4.6728 H   0  0  0  0  0
  -29.0329   29.0252    5.4172 H   0  0  0  0  0
  -28.8264   29.4632    3.7036 H   0  0  0  0  0
  -30.1036   27.4866    6.5052 H   0  0  0  0  0
  -32.6559   26.5775    7.3834 H   0  0  0  0  0
  -30.1708   27.5808    8.7576 H   0  0  0  0  0
  -30.8136   25.8516    8.5757 H   0  0  0  0  0
  -32.3200   26.1475   10.3086 H   0  0  0  0  0
  -32.1454   27.9333   10.2884 H   0  0  0  0  0
  -30.9993   26.7188   12.2196 H   0  0  0  0  0
  -29.9331   27.8062   11.2164 H   0  0  0  0  0
  -28.7268   25.9640   10.5165 H   0  0  0  0  0
  -28.9909   22.6262   11.5942 H   0  0  0  0  0
  -28.0154   23.7990   10.7030 H   0  0  0  0  0
  -31.5428   24.8960   12.3977 H   0  0  0  0  0
  -31.4843   29.7504    6.8687 H   0  0  0  0  0
  -33.2950   30.9811    8.7981 H   0  0  0  0  0
  -32.5178   33.1447    7.7487 H   0  0  0  0  0
  -30.8538   32.9136    6.1312 H   0  0  0  0  0
  -31.2295   32.1905    9.6210 H   0  0  0  0  0
  -30.2746   31.2080    8.4835 H   0  0  0  0  0
  -30.1449   32.9838    8.4525 H   0  0  0  0  0
  -33.8520   29.6421    5.8056 H   0  0  0  0  0
  -36.2751   31.3436    5.4253 H   0  0  0  0  0
  -36.4426   30.3674    3.1612 H   0  0  0  0  0
  -34.8254   29.5734    3.4527 H   0  0  0  0  0
  -34.7086   31.6140    2.0865 H   0  0  0  0  0
  -33.7941   31.7149    3.6441 H   0  0  0  0  0
  -35.4059   33.1402    4.6026 H   0  0  0  0  0
  -36.5944   32.8011    3.3020 H   0  0  0  0  0
  -35.5053   34.1820    1.7723 H   0  0  0  0  0
  -33.9361   34.0367    2.5963 H   0  0  0  0  0
  -35.0236   35.2531    4.4642 H   0  0  0  0  0
  -33.4375   36.2596    2.9693 H   0  0  0  0  0
  -34.7804   36.6274    1.8592 H   0  0  0  0  0
  -34.7058   37.4107    3.4566 H   0  0  0  0  0
  -37.0108   35.8307    2.3631 H   0  0  0  0  0
  -37.3025   34.8785    3.8394 H   0  0  0  0  0
  -36.9269   36.6150    3.9596 H   0  0  0  0  0
  -38.3171   30.2295    5.4088 H   0  0  0  0  0
  -38.0216   27.5859    6.6254 H   0  0  0  0  0
  -39.5989   28.8771    7.6609 H   0  0  0  0  0
  -40.5072   27.5531    6.7231 H   0  0  0  0  0
  -40.8091   29.4092    5.0269 H   0  0  0  0  0
  -40.4754   30.4946    6.4233 H   0  0  0  0  0
  -43.6265   27.9044    7.1143 H   0  0  0  0  0
  -42.0354   27.3007    6.6397 H   0  0  0  0  0
  -38.5025   25.6197    5.9652 H   0  0  0  0  0
  -39.2598   25.3205    3.1134 H   0  0  0  0  0
  -37.3913   23.8128    2.6178 H   0  0  0  0  0
  -35.6645   23.6373    4.1974 H   0  0  0  0  0
  -37.0256   26.1921    2.1138 H   0  0  0  0  0
  -36.3861   26.4606    3.7539 H   0  0  0  0  0
  -35.4980   25.4235    2.6107 H   0  0  0  0  0
  -40.0952   24.5488    5.9440 H   0  0  0  0  0
  2  1  1  0  0  0
  2  5  1  0  0  0
  3  2  1  0  0  0
  3  4  2  0  0  0
  7  6  1  0  0  0
  7 10  1  0  0  0
  8  7  1  0  0  0
  8  9  2  0  0  0
 10 11  1  0  0  0
 11 12  1  0  0  0
 12 13  1  0  0  0
 13 14  1  0  0  0
 14 16  2  0  0  0
 14 15  1  0  0  0
  6  3  1  0  0  0
 18 17  1  0  0  0
 18 21  1  0  0  0
 19 18  1  0  0  0
 19 20  2  0  0  0
 21 23  1  0  0  0
 21 22  1  0  0  0
 17  8  1  0  0  0
 35 36  1  0  0  0
 36 39  1  0  0  0
 36 37  1  0  0  0
 37 38  2  0  0  0
 39 40  1  0  0  0
 40 41  1  0  0  0
 41 43  1  0  0  0
 41 42  2  0  0  0
 44 45  1  0  0  0
 45 48  1  0  0  0
 45 46  1  0  0  0
 46 47  2  0  0  0
 48 50  1  0  0  0
 48 49  1  0  0  0
 37 44  1  0  0  0
 24 25  1  0  0  0
 25 26  1  0  0  0
 25 33  1  0  0  0
 26 27  1  0  0  0
 27 28  1  0  0  0
 28 29  1  0  0  0
 29 30  1  0  0  0
 30 31  1  0  0  0
 30 32  1  0  0  0
 33 34  2  0  0  0
 33 35  1  0  0  0
 24 19  1  0  0  0
 46 51  1  0  0  0
  1 52  1  0  0  0
  1 53  1  0  0  0
  1 54  1  0  0  0
  2 55  1  0  0  0
  5 56  1  0  0  0
  5 57  1  0  0  0
  5 58  1  0  0  0
  6 59  1  0  0  0
  7 60  1  0  0  0
 10 61  1  0  0  0
 10 62  1  0  0  0
 11 63  1  0  0  0
 11 64  1  0  0  0
 12 65  1  0  0  0
 12 66  1  0  0  0
 13 67  1  0  0  0
 15 68  1  0  0  0
 15 69  1  0  0  0
 16 70  1  0  0  0
 17 71  1  0  0  0
 18 72  1  0  0  0
 21 73  1  0  0  0
 22 74  1  0  0  0
 23 75  1  0  0  0
 23 76  1  0  0  0
 23 77  1  0  0  0
 24 78  1  0  0  0
 25 79  1  0  0  0
 26 80  1  0  0  0
 26 81  1  0  0  0
 27 82  1  0  0  0
 27 83  1  0  0  0
 28 84  1  0  0  0
 28 85  1  0  0  0
 29 86  1  0  0  0
 29 87  1  0  0  0
 30 88  1  0  0  0
 31 89  1  0  0  0
 31 90  1  0  0  0
 31 91  1  0  0  0
 32 92  1  0  0  0
 32 93  1  0  0  0
 32 94  1  0  0  0
 35 95  1  0  0  0
 36 96  1  0  0  0
 39 97  1  0  0  0
 39 98  1  0  0  0
 40 99  1  0  0  0
 40100  1  0  0  0
 43101  1  0  0  0
 43102  1  0  0  0
 44103  1  0  0  0
 45104  1  0  0  0
 48105  1  0  0  0
 49106  1  0  0  0
 50107  1  0  0  0
 50108  1  0  0  0
 50109  1  0  0  0
 51110  1  0  0  0
M  END
$$$$
