3uxg_ligand
  -I-interpret- 

247251  0  0  0  0  0  0  0  0999 V2000
    4.1880   40.5910   24.0660 N   0  3  0  0  0
    4.0240   41.1060   22.6860 C   0  0  0  0  0
    3.9280   39.9790   21.6530 C   0  0  0  0  0
    4.9560   39.3950   21.3100 O   0  0  0  0  0
    5.3140   41.9250   22.4650 C   0  0  0  0  0
    6.3620   41.3090   23.4460 C   0  0  0  0  0
    5.6080   40.4210   24.4460 C   0  0  0  0  0
    2.7120   39.6590   21.1980 N   0  0  0  0  0
    2.5010   38.6040   20.1860 C   0  0  0  0  0
    1.9180   39.2000   18.8990 C   0  0  0  0  0
    0.8110   39.7330   18.8660 O   0  0  0  0  0
    1.5810   37.4790   20.6830 C   0  0  0  0  0
    2.1420   36.4990   21.7190 C   0  0  0  0  0
    1.0200   35.6410   22.3310 C   0  0  0  0  0
    3.2400   35.6280   21.1070 C   0  0  0  0  0
    2.6760   39.1040   17.8310 N   0  0  0  0  0
    2.2380   39.6230   16.5480 C   0  0  0  0  0
    1.2320   38.6540   15.9090 C   0  0  0  0  0
    1.3730   37.4240   16.0250 O   0  0  0  0  0
    3.4520   39.8360   15.6200 C   0  0  0  0  0
    4.2630   41.0860   15.9050 C   0  0  0  0  0
    4.3050   41.6670   17.1870 C   0  0  0  0  0
    5.0030   41.6840   14.8880 C   0  0  0  0  0
    5.0420   42.8150   17.4190 C   0  0  0  0  0
    5.7470   42.8350   15.1150 C   0  0  0  0  0
    5.7460   43.3920   16.3770 C   0  0  0  0  0
    6.4780   44.4960   16.5850 O   0  0  0  0  0
    0.2320   39.2240   15.2310 N   0  0  0  0  0
   -0.8190   38.4670   14.5400 C   0  0  0  0  0
   -0.2720   37.6480   13.3790 C   0  0  0  0  0
    0.7780   37.9780   12.8250 O   0  0  0  0  0
   -1.9130   39.4310   13.9910 C   0  0  0  0  0
   -1.2860   40.4500   13.1650 O   0  0  0  0  0
   -2.6560   40.0530   15.1450 C   0  0  0  0  0
   -0.9540   36.5550   13.0200 N   0  0  0  0  0
   -0.4430   35.6820   11.9550 C   0  0  0  0  0
   -0.3070   36.3350   10.5890 C   0  0  0  0  0
   -1.0640   37.2640   10.2130 O   0  0  0  0  0
   -1.2910   34.4040   11.7930 C   0  0  0  0  0
   -1.2490   33.6110   12.9650 O   0  0  0  0  0
    0.6530   35.8510    9.8060 N   0  0  0  0  0
    0.6640   36.2100    8.3770 C   0  0  0  0  0
   -0.7290   35.9770    7.7700 C   0  0  0  0  0
   -1.3720   34.9540    8.0410 O   0  0  0  0  0
    1.6770   35.2460    7.7810 C   0  0  0  0  0
    2.5450   34.8430    8.9190 C   0  0  0  0  0
    1.7020   34.8910   10.1550 C   0  0  0  0  0
   -1.2140   36.9590    7.0320 N   0  0  0  0  0
   -2.5460   36.9120    6.4720 C   0  0  0  0  0
   -2.5110   37.4000    5.0270 C   0  0  0  0  0
   -1.7110   38.2590    4.6780 O   0  0  0  0  0
   -3.4740   37.8030    7.2900 C   0  0  0  0  0
   -3.0230   39.1350    7.2220 O   0  0  0  0  0
   -3.3550   36.8010    4.1900 N   0  0  0  0  0
   -3.5330   37.2200    2.7770 C   0  0  0  0  0
   -4.9450   37.7610    2.6470 C   0  0  0  0  0
   -5.9130   37.1330    3.1390 O   0  0  0  0  0
   -3.2640   36.0520    1.7950 C   0  0  0  0  0
   -1.8040   35.5550    1.7490 C   0  0  0  0  0
   -1.6510   34.2890    0.8920 C   0  0  0  0  0
   -0.7960   36.6200    1.2610 C   0  0  0  0  0
   -5.0950   38.9440    2.0220 N   0  0  0  0  0
   -6.3950   39.5820    1.9970 C   0  0  0  0  0
   -7.3350   38.9890    0.9620 C   0  0  0  0  0
   -6.8890   38.2890    0.0550 O   0  0  0  0  0
   -6.0440   41.0100    1.6050 C   0  0  0  0  0
   -4.8270   40.8340    0.7510 C   0  0  0  0  0
   -4.0550   39.8510    1.5010 C   0  0  0  0  0
   -8.6300   39.2890    1.1030 N   0  0  0  0  0
   -9.6240   38.8900    0.1040 C   0  0  0  0  0
   -9.5430   39.9090   -1.0350 C   0  0  0  0  0
   -9.9960   41.0410   -0.8990 O   0  0  0  0  0
  -11.0340   38.8880    0.6890 C   0  0  0  0  0
  -12.1170   38.5780   -0.3790 C   0  0  0  0  0
  -11.8230   38.4510   -1.5770 O   0  0  0  0  0
  -13.3480   38.4580    0.0550 N   0  0  0  0  0
   -8.9720   39.5110   -2.1550 N   0  0  0  0  0
   -8.5700   40.4980   -3.1690 C   0  0  0  0  0
   -9.7490   41.0360   -4.0090 C   0  0  0  0  0
   -9.6310   42.0860   -4.6580 O   0  0  0  0  0
   -7.4960   39.9460   -4.0960 C   0  0  0  0  0
   -8.0250   38.7550   -4.8900 C   0  0  0  0  0
   -6.1910   39.5840   -3.3070 C   0  0  0  0  0
   -6.9440   38.1590   -5.8440 C   0  0  0  0  0
  -10.8860   40.3530   -3.9710 N   0  0  0  0  0
  -12.0710   40.8250   -4.7030 C   0  0  0  0  0
  -13.1690   41.3470   -3.7770 C   0  0  0  0  0
  -14.3070   41.5540   -4.2070 O   0  0  0  0  0
  -12.6100   39.7140   -5.6160 C   0  0  0  0  0
  -12.8750   38.5410   -4.8230 O   0  0  0  0  0
  -11.5580   39.4100   -6.7160 C   0  0  0  0  0
  -12.8150   41.6130   -2.5190 N   0  0  0  0  0
  -13.7660   42.1970   -1.5670 C   0  0  0  0  0
  -14.3560   43.4830   -2.1390 C   0  0  0  0  0
  -13.6170   44.3720   -2.5760 O   0  0  0  0  0
  -13.0830   42.5010   -0.2480 C   0  0  0  0  0
  -13.9860   43.0740    0.8460 C   0  0  0  0  0
  -15.0520   42.0420    1.2270 C   0  0  0  0  0
  -13.1360   43.5070    2.0470 C   0  0  0  0  0
  -15.6840   43.5620   -2.1420 N   0  0  0  0  0
  -16.4000   44.7150   -2.6810 C   0  0  0  0  0
  -16.4920   44.7750   -4.1990 C   0  0  0  0  0
  -17.1110   45.6820   -4.7320 O   0  0  0  0  0
  -15.8880   43.8210   -4.9060 N   0  0  0  0  0
  -15.9290   43.8460   -6.3680 C   0  0  0  0  0
  -16.9990   42.9110   -6.9310 C   0  0  0  0  0
  -17.3590   41.9290   -6.2790 O   0  0  0  0  0
  -14.5570   43.4920   -6.9620 C   0  0  0  0  0
  -13.4460   44.5290   -6.7860 C   0  0  0  0  0
  -12.2030   44.0440   -7.5230 C   0  0  0  0  0
  -13.8810   45.9450   -7.2710 C   0  0  0  0  0
  -17.5110   43.2220   -8.1460 N   0  0  0  0  0
  -18.3670   42.2860   -8.8930 C   0  0  0  0  0
  -17.7930   40.8580   -8.9960 C   0  0  0  0  0
  -18.5690   39.9050   -9.0090 O   0  0  0  0  0
  -18.4850   42.9410  -10.2760 C   0  0  0  0  0
  -18.3600   44.4220   -9.9910 C   0  0  0  0  0
  -17.4780   44.5640   -8.7740 C   0  0  0  0  0
  -16.5710   40.5920   -9.0270 O   0  0  0  0  0
    3.7387   39.6766   24.1149 H   0  0  0  0  0
    3.7713   41.2682   24.7050 H   0  0  0  0  0
    3.1054   41.6807   22.5679 H   0  0  0  0  0
    5.1556   42.9858   22.6594 H   0  0  0  0  0
    5.6519   41.8723   21.4300 H   0  0  0  0  0
    6.8968   42.0998   23.9721 H   0  0  0  0  0
    7.0938   40.7188   22.8944 H   0  0  0  0  0
    5.9284   39.3801   24.4012 H   0  0  0  0  0
    5.7983   40.7062   25.4807 H   0  0  0  0  0
    1.9022   40.1608   21.5624 H   0  0  0  0  0
    3.4809   38.1699   19.9875 H   0  0  0  0  0
    1.3596   36.8753   19.8029 H   0  0  0  0  0
    0.7505   37.9814   21.1790 H   0  0  0  0  0
    2.5903   37.0786   22.5260 H   0  0  0  0  0
    0.2938   36.2901   22.8203 H   0  0  0  0  0
    0.5276   35.0726   21.5420 H   0  0  0  0  0
    1.4469   34.9549   23.0625 H   0  0  0  0  0
    2.8285   35.0598   20.2728 H   0  0  0  0  0
    4.0502   36.2641   20.7505 H   0  0  0  0  0
    3.6211   34.9415   21.8630 H   0  0  0  0  0
    3.5896   38.6564   17.9043 H   0  0  0  0  0
    1.7476   40.5846   16.6992 H   0  0  0  0  0
    3.0610   39.9378   14.6076 H   0  0  0  0  0
    4.1180   38.9866   15.7720 H   0  0  0  0  0
    3.7510   41.2075   18.0055 H   0  0  0  0  0
    4.9983   41.2395   13.8928 H   0  0  0  0  0
    5.0677   43.2606   18.4134 H   0  0  0  0  0
    6.3222   43.2906   14.3090 H   0  0  0  0  0
    6.8969   44.7604   15.7627 H   0  0  0  0  0
    0.1967   40.2426   15.1912 H   0  0  0  0  0
   -1.2453   37.7855   15.2762 H   0  0  0  0  0
   -2.6263   38.8797   13.3783 H   0  0  0  0  0
   -1.9593   41.0446   12.8262 H   0  0  0  0  0
   -3.1255   39.2684   15.7383 H   0  0  0  0  0
   -1.9565   40.6114   15.7671 H   0  0  0  0  0
   -3.4215   40.7275   14.7614 H   0  0  0  0  0
   -1.8316   36.3270   13.4872 H   0  0  0  0  0
    0.5616   35.4393   12.3013 H   0  0  0  0  0
   -0.8887   33.8218   10.9639 H   0  0  0  0  0
   -2.3249   34.6935   11.6052 H   0  0  0  0  0
   -1.7838   32.8241   12.8369 H   0  0  0  0  0
    0.9148   37.2544    8.1914 H   0  0  0  0  0
    2.2524   35.7105    6.9802 H   0  0  0  0  0
    1.1917   34.3857    7.3202 H   0  0  0  0  0
    3.3980   35.5156    9.0090 H   0  0  0  0  0
    2.9422   33.8400    8.7632 H   0  0  0  0  0
    1.3040   33.9146   10.4312 H   0  0  0  0  0
    2.2671   35.1877   11.0386 H   0  0  0  0  0
   -0.6306   37.7760    6.8515 H   0  0  0  0  0
   -2.9135   35.8861    6.4975 H   0  0  0  0  0
   -3.4750   37.4715    8.3284 H   0  0  0  0  0
   -4.4857   37.7403    6.8891 H   0  0  0  0  0
   -3.6073   39.6962    7.7371 H   0  0  0  0  0
   -3.9063   36.0158    4.5363 H   0  0  0  0  0
   -2.8098   37.9917    2.5131 H   0  0  0  0  0
   -3.5003   36.4215    0.7971 H   0  0  0  0  0
   -3.8699   35.2119    2.1346 H   0  0  0  0  0
   -1.5648   35.3246    2.7872 H   0  0  0  0  0
   -2.2682   33.4930    1.3086 H   0  0  0  0  0
   -1.9701   34.5017   -0.1283 H   0  0  0  0  0
   -0.6065   33.9773    0.8899 H   0  0  0  0  0
   -1.0624   36.9353    0.2522 H   0  0  0  0  0
   -0.8244   37.4793    1.9310 H   0  0  0  0  0
    0.2073   36.1939    1.2568 H   0  0  0  0  0
   -6.9194   39.4715    2.9462 H   0  0  0  0  0
   -5.8665   41.6536    2.4666 H   0  0  0  0  0
   -6.8562   41.5174    1.0844 H   0  0  0  0  0
   -4.2850   41.7646    0.5828 H   0  0  0  0  0
   -5.0602   40.5103   -0.2634 H   0  0  0  0  0
   -3.3137   39.3378    0.8884 H   0  0  0  0  0
   -3.4505   40.2994    2.2894 H   0  0  0  0  0
   -8.9334   39.8086    1.9266 H   0  0  0  0  0
   -9.4165   37.8777   -0.2429 H   0  0  0  0  0
  -11.2330   39.8806    1.0930 H   0  0  0  0  0
  -11.0813   38.1116    1.4526 H   0  0  0  0  0
  -14.1022   38.2534   -0.6005 H   0  0  0  0  0
  -13.5517   38.5692    1.0482 H   0  0  0  0  0
   -8.8089   38.5175   -2.3185 H   0  0  0  0  0
   -8.1649   41.3361   -2.6020 H   0  0  0  0  0
   -7.2317   40.7272   -4.8088 H   0  0  0  0  0
   -8.8633   39.0965   -5.4972 H   0  0  0  0  0
   -8.3198   37.9792   -4.1834 H   0  0  0  0  0
   -5.8024   40.4785   -2.8201 H   0  0  0  0  0
   -6.4204   38.8297   -2.5544 H   0  0  0  0  0
   -5.4458   39.1930   -3.9997 H   0  0  0  0  0
   -6.6238   38.9241   -6.5513 H   0  0  0  0  0
   -6.0886   37.8238   -5.2574 H   0  0  0  0  0
   -7.3670   37.3141   -6.3875 H   0  0  0  0  0
  -10.9387   39.4911   -3.4281 H   0  0  0  0  0
  -11.7541   41.6696   -5.3148 H   0  0  0  0  0
  -13.5372   40.0287   -6.0949 H   0  0  0  0  0
  -13.2124   37.8429   -5.3891 H   0  0  0  0  0
  -11.3751   40.3113   -7.3011 H   0  0  0  0  0
  -10.6289   39.0841   -6.2483 H   0  0  0  0  0
  -11.9338   38.6218   -7.3684 H   0  0  0  0  0
  -11.8643   41.4063   -2.2128 H   0  0  0  0  0
  -14.5637   41.4745   -1.3947 H   0  0  0  0  0
  -12.3293   43.2602   -0.4570 H   0  0  0  0  0
  -12.7023   41.5521    0.1298 H   0  0  0  0  0
  -14.5048   43.9599    0.4797 H   0  0  0  0  0
  -15.6530   41.8017    0.3500 H   0  0  0  0  0
  -14.5660   41.1383    1.5947 H   0  0  0  0  0
  -15.6928   42.4543    2.0064 H   0  0  0  0  0
  -12.5969   42.6445    2.4388 H   0  0  0  0  0
  -12.4239   44.2692    1.7306 H   0  0  0  0  0
  -13.7853   43.9140    2.8222 H   0  0  0  0  0
  -16.2225   42.7879   -1.7531 H   0  0  0  0  0
  -15.8460   45.5998   -2.3675 H   0  0  0  0  0
  -17.4226   44.6478   -2.3096 H   0  0  0  0  0
  -15.3943   43.0690   -4.4252 H   0  0  0  0  0
  -16.1907   44.8637   -6.6576 H   0  0  0  0  0
  -14.7104   43.3948   -8.0368 H   0  0  0  0  0
  -14.2218   42.5993   -6.4340 H   0  0  0  0  0
  -13.2244   44.6312   -5.7237 H   0  0  0  0  0
  -11.8862   43.0872   -7.1079 H   0  0  0  0  0
  -12.4336   43.9238   -8.5815 H   0  0  0  0  0
  -11.4035   44.7754   -7.4048 H   0  0  0  0  0
  -14.1403   45.9016   -8.3288 H   0  0  0  0  0
  -14.7468   46.2743   -6.6966 H   0  0  0  0  0
  -13.0590   46.6459   -7.1256 H   0  0  0  0  0
  -19.3230   42.1368   -8.3910 H   0  0  0  0  0
  -19.4235   42.6933  -10.7719 H   0  0  0  0  0
  -17.7203   42.5872  -10.9675 H   0  0  0  0  0
  -19.3398   44.8643   -9.8111 H   0  0  0  0  0
  -17.9269   44.9439  -10.8443 H   0  0  0  0  0
  -16.4653   44.8735   -9.0325 H   0  0  0  0  0
  -17.8296   45.3440   -8.0987 H   0  0  0  0  0
  -16.0664   41.4086   -9.0128 H   0  0  0  0  0
  1  2  1  0  0  0
  1  7  1  0  0  0
  2  3  1  0  0  0
  2  5  1  0  0  0
  3  4  2  0  0  0
  3  8  1  0  0  0
  5  6  1  0  0  0
  6  7  1  0  0  0
  8  9  1  0  0  0
  9 10  1  0  0  0
  9 12  1  0  0  0
 10 11  2  0  0  0
 10 16  1  0  0  0
 12 13  1  0  0  0
 13 14  1  0  0  0
 13 15  1  0  0  0
 16 17  1  0  0  0
 17 18  1  0  0  0
 17 20  1  0  0  0
 18 19  2  0  0  0
 18 28  1  0  0  0
 20 21  1  0  0  0
 21 22  4  0  0  0
 21 23  4  0  0  0
 22 24  4  0  0  0
 23 25  4  0  0  0
 24 26  4  0  0  0
 25 26  4  0  0  0
 26 27  1  0  0  0
 28 29  1  0  0  0
 29 30  1  0  0  0
 29 32  1  0  0  0
 30 31  2  0  0  0
 30 35  1  0  0  0
 32 33  1  0  0  0
 32 34  1  0  0  0
 35 36  1  0  0  0
 36 37  1  0  0  0
 36 39  1  0  0  0
 37 38  2  0  0  0
 37 41  1  0  0  0
 39 40  1  0  0  0
 41 42  1  0  0  0
 41 47  1  0  0  0
 42 43  1  0  0  0
 42 45  1  0  0  0
 43 44  2  0  0  0
 43 48  1  0  0  0
 45 46  1  0  0  0
 46 47  1  0  0  0
 48 49  1  0  0  0
 49 50  1  0  0  0
 49 52  1  0  0  0
 50 51  2  0  0  0
 50 54  1  0  0  0
 52 53  1  0  0  0
 54 55  1  0  0  0
 55 56  1  0  0  0
 55 58  1  0  0  0
 56 57  2  0  0  0
 56 62  1  0  0  0
 58 59  1  0  0  0
 59 60  1  0  0  0
 59 61  1  0  0  0
 62 63  1  0  0  0
 62 68  1  0  0  0
 63 64  1  0  0  0
 63 66  1  0  0  0
 64 65  2  0  0  0
 64 69  1  0  0  0
 66 67  1  0  0  0
 67 68  1  0  0  0
 69 70  1  0  0  0
 70 71  1  0  0  0
 70 73  1  0  0  0
 71 72  2  0  0  0
 71 77  1  0  0  0
 73 74  1  0  0  0
 74 75  2  0  0  0
 74 76  1  0  0  0
 77 78  1  0  0  0
 78 79  1  0  0  0
 78 81  1  0  0  0
 79 80  2  0  0  0
 79 85  1  0  0  0
 81 82  1  0  0  0
 81 83  1  0  0  0
 82 84  1  0  0  0
 85 86  1  0  0  0
 86 87  1  0  0  0
 86 89  1  0  0  0
 87 88  2  0  0  0
 87 92  1  0  0  0
 89 90  1  0  0  0
 89 91  1  0  0  0
 92 93  1  0  0  0
 93 94  1  0  0  0
 93 96  1  0  0  0
 94 95  2  0  0  0
 94100  1  0  0  0
 96 97  1  0  0  0
 97 98  1  0  0  0
 97 99  1  0  0  0
100101  1  0  0  0
101102  1  0  0  0
102103  2  0  0  0
102104  1  0  0  0
104105  1  0  0  0
105106  1  0  0  0
105108  1  0  0  0
106107  2  0  0  0
106112  1  0  0  0
108109  1  0  0  0
109110  1  0  0  0
109111  1  0  0  0
112113  1  0  0  0
112118  1  0  0  0
113114  1  0  0  0
113116  1  0  0  0
114115  2  0  0  0
114119  1  0  0  0
116117  1  0  0  0
117118  1  0  0  0
  1120  1  0  0  0
  1121  1  0  0  0
  2122  1  0  0  0
  5123  1  0  0  0
  5124  1  0  0  0
  6125  1  0  0  0
  6126  1  0  0  0
  7127  1  0  0  0
  7128  1  0  0  0
  8129  1  0  0  0
  9130  1  0  0  0
 12131  1  0  0  0
 12132  1  0  0  0
 13133  1  0  0  0
 14134  1  0  0  0
 14135  1  0  0  0
 14136  1  0  0  0
 15137  1  0  0  0
 15138  1  0  0  0
 15139  1  0  0  0
 16140  1  0  0  0
 17141  1  0  0  0
 20142  1  0  0  0
 20143  1  0  0  0
 22144  1  0  0  0
 23145  1  0  0  0
 24146  1  0  0  0
 25147  1  0  0  0
 27148  1  0  0  0
 28149  1  0  0  0
 29150  1  0  0  0
 32151  1  0  0  0
 33152  1  0  0  0
 34153  1  0  0  0
 34154  1  0  0  0
 34155  1  0  0  0
 35156  1  0  0  0
 36157  1  0  0  0
 39158  1  0  0  0
 39159  1  0  0  0
 40160  1  0  0  0
 42161  1  0  0  0
 45162  1  0  0  0
 45163  1  0  0  0
 46164  1  0  0  0
 46165  1  0  0  0
 47166  1  0  0  0
 47167  1  0  0  0
 48168  1  0  0  0
 49169  1  0  0  0
 52170  1  0  0  0
 52171  1  0  0  0
 53172  1  0  0  0
 54173  1  0  0  0
 55174  1  0  0  0
 58175  1  0  0  0
 58176  1  0  0  0
 59177  1  0  0  0
 60178  1  0  0  0
 60179  1  0  0  0
 60180  1  0  0  0
 61181  1  0  0  0
 61182  1  0  0  0
 61183  1  0  0  0
 63184  1  0  0  0
 66185  1  0  0  0
 66186  1  0  0  0
 67187  1  0  0  0
 67188  1  0  0  0
 68189  1  0  0  0
 68190  1  0  0  0
 69191  1  0  0  0
 70192  1  0  0  0
 73193  1  0  0  0
 73194  1  0  0  0
 76195  1  0  0  0
 76196  1  0  0  0
 77197  1  0  0  0
 78198  1  0  0  0
 81199  1  0  0  0
 82200  1  0  0  0
 82201  1  0  0  0
 83202  1  0  0  0
 83203  1  0  0  0
 83204  1  0  0  0
 84205  1  0  0  0
 84206  1  0  0  0
 84207  1  0  0  0
 85208  1  0  0  0
 86209  1  0  0  0
 89210  1  0  0  0
 90211  1  0  0  0
 91212  1  0  0  0
 91213  1  0  0  0
 91214  1  0  0  0
 92215  1  0  0  0
 93216  1  0  0  0
 96217  1  0  0  0
 96218  1  0  0  0
 97219  1  0  0  0
 98220  1  0  0  0
 98221  1  0  0  0
 98222  1  0  0  0
 99223  1  0  0  0
 99224  1  0  0  0
 99225  1  0  0  0
100226  1  0  0  0
101227  1  0  0  0
101228  1  0  0  0
104229  1  0  0  0
105230  1  0  0  0
108231  1  0  0  0
108232  1  0  0  0
109233  1  0  0  0
110234  1  0  0  0
110235  1  0  0  0
110236  1  0  0  0
111237  1  0  0  0
111238  1  0  0  0
111239  1  0  0  0
113240  1  0  0  0
116241  1  0  0  0
116242  1  0  0  0
117243  1  0  0  0
117244  1  0  0  0
118245  1  0  0  0
118246  1  0  0  0
119247  1  0  0  0
M  END
$$$$
