### 
### Created by X-TOOL on Mon Sep 10 21:13:10 2018
### 

@<TRIPOS>MOLECULE
3uxg_ligand
  246   250     1     0     0
SMALL
GAST_HUCK


@<TRIPOS>ATOM
      1 N           4.1880   40.5910   24.0660 N.4       1 PRO         0.2461
      2 CA          4.0240   41.1060   22.6860 C.3       1 PRO         0.0670
      3 C           3.9280   39.9790   21.6530 C.2       1 PRO         0.2268
      4 O           4.9560   39.3950   21.3100 O.2       1 PRO        -0.3907
      5 CB          5.3140   41.9250   22.4650 C.3       1 PRO         0.0127
      6 CG          6.3620   41.3090   23.4460 C.3       1 PRO        -0.0053
      7 CD          5.6080   40.4210   24.4460 C.3       1 PRO        -0.0313
      8 N           2.7120   39.6590   21.1980 N.am      1 LEU        -0.2610
      9 CA          2.5010   38.6040   20.1860 C.3       1 LEU         0.1313
     10 C           1.9180   39.2000   18.8990 C.2       1 LEU         0.2040
     11 O           0.8110   39.7330   18.8660 O.2       1 LEU        -0.3944
     12 CB          1.5810   37.4790   20.6830 C.3       1 LEU        -0.0101
     13 CG          2.1420   36.4990   21.7190 C.3       1 LEU        -0.0425
     14 CD1         1.0200   35.6410   22.3310 C.3       1 LEU        -0.0625
     15 CD2         3.2400   35.6280   21.1070 C.3       1 LEU        -0.0625
     16 N           2.6760   39.1040   17.8310 N.am      1 TYR        -0.2621
     17 CA          2.2380   39.6230   16.5480 C.3       1 TYR         0.1390
     18 C           1.2320   38.6540   15.9090 C.2       1 TYR         0.2058
     19 O           1.3730   37.4240   16.0250 O.2       1 TYR        -0.3942
     20 CB          3.4520   39.8360   15.6200 C.3       1 TYR         0.0163
     21 CG          4.2630   41.0860   15.9050 C.ar      1 TYR        -0.0493
     22 CD1         4.3050   41.6670   17.1870 C.ar      1 TYR        -0.0685
     23 CD2         5.0030   41.6840   14.8880 C.ar      1 TYR        -0.0685
     24 CE1         5.0420   42.8150   17.4190 C.ar      1 TYR        -0.0398
     25 CE2         5.7470   42.8350   15.1150 C.ar      1 TYR        -0.0398
     26 CZ          5.7460   43.3920   16.3770 C.ar      1 TYR         0.0805
     27 OH          6.4780   44.4960   16.5850 O.3       1 TYR        -0.3376
     28 N           0.2320   39.2240   15.2310 N.am      1 THR        -0.2612
     29 CA         -0.8190   38.4670   14.5400 C.3       1 THR         0.1565
     30 C          -0.2720   37.6480   13.3790 C.2       1 THR         0.2065
     31 O           0.7780   37.9780   12.8250 O.2       1 THR        -0.3943
     32 CB         -1.9130   39.4310   13.9910 C.3       1 THR         0.0924
     33 OG1        -1.2860   40.4500   13.1650 O.3       1 THR        -0.3874
     34 CG2        -2.6560   40.0530   15.1450 C.3       1 THR        -0.0346
     35 N          -0.9540   36.5550   13.0200 N.am      1 SER        -0.2615
     36 CA         -0.4430   35.6820   11.9550 C.3       1 SER         0.1541
     37 C          -0.3070   36.3350   10.5890 C.2       1 SER         0.2087
     38 O          -1.0640   37.2640   10.2130 O.2       1 SER        -0.3941
     39 CB         -1.2910   34.4040   11.7930 C.3       1 SER         0.0843
     40 OG         -1.2490   33.6110   12.9650 O.3       1 SER        -0.3903
     41 N           0.6530   35.8510    9.8060 N.am      1 PRO        -0.2498
     42 CA          0.6640   36.2100    8.3770 C.3       1 PRO         0.1338
     43 C          -0.7290   35.9770    7.7700 C.2       1 PRO         0.2042
     44 O          -1.3720   34.9540    8.0410 O.2       1 PRO        -0.3944
     45 CB          1.6770   35.2460    7.7810 C.3       1 PRO        -0.0104
     46 CG          2.5450   34.8430    8.9190 C.3       1 PRO        -0.0281
     47 CD          1.7020   34.8910   10.1550 C.3       1 PRO         0.0369
     48 N          -1.2140   36.9590    7.0320 N.am      1 SER        -0.2616
     49 CA         -2.5460   36.9120    6.4720 C.3       1 SER         0.1539
     50 C          -2.5110   37.4000    5.0270 C.2       1 SER         0.2062
     51 O          -1.7110   38.2590    4.6780 O.2       1 SER        -0.3943
     52 CB         -3.4740   37.8030    7.2900 C.3       1 SER         0.0843
     53 OG         -3.0230   39.1350    7.2220 O.3       1 SER        -0.3903
     54 N          -3.3550   36.8010    4.1900 N.am      1 LEU        -0.2636
     55 CA         -3.5330   37.2200    2.7770 C.3       1 LEU         0.1314
     56 C          -4.9450   37.7610    2.6470 C.2       1 LEU         0.2064
     57 O          -5.9130   37.1330    3.1390 O.2       1 LEU        -0.3942
     58 CB         -3.2640   36.0520    1.7950 C.3       1 LEU        -0.0101
     59 CG         -1.8040   35.5550    1.7490 C.3       1 LEU        -0.0425
     60 CD1        -1.6510   34.2890    0.8920 C.3       1 LEU        -0.0625
     61 CD2        -0.7960   36.6200    1.2610 C.3       1 LEU        -0.0625
     62 N          -5.0950   38.9440    2.0220 N.am      1 PRO        -0.2498
     63 CA         -6.3950   39.5820    1.9970 C.3       1 PRO         0.1338
     64 C          -7.3350   38.9890    0.9620 C.2       1 PRO         0.2042
     65 O          -6.8890   38.2890    0.0550 O.2       1 PRO        -0.3944
     66 CB         -6.0440   41.0100    1.6050 C.3       1 PRO        -0.0104
     67 CG         -4.8270   40.8340    0.7510 C.3       1 PRO        -0.0281
     68 CD         -4.0550   39.8510    1.5010 C.3       1 PRO         0.0369
     69 N          -8.6300   39.2890    1.1030 N.am      1 ASN        -0.2616
     70 CA         -9.6240   38.8900    0.1040 C.3       1 ASN         0.1476
     71 C          -9.5430   39.9090   -1.0350 C.2       1 ASN         0.2063
     72 O          -9.9960   41.0410   -0.8990 O.2       1 ASN        -0.3942
     73 CB        -11.0340   38.8880    0.6890 C.3       1 ASN         0.0773
     74 CG        -12.1170   38.5780   -0.3790 C.2       1 ASN         0.1780
     75 OD1       -11.8230   38.4510   -1.5770 O.2       1 ASN        -0.3970
     76 ND2       -13.3480   38.4580    0.0550 N.am      1 ASN        -0.3007
     77 N          -8.9720   39.5110   -2.1550 N.am      1 ILE        -0.2633
     78 CA         -8.5700   40.4980   -3.1690 C.3       1 ILE         0.1335
     79 C          -9.7490   41.0360   -4.0090 C.2       1 ILE         0.2042
     80 O          -9.6310   42.0860   -4.6580 O.2       1 ILE        -0.3944
     81 CB         -7.4960   39.9460   -4.0960 C.3       1 ILE        -0.0037
     82 CG1        -8.0250   38.7550   -4.8900 C.3       1 ILE        -0.0491
     83 CG2        -6.1910   39.5840   -3.3070 C.3       1 ILE        -0.0582
     84 CD1        -6.9440   38.1590   -5.8440 C.3       1 ILE        -0.0648
     85 N         -10.8860   40.3530   -3.9710 N.am      1 THR        -0.2613
     86 CA        -12.0710   40.8250   -4.7030 C.3       1 THR         0.1565
     87 C         -13.1690   41.3470   -3.7770 C.2       1 THR         0.2065
     88 O         -14.3070   41.5540   -4.2070 O.2       1 THR        -0.3943
     89 CB        -12.6100   39.7140   -5.6160 C.3       1 THR         0.0924
     90 OG1       -12.8750   38.5410   -4.8230 O.3       1 THR        -0.3874
     91 CG2       -11.5580   39.4100   -6.7160 C.3       1 THR        -0.0346
     92 N         -12.8150   41.6130   -2.5190 N.am      1 LEU        -0.2636
     93 CA        -13.7660   42.1970   -1.5670 C.3       1 LEU         0.1312
     94 C         -14.3560   43.4830   -2.1390 C.2       1 LEU         0.2037
     95 O         -13.6170   44.3720   -2.5760 O.2       1 LEU        -0.3944
     96 CB        -13.0830   42.5010   -0.2480 C.3       1 LEU        -0.0101
     97 CG        -13.9860   43.0740    0.8460 C.3       1 LEU        -0.0425
     98 CD1       -15.0520   42.0420    1.2270 C.3       1 LEU        -0.0625
     99 CD2       -13.1360   43.5070    2.0470 C.3       1 LEU        -0.0625
    100 N         -15.6840   43.5620   -2.1420 N.am      1 GLY        -0.2664
    101 CA        -16.4000   44.7150   -2.6810 C.3       1 GLY         0.1201
    102 C         -16.4920   44.7750   -4.1990 C.2       1 GLY         0.2007
    103 O         -17.1110   45.6820   -4.7320 O.2       1 GLY        -0.3947
    104 N         -15.8880   43.8210   -4.9060 N.am      1 LEU        -0.2639
    105 CA        -15.9290   43.8460   -6.3680 C.3       1 LEU         0.1314
    106 C         -16.9990   42.9110   -6.9310 C.2       1 LEU         0.2058
    107 O         -17.3590   41.9290   -6.2790 O.2       1 LEU        -0.3942
    108 CB        -14.5570   43.4920   -6.9620 C.3       1 LEU        -0.0101
    109 CG        -13.4460   44.5290   -6.7860 C.3       1 LEU        -0.0425
    110 CD1       -12.2030   44.0440   -7.5230 C.3       1 LEU        -0.0625
    111 CD2       -13.8810   45.9450   -7.2710 C.3       1 LEU        -0.0625
    112 N         -17.5110   43.2220   -8.1460 N.am      1 PRO        -0.2556
    113 CA        -18.3670   42.2860   -8.8930 C.3       1 PRO         0.0972
    114 C         -17.7930   40.8580   -8.9960 C.2       1 PRO         0.0603
    115 O         -18.5690   39.9050   -9.0090 O.co2     1 PRO        -0.5666
    116 CB        -18.4850   42.9410  -10.2760 C.3       1 PRO        -0.0159
    117 CG        -18.3600   44.4220   -9.9910 C.3       1 PRO        -0.0288
    118 CD        -17.4780   44.5640   -8.7740 C.3       1 PRO         0.0362
    119 OXT       -16.5710   40.5920   -9.0270 O.co2     1 PRO        -0.5666
    120 H1          3.7267   39.6974   24.1339 H         1 PRO         0.2035
    121 H2          3.7583   41.2405   24.7060 H         1 PRO         0.2035
    122 H3          3.1311   41.7442   22.6121 H         1 PRO         0.1099
    123 H4          5.1426   42.9859   22.6998 H         1 PRO         0.0347
    124 H5          5.6575   41.8306   21.4243 H         1 PRO         0.0347
    125 H6          6.8887   42.1119   23.9825 H         1 PRO         0.0320
    126 H7          7.0895   40.7047   22.8843 H         1 PRO         0.0320
    127 H8          5.9171   39.3699   24.3477 H         1 PRO         0.0814
    128 H9          5.7808   40.7590   25.4784 H         1 PRO         0.0814
    129 H10         1.9180   40.1510   21.5552 H         1 LEU         0.1884
    130 H11         3.4813   38.1631   19.9523 H         1 LEU         0.0800
    131 H12         1.2798   36.8898   19.8043 H         1 LEU         0.0315
    132 H13         0.6940   37.9536   21.1278 H         1 LEU         0.0315
    133 H14         2.5941   37.0882   22.5304 H         1 LEU         0.0298
    134 H15         1.4496   34.9481   23.0695 H         1 LEU         0.0232
    135 H16         0.5222   35.0668   21.5357 H         1 LEU         0.0232
    136 H17         0.2864   36.2949   22.8252 H         1 LEU         0.0232
    137 H18         4.0233   36.2716   20.6801 H         1 LEU         0.0232
    138 H19         2.8097   34.9990   20.3138 H         1 LEU         0.0232
    139 H20         3.6769   34.9870   21.8868 H         1 LEU         0.0232
    140 H21         3.5717   38.6652   17.9029 H         1 TYR         0.1885
    141 H22         1.7424   40.5920   16.7075 H         1 TYR         0.0821
    142 H23         3.0844   39.8960   14.5850 H         1 TYR         0.0453
    143 H24         4.1175   38.9662   15.7230 H         1 TYR         0.0453
    144 H25         3.7540   41.2100   18.0010 H         1 TYR         0.0530
    145 H26         4.9983   41.2419   13.8982 H         1 TYR         0.0530
    146 H27         5.0675   43.2581   18.4080 H         1 TYR         0.0525
    147 H28         6.3191   43.2881   14.3134 H         1 TYR         0.0525
    148 H29         7.3909   44.3087   16.4007 H         1 TYR         0.2458
    149 H30         0.1974   40.2226   15.1920 H         1 THR         0.1884
    150 H31        -1.2802   37.7807   15.2655 H         1 THR         0.0826
    151 H32        -2.6237   38.8602   13.3754 H         1 THR         0.0639
    152 H33        -0.6628   40.9406   13.6879 H         1 THR         0.2101
    153 H34        -3.4289   40.7340   14.7591 H         1 THR         0.0257
    154 H35        -1.9512   40.6169   15.7736 H         1 THR         0.0257
    155 H36        -3.1304   39.2622   15.7446 H         1 THR         0.0257
    156 H37        -1.8144   36.3314   13.4780 H         1 SER         0.1884
    157 H38         0.5662   35.3750   12.2668 H         1 SER         0.0823
    158 H39        -0.8992   33.8178   10.9487 H         1 SER         0.0606
    159 H40        -2.3338   34.6885   11.5893 H         1 SER         0.0606
    160 H41        -1.5901   34.1114   13.6970 H         1 SER         0.2097
    161 H42         0.9705   37.2556    8.2265 H         1 PRO         0.0802
    162 H43         2.2706   35.7438    7.0001 H         1 PRO         0.0313
    163 H44         1.1698   34.3688    7.3529 H         1 PRO         0.0313
    164 H45         3.3916   35.5391    9.0126 H         1 PRO         0.0287
    165 H46         2.9248   33.8228    8.7609 H         1 PRO         0.0287
    166 H47         1.2739   33.9029   10.3793 H         1 PRO         0.0524
    167 H48         2.2868   35.2418   11.0181 H         1 PRO         0.0524
    168 H49        -0.6421   37.7600    6.8550 H         1 SER         0.1884
    169 H50        -2.9169   35.8768    6.4985 H         1 SER         0.0823
    170 H51        -3.4742   37.4687    8.3380 H         1 SER         0.0606
    171 H52        -4.4947   37.7400    6.8848 H         1 SER         0.0606
    172 H53        -3.0231   39.4223    6.3165 H         1 SER         0.2097
    173 H54        -3.8955   36.0312    4.5295 H         1 LEU         0.1883
    174 H55        -2.8199   38.0262    2.5500 H         1 LEU         0.0800
    175 H56        -3.5416   36.3863    0.7845 H         1 LEU         0.0315
    176 H57        -3.9022   35.2059    2.0896 H         1 LEU         0.0315
    177 H58        -1.5275   35.2933    2.7810 H         1 LEU         0.0298
    178 H59        -0.5973   33.9734    0.8891 H         1 LEU         0.0232
    179 H60        -1.9727   34.5024   -0.1380 H         1 LEU         0.0232
    180 H61        -2.2734   33.4848    1.3114 H         1 LEU         0.0232
    181 H62        -0.9000   37.5298    1.8705 H         1 LEU         0.0232
    182 H63        -0.9978   36.8600    0.2067 H         1 LEU         0.0232
    183 H64         0.2273   36.2283    1.3585 H         1 LEU         0.0232
    184 H65        -6.8700   39.5395    2.9882 H         1 PRO         0.0802
    185 H66        -5.8196   41.6200    2.4924 H         1 PRO         0.0313
    186 H67        -6.8620   41.4766    1.0365 H         1 PRO         0.0313
    187 H68        -4.2737   41.7791    0.6477 H         1 PRO         0.0287
    188 H69        -5.0928   40.4537   -0.2464 H         1 PRO         0.0287
    189 H70        -3.3540   39.3141    0.8450 H         1 PRO         0.0524
    190 H71        -3.4980   40.3273    2.3213 H         1 PRO         0.0524
    191 H72        -8.9275   39.7984    1.9105 H         1 ASN         0.1885
    192 H73        -9.3880   37.8837   -0.2723 H         1 ASN         0.0826
    193 H74       -11.2382   39.8783    1.1221 H         1 ASN         0.0551
    194 H75       -11.0878   38.1242    1.4787 H         1 ASN         0.0551
    195 H76       -14.0876   38.2585   -0.5878 H         1 ASN         0.1814
    196 H77       -13.5476   38.5660    1.0289 H         1 ASN         0.1814
    197 H78        -8.8121   38.5370   -2.3153 H         1 ILE         0.1883
    198 H79        -8.1372   41.3526   -2.6284 H         1 ILE         0.0803
    199 H80        -7.2380   40.7369   -4.8157 H         1 ILE         0.0345
    200 H81        -8.8859   39.0834   -5.4908 H         1 ILE         0.0267
    201 H82        -8.3461   37.9735   -4.1856 H         1 ILE         0.0267
    202 H83        -5.8429   40.4662   -2.7496 H         1 ILE         0.0235
    203 H84        -5.4110   39.2661   -4.0145 H         1 ILE         0.0235
    204 H85        -6.4031   38.7658   -2.6031 H         1 ILE         0.0235
    205 H86        -7.3697   37.3062   -6.3931 H         1 ILE         0.0230
    206 H87        -6.0802   37.8203   -5.2532 H         1 ILE         0.0230
    207 H88        -6.6200   38.9302   -6.5584 H         1 ILE         0.0230
    208 H89       -10.9377   39.5080   -3.4387 H         1 THR         0.1884
    209 H90       -11.7535   41.6626   -5.3414 H         1 THR         0.0826
    210 H91       -13.5442   40.0482   -6.0910 H         1 THR         0.0639
    211 H92       -13.2088   37.8502   -5.3832 H         1 THR         0.2101
    212 H93       -11.9361   38.6146   -7.3751 H         1 THR         0.0257
    213 H94       -10.6198   39.0810   -6.2453 H         1 THR         0.0257
    214 H95       -11.3726   40.3189   -7.3072 H         1 THR         0.0257
    215 H96       -11.8829   41.4103   -2.2188 H         1 LEU         0.1883
    216 H97       -14.5784   41.4767   -1.3905 H         1 LEU         0.0800
    217 H98       -12.2816   43.2293   -0.4415 H         1 LEU         0.0315
    218 H99       -12.6449   41.5655    0.1301 H         1 LEU         0.0315
    219 H100      -14.4970   43.9640    0.4502 H         1 LEU         0.0298
    220 H101      -15.6994   42.4569    2.0136 H         1 LEU         0.0232
    221 H102      -14.5628   41.1295    1.5984 H         1 LEU         0.0232
    222 H103      -15.6593   41.7986    0.3428 H         1 LEU         0.0232
    223 H104      -12.3891   44.2455    1.7203 H         1 LEU         0.0232
    224 H105      -12.6239   42.6298    2.4691 H         1 LEU         0.0232
    225 H106      -13.7853   43.9563    2.8128 H         1 LEU         0.0232
    226 H107      -16.2119   42.8031   -1.7607 H         1 GLY         0.1881
    227 H108      -15.8870   45.6248   -2.3359 H         1 GLY         0.0763
    228 H109      -17.4239   44.6967   -2.2795 H         1 GLY         0.0763
    229 H110      -15.4039   43.0838   -4.4347 H         1 LEU         0.1883
    230 H111      -16.1807   44.8712   -6.6772 H         1 LEU         0.0800
    231 H112      -14.6928   43.3284   -8.0412 H         1 LEU         0.0315
    232 H113      -14.2195   42.5580   -6.4891 H         1 LEU         0.0315
    233 H114      -13.2082   44.6008   -5.7144 H         1 LEU         0.0298
    234 H115      -11.3954   44.7814   -7.4044 H         1 LEU         0.0232
    235 H116      -12.4343   43.9223   -8.5915 H         1 LEU         0.0232
    236 H117      -11.8822   43.0784   -7.1049 H         1 LEU         0.0232
    237 H118      -14.7783   46.2619   -6.7192 H         1 LEU         0.0232
    238 H119      -14.1054   45.9111   -8.3473 H         1 LEU         0.0232
    239 H120      -13.0664   46.6613   -7.0887 H         1 LEU         0.0232
    240 H121      -19.3557   42.2247   -8.4147 H         1 PRO         0.0728
    241 H122      -19.4578   42.7120  -10.7355 H         1 PRO         0.0306
    242 H123      -17.6767   42.6010  -10.9400 H         1 PRO         0.0306
    243 H124      -19.3519   44.8534   -9.7911 H         1 PRO         0.0286
    244 H125      -17.9035   44.9349  -10.8503 H         1 PRO         0.0286
    245 H126      -16.4521   44.8342   -9.0646 H         1 PRO         0.0524
    246 H127      -17.8778   45.3259   -8.0887 H         1 PRO         0.0524
@<TRIPOS>BOND
     1    1    2 1  
     2    1    7 1  
     3    2    3 1  
     4    2    5 1  
     5    3    4 2  
     6    3    8 am 
     7    5    6 1  
     8    6    7 1  
     9    8    9 1  
    10    9   10 1  
    11    9   12 1  
    12   10   11 2  
    13   10   16 am 
    14   12   13 1  
    15   13   14 1  
    16   13   15 1  
    17   16   17 1  
    18   17   18 1  
    19   17   20 1  
    20   18   19 2  
    21   18   28 am 
    22   20   21 1  
    23   21   22 ar 
    24   21   23 ar 
    25   22   24 ar 
    26   23   25 ar 
    27   24   26 ar 
    28   25   26 ar 
    29   26   27 1  
    30   28   29 1  
    31   29   30 1  
    32   29   32 1  
    33   30   31 2  
    34   30   35 am 
    35   32   33 1  
    36   32   34 1  
    37   35   36 1  
    38   36   37 1  
    39   36   39 1  
    40   37   38 2  
    41   37   41 am 
    42   39   40 1  
    43   41   42 1  
    44   41   47 1  
    45   42   43 1  
    46   42   45 1  
    47   43   44 2  
    48   43   48 am 
    49   45   46 1  
    50   46   47 1  
    51   48   49 1  
    52   49   50 1  
    53   49   52 1  
    54   50   51 2  
    55   50   54 am 
    56   52   53 1  
    57   54   55 1  
    58   55   56 1  
    59   55   58 1  
    60   56   57 2  
    61   56   62 am 
    62   58   59 1  
    63   59   60 1  
    64   59   61 1  
    65   62   63 1  
    66   62   68 1  
    67   63   64 1  
    68   63   66 1  
    69   64   65 2  
    70   64   69 am 
    71   66   67 1  
    72   67   68 1  
    73   69   70 1  
    74   70   71 1  
    75   70   73 1  
    76   71   72 2  
    77   71   77 am 
    78   73   74 1  
    79   74   75 2  
    80   74   76 am 
    81   77   78 1  
    82   78   79 1  
    83   78   81 1  
    84   79   80 2  
    85   79   85 am 
    86   81   82 1  
    87   81   83 1  
    88   82   84 1  
    89   85   86 1  
    90   86   87 1  
    91   86   89 1  
    92   87   88 2  
    93   87   92 am 
    94   89   90 1  
    95   89   91 1  
    96   92   93 1  
    97   93   94 1  
    98   93   96 1  
    99   94   95 2  
   100   94  100 am 
   101   96   97 1  
   102   97   98 1  
   103   97   99 1  
   104  100  101 1  
   105  101  102 1  
   106  102  103 2  
   107  102  104 am 
   108  104  105 1  
   109  105  106 1  
   110  105  108 1  
   111  106  107 2  
   112  106  112 am 
   113  108  109 1  
   114  109  110 1  
   115  109  111 1  
   116  112  113 1  
   117  112  118 1  
   118  113  114 1  
   119  113  116 1  
   120  114  115 ar 
   121  114  119 ar 
   122  116  117 1  
   123  117  118 1  
   124    1  120 1  
   125    1  121 1  
   126    2  122 1  
   127    5  123 1  
   128    5  124 1  
   129    6  125 1  
   130    6  126 1  
   131    7  127 1  
   132    7  128 1  
   133    8  129 1  
   134    9  130 1  
   135   12  131 1  
   136   12  132 1  
   137   13  133 1  
   138   14  134 1  
   139   14  135 1  
   140   14  136 1  
   141   15  137 1  
   142   15  138 1  
   143   15  139 1  
   144   16  140 1  
   145   17  141 1  
   146   20  142 1  
   147   20  143 1  
   148   22  144 1  
   149   23  145 1  
   150   24  146 1  
   151   25  147 1  
   152   27  148 1  
   153   28  149 1  
   154   29  150 1  
   155   32  151 1  
   156   33  152 1  
   157   34  153 1  
   158   34  154 1  
   159   34  155 1  
   160   35  156 1  
   161   36  157 1  
   162   39  158 1  
   163   39  159 1  
   164   40  160 1  
   165   42  161 1  
   166   45  162 1  
   167   45  163 1  
   168   46  164 1  
   169   46  165 1  
   170   47  166 1  
   171   47  167 1  
   172   48  168 1  
   173   49  169 1  
   174   52  170 1  
   175   52  171 1  
   176   53  172 1  
   177   54  173 1  
   178   55  174 1  
   179   58  175 1  
   180   58  176 1  
   181   59  177 1  
   182   60  178 1  
   183   60  179 1  
   184   60  180 1  
   185   61  181 1  
   186   61  182 1  
   187   61  183 1  
   188   63  184 1  
   189   66  185 1  
   190   66  186 1  
   191   67  187 1  
   192   67  188 1  
   193   68  189 1  
   194   68  190 1  
   195   69  191 1  
   196   70  192 1  
   197   73  193 1  
   198   73  194 1  
   199   76  195 1  
   200   76  196 1  
   201   77  197 1  
   202   78  198 1  
   203   81  199 1  
   204   82  200 1  
   205   82  201 1  
   206   83  202 1  
   207   83  203 1  
   208   83  204 1  
   209   84  205 1  
   210   84  206 1  
   211   84  207 1  
   212   85  208 1  
   213   86  209 1  
   214   89  210 1  
   215   90  211 1  
   216   91  212 1  
   217   91  213 1  
   218   91  214 1  
   219   92  215 1  
   220   93  216 1  
   221   96  217 1  
   222   96  218 1  
   223   97  219 1  
   224   98  220 1  
   225   98  221 1  
   226   98  222 1  
   227   99  223 1  
   228   99  224 1  
   229   99  225 1  
   230  100  226 1  
   231  101  227 1  
   232  101  228 1  
   233  104  229 1  
   234  105  230 1  
   235  108  231 1  
   236  108  232 1  
   237  109  233 1  
   238  110  234 1  
   239  110  235 1  
   240  110  236 1  
   241  111  237 1  
   242  111  238 1  
   243  111  239 1  
   244  113  240 1  
   245  116  241 1  
   246  116  242 1  
   247  117  243 1  
   248  117  244 1  
   249  118  245 1  
   250  118  246 1  
@<TRIPOS>SUBSTRUCTURE
     1 PRO         1

