5nhj_ligand
  -I-interpret- 

 47 50  0  0  0  0  0  0  0  0999 V2000
  -20.3670   14.4870   43.5010 C   0  0  0  0  0
  -19.3140   14.8200   44.3150 C   0  0  0  0  0
  -19.6650   16.0450   44.8560 C   0  0  0  0  0
  -11.8340   14.1180   40.8490 N   0  0  0  0  0
  -17.6090   12.3040   41.0950 C   0  0  0  0  0
  -16.1990   12.7160   41.0910 C   0  0  0  0  0
  -15.1080   12.3220   40.3270 C   0  0  0  0  0
  -13.9850   13.0760   40.7580 C   0  0  0  0  0
  -14.4170   13.8930   41.7700 C   0  0  0  0  0
  -13.5470   14.8500   42.5120 C   0  0  0  0  0
  -12.4060   15.2630   41.5960 C   0  0  0  0  0
  -12.5820   13.1030   40.3310 C   0  0  0  0  0
  -10.4390   14.3500   40.3770 C   0  0  0  0  0
  -10.2830   14.8340   38.9330 C   0  0  0  0  0
  -12.1030   12.1760   39.6800 O   0  0  0  0  0
  -10.8780   16.0290   38.7960 O   0  0  0  0  0
  -10.9580   16.4580   37.4340 C   0  0  0  0  0
  -15.7520   13.6860   41.9780 N   0  0  0  0  0
  -18.0760   11.2130   40.3500 C   0  0  0  0  0
  -19.4290   10.9200   40.4520 C   0  0  0  0  0
  -20.2920   11.6230   41.2190 N   0  0  0  0  0
  -18.4220   13.0410   41.8650 N   0  0  0  0  0
  -19.7500   12.6540   41.8910 C   0  0  0  0  0
  -20.6080   13.3920   42.6890 N   0  0  0  0  0
  -20.8530   16.4670   44.4250 N   0  0  0  0  0
  -21.2770   15.4830   43.5800 N   0  0  0  0  0
  -22.5700   15.6210   42.9120 C   0  0  0  0  0
  -18.4040   14.2477   44.4955 H   0  0  0  0  0
  -19.0404   16.6011   45.5551 H   0  0  0  0  0
  -15.1131   11.5694   39.5385 H   0  0  0  0  0
  -13.1529   14.3779   43.4120 H   0  0  0  0  0
  -14.1231   15.7256   42.8112 H   0  0  0  0  0
  -12.7987   15.9752   40.8703 H   0  0  0  0  0
  -11.6160   15.6891   42.2144 H   0  0  0  0  0
   -9.9364   13.3842   40.4293 H   0  0  0  0  0
  -10.0328   15.1408   41.0077 H   0  0  0  0  0
  -10.7478   14.1166   38.2567 H   0  0  0  0  0
   -9.2238   14.9254   38.6924 H   0  0  0  0  0
   -9.9529   16.5374   37.0198 H   0  0  0  0  0
  -11.5330   15.7322   36.8590 H   0  0  0  0  0
  -11.4488   17.4302   37.3889 H   0  0  0  0  0
  -17.4093   10.6231   39.7210 H   0  0  0  0  0
  -19.8172   10.0760   39.8818 H   0  0  0  0  0
  -21.5779   13.0766   42.6764 H   0  0  0  0  0
  -22.4217   15.6189   41.8321 H   0  0  0  0  0
  -23.2136   14.7875   43.1932 H   0  0  0  0  0
  -23.0354   16.5591   43.2143 H   0  0  0  0  0
  1  2  4  0  0  0
 24  1  1  0  0  0
  1 26  4  0  0  0
  2  3  4  0  0  0
  3 25  4  0  0  0
 11  4  1  0  0  0
 12  4  1  0  0  0
  4 13  1  0  0  0
  5  6  1  0  0  0
  5 19  4  0  0  0
 22  5  4  0  0  0
  6  7  4  0  0  0
  6 18  4  0  0  0
  7  8  4  0  0  0
  9  8  4  0  0  0
  8 12  1  0  0  0
  9 10  1  0  0  0
 18  9  4  0  0  0
 10 11  1  0  0  0
 12 15  2  0  0  0
 13 14  1  0  0  0
 14 16  1  0  0  0
 16 17  1  0  0  0
 20 19  4  0  0  0
 21 20  4  0  0  0
 23 21  4  0  0  0
 23 22  4  0  0  0
 23 24  1  0  0  0
 25 26  4  0  0  0
 26 27  1  0  0  0
  2 28  1  0  0  0
  3 29  1  0  0  0
  7 30  1  0  0  0
 10 31  1  0  0  0
 10 32  1  0  0  0
 11 33  1  0  0  0
 11 34  1  0  0  0
 13 35  1  0  0  0
 13 36  1  0  0  0
 14 37  1  0  0  0
 14 38  1  0  0  0
 17 39  1  0  0  0
 17 40  1  0  0  0
 17 41  1  0  0  0
 19 42  1  0  0  0
 20 43  1  0  0  0
 24 44  1  0  0  0
 27 45  1  0  0  0
 27 46  1  0  0  0
 27 47  1  0  0  0
M  END
$$$$
