3b66_ligand
  -I-interpret- 

 43 44  0  0  0  0  0  0  0  0999 V2000
   28.9970    2.0250    8.0780 C   0  0  0  0  0
   28.7690    1.8740    9.4420 C   0  0  0  0  0
   29.4310    0.8790   10.1560 C   0  0  0  0  0
   29.1910    0.7140   11.4540 N   0  0  0  0  0
   29.9060   -0.2640   12.1960 O   0  0  0  0  0
   28.2450    1.5410   12.1200 O   0  0  0  0  0
   30.3220    0.0360    9.4960 C   0  0  0  0  0
   30.5480    0.1870    8.1310 C   0  0  0  0  0
   29.8860    1.1820    7.4160 C   0  0  0  0  0
   30.1260    1.3920    6.0930 O   0  0  0  0  0
   30.1390    0.1900    5.3060 C   0  0  0  0  0
   29.7610    0.5660    3.8830 C   0  0  0  0  0
   30.7790    1.4060    3.3330 O   0  0  0  0  0
   29.6010   -0.7010    3.0400 C   0  0  0  0  0
   28.4450    1.3450    3.9240 C   0  0  0  0  0
   27.3800    0.7850    4.1810 O   0  0  0  0  0
   28.5940    2.6500    3.7080 N   0  0  0  0  0
   27.6250    3.5650    3.6920 C   0  0  0  0  0
   26.2820    3.2660    3.9120 C   0  0  0  0  0
   27.9940    4.8830    3.4500 C   0  0  0  0  0
   27.0230    5.8770    3.4310 C   0  0  0  0  0
   25.6850    5.5650    3.6540 C   0  0  0  0  0
   24.7650    6.6620    3.6250 C   0  0  0  0  0
   24.0390    7.5380    3.5940 N   0  0  0  0  0
   25.2890    4.2470    3.8990 C   0  0  0  0  0
   23.8300    3.8490    4.1950 C   0  0  0  0  0
   23.5590    4.0570    5.4800 F   0  0  0  0  0
   22.9440    4.5270    3.4710 F   0  0  0  0  0
   23.5910    2.5650    3.9400 F   0  0  0  0  0
   28.4772    2.8071    7.5246 H   0  0  0  0  0
   28.0703    2.5364    9.9530 H   0  0  0  0  0
   30.8438   -0.7442   10.0502 H   0  0  0  0  0
   31.2458   -0.4761    7.6196 H   0  0  0  0  0
   29.4307   -0.5345    5.7080 H   0  0  0  0  0
   31.1283   -0.2671    5.3277 H   0  0  0  0  0
   30.5434    1.6455    2.4337 H   0  0  0  0  0
   30.5419   -1.2512    3.0312 H   0  0  0  0  0
   28.8176   -1.3252    3.4697 H   0  0  0  0  0
   29.3300   -0.4259    2.0207 H   0  0  0  0  0
   29.5432    2.9825    3.5380 H   0  0  0  0  0
   25.9971    2.2309    4.1007 H   0  0  0  0  0
   29.0399    5.1357    3.2760 H   0  0  0  0  0
   27.3119    6.9105    3.2397 H   0  0  0  0  0
  1  2  4  0  0  0
  1  9  4  0  0  0
  2  3  4  0  0  0
  3  4  1  0  0  0
  3  7  4  0  0  0
  4  5  2  0  0  0
  4  6  2  0  0  0
  7  8  4  0  0  0
  8  9  4  0  0  0
  9 10  1  0  0  0
 10 11  1  0  0  0
 11 12  1  0  0  0
 12 13  1  0  0  0
 12 14  1  0  0  0
 12 15  1  0  0  0
 15 16  2  0  0  0
 15 17  1  0  0  0
 17 18  1  0  0  0
 18 19  4  0  0  0
 18 20  4  0  0  0
 19 25  4  0  0  0
 20 21  4  0  0  0
 21 22  4  0  0  0
 22 23  1  0  0  0
 22 25  4  0  0  0
 23 24  3  0  0  0
 25 26  1  0  0  0
 26 27  1  0  0  0
 26 28  1  0  0  0
 26 29  1  0  0  0
  1 30  1  0  0  0
  2 31  1  0  0  0
  7 32  1  0  0  0
  8 33  1  0  0  0
 11 34  1  0  0  0
 11 35  1  0  0  0
 13 36  1  0  0  0
 14 37  1  0  0  0
 14 38  1  0  0  0
 14 39  1  0  0  0
 17 40  1  0  0  0
 19 41  1  0  0  0
 20 42  1  0  0  0
 21 43  1  0  0  0
M  END
$$$$
