1xa5_ligand
  -I-interpret- 

116125  0  0  0  0  0  0  0  0999 V2000
   15.8330   20.1650  134.2160 O   0  0  0  0  0
   15.8480   21.2100  133.5760 C   0  0  0  0  0
   16.9700   21.9090  133.4280 O   0  0  0  0  0
   18.1020   21.0330  133.4940 C   0  0  0  0  0
   14.5620   21.7710  132.8940 C   0  0  0  0  0
   14.3860   23.2930  133.2240 C   0  0  0  0  0
   14.0320   24.1620  132.1870 C   0  0  0  0  0
   13.8370   25.5170  132.4480 C   0  0  0  0  0
   14.5460   23.8590  134.5140 C   0  0  0  0  0
   14.8950   23.0430  135.5930 O   0  0  0  0  0
   16.2500   23.1000  136.0700 C   0  0  0  0  0
   14.3650   25.2390  134.7530 C   0  0  0  0  0
   14.0180   26.0710  133.6900 C   0  0  0  0  0
   13.7950   27.4100  133.6410 N   0  0  0  0  0
   13.9130   28.2930  134.8000 C   0  0  0  0  0
   13.7450   27.8950  132.2520 C   0  0  0  0  0
   13.5200   26.5800  131.4840 C   0  0  0  0  0
   12.0040   26.3710  131.7410 C   0  0  0  0  0
   13.5200   26.4960  129.9550 C   0  0  0  0  0
   12.2540   27.2020  129.6250 N   0  3  0  0  0
   11.6990   27.0220  128.2890 C   0  0  0  0  0
   11.2760   27.2390  130.7210 C   0  0  0  0  0
   14.6540   27.2720  129.2570 C   0  0  0  0  0
   14.1040   27.6550  127.8770 C   0  0  0  0  0
   12.8160   27.5450  127.4500 C   0  0  0  0  0
   15.7850   26.2120  128.9430 C   0  0  0  0  0
   17.2780   26.5710  129.2090 C   0  0  0  0  0
   15.0670   28.5360  131.7100 C   0  0  0  0  0
   16.2930   27.8740  132.1490 C   0  0  0  0  0
   16.6610   26.7170  132.0110 O   0  0  0  0  0
   15.1070   28.5310  130.1220 C   0  0  0  0  0
   15.1620   29.9000  132.1630 O   0  0  0  0  0
   16.3400   30.0760  132.8210 C   0  0  0  0  0
   16.7020   31.1230  133.3150 O   0  0  0  0  0
   17.0330   28.9170  132.8420 N   0  0  0  0  0
   18.3310   28.7540  133.4660 C   0  0  0  0  0
   18.1960   28.9630  134.9870 C   0  0  0  0  0
   17.6660   27.4450  135.7160 Cl  0  0  0  0  0
   13.3440   21.1630  133.6630 C   0  0  0  0  0
   11.9410   21.8480  133.5680 C   0  0  0  0  0
   11.4450   22.1080  132.1120 C   0  0  0  0  0
   10.8290   21.1220  134.4030 C   0  0  0  0  0
   10.1560   19.9100  133.6990 C   0  0  0  0  0
   11.0880   18.8230  133.5220 O   0  0  0  0  0
    9.0720   19.2190  134.5980 C   0  0  0  0  0
    7.7270   19.9780  134.7960 C   0  0  0  0  0
    9.5860   20.4140  132.3500 C   0  0  0  0  0
   10.6530   21.0010  131.5090 N   0  3  0  0  0
   11.2290   20.0990  130.4890 C   0  0  0  0  0
   12.7240   19.7280  130.6810 C   0  0  0  0  0
   13.9240   20.6730  130.5910 C   0  0  0  0  0
   14.5070   20.8130  129.2100 C   0  0  0  0  0
   15.5500   21.6990  129.3810 C   0  0  0  0  0
   16.3640   22.0930  128.3130 C   0  0  0  0  0
   15.6010   22.0650  130.6740 N   0  0  0  0  0
   14.6530   21.4860  131.3930 C   0  0  0  0  0
   14.2150   20.2580  127.9600 C   0  0  0  0  0
   15.0210   20.6370  126.8780 C   0  0  0  0  0
   16.0800   21.5400  127.0550 C   0  0  0  0  0
   18.1153   20.5308  134.4613 H   0  0  0  0  0
   18.0323   20.2908  132.6988 H   0  0  0  0  0
   19.0165   21.6134  133.3719 H   0  0  0  0  0
   13.9085   23.7792  131.1739 H   0  0  0  0  0
   16.9290   22.8149  135.2664 H   0  0  0  0  0
   16.4767   24.1151  136.3960 H   0  0  0  0  0
   16.3680   22.4130  136.9080 H   0  0  0  0  0
   14.4949   25.6479  135.7550 H   0  0  0  0  0
   13.2122   27.9736  135.5714 H   0  0  0  0  0
   14.9301   28.2457  135.1892 H   0  0  0  0  0
   13.6844   29.3159  134.5007 H   0  0  0  0  0
   12.9994   28.6838  132.1516 H   0  0  0  0  0
   11.7356   26.6524  132.7593 H   0  0  0  0  0
   11.7280   25.3221  131.6326 H   0  0  0  0  0
   13.6359   25.4617  129.6311 H   0  0  0  0  0
   12.5809   28.1643  129.5386 H   0  0  0  0  0
   10.7494   27.5333  128.1312 H   0  0  0  0  0
   11.4174   25.9940  128.0610 H   0  0  0  0  0
   11.0258   28.2399  131.0727 H   0  0  0  0  0
   10.2801   26.8862  130.4530 H   0  0  0  0  0
   14.8211   28.0583  127.1620 H   0  0  0  0  0
   12.5867   27.8586  126.4316 H   0  0  0  0  0
   15.7272   26.0605  127.8651 H   0  0  0  0  0
   15.5780   25.3819  129.6184 H   0  0  0  0  0
   17.5536   27.4395  128.6109 H   0  0  0  0  0
   17.4128   26.7988  130.2664 H   0  0  0  0  0
   17.9082   25.7248  128.9351 H   0  0  0  0  0
   14.3818   29.2978  129.8495 H   0  0  0  0  0
   16.1695   28.6221  129.8966 H   0  0  0  0  0
   19.0264   29.4873  133.0576 H   0  0  0  0  0
   18.7072   27.7503  133.2680 H   0  0  0  0  0
   17.4681   29.7481  135.1916 H   0  0  0  0  0
   19.1556   29.2629  135.4080 H   0  0  0  0  0
   13.6170   21.2441  134.7151 H   0  0  0  0  0
   13.1995   20.1807  133.2132 H   0  0  0  0  0
   12.1137   22.8244  134.0207 H   0  0  0  0  0
   12.3345   22.2309  131.4941 H   0  0  0  0  0
   10.7888   22.9773  132.1540 H   0  0  0  0  0
   10.0430   21.8558  134.5813 H   0  0  0  0  0
   11.3142   20.7334  135.2984 H   0  0  0  0  0
   10.6453   18.0911  133.0861 H   0  0  0  0  0
    9.5164   19.1384  135.5900 H   0  0  0  0  0
    8.8160   18.2881  134.0920 H   0  0  0  0  0
    7.9216   20.9440  135.2619 H   0  0  0  0  0
    7.2509   20.1297  133.8273 H   0  0  0  0  0
    7.0703   19.3898  135.4369 H   0  0  0  0  0
    8.8380   21.1808  132.5513 H   0  0  0  0  0
    9.1470   19.5695  131.8187 H   0  0  0  0  0
   10.1833   21.6171  130.8455 H   0  0  0  0  0
   11.1631   20.6280  129.5382 H   0  0  0  0  0
   10.6698   19.1655  130.5529 H   0  0  0  0  0
   12.8975   19.0738  129.8266 H   0  0  0  0  0
   12.7455   19.4485  131.7343 H   0  0  0  0  0
   17.1829   22.7987  128.4523 H   0  0  0  0  0
   13.3907   19.5564  127.8320 H   0  0  0  0  0
   14.8230   20.2257  125.8882 H   0  0  0  0  0
   16.6943   21.8175  126.1984 H   0  0  0  0  0
  1  2  2  0  0  0
  2  3  1  0  0  0
  2  5  1  0  0  0
  3  4  1  0  0  0
  5  6  1  0  0  0
  5 39  1  0  0  0
  5 56  1  0  0  0
  6  7  4  0  0  0
  6  9  4  0  0  0
  7  8  4  0  0  0
  8 13  4  0  0  0
  8 17  1  0  0  0
  9 10  1  0  0  0
  9 12  4  0  0  0
 10 11  1  0  0  0
 12 13  4  0  0  0
 13 14  1  0  0  0
 14 15  1  0  0  0
 14 16  1  0  0  0
 16 17  1  0  0  0
 16 28  1  0  0  0
 17 18  1  0  0  0
 17 19  1  0  0  0
 18 22  1  0  0  0
 19 20  1  0  0  0
 19 23  1  0  0  0
 20 21  1  0  0  0
 20 22  1  0  0  0
 21 25  1  0  0  0
 23 24  1  0  0  0
 23 26  1  0  0  0
 23 31  1  0  0  0
 24 25  2  0  0  0
 26 27  1  0  0  0
 28 29  1  0  0  0
 28 31  1  0  0  0
 28 32  1  0  0  0
 29 30  2  0  0  0
 29 35  1  0  0  0
 32 33  1  0  0  0
 33 34  2  0  0  0
 33 35  1  0  0  0
 35 36  1  0  0  0
 36 37  1  0  0  0
 37 38  1  0  0  0
 39 40  1  0  0  0
 40 41  1  0  0  0
 40 42  1  0  0  0
 41 48  1  0  0  0
 42 43  1  0  0  0
 43 44  1  0  0  0
 43 45  1  0  0  0
 43 47  1  0  0  0
 45 46  1  0  0  0
 47 48  1  0  0  0
 48 49  1  0  0  0
 49 50  1  0  0  0
 50 51  1  0  0  0
 51 52  4  0  0  0
 51 56  4  0  0  0
 52 53  4  0  0  0
 52 57  4  0  0  0
 53 54  4  0  0  0
 53 55  4  0  0  0
 54 59  4  0  0  0
 55 56  4  0  0  0
 57 58  4  0  0  0
 58 59  4  0  0  0
  4 60  1  0  0  0
  4 61  1  0  0  0
  4 62  1  0  0  0
  7 63  1  0  0  0
 11 64  1  0  0  0
 11 65  1  0  0  0
 11 66  1  0  0  0
 12 67  1  0  0  0
 15 68  1  0  0  0
 15 69  1  0  0  0
 15 70  1  0  0  0
 16 71  1  0  0  0
 18 72  1  0  0  0
 18 73  1  0  0  0
 19 74  1  0  0  0
 20 75  1  0  0  0
 21 76  1  0  0  0
 21 77  1  0  0  0
 22 78  1  0  0  0
 22 79  1  0  0  0
 24 80  1  0  0  0
 25 81  1  0  0  0
 26 82  1  0  0  0
 26 83  1  0  0  0
 27 84  1  0  0  0
 27 85  1  0  0  0
 27 86  1  0  0  0
 31 87  1  0  0  0
 31 88  1  0  0  0
 36 89  1  0  0  0
 36 90  1  0  0  0
 37 91  1  0  0  0
 37 92  1  0  0  0
 39 93  1  0  0  0
 39 94  1  0  0  0
 40 95  1  0  0  0
 41 96  1  0  0  0
 41 97  1  0  0  0
 42 98  1  0  0  0
 42 99  1  0  0  0
 44100  1  0  0  0
 45101  1  0  0  0
 45102  1  0  0  0
 46103  1  0  0  0
 46104  1  0  0  0
 46105  1  0  0  0
 47106  1  0  0  0
 47107  1  0  0  0
 48108  1  0  0  0
 49109  1  0  0  0
 49110  1  0  0  0
 50111  1  0  0  0
 50112  1  0  0  0
 54113  1  0  0  0
 57114  1  0  0  0
 58115  1  0  0  0
 59116  1  0  0  0
M  END
$$$$
