1ghy_ligand
  -I-interpret- 

 29 31  0  0  0  0  0  0  0  0999 V2000
   12.1290  -11.7940   22.8500 C   0  0  0  0  0
   12.1340  -10.7030   21.9600 C   0  0  0  0  0
   13.0630  -10.6080   20.9460 C   0  0  0  0  0
   13.9750  -11.6260   20.8300 C   0  0  0  0  0
   13.9850  -12.6930   21.6780 C   0  0  0  0  0
   13.0700  -12.8160   22.7070 C   0  0  0  0  0
   11.2050  -11.8130   23.8750 C   0  0  0  0  0
   10.5580  -12.8920   24.1770 N   0  0  0  0  0
   11.0250  -10.6920   24.5390 N   0  0  0  0  0
   14.9670  -11.7520   20.0020 N   0  0  0  0  0
   14.9880  -13.4550   21.3550 N   0  0  0  0  0
   15.5810  -12.8680   20.3340 C   0  0  0  0  0
   16.7500  -13.3560   19.7150 C   0  0  0  0  0
   17.5630  -14.0260   20.5190 N   0  0  0  0  0
   18.7250  -14.5340   20.1550 C   0  0  0  0  0
   19.1630  -14.3720   18.8460 C   0  0  0  0  0
   18.3540  -13.6700   17.9400 C   0  0  0  0  0
   17.1250  -13.1490   18.3620 C   0  0  0  0  0
   16.3480  -12.4580   17.4410 O   0  0  0  0  0
   11.3876   -9.9170   22.0752 H   0  0  0  0  0
   13.0725   -9.7580   20.2637 H   0  0  0  0  0
   13.0825  -13.6745   23.3785 H   0  0  0  0  0
    9.8889  -12.8869   24.9468 H   0  0  0  0  0
   10.3619  -10.6588   25.3134 H   0  0  0  0  0
   11.5485   -9.8559   24.2796 H   0  0  0  0  0
   19.3369  -15.0767   20.8755 H   0  0  0  0  0
   20.1207  -14.7842   18.5281 H   0  0  0  0  0
   18.6816  -13.5305   16.9098 H   0  0  0  0  0
   16.7973  -12.4424   16.5928 H   0  0  0  0  0
  7  1  1  0  0  0
  1  6  4  0  0  0
  1  2  4  0  0  0
  2  3  4  0  0  0
  3  4  4  0  0  0
  4 10  4  0  0  0
  4  5  4  0  0  0
  5 11  4  0  0  0
  6  5  4  0  0  0
 11 12  4  0  0  0
 12 13  1  0  0  0
 10 12  4  0  0  0
 13 18  4  0  0  0
 13 14  4  0  0  0
 14 15  4  0  0  0
 15 16  4  0  0  0
 16 17  4  0  0  0
 18 17  4  0  0  0
 18 19  1  0  0  0
  7  9  1  0  0  0
  7  8  2  0  0  0
  2 20  1  0  0  0
  3 21  1  0  0  0
  6 22  1  0  0  0
  8 23  1  0  0  0
  9 24  1  0  0  0
  9 25  1  0  0  0
 15 26  1  0  0  0
 16 27  1  0  0  0
 17 28  1  0  0  0
 19 29  1  0  0  0
M  END
$$$$
