2lyw_ligand
  -I-interpret- 

241245  0  0  0  0  0  0  0  0999 V2000
  -28.1340   42.8140  -21.1390 N   0  0  0  0  0
  -28.1200   43.2090  -19.7230 C   0  0  0  0  0
  -28.5890   41.9010  -19.0450 C   0  0  0  0  0
  -29.3730   41.1400  -20.1200 C   0  0  0  0  0
  -28.7800   41.6950  -21.3990 C   0  0  0  0  0
  -28.8470   41.1590  -22.5030 O   0  0  0  0  0
  -26.7570   43.7940  -19.2540 C   0  0  0  0  0
  -25.8700   44.0770  -20.0690 O   0  0  0  0  0
  -26.6050   44.0070  -17.9290 N   0  0  0  0  0
  -25.3900   44.6460  -17.3460 C   0  0  0  0  0
  -24.2780   43.5740  -17.1170 C   0  0  0  0  0
  -24.1630   42.9810  -16.0400 O   0  0  0  0  0
  -25.8010   45.4440  -16.0660 C   0  0  0  0  0
  -24.8640   46.5720  -15.5380 C   0  0  0  0  0
  -23.5000   46.0810  -15.0150 C   0  0  0  0  0
  -24.6820   47.7330  -16.5380 C   0  0  0  0  0
  -23.4670   43.3540  -18.1660 N   0  0  0  0  0
  -22.3200   42.4060  -18.1560 C   0  0  0  0  0
  -21.1320   43.0840  -18.8950 C   0  0  0  0  0
  -21.2860   43.5870  -20.0150 O   0  0  0  0  0
  -22.6680   40.9870  -18.7130 C   0  0  0  0  0
  -23.5720   40.8420  -19.9630 C   0  0  0  0  0
  -23.1340   41.2310  -21.2340 C   0  0  0  0  0
  -24.8560   40.2990  -19.8230 C   0  0  0  0  0
  -23.9740   41.1110  -22.3380 C   0  0  0  0  0
  -25.6870   40.1600  -20.9310 C   0  0  0  0  0
  -25.2520   40.5820  -22.1850 C   0  0  0  0  0
  -26.0900   40.5070  -23.2680 O   0  0  0  0  0
  -19.9420   43.0950  -18.2580 N   0  0  0  0  0
  -18.7360   43.7880  -18.7990 C   0  0  0  0  0
  -17.9200   42.8620  -19.7580 C   0  0  0  0  0
  -16.8290   42.3860  -19.4270 O   0  0  0  0  0
  -17.9470   44.3530  -17.5780 C   0  0  0  0  0
  -16.7230   45.2580  -17.8610 C   0  0  0  0  0
  -16.9670   46.5420  -18.6610 C   0  0  0  0  0
  -18.0740   47.1240  -18.5930 O   0  0  0  0  0
  -16.0270   46.9860  -19.3560 O   0  0  0  0  0
  -18.4740   42.6400  -20.9660 N   0  0  0  0  0
  -17.8780   41.7580  -22.0040 C   0  0  0  0  0
  -17.0850   42.6280  -23.0160 C   0  0  0  0  0
  -17.6530   43.1720  -23.9700 O   0  0  0  0  0
  -19.0130   40.9360  -22.6860 C   0  0  0  0  0
  -19.4430   39.6760  -21.9080 C   0  0  0  0  0
  -20.2500   39.7370  -20.9820 O   0  0  0  0  0
  -18.9080   38.5160  -22.2580 N   0  0  0  0  0
  -15.7650   42.7460  -22.7790 N   0  0  0  0  0
  -14.8370   43.5250  -23.6460 C   0  0  0  0  0
  -13.6600   42.6040  -24.1240 C   0  0  0  0  0
  -13.1920   41.7840  -23.3230 O   0  0  0  0  0
  -14.2630   44.7680  -22.9070 C   0  0  0  0  0
  -15.2580   45.8170  -22.3560 C   0  0  0  0  0
  -16.2040   46.4700  -23.3930 C   0  0  0  0  0
  -16.9890   47.7030  -22.8970 C   0  0  0  0  0
  -17.8740   47.4230  -21.7520 N   0  3  0  0  0
  -13.1140   42.7110  -25.3740 N   0  0  0  0  0
  -12.0230   41.8230  -25.8560 C   0  0  0  0  0
  -10.6230   42.1460  -25.2410 C   0  0  0  0  0
  -10.1250   43.2710  -25.3580 O   0  0  0  0  0
  -12.1110   42.0080  -27.3810 C   0  0  0  0  0
  -12.6720   43.4130  -27.5960 C   0  0  0  0  0
  -13.6560   43.5820  -26.4390 C   0  0  0  0  0
  -10.0300   41.1420  -24.5670 N   0  0  0  0  0
   -8.7970   41.3060  -23.7470 C   0  0  0  0  0
   -7.6970   40.3130  -24.2280 C   0  0  0  0  0
   -7.8960   39.0930  -24.2490 O   0  0  0  0  0
   -9.1130   41.0540  -22.2430 C   0  0  0  0  0
  -10.0130   42.1150  -21.5670 C   0  0  0  0  0
  -10.3850   41.7920  -20.1000 C   0  0  0  0  0
   -9.8490   42.7750  -19.1260 N   0  0  0  0  0
  -10.4650   43.9150  -18.7520 C   0  0  0  0  0
  -11.6560   44.2990  -19.2030 N   0  0  0  0  0
   -9.8480   44.7010  -17.8890 N   0  0  0  0  0
   -6.5090   40.8610  -24.5470 N   0  0  0  0  0
   -5.2720   40.0700  -24.8280 C   0  0  0  0  0
   -4.6230   39.4240  -23.5430 C   0  0  0  0  0
   -4.9720   39.8620  -22.4420 O   0  0  0  0  0
   -4.2800   40.9880  -25.6130 C   0  0  0  0  0
   -3.3910   41.9960  -24.8340 C   0  0  0  0  0
   -4.1090   43.1770  -24.1490 C   0  0  0  0  0
   -4.5480   44.1880  -25.1400 N   0  0  0  0  0
   -5.0610   45.3920  -24.8370 C   0  0  0  0  0
   -5.3840   45.7750  -23.6070 N   0  0  0  0  0
   -5.2360   46.2520  -25.8190 N   0  0  0  0  0
   -3.6670   38.4420  -23.6070 N   0  0  0  0  0
   -3.0410   37.8280  -22.3970 C   0  0  0  0  0
   -2.0120   38.7390  -21.6530 C   0  0  0  0  0
   -0.7970   38.6410  -21.8540 O   0  0  0  0  0
   -2.4450   36.5160  -22.9580 C   0  0  0  0  0
   -2.1910   36.7950  -24.4380 C   0  0  0  0  0
   -3.3680   37.6790  -24.8350 C   0  0  0  0  0
   -2.5390   39.6030  -20.7660 N   0  0  0  0  0
   -1.7340   40.5300  -19.9280 C   0  0  0  0  0
   -1.6030   39.9490  -18.4850 C   0  0  0  0  0
   -2.6130   39.6620  -17.8340 O   0  0  0  0  0
   -2.3270   41.9690  -20.0270 C   0  0  0  0  0
   -3.7060   42.2760  -19.3950 C   0  0  0  0  0
   -3.7780   42.5420  -18.0250 C   0  0  0  0  0
   -4.8750   42.3140  -20.1590 C   0  0  0  0  0
   -4.9990   42.8200  -17.4210 C   0  0  0  0  0
   -6.1040   42.5880  -19.5550 C   0  0  0  0  0
   -6.1560   42.8320  -18.1820 C   0  0  0  0  0
   -7.3540   43.0240  -17.5500 O   0  0  0  0  0
   -0.3650   39.7490  -17.9880 N   0  0  0  0  0
   -0.1170   38.9860  -16.7250 C   0  0  0  0  0
   -0.2870   39.8920  -15.4590 C   0  0  0  0  0
    0.5390   40.7640  -15.1820 O   0  0  0  0  0
    1.2200   38.1630  -16.8070 C   0  0  0  0  0
    1.3240   37.1260  -15.6500 C   0  0  0  0  0
    2.5120   39.0120  -16.9180 C   0  0  0  0  0
    2.3930   36.0340  -15.8110 C   0  0  0  0  0
   -1.3700   39.6470  -14.6970 N   0  0  0  0  0
   -1.7340   40.4290  -13.4850 C   0  0  0  0  0
   -0.9970   40.0090  -12.2020 C   0  0  0  0  0
   -0.4940   40.9050  -11.4890 O   0  0  0  0  0
   -3.2730   40.4330  -13.2590 C   0  0  0  0  0
   -4.0040   39.1430  -12.7650 C   0  0  0  0  0
   -5.4670   39.4680  -12.4170 C   0  0  0  0  0
   -3.9490   37.9540  -13.7470 C   0  0  0  0  0
   -0.9580   38.8000  -11.8750 O   0  0  0  0  0
  -27.6777   43.3649  -21.8661 H   0  0  0  0  0
  -28.7627   44.0517  -19.4684 H   0  0  0  0  0
  -29.2060   42.1041  -18.1697 H   0  0  0  0  0
  -27.7451   41.3169  -18.6779 H   0  0  0  0  0
  -30.4513   41.2822  -20.0482 H   0  0  0  0  0
  -29.2789   40.0573  -20.0361 H   0  0  0  0  0
  -27.3539   43.7182  -17.2995 H   0  0  0  0  0
  -24.9526   45.3697  -18.0338 H   0  0  0  0  0
  -25.8196   44.7012  -15.2685 H   0  0  0  0  0
  -26.7243   45.9543  -16.3403 H   0  0  0  0  0
  -25.4012   46.9596  -14.6724 H   0  0  0  0  0
  -23.6573   45.3876  -14.1889 H   0  0  0  0  0
  -22.9648   45.5752  -15.8187 H   0  0  0  0  0
  -22.9165   46.9341  -14.6689 H   0  0  0  0  0
  -24.2478   47.3505  -17.4617 H   0  0  0  0  0
  -25.6516   48.1835  -16.7501 H   0  0  0  0  0
  -24.0185   48.4822  -16.1061 H   0  0  0  0  0
  -23.6499   43.8711  -19.0260 H   0  0  0  0  0
  -22.0376   42.2019  -17.1232 H   0  0  0  0  0
  -23.2347   40.5125  -17.9118 H   0  0  0  0  0
  -21.7080   40.5743  -19.0231 H   0  0  0  0  0
  -22.1279   41.6308  -21.3606 H   0  0  0  0  0
  -25.2064   39.9834  -18.8403 H   0  0  0  0  0
  -23.6307   41.4313  -23.3217 H   0  0  0  0  0
  -26.6781   39.7209  -20.8173 H   0  0  0  0  0
  -26.9267   40.1216  -22.9977 H   0  0  0  0  0
  -19.8634   42.6072  -17.3657 H   0  0  0  0  0
  -19.0017   44.6273  -19.4417 H   0  0  0  0  0
  -17.5483   43.4798  -17.0616 H   0  0  0  0  0
  -18.6559   44.9839  -17.0419 H   0  0  0  0  0
  -16.0461   44.6568  -18.4680 H   0  0  0  0  0
  -16.3647   45.5830  -16.8842 H   0  0  0  0  0
  -18.6586   46.6305  -18.0131 H   0  0  0  0  0
  -19.3558   43.1053  -21.1814 H   0  0  0  0  0
  -17.1783   41.0493  -21.5611 H   0  0  0  0  0
  -18.6304   40.6014  -23.6502 H   0  0  0  0  0
  -19.8855   41.5864  -22.7487 H   0  0  0  0  0
  -19.1646   37.6646  -21.7583 H   0  0  0  0  0
  -18.2394   38.4741  -23.0272 H   0  0  0  0  0
  -15.3788   42.2759  -21.9603 H   0  0  0  0  0
  -15.4043   43.8805  -24.5062 H   0  0  0  0  0
  -13.6716   45.2979  -23.6537 H   0  0  0  0  0
  -13.7513   44.3699  -22.0308 H   0  0  0  0  0
  -14.6528   46.6246  -21.9442 H   0  0  0  0  0
  -15.8981   45.2886  -21.6495 H   0  0  0  0  0
  -16.9460   45.7151  -23.6533 H   0  0  0  0  0
  -15.5738   46.8139  -24.2131 H   0  0  0  0  0
  -17.6189   48.0402  -23.7201 H   0  0  0  0  0
  -16.2589   48.4435  -22.5703 H   0  0  0  0  0
  -18.3576   48.2790  -21.4803 H   0  0  0  0  0
  -18.5579   46.7144  -22.0177 H   0  0  0  0  0
  -17.3168   47.0825  -20.9684 H   0  0  0  0  0
  -12.1410   40.7839  -25.5485 H   0  0  0  0  0
  -12.7494   41.2512  -27.8368 H   0  0  0  0  0
  -11.1347   41.8936  -27.8521 H   0  0  0  0  0
  -13.1469   43.5298  -28.5701 H   0  0  0  0  0
  -11.8954   44.1779  -27.6005 H   0  0  0  0  0
  -13.7407   44.6204  -26.1186 H   0  0  0  0  0
  -14.6726   43.3062  -26.7192 H   0  0  0  0  0
  -10.4501   40.2141  -24.6212 H   0  0  0  0  0
   -8.4328   42.3264  -23.8666 H   0  0  0  0  0
   -8.1586   41.0747  -21.7168 H   0  0  0  0  0
   -9.6543   40.1093  -22.1929 H   0  0  0  0  0
  -10.9437   42.1542  -22.1330 H   0  0  0  0  0
   -9.4545   43.0510  -21.5579 H   0  0  0  0  0
   -9.9536   40.8208  -19.8578 H   0  0  0  0  0
  -11.4721   41.8137  -20.0243 H   0  0  0  0  0
   -8.9420   42.5722  -18.7057 H   0  0  0  0  0
  -12.0645   45.1765  -18.8812 H   0  0  0  0  0
  -12.1607   43.7160  -19.8706 H   0  0  0  0  0
   -8.9319   44.4390  -17.5250 H   0  0  0  0  0
   -6.4495   41.8779  -24.6001 H   0  0  0  0  0
   -5.5387   39.2072  -25.4383 H   0  0  0  0  0
   -4.9172   41.6097  -26.2419 H   0  0  0  0  0
   -3.5748   40.2992  -26.0781 H   0  0  0  0  0
   -2.7256   42.4405  -25.5741 H   0  0  0  0  0
   -2.9253   41.4243  -24.0313 H   0  0  0  0  0
   -3.4143   43.6501  -23.4550 H   0  0  0  0  0
   -4.9882   42.7949  -23.6302 H   0  0  0  0  0
   -4.4533   43.9514  -26.1277 H   0  0  0  0  0
   -5.7554   46.7111  -23.4453 H   0  0  0  0  0
   -5.2607   45.1330  -22.8240 H   0  0  0  0  0
   -4.9842   45.9946  -26.7733 H   0  0  0  0  0
   -3.7603   37.6606  -21.5953 H   0  0  0  0  0
   -3.1219   35.6734  -22.8172 H   0  0  0  0  0
   -1.5292   36.2347  -22.4380 H   0  0  0  0  0
   -2.1313   35.8835  -25.0327 H   0  0  0  0  0
   -1.2279   37.2736  -24.6156 H   0  0  0  0  0
   -3.1332   38.3275  -25.6791 H   0  0  0  0  0
   -4.2235   37.0992  -25.1814 H   0  0  0  0  0
   -3.5535   39.6230  -20.6623 H   0  0  0  0  0
   -0.7101   40.6193  -20.2911 H   0  0  0  0  0
   -2.4713   42.1338  -21.0948 H   0  0  0  0  0
   -1.6259   42.5937  -19.4735 H   0  0  0  0  0
   -2.8685   42.5314  -17.4244 H   0  0  0  0  0
   -4.8276   42.1288  -21.2321 H   0  0  0  0  0
   -5.0455   43.0278  -16.3520 H   0  0  0  0  0
   -7.0159   42.6111  -20.1516 H   0  0  0  0  0
   -8.0624   43.0084  -18.1978 H   0  0  0  0  0
    0.4336   40.1331  -18.4931 H   0  0  0  0  0
   -0.8907   38.2273  -16.6070 H   0  0  0  0  0
    1.1545   37.6313  -17.7562 H   0  0  0  0  0
    0.3645   36.6099  -15.6170 H   0  0  0  0  0
    1.5980   37.6909  -14.7590 H   0  0  0  0  0
    2.4673   39.6231  -17.8195 H   0  0  0  0  0
    2.5973   39.6574  -16.0438 H   0  0  0  0  0
    3.3768   38.3504  -16.9685 H   0  0  0  0  0
    2.1894   35.4584  -16.7140 H   0  0  0  0  0
    3.3761   36.4983  -15.8885 H   0  0  0  0  0
    2.3691   35.3734  -14.9443 H   0  0  0  0  0
   -1.9799   38.8757  -14.9683 H   0  0  0  0  0
   -1.3956   41.4437  -13.6949 H   0  0  0  0  0
   -3.6898   40.6157  -14.2495 H   0  0  0  0  0
   -3.4248   41.1528  -12.4547 H   0  0  0  0  0
   -3.4581   38.8184  -11.8791 H   0  0  0  0  0
   -5.4931   40.2201  -11.6284 H   0  0  0  0  0
   -5.9734   39.8510  -13.3030 H   0  0  0  0  0
   -5.9673   38.5624  -12.0739 H   0  0  0  0  0
   -4.4166   38.2405  -14.6890 H   0  0  0  0  0
   -2.9093   37.6791  -13.9248 H   0  0  0  0  0
   -4.4824   37.1055  -13.3184 H   0  0  0  0  0
   -1.3951   38.2733  -12.5482 H   0  0  0  0  0
  1  2  1  0  0  0
  1  5  1  0  0  0
  2  3  1  0  0  0
  2  7  1  0  0  0
  3  4  1  0  0  0
  4  5  1  0  0  0
  5  6  2  0  0  0
  7  8  2  0  0  0
  7  9  1  0  0  0
  9 10  1  0  0  0
 10 11  1  0  0  0
 10 13  1  0  0  0
 11 12  2  0  0  0
 11 17  1  0  0  0
 13 14  1  0  0  0
 14 15  1  0  0  0
 14 16  1  0  0  0
 17 18  1  0  0  0
 18 19  1  0  0  0
 18 21  1  0  0  0
 19 20  2  0  0  0
 19 29  1  0  0  0
 21 22  1  0  0  0
 22 23  4  0  0  0
 22 24  4  0  0  0
 23 25  4  0  0  0
 24 26  4  0  0  0
 25 27  4  0  0  0
 26 27  4  0  0  0
 27 28  1  0  0  0
 29 30  1  0  0  0
 30 31  1  0  0  0
 30 33  1  0  0  0
 31 32  2  0  0  0
 31 38  1  0  0  0
 33 34  1  0  0  0
 34 35  1  0  0  0
 35 36  1  0  0  0
 35 37  2  0  0  0
 38 39  1  0  0  0
 39 40  1  0  0  0
 39 42  1  0  0  0
 40 41  2  0  0  0
 40 46  1  0  0  0
 42 43  1  0  0  0
 43 44  2  0  0  0
 43 45  1  0  0  0
 46 47  1  0  0  0
 47 48  1  0  0  0
 47 50  1  0  0  0
 48 49  2  0  0  0
 48 55  1  0  0  0
 50 51  1  0  0  0
 51 52  1  0  0  0
 52 53  1  0  0  0
 53 54  1  0  0  0
 55 56  1  0  0  0
 55 61  1  0  0  0
 56 57  1  0  0  0
 56 59  1  0  0  0
 57 58  2  0  0  0
 57 62  1  0  0  0
 59 60  1  0  0  0
 60 61  1  0  0  0
 62 63  1  0  0  0
 63 64  1  0  0  0
 63 66  1  0  0  0
 64 65  2  0  0  0
 64 73  1  0  0  0
 66 67  1  0  0  0
 67 68  1  0  0  0
 68 69  1  0  0  0
 69 70  1  0  0  0
 70 71  1  0  0  0
 70 72  2  0  0  0
 73 74  1  0  0  0
 74 75  1  0  0  0
 74 77  1  0  0  0
 75 76  2  0  0  0
 75 84  1  0  0  0
 77 78  1  0  0  0
 78 79  1  0  0  0
 79 80  1  0  0  0
 80 81  1  0  0  0
 81 82  1  0  0  0
 81 83  2  0  0  0
 84 85  1  0  0  0
 84 90  1  0  0  0
 85 86  1  0  0  0
 85 88  1  0  0  0
 86 87  2  0  0  0
 86 91  1  0  0  0
 88 89  1  0  0  0
 89 90  1  0  0  0
 91 92  1  0  0  0
 92 93  1  0  0  0
 92 95  1  0  0  0
 93 94  2  0  0  0
 93103  1  0  0  0
 95 96  1  0  0  0
 96 97  4  0  0  0
 96 98  4  0  0  0
 97 99  4  0  0  0
 98100  4  0  0  0
 99101  4  0  0  0
100101  4  0  0  0
101102  1  0  0  0
103104  1  0  0  0
104105  1  0  0  0
104107  1  0  0  0
105106  2  0  0  0
105111  1  0  0  0
107108  1  0  0  0
107109  1  0  0  0
108110  1  0  0  0
111112  1  0  0  0
112113  1  0  0  0
112115  1  0  0  0
113114  2  0  0  0
113119  1  0  0  0
115116  1  0  0  0
116117  1  0  0  0
116118  1  0  0  0
  1120  1  0  0  0
  2121  1  0  0  0
  3122  1  0  0  0
  3123  1  0  0  0
  4124  1  0  0  0
  4125  1  0  0  0
  9126  1  0  0  0
 10127  1  0  0  0
 13128  1  0  0  0
 13129  1  0  0  0
 14130  1  0  0  0
 15131  1  0  0  0
 15132  1  0  0  0
 15133  1  0  0  0
 16134  1  0  0  0
 16135  1  0  0  0
 16136  1  0  0  0
 17137  1  0  0  0
 18138  1  0  0  0
 21139  1  0  0  0
 21140  1  0  0  0
 23141  1  0  0  0
 24142  1  0  0  0
 25143  1  0  0  0
 26144  1  0  0  0
 28145  1  0  0  0
 29146  1  0  0  0
 30147  1  0  0  0
 33148  1  0  0  0
 33149  1  0  0  0
 34150  1  0  0  0
 34151  1  0  0  0
 36152  1  0  0  0
 38153  1  0  0  0
 39154  1  0  0  0
 42155  1  0  0  0
 42156  1  0  0  0
 45157  1  0  0  0
 45158  1  0  0  0
 46159  1  0  0  0
 47160  1  0  0  0
 50161  1  0  0  0
 50162  1  0  0  0
 51163  1  0  0  0
 51164  1  0  0  0
 52165  1  0  0  0
 52166  1  0  0  0
 53167  1  0  0  0
 53168  1  0  0  0
 54169  1  0  0  0
 54170  1  0  0  0
 54171  1  0  0  0
 56172  1  0  0  0
 59173  1  0  0  0
 59174  1  0  0  0
 60175  1  0  0  0
 60176  1  0  0  0
 61177  1  0  0  0
 61178  1  0  0  0
 62179  1  0  0  0
 63180  1  0  0  0
 66181  1  0  0  0
 66182  1  0  0  0
 67183  1  0  0  0
 67184  1  0  0  0
 68185  1  0  0  0
 68186  1  0  0  0
 69187  1  0  0  0
 71188  1  0  0  0
 71189  1  0  0  0
 72190  1  0  0  0
 73191  1  0  0  0
 74192  1  0  0  0
 77193  1  0  0  0
 77194  1  0  0  0
 78195  1  0  0  0
 78196  1  0  0  0
 79197  1  0  0  0
 79198  1  0  0  0
 80199  1  0  0  0
 82200  1  0  0  0
 82201  1  0  0  0
 83202  1  0  0  0
 85203  1  0  0  0
 88204  1  0  0  0
 88205  1  0  0  0
 89206  1  0  0  0
 89207  1  0  0  0
 90208  1  0  0  0
 90209  1  0  0  0
 91210  1  0  0  0
 92211  1  0  0  0
 95212  1  0  0  0
 95213  1  0  0  0
 97214  1  0  0  0
 98215  1  0  0  0
 99216  1  0  0  0
100217  1  0  0  0
102218  1  0  0  0
103219  1  0  0  0
104220  1  0  0  0
107221  1  0  0  0
108222  1  0  0  0
108223  1  0  0  0
109224  1  0  0  0
109225  1  0  0  0
109226  1  0  0  0
110227  1  0  0  0
110228  1  0  0  0
110229  1  0  0  0
111230  1  0  0  0
112231  1  0  0  0
115232  1  0  0  0
115233  1  0  0  0
116234  1  0  0  0
117235  1  0  0  0
117236  1  0  0  0
117237  1  0  0  0
118238  1  0  0  0
118239  1  0  0  0
118240  1  0  0  0
119241  1  0  0  0
M  END
$$$$
