### 
### Created by X-TOOL on Mon Sep 10 21:13:12 2018
### 

@<TRIPOS>MOLECULE
2lyw_ligand
  241   245     1     0     0
SMALL
GAST_HUCK


@<TRIPOS>ATOM
      1 N         -28.1340   42.8140  -21.1390 N.am      1 PCA        -0.2655
      2 CA        -28.1200   43.2090  -19.7230 C.3       1 PCA         0.1329
      3 CB        -28.5890   41.9010  -19.0450 C.3       1 PCA         0.0045
      4 CG        -29.3730   41.1400  -20.1200 C.3       1 PCA         0.0416
      5 CD        -28.7800   41.6950  -21.3990 C.2       1 PCA         0.1784
      6 OE        -28.8470   41.1590  -22.5030 O.2       1 PCA        -0.3969
      7 C         -26.7570   43.7940  -19.2540 C.2       1 PCA         0.2040
      8 O         -25.8700   44.0770  -20.0690 O.2       1 PCA        -0.3944
      9 N         -26.6050   44.0070  -17.9290 N.am      1 LEU        -0.2637
     10 CA        -25.3900   44.6460  -17.3460 C.3       1 LEU         0.1312
     11 C         -24.2780   43.5740  -17.1170 C.2       1 LEU         0.2040
     12 O         -24.1630   42.9810  -16.0400 O.2       1 LEU        -0.3944
     13 CB        -25.8010   45.4440  -16.0660 C.3       1 LEU        -0.0101
     14 CG        -24.8640   46.5720  -15.5380 C.3       1 LEU        -0.0425
     15 CD1       -23.5000   46.0810  -15.0150 C.3       1 LEU        -0.0625
     16 CD2       -24.6820   47.7330  -16.5380 C.3       1 LEU        -0.0625
     17 N         -23.4670   43.3540  -18.1660 N.am      1 TYR        -0.2621
     18 CA        -22.3200   42.4060  -18.1560 C.3       1 TYR         0.1390
     19 C         -21.1320   43.0840  -18.8950 C.2       1 TYR         0.2057
     20 O         -21.2860   43.5870  -20.0150 O.2       1 TYR        -0.3942
     21 CB        -22.6680   40.9870  -18.7130 C.3       1 TYR         0.0163
     22 CG        -23.5720   40.8420  -19.9630 C.ar      1 TYR        -0.0493
     23 CD1       -23.1340   41.2310  -21.2340 C.ar      1 TYR        -0.0685
     24 CD2       -24.8560   40.2990  -19.8230 C.ar      1 TYR        -0.0685
     25 CE1       -23.9740   41.1110  -22.3380 C.ar      1 TYR        -0.0398
     26 CE2       -25.6870   40.1600  -20.9310 C.ar      1 TYR        -0.0398
     27 CZ        -25.2520   40.5820  -22.1850 C.ar      1 TYR         0.0805
     28 OH        -26.0900   40.5070  -23.2680 O.3       1 TYR        -0.3376
     29 N         -19.9420   43.0950  -18.2580 N.am      1 GLU        -0.2635
     30 CA        -18.7360   43.7880  -18.7990 C.3       1 GLU         0.1325
     31 C         -17.9200   42.8620  -19.7580 C.2       1 GLU         0.2041
     32 O         -16.8290   42.3860  -19.4270 O.2       1 GLU        -0.3944
     33 CB        -17.9470   44.3530  -17.5780 C.3       1 GLU        -0.0008
     34 CG        -16.7230   45.2580  -17.8610 C.3       1 GLU         0.0044
     35 CD        -16.9670   46.5420  -18.6610 C.2       1 GLU         0.0350
     36 OE1       -18.0740   47.1240  -18.5930 O.co2     1 GLU        -0.5690
     37 OE2       -16.0270   46.9860  -19.3560 O.co2     1 GLU        -0.5690
     38 N         -18.4740   42.6400  -20.9660 N.am      1 ASN        -0.2616
     39 CA        -17.8780   41.7580  -22.0040 C.3       1 ASN         0.1476
     40 C         -17.0850   42.6280  -23.0160 C.2       1 ASN         0.2063
     41 O         -17.6530   43.1720  -23.9700 O.2       1 ASN        -0.3942
     42 CB        -19.0130   40.9360  -22.6860 C.3       1 ASN         0.0773
     43 CG        -19.4430   39.6760  -21.9080 C.2       1 ASN         0.1780
     44 OD1       -20.2500   39.7370  -20.9820 O.2       1 ASN        -0.3970
     45 ND2       -18.9080   38.5160  -22.2580 N.am      1 ASN        -0.3007
     46 N         -15.7650   42.7460  -22.7790 N.am      1 LYS        -0.2636
     47 CA        -14.8370   43.5250  -23.6460 C.3       1 LYS         0.1312
     48 C         -13.6600   42.6040  -24.1240 C.2       1 LYS         0.2064
     49 O         -13.1920   41.7840  -23.3230 O.2       1 LYS        -0.3942
     50 CB        -14.2630   44.7680  -22.9070 C.3       1 LYS        -0.0122
     51 CG        -15.2580   45.8170  -22.3560 C.3       1 LYS        -0.0440
     52 CD        -16.2040   46.4700  -23.3930 C.3       1 LYS        -0.0124
     53 CE        -16.9890   47.7030  -22.8970 C.3       1 LYS        -0.0354
     54 NZ        -17.8740   47.4230  -21.7520 N.4       1 LYS         0.2185
     55 N         -13.1140   42.7110  -25.3740 N.am      1 PRO        -0.2498
     56 CA        -12.0230   41.8230  -25.8560 C.3       1 PRO         0.1338
     57 C         -10.6230   42.1460  -25.2410 C.2       1 PRO         0.2041
     58 O         -10.1250   43.2710  -25.3580 O.2       1 PRO        -0.3944
     59 CB        -12.1110   42.0080  -27.3810 C.3       1 PRO        -0.0104
     60 CG        -12.6720   43.4130  -27.5960 C.3       1 PRO        -0.0281
     61 CD        -13.6560   43.5820  -26.4390 C.3       1 PRO         0.0369
     62 N         -10.0300   41.1420  -24.5670 N.am      1 ARG        -0.2637
     63 CA         -8.7970   41.3060  -23.7470 C.3       1 ARG         0.1311
     64 C          -7.6970   40.3130  -24.2280 C.2       1 ARG         0.2039
     65 O          -7.8960   39.0930  -24.2490 O.2       1 ARG        -0.3944
     66 CB         -9.1130   41.0540  -22.2430 C.3       1 ARG        -0.0092
     67 CG        -10.0130   42.1150  -21.5670 C.3       1 ARG        -0.0156
     68 CD        -10.3850   41.7920  -20.1000 C.3       1 ARG         0.0627
     69 NE         -9.8490   42.7750  -19.1260 N.pl3     1 ARG        -0.2723
     70 CZ        -10.4650   43.9150  -18.7520 C.cat     1 ARG         0.2882
     71 NH1       -11.6560   44.2990  -19.2030 N.pl3     1 ARG        -0.2849
     72 NH2        -9.8480   44.7010  -17.8890 N.pl3     1 ARG        -0.2849
     73 N          -6.5090   40.8610  -24.5470 N.am      1 ARG        -0.2637
     74 CA         -5.2720   40.0700  -24.8280 C.3       1 ARG         0.1313
     75 C          -4.6230   39.4240  -23.5430 C.2       1 ARG         0.2064
     76 O          -4.9720   39.8620  -22.4420 O.2       1 ARG        -0.3942
     77 CB         -4.2800   40.9880  -25.6130 C.3       1 ARG        -0.0092
     78 CG         -3.3910   41.9960  -24.8340 C.3       1 ARG        -0.0156
     79 CD         -4.1090   43.1770  -24.1490 C.3       1 ARG         0.0627
     80 NE         -4.5480   44.1880  -25.1400 N.pl3     1 ARG        -0.2723
     81 CZ         -5.0610   45.3920  -24.8370 C.cat     1 ARG         0.2882
     82 NH1        -5.3840   45.7750  -23.6070 N.pl3     1 ARG        -0.2849
     83 NH2        -5.2360   46.2520  -25.8190 N.pl3     1 ARG        -0.2849
     84 N          -3.6670   38.4420  -23.6070 N.am      1 PRO        -0.2498
     85 CA         -3.0410   37.8280  -22.3970 C.3       1 PRO         0.1338
     86 C          -2.0120   38.7390  -21.6530 C.2       1 PRO         0.2042
     87 O          -0.7970   38.6410  -21.8540 O.2       1 PRO        -0.3944
     88 CB         -2.4450   36.5160  -22.9580 C.3       1 PRO        -0.0104
     89 CG         -2.1910   36.7950  -24.4380 C.3       1 PRO        -0.0281
     90 CD         -3.3680   37.6790  -24.8350 C.3       1 PRO         0.0369
     91 N          -2.5390   39.6030  -20.7660 N.am      1 TYR        -0.2621
     92 CA         -1.7340   40.5300  -19.9280 C.3       1 TYR         0.1390
     93 C          -1.6030   39.9490  -18.4850 C.2       1 TYR         0.2057
     94 O          -2.6130   39.6620  -17.8340 O.2       1 TYR        -0.3942
     95 CB         -2.3270   41.9690  -20.0270 C.3       1 TYR         0.0163
     96 CG         -3.7060   42.2760  -19.3950 C.ar      1 TYR        -0.0493
     97 CD1        -3.7780   42.5420  -18.0250 C.ar      1 TYR        -0.0685
     98 CD2        -4.8750   42.3140  -20.1590 C.ar      1 TYR        -0.0685
     99 CE1        -4.9990   42.8200  -17.4210 C.ar      1 TYR        -0.0398
    100 CE2        -6.1040   42.5880  -19.5550 C.ar      1 TYR        -0.0398
    101 CZ         -6.1560   42.8320  -18.1820 C.ar      1 TYR         0.0805
    102 OH         -7.3540   43.0240  -17.5500 O.3       1 TYR        -0.3376
    103 N          -0.3650   39.7490  -17.9880 N.am      1 ILE        -0.2633
    104 CA         -0.1170   38.9860  -16.7250 C.3       1 ILE         0.1335
    105 C          -0.2870   39.8920  -15.4590 C.2       1 ILE         0.2036
    106 O           0.5390   40.7640  -15.1820 O.2       1 ILE        -0.3944
    107 CB          1.2200   38.1630  -16.8070 C.3       1 ILE        -0.0037
    108 CG1         1.3240   37.1260  -15.6500 C.3       1 ILE        -0.0491
    109 CG2         2.5120   39.0120  -16.9180 C.3       1 ILE        -0.0582
    110 CD1         2.3930   36.0340  -15.8110 C.3       1 ILE        -0.0648
    111 N          -1.3700   39.6470  -14.6970 N.am      1 LEU        -0.2695
    112 CA         -1.7340   40.4290  -13.4850 C.3       1 LEU         0.0946
    113 C          -0.9970   40.0090  -12.2020 C.2       1 LEU         0.0601
    114 O          -0.4940   40.9050  -11.4890 O.co2     1 LEU        -0.5666
    115 CB         -3.2730   40.4330  -13.2590 C.3       1 LEU        -0.0156
    116 CG         -4.0040   39.1430  -12.7650 C.3       1 LEU        -0.0431
    117 CD1        -5.4670   39.4680  -12.4170 C.3       1 LEU        -0.0625
    118 CD2        -3.9490   37.9540  -13.7470 C.3       1 LEU        -0.0625
    119 OXT        -0.9580   38.8000  -11.8750 O.co2     1 LEU        -0.5666
    120 H         -27.6777   43.3649  -21.8661 H         1 PCA         0.1883
    121 H         -28.7627   44.0517  -19.4684 H         1 PCA         0.0801
    122 H         -29.2060   42.1041  -18.1697 H         1 PCA         0.0337
    123 H         -27.7451   41.3169  -18.6779 H         1 PCA         0.0337
    124 H         -30.4513   41.2822  -20.0482 H         1 PCA         0.0505
    125 H         -29.2789   40.0573  -20.0361 H         1 PCA         0.0505
    126 H         -27.3539   43.7182  -17.2995 H         1 LEU         0.1883
    127 H         -24.9526   45.3697  -18.0338 H         1 LEU         0.0800
    128 H         -25.8196   44.7012  -15.2685 H         1 LEU         0.0315
    129 H         -26.7243   45.9543  -16.3403 H         1 LEU         0.0315
    130 H         -25.4012   46.9596  -14.6724 H         1 LEU         0.0298
    131 H         -23.6573   45.3876  -14.1889 H         1 LEU         0.0232
    132 H         -22.9648   45.5752  -15.8187 H         1 LEU         0.0232
    133 H         -22.9165   46.9341  -14.6689 H         1 LEU         0.0232
    134 H         -24.2478   47.3505  -17.4617 H         1 LEU         0.0232
    135 H         -25.6516   48.1835  -16.7501 H         1 LEU         0.0232
    136 H         -24.0185   48.4822  -16.1061 H         1 LEU         0.0232
    137 H         -23.6499   43.8711  -19.0260 H         1 TYR         0.1885
    138 H         -22.0376   42.2019  -17.1232 H         1 TYR         0.0821
    139 H         -23.2347   40.5125  -17.9118 H         1 TYR         0.0453
    140 H         -21.7080   40.5743  -19.0231 H         1 TYR         0.0453
    141 H         -22.1279   41.6308  -21.3606 H         1 TYR         0.0530
    142 H         -25.2064   39.9834  -18.8403 H         1 TYR         0.0530
    143 H         -23.6307   41.4313  -23.3217 H         1 TYR         0.0525
    144 H         -26.6781   39.7209  -20.8173 H         1 TYR         0.0525
    145 H         -26.8717   41.0396  -23.1038 H         1 TYR         0.2458
    146 H         -19.8634   42.6072  -17.3657 H         1 GLU         0.1883
    147 H         -19.0017   44.6273  -19.4417 H         1 GLU         0.0801
    148 H         -17.5483   43.4798  -17.0616 H         1 GLU         0.0330
    149 H         -18.6559   44.9839  -17.0419 H         1 GLU         0.0330
    150 H         -16.0461   44.6568  -18.4680 H         1 GLU         0.0433
    151 H         -16.3647   45.5830  -16.8842 H         1 GLU         0.0433
    152 H         -19.3558   43.1053  -21.1814 H         1 ASN         0.1885
    153 H         -17.1783   41.0493  -21.5611 H         1 ASN         0.0826
    154 H         -18.6304   40.6014  -23.6502 H         1 ASN         0.0551
    155 H         -19.8855   41.5864  -22.7487 H         1 ASN         0.0551
    156 H         -19.1646   37.6646  -21.7583 H         1 ASN         0.1814
    157 H         -18.2394   38.4741  -23.0272 H         1 ASN         0.1814
    158 H         -15.3788   42.2759  -21.9603 H         1 LYS         0.1883
    159 H         -15.4043   43.8805  -24.5062 H         1 LYS         0.0800
    160 H         -13.6716   45.2979  -23.6537 H         1 LYS         0.0312
    161 H         -13.7513   44.3699  -22.0308 H         1 LYS         0.0312
    162 H         -14.6528   46.6246  -21.9442 H         1 LYS         0.0269
    163 H         -15.8981   45.2886  -21.6495 H         1 LYS         0.0269
    164 H         -16.9460   45.7151  -23.6533 H         1 LYS         0.0317
    165 H         -15.5738   46.8139  -24.2131 H         1 LYS         0.0317
    166 H         -17.6189   48.0402  -23.7201 H         1 LYS         0.0813
    167 H         -16.2589   48.4435  -22.5703 H         1 LYS         0.0813
    168 H         -18.3576   48.2790  -21.4803 H         1 LYS         0.1994
    169 H         -18.5579   46.7144  -22.0177 H         1 LYS         0.1994
    170 H         -17.3168   47.0825  -20.9684 H         1 LYS         0.1994
    171 H         -12.1410   40.7839  -25.5485 H         1 PRO         0.0802
    172 H         -12.7494   41.2512  -27.8368 H         1 PRO         0.0313
    173 H         -11.1347   41.8936  -27.8521 H         1 PRO         0.0313
    174 H         -13.1469   43.5298  -28.5701 H         1 PRO         0.0287
    175 H         -11.8954   44.1779  -27.6005 H         1 PRO         0.0287
    176 H         -13.7407   44.6204  -26.1186 H         1 PRO         0.0524
    177 H         -14.6726   43.3062  -26.7192 H         1 PRO         0.0524
    178 H         -10.4501   40.2141  -24.6212 H         1 ARG         0.1883
    179 H          -8.4328   42.3264  -23.8666 H         1 ARG         0.0800
    180 H          -8.1586   41.0747  -21.7168 H         1 ARG         0.0313
    181 H          -9.6543   40.1093  -22.1929 H         1 ARG         0.0313
    182 H         -10.9437   42.1542  -22.1330 H         1 ARG         0.0301
    183 H          -9.4545   43.0510  -21.5579 H         1 ARG         0.0301
    184 H          -9.9536   40.8208  -19.8578 H         1 ARG         0.0689
    185 H         -11.4721   41.8137  -20.0243 H         1 ARG         0.0689
    186 H          -8.9420   42.5722  -18.7057 H         1 ARG         0.2642
    187 H         -12.1592   43.7177  -19.8732 H         1 ARG         0.2615
    188 H         -12.0661   45.1748  -18.8786 H         1 ARG         0.2615
    189 H          -8.9319   44.4390  -17.5250 H         1 ARG         0.2615
    190 H         -10.2875   45.5703  -17.5863 H         1 ARG         0.2615
    191 H          -6.4495   41.8779  -24.6001 H         1 ARG         0.1883
    192 H          -5.5387   39.2072  -25.4383 H         1 ARG         0.0800
    193 H          -4.9172   41.6097  -26.2419 H         1 ARG         0.0313
    194 H          -3.5748   40.2992  -26.0781 H         1 ARG         0.0313
    195 H          -2.7256   42.4405  -25.5741 H         1 ARG         0.0301
    196 H          -2.9253   41.4243  -24.0313 H         1 ARG         0.0301
    197 H          -3.4143   43.6501  -23.4550 H         1 ARG         0.0689
    198 H          -4.9882   42.7949  -23.6302 H         1 ARG         0.0689
    199 H          -4.4533   43.9514  -26.1277 H         1 ARG         0.2642
    200 H          -5.2461   45.1386  -22.8219 H         1 ARG         0.2615
    201 H          -5.7700   46.7056  -23.4474 H         1 ARG         0.2615
    202 H          -4.9842   45.9946  -26.7733 H         1 ARG         0.2615
    203 H          -5.6233   47.1755  -25.6252 H         1 ARG         0.2615
    204 H          -3.7603   37.6606  -21.5953 H         1 PRO         0.0802
    205 H          -3.1219   35.6734  -22.8172 H         1 PRO         0.0313
    206 H          -1.5292   36.2347  -22.4380 H         1 PRO         0.0313
    207 H          -2.1313   35.8835  -25.0327 H         1 PRO         0.0287
    208 H          -1.2279   37.2736  -24.6156 H         1 PRO         0.0287
    209 H          -3.1332   38.3275  -25.6791 H         1 PRO         0.0524
    210 H          -4.2235   37.0992  -25.1814 H         1 PRO         0.0524
    211 H          -3.5535   39.6230  -20.6623 H         1 TYR         0.1885
    212 H          -0.7101   40.6193  -20.2911 H         1 TYR         0.0821
    213 H          -2.4713   42.1338  -21.0948 H         1 TYR         0.0453
    214 H          -1.6259   42.5937  -19.4735 H         1 TYR         0.0453
    215 H          -2.8685   42.5314  -17.4244 H         1 TYR         0.0530
    216 H          -4.8276   42.1288  -21.2321 H         1 TYR         0.0530
    217 H          -5.0455   43.0278  -16.3520 H         1 TYR         0.0525
    218 H          -7.0159   42.6111  -20.1516 H         1 TYR         0.0525
    219 H          -7.2002   43.1774  -16.6148 H         1 TYR         0.2458
    220 H           0.4336   40.1331  -18.4931 H         1 ILE         0.1883
    221 H          -0.8907   38.2273  -16.6070 H         1 ILE         0.0803
    222 H           1.1545   37.6313  -17.7562 H         1 ILE         0.0345
    223 H           0.3645   36.6099  -15.6170 H         1 ILE         0.0267
    224 H           1.5980   37.6909  -14.7590 H         1 ILE         0.0267
    225 H           2.4673   39.6231  -17.8195 H         1 ILE         0.0235
    226 H           2.5973   39.6574  -16.0438 H         1 ILE         0.0235
    227 H           3.3768   38.3504  -16.9685 H         1 ILE         0.0235
    228 H           2.1894   35.4584  -16.7140 H         1 ILE         0.0230
    229 H           3.3761   36.4983  -15.8885 H         1 ILE         0.0230
    230 H           2.3691   35.3734  -14.9443 H         1 ILE         0.0230
    231 H          -1.9799   38.8757  -14.9683 H         1 LEU         0.1875
    232 H          -1.3956   41.4437  -13.6949 H         1 LEU         0.0726
    233 H          -3.6898   40.6157  -14.2495 H         1 LEU         0.0308
    234 H          -3.4248   41.1528  -12.4547 H         1 LEU         0.0308
    235 H          -3.4581   38.8184  -11.8791 H         1 LEU         0.0297
    236 H          -5.4931   40.2201  -11.6284 H         1 LEU         0.0232
    237 H          -5.9734   39.8510  -13.3030 H         1 LEU         0.0232
    238 H          -5.9673   38.5624  -12.0739 H         1 LEU         0.0232
    239 H          -4.4166   38.2405  -14.6890 H         1 LEU         0.0232
    240 H          -2.9093   37.6791  -13.9248 H         1 LEU         0.0232
    241 H          -4.4824   37.1055  -13.3184 H         1 LEU         0.0232
@<TRIPOS>BOND
     1    1    2 1  
     2    1    5 am 
     3    2    3 1  
     4    2    7 1  
     5    3    4 1  
     6    4    5 1  
     7    5    6 2  
     8    7    8 2  
     9    7    9 am 
    10    9   10 1  
    11   10   11 1  
    12   10   13 1  
    13   11   12 2  
    14   11   17 am 
    15   13   14 1  
    16   14   15 1  
    17   14   16 1  
    18   17   18 1  
    19   18   19 1  
    20   18   21 1  
    21   19   20 2  
    22   19   29 am 
    23   21   22 1  
    24   22   23 ar 
    25   22   24 ar 
    26   23   25 ar 
    27   24   26 ar 
    28   25   27 ar 
    29   26   27 ar 
    30   27   28 1  
    31   29   30 1  
    32   30   31 1  
    33   30   33 1  
    34   31   32 2  
    35   31   38 am 
    36   33   34 1  
    37   34   35 1  
    38   35   36 ar 
    39   35   37 ar 
    40   38   39 1  
    41   39   40 1  
    42   39   42 1  
    43   40   41 2  
    44   40   46 am 
    45   42   43 1  
    46   43   44 2  
    47   43   45 am 
    48   46   47 1  
    49   47   48 1  
    50   47   50 1  
    51   48   49 2  
    52   48   55 am 
    53   50   51 1  
    54   51   52 1  
    55   52   53 1  
    56   53   54 1  
    57   55   56 1  
    58   55   61 1  
    59   56   57 1  
    60   56   59 1  
    61   57   58 2  
    62   57   62 am 
    63   59   60 1  
    64   60   61 1  
    65   62   63 1  
    66   63   64 1  
    67   63   66 1  
    68   64   65 2  
    69   64   73 am 
    70   66   67 1  
    71   67   68 1  
    72   68   69 1  
    73   69   70 ar 
    74   70   71 ar 
    75   70   72 ar 
    76   73   74 1  
    77   74   75 1  
    78   74   77 1  
    79   75   76 2  
    80   75   84 am 
    81   77   78 1  
    82   78   79 1  
    83   79   80 1  
    84   80   81 ar 
    85   81   82 ar 
    86   81   83 ar 
    87   84   85 1  
    88   84   90 1  
    89   85   86 1  
    90   85   88 1  
    91   86   87 2  
    92   86   91 am 
    93   88   89 1  
    94   89   90 1  
    95   91   92 1  
    96   92   93 1  
    97   92   95 1  
    98   93   94 2  
    99   93  103 am 
   100   95   96 1  
   101   96   97 ar 
   102   96   98 ar 
   103   97   99 ar 
   104   98  100 ar 
   105   99  101 ar 
   106  100  101 ar 
   107  101  102 1  
   108  103  104 1  
   109  104  105 1  
   110  104  107 1  
   111  105  106 2  
   112  105  111 am 
   113  107  108 1  
   114  107  109 1  
   115  108  110 1  
   116  111  112 1  
   117  112  113 1  
   118  112  115 1  
   119  113  114 ar 
   120  113  119 ar 
   121  115  116 1  
   122  116  117 1  
   123  116  118 1  
   124    1  120 1  
   125    2  121 1  
   126    3  122 1  
   127    3  123 1  
   128    4  124 1  
   129    4  125 1  
   130    9  126 1  
   131   10  127 1  
   132   13  128 1  
   133   13  129 1  
   134   14  130 1  
   135   15  131 1  
   136   15  132 1  
   137   15  133 1  
   138   16  134 1  
   139   16  135 1  
   140   16  136 1  
   141   17  137 1  
   142   18  138 1  
   143   21  139 1  
   144   21  140 1  
   145   23  141 1  
   146   24  142 1  
   147   25  143 1  
   148   26  144 1  
   149   28  145 1  
   150   29  146 1  
   151   30  147 1  
   152   33  148 1  
   153   33  149 1  
   154   34  150 1  
   155   34  151 1  
   156   38  152 1  
   157   39  153 1  
   158   42  154 1  
   159   42  155 1  
   160   45  156 1  
   161   45  157 1  
   162   46  158 1  
   163   47  159 1  
   164   50  160 1  
   165   50  161 1  
   166   51  162 1  
   167   51  163 1  
   168   52  164 1  
   169   52  165 1  
   170   53  166 1  
   171   53  167 1  
   172   54  168 1  
   173   54  169 1  
   174   54  170 1  
   175   56  171 1  
   176   59  172 1  
   177   59  173 1  
   178   60  174 1  
   179   60  175 1  
   180   61  176 1  
   181   61  177 1  
   182   62  178 1  
   183   63  179 1  
   184   66  180 1  
   185   66  181 1  
   186   67  182 1  
   187   67  183 1  
   188   68  184 1  
   189   68  185 1  
   190   69  186 1  
   191   71  187 1  
   192   71  188 1  
   193   72  189 1  
   194   72  190 1  
   195   73  191 1  
   196   74  192 1  
   197   77  193 1  
   198   77  194 1  
   199   78  195 1  
   200   78  196 1  
   201   79  197 1  
   202   79  198 1  
   203   80  199 1  
   204   82  200 1  
   205   82  201 1  
   206   83  202 1  
   207   83  203 1  
   208   85  204 1  
   209   88  205 1  
   210   88  206 1  
   211   89  207 1  
   212   89  208 1  
   213   90  209 1  
   214   90  210 1  
   215   91  211 1  
   216   92  212 1  
   217   95  213 1  
   218   95  214 1  
   219   97  215 1  
   220   98  216 1  
   221   99  217 1  
   222  100  218 1  
   223  102  219 1  
   224  103  220 1  
   225  104  221 1  
   226  107  222 1  
   227  108  223 1  
   228  108  224 1  
   229  109  225 1  
   230  109  226 1  
   231  109  227 1  
   232  110  228 1  
   233  110  229 1  
   234  110  230 1  
   235  111  231 1  
   236  112  232 1  
   237  115  233 1  
   238  115  234 1  
   239  116  235 1  
   240  117  236 1  
   241  117  237 1  
   242  117  238 1  
   243  118  239 1  
   244  118  240 1  
   245  118  241 1  
@<TRIPOS>SUBSTRUCTURE
     1 PCA         1

