2rkf_ligand
  -I-interpret- 

 94 97  0  0  0  0  0  0  0  0999 V2000
  -17.1830    4.8640   -7.3260 C   0  0  0  0  0
  -16.5540    2.6760   -6.1360 C   0  0  0  0  0
  -17.9450    2.7180   -5.6600 N   0  0  0  0  0
  -18.8120    3.6970   -5.9170 C   0  0  0  0  0
  -18.3440    4.8060   -6.4570 N   0  0  0  0  0
  -18.5930   -3.3210   -0.0580 C   0  0  0  0  0
  -19.2050   -4.4150    0.5570 C   0  0  0  0  0
  -18.4470   -5.4820    1.0440 C   0  0  0  0  0
  -17.0560   -5.4630    0.9210 C   0  0  0  0  0
  -16.4400   -4.3710    0.2990 C   0  0  0  0  0
  -17.2030   -3.3080   -0.1870 C   0  0  0  0  0
  -19.9970    3.5830   -5.7040 O   0  0  0  0  0
  -18.3980    1.5650   -4.8670 C   0  0  0  0  0
  -17.9180    1.6610   -3.4350 C   0  0  0  0  0
  -18.8130    2.1500   -2.5770 N   0  0  0  0  0
  -18.5100    2.3450   -1.1570 C   0  0  0  0  0
  -18.0390    0.2530   -5.5990 C   0  0  0  0  0
  -18.4320   -0.9790   -4.7940 C   0  0  0  0  0
  -18.6980    0.1640   -6.9740 C   0  0  0  0  0
  -16.7890    1.3300   -3.0980 O   0  0  0  0  0
  -15.5250    5.5050   -2.4300 C   0  0  0  0  0
  -16.0990    6.3700   -3.3590 C   0  0  0  0  0
  -17.4830    6.4180   -3.4780 C   0  0  0  0  0
  -18.2820    5.6040   -2.6710 C   0  0  0  0  0
  -17.7020    4.7240   -1.7480 C   0  0  0  0  0
  -16.3150    4.6840   -1.6270 C   0  0  0  0  0
  -18.5840    3.8520   -0.8770 C   0  0  0  0  0
  -19.6500    1.7170   -0.3580 C   0  0  0  0  0
  -19.9500    0.2660   -0.7280 C   0  0  0  0  0
  -18.9120   -0.7750   -0.2910 C   0  0  0  0  0
  -18.8090   -0.6950    1.1650 N   0  0  0  0  0
  -17.6820   -0.2900    1.7620 C   0  0  0  0  0
  -17.6530   -0.2420    3.2640 C   0  0  0  0  0
  -18.7670   -0.9080    3.8690 O   0  0  0  0  0
  -18.5830   -1.5070    5.0930 C   0  0  0  0  0
  -21.1780   -0.0690   -0.0950 O   0  0  0  0  0
  -19.4580   -2.1780   -0.5800 C   0  0  0  0  0
  -16.6800    0.0410    1.1530 O   0  0  0  0  0
  -18.4590   -0.7380    6.2550 C   0  0  0  0  0
  -18.2590   -1.3580    7.4900 C   0  0  0  0  0
  -18.1820   -2.7440    7.5680 C   0  0  0  0  0
  -18.2980   -3.5140    6.4140 C   0  0  0  0  0
  -18.4940   -2.8980    5.1810 C   0  0  0  0  0
  -18.6140   -3.7620    3.9600 C   0  0  0  0  0
  -18.5460    0.7650    6.2180 C   0  0  0  0  0
  -16.1210    4.0900   -6.5550 C   0  0  0  0  0
  -16.8768    5.8868   -7.5456 H   0  0  0  0  0
  -17.3770    4.4385   -8.3106 H   0  0  0  0  0
  -16.4794    2.0023   -6.9896 H   0  0  0  0  0
  -15.9048    2.3158   -5.3380 H   0  0  0  0  0
  -18.8294    5.6790   -6.2504 H   0  0  0  0  0
  -20.2901   -4.4365    0.6584 H   0  0  0  0  0
  -18.9408   -6.3292    1.5199 H   0  0  0  0  0
  -16.4571   -6.2889    1.3049 H   0  0  0  0  0
  -15.3553   -4.3505    0.1932 H   0  0  0  0  0
  -16.7111   -2.4635   -0.6697 H   0  0  0  0  0
  -19.4847    1.5676   -4.7824 H   0  0  0  0  0
  -19.7410    2.3970   -2.9209 H   0  0  0  0  0
  -17.5391    1.9206   -0.9014 H   0  0  0  0  0
  -16.9558    0.2738   -5.7190 H   0  0  0  0  0
  -17.9085   -0.9690   -3.8380 H   0  0  0  0  0
  -19.5081   -0.9701   -4.6206 H   0  0  0  0  0
  -18.1597   -1.8765   -5.3494 H   0  0  0  0  0
  -19.7812    0.2044   -6.8596 H   0  0  0  0  0
  -18.3649    0.9994   -7.5899 H   0  0  0  0  0
  -18.4165   -0.7751   -7.4503 H   0  0  0  0  0
  -14.4402    5.4696   -2.3294 H   0  0  0  0  0
  -15.4698    7.0021   -3.9856 H   0  0  0  0  0
  -17.9450    7.0905   -4.2008 H   0  0  0  0  0
  -19.3672    5.6541   -2.7604 H   0  0  0  0  0
  -15.8485    4.0124   -0.9062 H   0  0  0  0  0
  -18.2429    3.9934    0.1485 H   0  0  0  0  0
  -19.6120    4.1539   -1.0772 H   0  0  0  0  0
  -20.5488    2.2954   -0.5717 H   0  0  0  0  0
  -19.3507    1.7260    0.6901 H   0  0  0  0  0
  -19.9606    0.2260   -1.8172 H   0  0  0  0  0
  -17.9670   -0.5966   -0.8040 H   0  0  0  0  0
  -19.6127   -0.9532    1.7376 H   0  0  0  0  0
  -17.6914    0.8056    3.5627 H   0  0  0  0  0
  -16.7456   -0.7478    3.5941 H   0  0  0  0  0
  -21.4059   -0.9783   -0.3021 H   0  0  0  0  0
  -20.4207   -2.2533   -0.0745 H   0  0  0  0  0
  -19.5015   -2.2836   -1.6640 H   0  0  0  0  0
  -18.1632   -0.7553    8.3931 H   0  0  0  0  0
  -18.0308   -3.2279    8.5329 H   0  0  0  0  0
  -18.2353   -4.6004    6.4759 H   0  0  0  0  0
  -19.5868   -3.5998    3.4959 H   0  0  0  0  0
  -17.8253   -3.5024    3.2538 H   0  0  0  0  0
  -18.5167   -4.8092    4.2465 H   0  0  0  0  0
  -17.7584    1.1575    5.5747 H   0  0  0  0  0
  -19.5188    1.0618    5.8259 H   0  0  0  0  0
  -18.4235    1.1597    7.2266 H   0  0  0  0  0
  -15.9155    4.6479   -5.6415 H   0  0  0  0  0
  -15.2597    3.9811   -7.2141 H   0  0  0  0  0
  5  1  1  0  0  0
 46  1  1  0  0  0
  3  2  1  0  0  0
  2 46  1  0  0  0
  3  4  1  0  0  0
 13  3  1  0  0  0
  4  5  1  0  0  0
  4 12  2  0  0  0
  6  7  4  0  0  0
  6 11  4  0  0  0
 37  6  1  0  0  0
  7  8  4  0  0  0
  8  9  4  0  0  0
 10  9  4  0  0  0
 11 10  4  0  0  0
 14 13  1  0  0  0
 13 17  1  0  0  0
 15 14  1  0  0  0
 14 20  2  0  0  0
 16 15  1  0  0  0
 16 27  1  0  0  0
 28 16  1  0  0  0
 17 18  1  0  0  0
 17 19  1  0  0  0
 21 22  4  0  0  0
 26 21  4  0  0  0
 23 22  4  0  0  0
 24 23  4  0  0  0
 25 24  4  0  0  0
 25 26  4  0  0  0
 27 25  1  0  0  0
 29 28  1  0  0  0
 30 29  1  0  0  0
 29 36  1  0  0  0
 30 31  1  0  0  0
 30 37  1  0  0  0
 31 32  1  0  0  0
 32 33  1  0  0  0
 32 38  2  0  0  0
 33 34  1  0  0  0
 34 35  1  0  0  0
 35 39  4  0  0  0
 35 43  4  0  0  0
 39 40  4  0  0  0
 39 45  1  0  0  0
 40 41  4  0  0  0
 41 42  4  0  0  0
 42 43  4  0  0  0
 43 44  1  0  0  0
  1 47  1  0  0  0
  1 48  1  0  0  0
  2 49  1  0  0  0
  2 50  1  0  0  0
  5 51  1  0  0  0
  7 52  1  0  0  0
  8 53  1  0  0  0
  9 54  1  0  0  0
 10 55  1  0  0  0
 11 56  1  0  0  0
 13 57  1  0  0  0
 15 58  1  0  0  0
 16 59  1  0  0  0
 17 60  1  0  0  0
 18 61  1  0  0  0
 18 62  1  0  0  0
 18 63  1  0  0  0
 19 64  1  0  0  0
 19 65  1  0  0  0
 19 66  1  0  0  0
 21 67  1  0  0  0
 22 68  1  0  0  0
 23 69  1  0  0  0
 24 70  1  0  0  0
 26 71  1  0  0  0
 27 72  1  0  0  0
 27 73  1  0  0  0
 28 74  1  0  0  0
 28 75  1  0  0  0
 29 76  1  0  0  0
 30 77  1  0  0  0
 31 78  1  0  0  0
 33 79  1  0  0  0
 33 80  1  0  0  0
 36 81  1  0  0  0
 37 82  1  0  0  0
 37 83  1  0  0  0
 40 84  1  0  0  0
 41 85  1  0  0  0
 42 86  1  0  0  0
 44 87  1  0  0  0
 44 88  1  0  0  0
 44 89  1  0  0  0
 45 90  1  0  0  0
 45 91  1  0  0  0
 45 92  1  0  0  0
 46 93  1  0  0  0
 46 94  1  0  0  0
M  END
$$$$
