5xyy_ligand
  -I-interpret- 

 33 35  0  0  0  0  0  0  0  0999 V2000
    5.0990  -32.4240  -32.6800 Cl  0  0  0  0  0
    5.3830  -31.5690  -31.3820 C   0  0  0  0  0
    6.6660  -31.0480  -31.3060 C   0  0  0  0  0
    6.9730  -30.3160  -30.1970 C   0  0  0  0  0
    6.0730  -30.0790  -29.1640 C   0  0  0  0  0
    4.7460  -30.6060  -29.2660 C   0  0  0  0  0
    3.8170  -30.4120  -28.2690 F   0  0  0  0  0
    4.4030  -31.3800  -30.3970 C   0  0  0  0  0
    3.0870  -31.9040  -30.5180 C   0  0  0  0  0
    3.0230  -33.3460  -30.2360 N   0  0  0  0  0
    1.8360  -33.9840  -30.1850 C   0  0  0  0  0
    0.6420  -33.4220  -30.4790 N   0  0  0  0  0
    1.6530  -35.2760  -29.8690 N   0  0  0  0  0
    0.3530  -35.5020  -29.9600 N   0  0  0  0  0
   -0.2730  -34.3970  -30.3130 C   0  0  0  0  0
   -1.6370  -34.2890  -30.4600 C   0  0  0  0  0
   -2.2090  -33.0170  -30.2330 C   0  0  0  0  0
   -3.5900  -32.8530  -30.3620 C   0  0  0  0  0
   -4.0600  -31.5980  -30.1540 O   0  0  0  0  0
   -4.3770  -33.9840  -30.6370 C   0  0  0  0  0
   -3.8200  -35.2480  -30.8470 C   0  0  0  0  0
   -2.4310  -35.3810  -30.7420 C   0  0  0  0  0
    7.3965  -31.2161  -32.0974 H   0  0  0  0  0
    7.9753  -29.8952  -30.1163 H   0  0  0  0  0
    6.3733  -29.5009  -28.2901 H   0  0  0  0  0
    2.7577  -31.7487  -31.5454 H   0  0  0  0  0
    2.4547  -31.3924  -29.7924 H   0  0  0  0  0
    3.8846  -33.8685  -30.0775 H   0  0  0  0  0
   -1.5780  -32.1713  -29.9596 H   0  0  0  0  0
   -5.0135  -31.5920  -30.2656 H   0  0  0  0  0
   -5.4599  -33.8713  -30.6883 H   0  0  0  0  0
   -4.4491  -36.1055  -31.0857 H   0  0  0  0  0
   -1.9712  -36.3589  -30.8847 H   0  0  0  0  0
  1  2  1  0  0  0
  2  3  4  0  0  0
  2  8  4  0  0  0
  3  4  4  0  0  0
  4  5  4  0  0  0
  5  6  4  0  0  0
  6  7  1  0  0  0
  6  8  4  0  0  0
  8  9  1  0  0  0
  9 10  1  0  0  0
 10 11  1  0  0  0
 11 12  4  0  0  0
 11 13  4  0  0  0
 12 15  4  0  0  0
 13 14  4  0  0  0
 14 15  4  0  0  0
 15 16  1  0  0  0
 16 17  4  0  0  0
 16 22  4  0  0  0
 17 18  4  0  0  0
 18 19  1  0  0  0
 18 20  4  0  0  0
 20 21  4  0  0  0
 21 22  4  0  0  0
  3 23  1  0  0  0
  4 24  1  0  0  0
  5 25  1  0  0  0
  9 26  1  0  0  0
  9 27  1  0  0  0
 10 28  1  0  0  0
 17 29  1  0  0  0
 19 30  1  0  0  0
 20 31  1  0  0  0
 21 32  1  0  0  0
 22 33  1  0  0  0
M  END
$$$$
