6uvp_ligand
  -I-interpret- 

 40 43  0  0  0  0  0  0  0  0999 V2000
   27.0100   55.7470   86.3960 C   0  0  0  0  0
   22.4840   55.0190   89.8630 C   0  0  0  0  0
   30.4880   55.6480   87.8200 C   0  0  0  0  0
   28.2310   55.3140   87.1350 C   0  0  0  0  0
   30.3630   54.5250   88.6370 C   0  0  0  0  0
   29.1640   53.8600   88.6640 C   0  0  0  0  0
   29.3990   56.0750   87.0610 C   0  0  0  0  0
   31.3200   54.0380   89.4060 F   0  0  0  0  0
   28.1120   54.2500   87.9350 N   0  0  0  0  0
   27.1360   56.3330   85.3460 O   0  0  0  0  0
   25.7880   55.4700   87.0270 N   0  0  0  0  0
   24.4800   55.8790   86.5870 C   0  0  0  0  0
   23.7400   55.6070   85.3260 C   0  0  0  0  0
   23.2700   55.0300   86.6320 C   0  0  0  0  0
   21.9750   55.3540   87.3910 C   0  0  0  0  0
   22.1380   54.6210   88.6710 N   0  0  0  0  0
   20.7560   54.7460   86.6950 C   0  0  0  0  0
   19.6140   55.3600   87.2430 O   0  0  0  0  0
   20.0060   56.7250   87.1910 C   0  0  0  0  0
   21.4640   56.8000   87.6180 C   0  0  0  0  0
   21.5660   57.4800   88.9610 C   0  0  0  0  0
   22.5560   56.7110   90.2830 S   0  0  0  0  0
   22.7980   54.1410   90.8030 N   0  0  0  0  0
   31.4328   56.1897   87.7748 H   0  0  0  0  0
   29.0644   52.9821   89.3023 H   0  0  0  0  0
   29.4573   56.9660   86.4358 H   0  0  0  0  0
   25.8309   54.9222   87.8863 H   0  0  0  0  0
   24.8409   56.8020   87.0407 H   0  0  0  0  0
   23.9430   55.2792   84.3065 H   0  0  0  0  0
   23.3355   56.1538   84.4743 H   0  0  0  0  0
   23.0232   54.0268   86.9796 H   0  0  0  0  0
   21.9435   53.6218   88.6060 H   0  0  0  0  0
   20.7237   53.6676   86.8504 H   0  0  0  0  0
   20.8040   54.9157   85.6194 H   0  0  0  0  0
   19.3836   57.3254   87.8546 H   0  0  0  0  0
   19.8843   57.1179   86.1816 H   0  0  0  0  0
   22.1431   57.4428   87.0579 H   0  0  0  0  0
   20.5464   57.4855   89.3465 H   0  0  0  0  0
   22.0669   58.4259   88.7548 H   0  0  0  0  0
   23.0693   54.4634   91.7319 H   0  0  0  0  0
  1  4  1  0  0  0
  1 10  2  0  0  0
 11  1  1  0  0  0
 16  2  1  0  0  0
  2 22  1  0  0  0
  2 23  2  0  0  0
  3  5  4  0  0  0
  7  3  4  0  0  0
  4  7  4  0  0  0
  4  9  4  0  0  0
  6  5  4  0  0  0
  5  8  1  0  0  0
  9  6  4  0  0  0
 12 11  1  0  0  0
 13 12  1  0  0  0
 14 12  1  0  0  0
 14 13  1  0  0  0
 15 14  1  0  0  0
 15 16  1  0  0  0
 15 17  1  0  0  0
 15 20  1  0  0  0
 17 18  1  0  0  0
 18 19  1  0  0  0
 19 20  1  0  0  0
 20 21  1  0  0  0
 21 22  1  0  0  0
  3 24  1  0  0  0
  6 25  1  0  0  0
  7 26  1  0  0  0
 11 27  1  0  0  0
 12 28  1  0  0  0
 13 29  1  0  0  0
 13 30  1  0  0  0
 14 31  1  0  0  0
 16 32  1  0  0  0
 17 33  1  0  0  0
 17 34  1  0  0  0
 19 35  1  0  0  0
 19 36  1  0  0  0
 20 37  1  0  0  0
 21 38  1  0  0  0
 21 39  1  0  0  0
 23 40  1  0  0  0
M  END
$$$$
