6gla_ligand
  -I-interpret- 

 45 49  0  0  0  0  0  0  0  0999 V2000
   -1.6750   22.6170   -2.7390 C   0  0  0  0  0
    2.1360   21.9460   -4.3610 C   0  0  0  0  0
    1.7370   20.9010   -5.1210 C   0  0  0  0  0
    0.3910   20.7050   -4.9740 N   0  0  0  0  0
    0.3950   24.9280   -1.1130 C   0  0  0  0  0
    0.5280   26.0110   -0.1660 C   0  0  0  0  0
    1.3100   24.3380   -1.9600 N   0  0  0  0  0
   -0.3280   27.0190    0.1160 C   0  0  0  0  0
    0.2220   27.7460    1.1830 C   0  0  0  0  0
    1.3860   27.1540    1.5120 C   0  0  0  0  0
    2.2980   27.4910    2.5730 C   0  0  0  0  0
   -0.8170   24.4420   -1.2480 N   0  0  0  0  0
    2.0800   28.4700    3.4500 C   0  0  0  0  0
    3.0040   28.7070    4.5070 C   0  0  0  0  0
    2.7560   24.5760   -2.2190 C   0  0  0  0  0
    3.7450   28.8740    5.3620 N   0  0  0  0  0
    1.6060   26.0700    0.6860 O   0  0  0  0  0
   -0.7030   23.4700   -2.2370 C   0  0  0  0  0
   -1.4120   21.6780   -3.6600 N   0  0  0  0  0
    0.6010   23.3780   -2.7000 C   0  0  0  0  0
    0.9630   22.4270   -3.6750 C   0  0  0  0  0
   -0.1320   21.6100   -4.0940 C   0  0  0  0  0
    3.6950   23.8940   -1.2370 C   0  0  0  0  0
    5.1300   24.4090   -1.3940 C   0  0  0  0  0
    5.3900   24.9070   -2.8170 C   0  0  0  0  0
    4.4930   26.0990   -3.1690 C   0  0  0  0  0
    3.1190   26.0150   -2.5030 C   0  0  0  0  0
   -2.6958   22.7139   -2.3693 H   0  0  0  0  0
    3.1468   22.3463   -4.2825 H   0  0  0  0  0
    2.3908   20.3035   -5.7564 H   0  0  0  0  0
   -1.2700   27.2280   -0.3911 H   0  0  0  0  0
   -0.2122   28.6261    1.6573 H   0  0  0  0  0
    3.2179   26.9134    2.6642 H   0  0  0  0  0
    1.1900   29.0925    3.3578 H   0  0  0  0  0
    2.9262   24.0615   -3.1648 H   0  0  0  0  0
    3.6864   22.8221   -1.4344 H   0  0  0  0  0
    3.3563   24.1107   -0.2239 H   0  0  0  0  0
    5.8174   23.5900   -1.1822 H   0  0  0  0  0
    5.2779   25.2394   -0.7036 H   0  0  0  0  0
    5.1731   24.0953   -3.5114 H   0  0  0  0  0
    6.4300   25.2258   -2.8861 H   0  0  0  0  0
    4.3438   26.1002   -4.2487 H   0  0  0  0  0
    4.9837   27.0054   -2.8143 H   0  0  0  0  0
    3.1469   26.5655   -1.5627 H   0  0  0  0  0
    2.3736   26.4427   -3.1735 H   0  0  0  0  0
  1 18  4  0  0  0
 19  1  4  0  0  0
  3  2  4  0  0  0
  2 21  4  0  0  0
  4  3  4  0  0  0
 22  4  4  0  0  0
  5  6  1  0  0  0
  7  5  4  0  0  0
 12  5  4  0  0  0
  6  8  4  0  0  0
  6 17  4  0  0  0
  7 15  1  0  0  0
 20  7  4  0  0  0
  8  9  4  0  0  0
 10  9  4  0  0  0
 10 11  1  0  0  0
 17 10  4  0  0  0
 11 13  2  0  0  0
 18 12  4  0  0  0
 13 14  1  0  0  0
 14 16  3  0  0  0
 15 23  1  0  0  0
 15 27  1  0  0  0
 18 20  4  0  0  0
 19 22  4  0  0  0
 20 21  4  0  0  0
 21 22  4  0  0  0
 23 24  1  0  0  0
 24 25  1  0  0  0
 25 26  1  0  0  0
 26 27  1  0  0  0
  1 28  1  0  0  0
  2 29  1  0  0  0
  3 30  1  0  0  0
  8 31  1  0  0  0
  9 32  1  0  0  0
 11 33  1  0  0  0
 13 34  1  0  0  0
 15 35  1  0  0  0
 23 36  1  0  0  0
 23 37  1  0  0  0
 24 38  1  0  0  0
 24 39  1  0  0  0
 25 40  1  0  0  0
 25 41  1  0  0  0
 26 42  1  0  0  0
 26 43  1  0  0  0
 27 44  1  0  0  0
 27 45  1  0  0  0
M  END
$$$$
