1pau_ligand
  -I-interpret- 

 67 66  0  0  0  0  0  0  0  0999 V2000
   41.7980   98.3890   26.8380 C   0  0  0  0  0
   40.5880   98.4010   26.6070 O   0  0  0  0  0
   42.3080   98.5960   28.2510 C   0  0  0  0  0
   42.7160   98.1890   25.9010 N   0  0  0  0  0
   42.3630   97.9900   24.5040 C   0  0  0  0  0
   41.8710   96.5740   24.2070 C   0  0  0  0  0
   42.4600   95.5900   24.6730 O   0  0  0  0  0
   43.5540   98.3380   23.6060 C   0  0  0  0  0
   43.9000   99.8220   23.6320 C   0  0  0  0  0
   43.0170  100.6550   23.9260 O   0  0  0  0  0
   45.0610  100.1610   23.3410 O   0  0  0  0  0
   40.8040   96.4900   23.4150 N   0  0  0  0  0
   40.1920   95.2280   23.0130 C   0  0  0  0  0
   39.7660   95.3490   21.5530 C   0  0  0  0  0
   39.6060   96.4590   21.0530 O   0  0  0  0  0
   38.9780   94.9250   23.8920 C   0  0  0  0  0
   39.3260   94.6850   25.3530 C   0  0  0  0  0
   38.1240   94.3360   26.2100 C   0  0  0  0  0
   37.2110   93.6300   25.7320 O   0  0  0  0  0
   38.1000   94.7580   27.3810 O   0  0  0  0  0
   39.5800   94.2180   20.8750 N   0  0  0  0  0
   39.1860   94.2150   19.4640 C   0  0  0  0  0
   37.7060   93.8930   19.2350 C   0  0  0  0  0
   37.0550   93.3210   20.1050 O   0  0  0  0  0
   40.0460   93.2320   18.6560 C   0  0  0  0  0
   41.4810   93.7320   18.5650 C   0  0  0  0  0
   40.0030   91.8520   19.2950 C   0  0  0  0  0
   37.1930   94.2630   18.0610 N   0  0  0  0  0
   35.7910   94.0450   17.6710 C   0  0  0  0  0
   35.6730   93.2430   16.3870 C   0  0  0  0  0
   35.3140   91.8900   16.7020 O   0  0  0  0  0
   35.0860   95.3760   17.4430 C   0  0  0  0  0
   34.3850   95.8750   18.6600 C   0  0  0  0  0
   34.0670   95.0600   19.5500 O   0  0  0  0  0
   34.1280   97.0890   18.7140 O   0  0  0  0  0
   41.9818   99.5705   28.6145 H   0  0  0  0  0
   41.9104   97.8138   28.8977 H   0  0  0  0  0
   43.3971   98.5520   28.2529 H   0  0  0  0  0
   43.7001   98.1743   26.1688 H   0  0  0  0  0
   41.5307   98.6605   24.2897 H   0  0  0  0  0
   43.2879   98.0753   22.5821 H   0  0  0  0  0
   44.4202   97.7870   23.9722 H   0  0  0  0  0
   42.1961  100.1955   24.1171 H   0  0  0  0  0
   40.3913   97.3566   23.0699 H   0  0  0  0  0
   40.9062   94.4128   23.1295 H   0  0  0  0  0
   38.5199   94.0120   23.5117 H   0  0  0  0  0
   38.3213   95.7941   23.8518 H   0  0  0  0  0
   39.7516   95.6087   25.7451 H   0  0  0  0  0
   40.0135   93.8401   25.3922 H   0  0  0  0  0
   37.4204   93.4119   24.8208 H   0  0  0  0  0
   39.7160   93.3270   21.3525 H   0  0  0  0  0
   39.3511   95.2354   19.1181 H   0  0  0  0  0
   39.6421   93.1620   17.6460 H   0  0  0  0  0
   41.4951   94.7043   18.0725 H   0  0  0  0  0
   41.8961   93.8255   19.5685 H   0  0  0  0  0
   42.0756   93.0229   17.9891 H   0  0  0  0  0
   40.3883   91.9122   20.3129 H   0  0  0  0  0
   38.9735   91.4944   19.3154 H   0  0  0  0  0
   40.6165   91.1642   18.7130 H   0  0  0  0  0
   37.8098   94.7251   17.3929 H   0  0  0  0  0
   35.3292   93.4920   18.4889 H   0  0  0  0  0
   36.6282   93.2535   15.8620 H   0  0  0  0  0
   34.9058   93.6847   15.7510 H   0  0  0  0  0
   35.2393   91.3827   15.8904 H   0  0  0  0  0
   34.3379   95.2281   16.6642 H   0  0  0  0  0
   35.8423   96.1114   17.1686 H   0  0  0  0  0
   34.3647   94.1823   19.2997 H   0  0  0  0  0
  1  2  2  0  0  0
  1  3  1  0  0  0
  1  4  1  0  0  0
  4  5  1  0  0  0
  5  6  1  0  0  0
  5  8  1  0  0  0
  6  7  2  0  0  0
  6 12  1  0  0  0
  8  9  1  0  0  0
  9 10  1  0  0  0
  9 11  2  0  0  0
 12 13  1  0  0  0
 13 14  1  0  0  0
 13 16  1  0  0  0
 14 15  2  0  0  0
 14 21  1  0  0  0
 16 17  1  0  0  0
 17 18  1  0  0  0
 18 19  1  0  0  0
 18 20  2  0  0  0
 21 22  1  0  0  0
 22 23  1  0  0  0
 22 25  1  0  0  0
 23 24  2  0  0  0
 23 28  1  0  0  0
 25 26  1  0  0  0
 25 27  1  0  0  0
 28 29  1  0  0  0
 29 30  1  0  0  0
 29 32  1  0  0  0
 30 31  1  0  0  0
 32 33  1  0  0  0
 33 34  1  0  0  0
 33 35  2  0  0  0
  3 36  1  0  0  0
  3 37  1  0  0  0
  3 38  1  0  0  0
  4 39  1  0  0  0
  5 40  1  0  0  0
  8 41  1  0  0  0
  8 42  1  0  0  0
 10 43  1  0  0  0
 12 44  1  0  0  0
 13 45  1  0  0  0
 16 46  1  0  0  0
 16 47  1  0  0  0
 17 48  1  0  0  0
 17 49  1  0  0  0
 19 50  1  0  0  0
 21 51  1  0  0  0
 22 52  1  0  0  0
 25 53  1  0  0  0
 26 54  1  0  0  0
 26 55  1  0  0  0
 26 56  1  0  0  0
 27 57  1  0  0  0
 27 58  1  0  0  0
 27 59  1  0  0  0
 28 60  1  0  0  0
 29 61  1  0  0  0
 30 62  1  0  0  0
 30 63  1  0  0  0
 31 64  1  0  0  0
 32 65  1  0  0  0
 32 66  1  0  0  0
 34 67  1  0  0  0
M  END
$$$$
