6ema_ligand
  -I-interpret- 

272273  0  0  0  0  0  0  0  0999 V2000
   -8.0610    0.0180   35.1450 N   0  3  0  0  0
   -6.7440    0.6120   35.3560 C   0  0  0  0  0
   -6.5630    1.8400   34.4670 C   0  0  0  0  0
   -7.3550    2.0840   33.5600 O   0  0  0  0  0
   -5.6220   -0.3870   35.0400 C   0  0  0  0  0
   -5.6860   -0.7400   33.6560 O   0  0  0  0  0
   -5.7570   -1.6530   35.8820 C   0  0  0  0  0
   -5.5030    2.6070   34.7040 N   0  0  0  0  0
   -5.2430    3.7470   33.8330 C   0  0  0  0  0
   -4.9380    3.2830   32.4060 C   0  0  0  0  0
   -5.4540    3.8490   31.4400 O   0  0  0  0  0
   -4.1210    4.5950   34.4320 C   0  0  0  0  0
   -4.5050    4.9970   35.7580 O   0  0  0  0  0
   -3.8760    5.8240   33.6060 C   0  0  0  0  0
   -4.1610    2.2090   32.2520 N   0  0  0  0  0
   -3.9160    1.6760   30.9180 C   0  0  0  0  0
   -5.2190    1.3100   30.2310 C   0  0  0  0  0
   -5.4350    1.6410   29.0590 O   0  0  0  0  0
   -2.9940    0.4560   30.9910 C   0  0  0  0  0
   -2.7670   -0.1710   29.6440 C   0  0  0  0  0
   -2.0910    0.5210   28.6490 C   0  0  0  0  0
   -3.2300   -1.4570   29.3580 C   0  0  0  0  0
   -1.8770   -0.0400   27.4050 C   0  0  0  0  0
   -3.0180   -2.0280   28.1120 C   0  0  0  0  0
   -2.3410   -1.3110   27.1390 C   0  0  0  0  0
   -2.1110   -1.8430   25.8900 O   0  0  0  0  0
   -6.1030    0.6070   30.9490 N   0  0  0  0  0
   -7.4100    0.2770   30.3960 C   0  0  0  0  0
   -8.1580    1.5330   29.9800 C   0  0  0  0  0
   -8.7620    1.5780   28.9030 O   0  0  0  0  0
   -8.2350   -0.5170   31.4190 C   0  0  0  0  0
   -8.1380    2.5680   30.8240 N   0  0  0  0  0
   -8.8120    3.8080   30.4500 C   0  0  0  0  0
   -8.1930    4.4120   29.1950 C   0  0  0  0  0
   -8.9070    4.9900   28.3730 O   0  0  0  0  0
   -8.7670    4.8140   31.6010 C   0  0  0  0  0
   -9.4000    4.2800   32.8870 C   0  0  0  0  0
  -10.1710    3.2920   32.8360 O   0  0  0  0  0
   -9.1150    4.8620   33.9500 O   0  0  0  0  0
   -6.8780    4.2590   29.0090 N   0  0  0  0  0
   -6.2310    4.7710   27.7980 C   0  0  0  0  0
   -6.7440    4.0500   26.5560 C   0  0  0  0  0
   -7.0930    4.6710   25.5430 O   0  0  0  0  0
   -4.7130    4.6160   27.9270 C   0  0  0  0  0
   -3.9440    5.0520   26.7000 C   0  0  0  0  0
   -4.0970    6.3240   26.1830 C   0  0  0  0  0
   -3.0520    4.1830   26.0770 C   0  0  0  0  0
   -3.3850    6.7260   25.0550 C   0  0  0  0  0
   -2.3390    4.5850   24.9480 C   0  0  0  0  0
   -2.5120    5.8610   24.4460 C   0  0  0  0  0
   -6.7830    2.7240   26.6110 N   0  0  0  0  0
   -7.3520    1.9600   25.5090 C   0  0  0  0  0
   -8.7780    2.4170   25.2290 C   0  0  0  0  0
   -9.1670    2.6100   24.0720 O   0  0  0  0  0
   -7.2930    0.4560   25.8390 C   0  0  0  0  0
   -5.8510    0.0380   26.1660 C   0  0  0  0  0
   -7.8280   -0.3510   24.6860 C   0  0  0  0  0
   -4.8010    0.4320   25.0980 C   0  0  0  0  0
   -9.5770    2.6110   26.2830 N   0  0  0  0  0
  -10.9820    2.9650   26.0890 C   0  0  0  0  0
  -11.1430    4.3250   25.4250 C   0  0  0  0  0
  -12.1830    4.5870   24.8080 O   0  0  0  0  0
  -11.7130    2.9540   27.4300 C   0  0  0  0  0
  -10.1360    5.1950   25.5430 N   0  0  0  0  0
  -10.2090    6.5250   24.9480 C   0  0  0  0  0
  -10.3090    6.4680   23.4370 C   0  0  0  0  0
  -10.7940    7.4170   22.8120 O   0  0  0  0  0
   -8.9680    7.3270   25.3340 C   0  0  0  0  0
   -7.8960    7.0390   24.4420 O   0  0  0  0  0
   -9.8120    5.3970   22.8250 N   0  0  0  0  0
   -9.7330    5.3330   21.3870 C   0  0  0  0  0
   -8.6460    6.1840   20.7670 C   0  0  0  0  0
   -8.5530    6.2280   19.5370 O   0  0  0  0  0
   -7.8280    6.8700   21.5650 N   0  0  0  0  0
   -6.7620    7.7020   21.0060 C   0  0  0  0  0
   -5.3920    7.0520   21.2000 C   0  0  0  0  0
   -4.4460    7.7010   21.6470 O   0  0  0  0  0
   -6.8010    9.1030   21.6300 C   0  0  0  0  0
   -8.0660    9.8840   21.2100 C   0  0  0  0  0
   -8.1390   11.2770   21.8000 C   0  0  0  0  0
   -7.0340   12.1130   21.3490 N   0  0  0  0  0
   -7.0360   12.8350   20.2320 C   0  0  0  0  0
   -8.0990   12.8260   19.4280 N   0  0  0  0  0
   -5.9730   13.5690   19.9110 N   0  0  0  0  0
   -5.2670    5.7670   20.8470 N   0  0  0  0  0
   -3.9980    5.0650   20.9930 C   0  0  0  0  0
   -3.1630    5.0900   19.7230 C   0  0  0  0  0
   -1.9870    4.7120   19.7720 O   0  0  0  0  0
   -4.2180    3.5900   21.3910 C   0  0  0  0  0
   -4.8440    2.9140   20.3030 O   0  0  0  0  0
   -5.0650    3.4510   22.6450 C   0  0  0  0  0
   -3.7380    5.5050   18.5930 N   0  0  0  0  0
   -3.0170    5.5960   17.3420 C   0  0  0  0  0
   -2.3680    6.9560   17.1450 C   0  0  0  0  0
   -2.3310    7.7960   18.0430 O   0  0  0  0  0
   -1.8480    7.1690   15.9340 N   0  0  0  0  0
   -1.1280    8.4100   15.6540 C   0  0  0  0  0
   -2.0840    9.5960   15.7340 C   0  0  0  0  0
   -3.2360    9.5150   15.2940 O   0  0  0  0  0
   -0.4550    8.3370   14.2870 C   0  0  0  0  0
    0.3600    7.0470   14.1030 C   0  0  0  0  0
    1.5080    7.1720   13.1190 C   0  0  0  0  0
    1.1320    7.9420   11.9470 N   0  0  0  0  0
    1.5840    9.1550   11.6490 C   0  0  0  0  0
    2.4640    9.7870   12.4140 N   0  0  0  0  0
    1.1470    9.7380   10.5550 N   0  0  0  0  0
   -1.6040   10.6960   16.3180 N   0  0  0  0  0
   -2.4380   11.8350   16.6740 C   0  0  0  0  0
   -2.1180   13.0180   15.7670 C   0  0  0  0  0
   -0.9440   13.3480   15.5670 O   0  0  0  0  0
   -2.2360   12.2160   18.1480 C   0  0  0  0  0
   -2.7060   11.1280   19.1080 C   0  0  0  0  0
   -2.0290   11.1760   20.4870 C   0  0  0  0  0
   -0.5990   10.8590   20.4210 N   0  0  0  0  0
    0.1470   10.5150   21.4690 C   0  0  0  0  0
   -0.3940   10.4150   22.6740 N   0  0  0  0  0
    1.4390   10.2690   21.3060 N   0  0  0  0  0
   -3.1690   13.6390   15.2250 N   0  0  0  0  0
   -3.0650   14.8030   14.3510 C   0  0  0  0  0
   -3.0000   16.0820   15.1560 C   0  0  0  0  0
   -3.5920   16.1900   16.2300 O   0  0  0  0  0
   -4.2860   14.9530   13.4510 C   0  0  0  0  0
   -2.3320   17.0770   14.5800 N   0  0  0  0  0
   -2.3940   18.4200   15.1260 C   0  0  0  0  0
   -3.7740   19.0290   14.8750 C   0  0  0  0  0
   -4.4760   18.6600   13.9300 O   0  0  0  0  0
   -1.3050   19.2890   14.4980 C   0  0  0  0  0
   -4.1600   19.9760   15.7300 N   0  0  0  0  0
   -5.4810   20.5920   15.6330 C   0  0  0  0  0
   -5.5100   21.6060   14.4870 C   0  0  0  0  0
   -4.4780   21.9920   13.9330 O   0  0  0  0  0
   -5.9030   21.2590   16.9660 C   0  0  0  0  0
   -4.9870   22.4440   17.2970 C   0  0  0  0  0
   -5.9080   20.2320   18.0950 C   0  0  0  0  0
   -5.3300   23.1680   18.5870 C   0  0  0  0  0
   -6.5790   22.0630   14.0840 O   0  0  0  0  0
   -8.7818    0.7059   35.3632 H   0  0  0  0  0
   -8.1498   -0.2720   34.1711 H   0  0  0  0  0
   -8.1682   -0.7934   35.7538 H   0  0  0  0  0
   -6.6848    0.8972   36.4063 H   0  0  0  0  0
   -4.6667    0.0835   35.2728 H   0  0  0  0  0
   -5.6016    0.0524   33.1206 H   0  0  0  0  0
   -6.7132   -2.1303   35.6674 H   0  0  0  0  0
   -4.9448   -2.3380   35.6386 H   0  0  0  0  0
   -5.7091   -1.3916   36.9391 H   0  0  0  0  0
   -4.8800    2.4006   35.4848 H   0  0  0  0  0
   -6.1333    4.3723   33.7654 H   0  0  0  0  0
   -3.2068    4.0018   34.4538 H   0  0  0  0  0
   -3.8067    5.5308   36.1441 H   0  0  0  0  0
   -3.5917    5.5304   32.5955 H   0  0  0  0  0
   -4.7860    6.4228   33.5692 H   0  0  0  0  0
   -3.0730    6.4082   34.0555 H   0  0  0  0  0
   -3.7395    1.7621   33.0663 H   0  0  0  0  0
   -3.4264    2.4516   30.3291 H   0  0  0  0  0
   -3.4670   -0.2866   31.6336 H   0  0  0  0  0
   -2.0292    0.7847   31.3772 H   0  0  0  0  0
   -1.7220    1.5261   28.8530 H   0  0  0  0  0
   -3.7647   -2.0191   30.1236 H   0  0  0  0  0
   -1.3435    0.5197   26.6367 H   0  0  0  0  0
   -3.3814   -3.0335   27.8999 H   0  0  0  0  0
   -2.4856   -2.7258   25.8455 H   0  0  0  0  0
   -5.8598    0.2998   31.8908 H   0  0  0  0  0
   -7.2579   -0.3383   29.5092 H   0  0  0  0  0
   -7.7105   -1.4390   31.6698 H   0  0  0  0  0
   -8.3694    0.0825   32.3193 H   0  0  0  0  0
   -9.2087   -0.7562   30.9915 H   0  0  0  0  0
   -7.6570    2.4929   31.7203 H   0  0  0  0  0
   -9.8537    3.5702   30.2348 H   0  0  0  0  0
   -9.3311    5.6948   31.2943 H   0  0  0  0  0
   -7.7197    5.0307   31.8117 H   0  0  0  0  0
  -10.2534    2.9985   31.9257 H   0  0  0  0  0
   -6.3198    3.7814   29.7166 H   0  0  0  0  0
   -6.4751    5.8276   27.6879 H   0  0  0  0  0
   -4.5077    3.5562   28.0777 H   0  0  0  0  0
   -4.3920    5.2513   28.7525 H   0  0  0  0  0
   -4.7831    7.0215   26.6635 H   0  0  0  0  0
   -2.9097    3.1786   26.4758 H   0  0  0  0  0
   -3.5221    7.7308   24.6553 H   0  0  0  0  0
   -1.6479    3.8955   24.4633 H   0  0  0  0  0
   -1.9543    6.1801   23.5655 H   0  0  0  0  0
   -6.4131    2.2384   27.4281 H   0  0  0  0  0
   -6.7691    2.1342   24.6046 H   0  0  0  0  0
   -7.9143    0.2644   26.7138 H   0  0  0  0  0
   -5.8442   -1.0501   26.2294 H   0  0  0  0  0
   -5.5739    0.5523   27.0862 H   0  0  0  0  0
   -8.8630   -0.0675   24.4950 H   0  0  0  0  0
   -7.2268   -0.1562   23.7979 H   0  0  0  0  0
   -7.7802   -1.4115   24.9333 H   0  0  0  0  0
   -5.0567   -0.0378   24.1483 H   0  0  0  0  0
   -4.7948    1.5154   24.9788 H   0  0  0  0  0
   -3.8151    0.0947   25.4179 H   0  0  0  0  0
   -9.2045    2.5115   27.2273 H   0  0  0  0  0
  -11.4180    2.2194   25.4241 H   0  0  0  0  0
  -11.6506    1.9579   27.8682 H   0  0  0  0  0
  -11.2495    3.6772   28.1010 H   0  0  0  0  0
  -12.7588    3.2190   27.2745 H   0  0  0  0  0
   -9.2993    4.9239   26.0595 H   0  0  0  0  0
  -11.1105    7.0050   25.3288 H   0  0  0  0  0
   -8.6704    7.0563   26.3470 H   0  0  0  0  0
   -9.2004    8.3905   25.2792 H   0  0  0  0  0
   -7.1237    7.5494   24.6963 H   0  0  0  0  0
   -9.4816    4.6087   23.3816 H   0  0  0  0  0
  -10.6823    5.7066   21.0030 H   0  0  0  0  0
   -9.5069    4.2981   21.1303 H   0  0  0  0  0
   -7.9464    6.8144   22.5766 H   0  0  0  0  0
   -6.9287    7.7964   19.9330 H   0  0  0  0  0
   -5.9272    9.6558   21.2851 H   0  0  0  0  0
   -6.8100    8.9945   22.7146 H   0  0  0  0  0
   -8.9302    9.3282   21.5738 H   0  0  0  0  0
   -8.0418    9.9883   20.1253 H   0  0  0  0  0
   -8.0849   11.1931   22.8854 H   0  0  0  0  0
   -9.0722   11.7381   21.4766 H   0  0  0  0  0
   -6.1980   12.1470   21.9325 H   0  0  0  0  0
   -8.0953   13.3798   18.5715 H   0  0  0  0  0
   -8.9162   12.2653   19.6693 H   0  0  0  0  0
   -5.1562   13.5780   20.5218 H   0  0  0  0  0
   -6.0739    5.2703   20.4692 H   0  0  0  0  0
   -3.4602    5.5955   21.7788 H   0  0  0  0  0
   -3.2474    3.1467   21.6135 H   0  0  0  0  0
   -4.9864    1.9943   20.5385 H   0  0  0  0  0
   -4.5689    3.9547   23.4746 H   0  0  0  0  0
   -6.0414    3.9045   22.4745 H   0  0  0  0  0
   -5.1900    2.3945   22.8822 H   0  0  0  0  0
   -4.7233    5.7681   18.6117 H   0  0  0  0  0
   -3.7283    5.4411   16.5307 H   0  0  0  0  0
   -2.2280    4.8441   17.3520 H   0  0  0  0  0
   -1.9532    6.4651   15.2034 H   0  0  0  0  0
   -0.3486    8.5471   16.4036 H   0  0  0  0  0
    0.2279    9.1823   14.2019 H   0  0  0  0  0
   -1.2350    8.3544   13.5258 H   0  0  0  0  0
   -0.3194    6.2905   13.7103 H   0  0  0  0  0
    0.7926    6.7988   15.0722 H   0  0  0  0  0
    1.7918    6.1708   12.7946 H   0  0  0  0  0
    2.3312    7.6849   13.6163 H   0  0  0  0  0
    0.4672    7.5173   11.3004 H   0  0  0  0  0
    2.7945   10.7154   12.1510 H   0  0  0  0  0
    2.8103    9.3446   13.2653 H   0  0  0  0  0
    0.4750    9.2591    9.9554 H   0  0  0  0  0
   -0.6061   10.7407   16.5246 H   0  0  0  0  0
   -3.4834   11.5587   16.5364 H   0  0  0  0  0
   -2.8238   13.1125   18.3451 H   0  0  0  0  0
   -1.1689   12.3675   18.3109 H   0  0  0  0  0
   -2.4539   10.1681   18.6573 H   0  0  0  0  0
   -3.7741   11.2763   19.2668 H   0  0  0  0  0
   -2.5094   10.4331   21.1238 H   0  0  0  0  0
   -2.1316   12.1886   20.8772 H   0  0  0  0  0
   -0.1441   10.9052   19.5092 H   0  0  0  0  0
   -1.3883   10.6020   22.8038 H   0  0  0  0  0
    2.0127   10.0039   22.1066 H   0  0  0  0  0
    1.8597   10.3448   20.3799 H   0  0  0  0  0
   -4.0998   13.2781   15.4345 H   0  0  0  0  0
   -2.1617   14.6436   13.7621 H   0  0  0  0  0
   -4.3864   14.0656   12.8261 H   0  0  0  0  0
   -5.1779   15.0680   14.0670 H   0  0  0  0  0
   -4.1638   15.8323   12.8186 H   0  0  0  0  0
   -1.7714   16.8948   13.7476 H   0  0  0  0  0
   -2.2275   18.3732   16.2022 H   0  0  0  0  0
   -0.3277   18.8575   14.7145 H   0  0  0  0  0
   -1.4536   19.3322   13.4190 H   0  0  0  0  0
   -1.3597   20.2950   14.9141 H   0  0  0  0  0
   -3.5208   20.2762   16.4660 H   0  0  0  0  0
   -6.2022   19.8020   15.4235 H   0  0  0  0  0
   -3.7198   21.5639   14.3373 H   0  0  0  0  0
   -6.9159   21.6459   16.8549 H   0  0  0  0  0
   -5.0969   23.1664   16.4882 H   0  0  0  0  0
   -3.9799   22.0440   17.4151 H   0  0  0  0  0
   -6.6127   19.4354   17.8567 H   0  0  0  0  0
   -4.9082   19.8127   18.2075 H   0  0  0  0  0
   -6.2066   20.7170   19.0243 H   0  0  0  0  0
   -6.3448   23.5607   18.5230 H   0  0  0  0  0
   -5.2607   22.4715   19.4225 H   0  0  0  0  0
   -4.6299   23.9896   18.7382 H   0  0  0  0  0
  1  2  1  0  0  0
  2  3  1  0  0  0
  2  5  1  0  0  0
  3  4  2  0  0  0
  3  8  1  0  0  0
  5  6  1  0  0  0
  5  7  1  0  0  0
  8  9  1  0  0  0
  9 10  1  0  0  0
  9 12  1  0  0  0
 10 11  2  0  0  0
 10 15  1  0  0  0
 12 13  1  0  0  0
 12 14  1  0  0  0
 15 16  1  0  0  0
 16 17  1  0  0  0
 16 19  1  0  0  0
 17 18  2  0  0  0
 17 27  1  0  0  0
 19 20  1  0  0  0
 20 21  4  0  0  0
 20 22  4  0  0  0
 21 23  4  0  0  0
 22 24  4  0  0  0
 23 25  4  0  0  0
 24 25  4  0  0  0
 25 26  1  0  0  0
 27 28  1  0  0  0
 28 29  1  0  0  0
 28 31  1  0  0  0
 29 30  2  0  0  0
 29 32  1  0  0  0
 32 33  1  0  0  0
 33 34  1  0  0  0
 33 36  1  0  0  0
 34 35  2  0  0  0
 34 40  1  0  0  0
 36 37  1  0  0  0
 37 38  1  0  0  0
 37 39  2  0  0  0
 40 41  1  0  0  0
 41 42  1  0  0  0
 41 44  1  0  0  0
 42 43  2  0  0  0
 42 51  1  0  0  0
 44 45  1  0  0  0
 45 46  4  0  0  0
 45 47  4  0  0  0
 46 48  4  0  0  0
 47 49  4  0  0  0
 48 50  4  0  0  0
 49 50  4  0  0  0
 51 52  1  0  0  0
 52 53  1  0  0  0
 52 55  1  0  0  0
 53 54  2  0  0  0
 53 59  1  0  0  0
 55 56  1  0  0  0
 55 57  1  0  0  0
 56 58  1  0  0  0
 59 60  1  0  0  0
 60 61  1  0  0  0
 60 63  1  0  0  0
 61 62  2  0  0  0
 61 64  1  0  0  0
 64 65  1  0  0  0
 65 66  1  0  0  0
 65 68  1  0  0  0
 66 67  2  0  0  0
 66 70  1  0  0  0
 68 69  1  0  0  0
 70 71  1  0  0  0
 71 72  1  0  0  0
 72 73  2  0  0  0
 72 74  1  0  0  0
 74 75  1  0  0  0
 75 76  1  0  0  0
 75 78  1  0  0  0
 76 77  2  0  0  0
 76 85  1  0  0  0
 78 79  1  0  0  0
 79 80  1  0  0  0
 80 81  1  0  0  0
 81 82  1  0  0  0
 82 83  1  0  0  0
 82 84  2  0  0  0
 85 86  1  0  0  0
 86 87  1  0  0  0
 86 89  1  0  0  0
 87 88  2  0  0  0
 87 92  1  0  0  0
 89 90  1  0  0  0
 89 91  1  0  0  0
 92 93  1  0  0  0
 93 94  1  0  0  0
 94 95  2  0  0  0
 94 96  1  0  0  0
 96 97  1  0  0  0
 97 98  1  0  0  0
 97100  1  0  0  0
 98 99  2  0  0  0
 98107  1  0  0  0
100101  1  0  0  0
101102  1  0  0  0
102103  1  0  0  0
103104  1  0  0  0
104105  1  0  0  0
104106  2  0  0  0
107108  1  0  0  0
108109  1  0  0  0
108111  1  0  0  0
109110  2  0  0  0
109118  1  0  0  0
111112  1  0  0  0
112113  1  0  0  0
113114  1  0  0  0
114115  1  0  0  0
115116  2  0  0  0
115117  1  0  0  0
118119  1  0  0  0
119120  1  0  0  0
119122  1  0  0  0
120121  2  0  0  0
120123  1  0  0  0
123124  1  0  0  0
124125  1  0  0  0
124127  1  0  0  0
125126  2  0  0  0
125128  1  0  0  0
128129  1  0  0  0
129130  1  0  0  0
129132  1  0  0  0
130131  1  0  0  0
130136  2  0  0  0
132133  1  0  0  0
132134  1  0  0  0
133135  1  0  0  0
  1137  1  0  0  0
  1138  1  0  0  0
  1139  1  0  0  0
  2140  1  0  0  0
  5141  1  0  0  0
  6142  1  0  0  0
  7143  1  0  0  0
  7144  1  0  0  0
  7145  1  0  0  0
  8146  1  0  0  0
  9147  1  0  0  0
 12148  1  0  0  0
 13149  1  0  0  0
 14150  1  0  0  0
 14151  1  0  0  0
 14152  1  0  0  0
 15153  1  0  0  0
 16154  1  0  0  0
 19155  1  0  0  0
 19156  1  0  0  0
 21157  1  0  0  0
 22158  1  0  0  0
 23159  1  0  0  0
 24160  1  0  0  0
 26161  1  0  0  0
 27162  1  0  0  0
 28163  1  0  0  0
 31164  1  0  0  0
 31165  1  0  0  0
 31166  1  0  0  0
 32167  1  0  0  0
 33168  1  0  0  0
 36169  1  0  0  0
 36170  1  0  0  0
 38171  1  0  0  0
 40172  1  0  0  0
 41173  1  0  0  0
 44174  1  0  0  0
 44175  1  0  0  0
 46176  1  0  0  0
 47177  1  0  0  0
 48178  1  0  0  0
 49179  1  0  0  0
 50180  1  0  0  0
 51181  1  0  0  0
 52182  1  0  0  0
 55183  1  0  0  0
 56184  1  0  0  0
 56185  1  0  0  0
 57186  1  0  0  0
 57187  1  0  0  0
 57188  1  0  0  0
 58189  1  0  0  0
 58190  1  0  0  0
 58191  1  0  0  0
 59192  1  0  0  0
 60193  1  0  0  0
 63194  1  0  0  0
 63195  1  0  0  0
 63196  1  0  0  0
 64197  1  0  0  0
 65198  1  0  0  0
 68199  1  0  0  0
 68200  1  0  0  0
 69201  1  0  0  0
 70202  1  0  0  0
 71203  1  0  0  0
 71204  1  0  0  0
 74205  1  0  0  0
 75206  1  0  0  0
 78207  1  0  0  0
 78208  1  0  0  0
 79209  1  0  0  0
 79210  1  0  0  0
 80211  1  0  0  0
 80212  1  0  0  0
 81213  1  0  0  0
 83214  1  0  0  0
 83215  1  0  0  0
 84216  1  0  0  0
 85217  1  0  0  0
 86218  1  0  0  0
 89219  1  0  0  0
 90220  1  0  0  0
 91221  1  0  0  0
 91222  1  0  0  0
 91223  1  0  0  0
 92224  1  0  0  0
 93225  1  0  0  0
 93226  1  0  0  0
 96227  1  0  0  0
 97228  1  0  0  0
100229  1  0  0  0
100230  1  0  0  0
101231  1  0  0  0
101232  1  0  0  0
102233  1  0  0  0
102234  1  0  0  0
103235  1  0  0  0
105236  1  0  0  0
105237  1  0  0  0
106238  1  0  0  0
107239  1  0  0  0
108240  1  0  0  0
111241  1  0  0  0
111242  1  0  0  0
112243  1  0  0  0
112244  1  0  0  0
113245  1  0  0  0
113246  1  0  0  0
114247  1  0  0  0
116248  1  0  0  0
117249  1  0  0  0
117250  1  0  0  0
118251  1  0  0  0
119252  1  0  0  0
122253  1  0  0  0
122254  1  0  0  0
122255  1  0  0  0
123256  1  0  0  0
124257  1  0  0  0
127258  1  0  0  0
127259  1  0  0  0
127260  1  0  0  0
128261  1  0  0  0
129262  1  0  0  0
131263  1  0  0  0
132264  1  0  0  0
133265  1  0  0  0
133266  1  0  0  0
134267  1  0  0  0
134268  1  0  0  0
134269  1  0  0  0
135270  1  0  0  0
135271  1  0  0  0
135272  1  0  0  0
M  END
$$$$
