### 
### Created by X-TOOL on Mon Aug  2 16:10:41 2021
### 

@<TRIPOS>MOLECULE
6ema_ligand
  273   274     1     0     0
SMALL
GAST_HUCK


@<TRIPOS>ATOM
      1 N          -8.0610    0.0180   35.1450 N.4       1 THR         0.2398
      2 CA         -6.7440    0.6120   35.3560 C.3       1 THR         0.0910
      3 C          -6.5630    1.8400   34.4670 C.2       1 THR         0.2293
      4 O          -7.3550    2.0840   33.5600 O.2       1 THR        -0.3906
      5 CB         -5.6220   -0.3870   35.0400 C.3       1 THR         0.1120
      6 OG1        -5.6860   -0.7400   33.6560 O.3       1 THR        -0.3840
      7 CG2        -5.7570   -1.6530   35.8820 C.3       1 THR        -0.0314
      8 N          -5.5030    2.6070   34.7040 N.am      1 THR        -0.2585
      9 CA         -5.2430    3.7470   33.8330 C.3       1 THR         0.1566
     10 C          -4.9380    3.2830   32.4060 C.2       1 THR         0.2066
     11 O          -5.4540    3.8490   31.4400 O.2       1 THR        -0.3943
     12 CB         -4.1210    4.5950   34.4320 C.3       1 THR         0.0924
     13 OG1        -4.5050    4.9970   35.7580 O.3       1 THR        -0.3874
     14 CG2        -3.8760    5.8240   33.6060 C.3       1 THR        -0.0346
     15 N          -4.1610    2.2090   32.2520 N.am      1 THR        -0.2621
     16 CA         -3.9160    1.6760   30.9180 C.3       1 THR         0.1390
     17 C          -5.2190    1.3100   30.2310 C.2       1 THR         0.2057
     18 O          -5.4350    1.6410   29.0590 O.2       1 THR        -0.3942
     19 CB         -2.9940    0.4560   30.9910 C.3       1 THR         0.0163
     20 CG         -2.7670   -0.1710   29.6440 C.ar      1 THR        -0.0493
     21 CD1        -2.0910    0.5210   28.6490 C.ar      1 THR        -0.0685
     22 CD2        -3.2300   -1.4570   29.3580 C.ar      1 THR        -0.0685
     23 CE1        -1.8770   -0.0400   27.4050 C.ar      1 THR        -0.0398
     24 CE2        -3.0180   -2.0280   28.1120 C.ar      1 THR        -0.0398
     25 CZ         -2.3410   -1.3110   27.1390 C.ar      1 THR         0.0805
     26 OH         -2.1110   -1.8430   25.8900 O.3       1 THR        -0.3376
     27 N          -6.1030    0.6070   30.9490 N.am      1 THR        -0.2639
     28 CA         -7.4100    0.2770   30.3960 C.3       1 THR         0.1282
     29 C          -8.1580    1.5330   29.9800 C.2       1 THR         0.2037
     30 O          -8.7620    1.5780   28.9030 O.2       1 THR        -0.3944
     31 CB         -8.2350   -0.5170   31.4190 C.3       1 THR        -0.0244
     32 N          -8.1380    2.5680   30.8240 N.am      1 THR        -0.2622
     33 CA         -8.8120    3.8080   30.4500 C.3       1 THR         0.1423
     34 C          -8.1930    4.4120   29.1950 C.2       1 THR         0.2057
     35 O          -8.9070    4.9900   28.3730 O.2       1 THR        -0.3943
     36 CB         -8.7670    4.8140   31.6010 C.3       1 THR         0.0406
     37 CG         -9.4000    4.2800   32.8870 C.2       1 THR         0.0393
     38 OD1       -10.1710    3.2920   32.8360 O.co2     1 THR        -0.5688
     39 OD2        -9.1150    4.8620   33.9500 O.co2     1 THR        -0.5688
     40 N          -6.8780    4.2590   29.0090 N.am      1 THR        -0.2618
     41 CA         -6.2310    4.7710   27.7980 C.3       1 THR         0.1404
     42 C          -6.7440    4.0500   26.5560 C.2       1 THR         0.2060
     43 O          -7.0930    4.6710   25.5430 O.2       1 THR        -0.3942
     44 CB         -4.7130    4.6160   27.9270 C.3       1 THR         0.0214
     45 CG         -3.9440    5.0520   26.7000 C.ar      1 THR        -0.0386
     46 CD1        -4.0970    6.3240   26.1830 C.ar      1 THR        -0.0601
     47 CD2        -3.0520    4.1830   26.0770 C.ar      1 THR        -0.0601
     48 CE1        -3.3850    6.7260   25.0550 C.ar      1 THR        -0.0686
     49 CE2        -2.3390    4.5850   24.9480 C.ar      1 THR        -0.0686
     50 CZ         -2.5120    5.8610   24.4460 C.ar      1 THR        -0.0687
     51 N          -6.7830    2.7240   26.6110 N.am      1 THR        -0.2633
     52 CA         -7.3520    1.9600   25.5090 C.3       1 THR         0.1335
     53 C          -8.7780    2.4170   25.2290 C.2       1 THR         0.2041
     54 O          -9.1670    2.6100   24.0720 O.2       1 THR        -0.3944
     55 CB         -7.2930    0.4560   25.8390 C.3       1 THR        -0.0037
     56 CG1        -5.8510    0.0380   26.1660 C.3       1 THR        -0.0491
     57 CG2        -7.8280   -0.3510   24.6860 C.3       1 THR        -0.0582
     58 CD1        -4.8010    0.4320   25.0980 C.3       1 THR        -0.0648
     59 N          -9.5770    2.6110   26.2830 N.am      1 THR        -0.2640
     60 CA        -10.9820    2.9650   26.0890 C.3       1 THR         0.1282
     61 C         -11.1430    4.3250   25.4250 C.2       1 THR         0.2037
     62 O         -12.1830    4.5870   24.8080 O.2       1 THR        -0.3944
     63 CB        -11.7130    2.9540   27.4300 C.3       1 THR        -0.0244
     64 N         -10.1360    5.1950   25.5430 N.am      1 THR        -0.2616
     65 CA        -10.2090    6.5250   24.9480 C.3       1 THR         0.1539
     66 C         -10.3090    6.4680   23.4370 C.2       1 THR         0.2060
     67 O         -10.7940    7.4170   22.8120 O.2       1 THR        -0.3943
     68 CB         -8.9680    7.3270   25.3340 C.3       1 THR         0.0843
     69 OG         -7.8960    7.0390   24.4420 O.3       1 THR        -0.3903
     70 N          -9.8120    5.3970   22.8250 N.am      1 THR        -0.2663
     71 CA         -9.7330    5.3330   21.3870 C.3       1 THR         0.1201
     72 C          -8.6460    6.1840   20.7670 C.2       1 THR         0.2007
     73 O          -8.5530    6.2280   19.5370 O.2       1 THR        -0.3947
     74 N          -7.8280    6.8700   21.5650 N.am      1 THR        -0.2640
     75 CA         -6.7620    7.7020   21.0060 C.3       1 THR         0.1311
     76 C          -5.3920    7.0520   21.2000 C.2       1 THR         0.2040
     77 O          -4.4460    7.7010   21.6470 O.2       1 THR        -0.3944
     78 CB         -6.8010    9.1030   21.6300 C.3       1 THR        -0.0092
     79 CG         -8.0660    9.8840   21.2100 C.3       1 THR        -0.0156
     80 CD         -8.1390   11.2770   21.8000 C.3       1 THR         0.0627
     81 NE         -7.0340   12.1130   21.3490 N.pl3     1 THR        -0.2723
     82 CZ         -7.0360   12.8350   20.2320 C.cat     1 THR         0.2882
     83 NH1        -8.0990   12.8260   19.4280 N.pl3     1 THR        -0.2849
     84 NH2        -5.9730   13.5690   19.9110 N.pl3     1 THR        -0.2849
     85 N          -5.2670    5.7670   20.8470 N.am      1 THR        -0.2613
     86 CA         -3.9980    5.0650   20.9930 C.3       1 THR         0.1565
     87 C          -3.1630    5.0900   19.7230 C.2       1 THR         0.2063
     88 O          -1.9870    4.7120   19.7720 O.2       1 THR        -0.3943
     89 CB         -4.2180    3.5900   21.3910 C.3       1 THR         0.0924
     90 OG1        -4.8440    2.9140   20.3030 O.3       1 THR        -0.3874
     91 CG2        -5.0650    3.4510   22.6450 C.3       1 THR        -0.0346
     92 N          -3.7380    5.5050   18.5930 N.am      1 THR        -0.2663
     93 CA         -3.0170    5.5960   17.3420 C.3       1 THR         0.1201
     94 C          -2.3680    6.9560   17.1450 C.2       1 THR         0.2007
     95 O          -2.3310    7.7960   18.0430 O.2       1 THR        -0.3947
     96 N          -1.8480    7.1690   15.9340 N.am      1 THR        -0.2640
     97 CA         -1.1280    8.4100   15.6540 C.3       1 THR         0.1311
     98 C          -2.0840    9.5960   15.7340 C.2       1 THR         0.2039
     99 O          -3.2360    9.5150   15.2940 O.2       1 THR        -0.3944
    100 CB         -0.4550    8.3370   14.2870 C.3       1 THR        -0.0092
    101 CG          0.3600    7.0470   14.1030 C.3       1 THR        -0.0156
    102 CD          1.5080    7.1720   13.1190 C.3       1 THR         0.0627
    103 NE          1.1320    7.9420   11.9470 N.pl3     1 THR        -0.2723
    104 CZ          1.5840    9.1550   11.6490 C.cat     1 THR         0.2882
    105 NH1         2.4640    9.7870   12.4140 N.pl3     1 THR        -0.2849
    106 NH2         1.1470    9.7380   10.5550 N.pl3     1 THR        -0.2849
    107 N          -1.6040   10.6960   16.3180 N.am      1 THR        -0.2637
    108 CA         -2.4380   11.8350   16.6740 C.3       1 THR         0.1311
    109 C          -2.1180   13.0180   15.7670 C.2       1 THR         0.2039
    110 O          -0.9440   13.3480   15.5670 O.2       1 THR        -0.3944
    111 CB         -2.2360   12.2160   18.1480 C.3       1 THR        -0.0092
    112 CG         -2.7060   11.1280   19.1080 C.3       1 THR        -0.0156
    113 CD         -2.0290   11.1760   20.4870 C.3       1 THR         0.0627
    114 NE         -0.5990   10.8590   20.4210 N.pl3     1 THR        -0.2723
    115 CZ          0.1470   10.5150   21.4690 C.cat     1 THR         0.2882
    116 NH1        -0.3940   10.4150   22.6740 N.pl3     1 THR        -0.2849
    117 NH2         1.4390   10.2690   21.3060 N.pl3     1 THR        -0.2849
    118 N          -3.1690   13.6390   15.2250 N.am      1 THR        -0.2640
    119 CA         -3.0650   14.8030   14.3510 C.3       1 THR         0.1282
    120 C          -3.0000   16.0820   15.1560 C.2       1 THR         0.2036
    121 O          -3.5920   16.1900   16.2300 O.2       1 THR        -0.3944
    122 CB         -4.2860   14.9530   13.4510 C.3       1 THR        -0.0244
    123 N          -2.3320   17.0770   14.5800 N.am      1 THR        -0.2640
    124 CA         -2.3940   18.4200   15.1260 C.3       1 THR         0.1282
    125 C          -3.7740   19.0290   14.8750 C.2       1 THR         0.2031
    126 O          -4.4760   18.6600   13.9300 O.2       1 THR        -0.3944
    127 CB         -1.3050   19.2890   14.4980 C.3       1 THR        -0.0244
    128 N          -4.1600   19.9760   15.7300 N.am      1 THR        -0.2692
    129 CA         -5.4810   20.5920   15.6330 C.3       1 THR         0.0969
    130 C          -5.5100   21.6060   14.4870 C.2       1 THR         0.0604
    131 O          -4.4780   21.9920   13.9330 O.co2     1 THR        -0.5666
    132 CB         -5.9030   21.2590   16.9660 C.3       1 THR        -0.0092
    133 CG1        -4.9870   22.4440   17.2970 C.3       1 THR        -0.0497
    134 CG2        -5.9080   20.2320   18.0950 C.3       1 THR        -0.0588
    135 CD1        -5.3300   23.1680   18.5870 C.3       1 THR        -0.0649
    136 OXT        -6.5790   22.0630   14.0840 O.co2     1 THR        -0.5666
    137 H1         -8.7742    0.6970   35.3603 H         1 THR         0.2016
    138 H2         -8.1681   -0.7840   35.7462 H         1 THR         0.2016
    139 H3         -8.1499   -0.2690   34.1828 H         1 THR         0.2016
    140 H4         -6.6633    0.9163   36.4100 H         1 THR         0.1125
    141 H5         -4.6514    0.0844   35.2537 H         1 THR         0.0674
    142 H6         -4.9932   -1.3584   33.4557 H         1 THR         0.2102
    143 H7         -4.9409   -2.3474   35.6334 H         1 THR         0.0258
    144 H8         -6.7239   -2.1328   35.6703 H         1 THR         0.0258
    145 H9         -5.7034   -1.3912   36.9490 H         1 THR         0.0258
    146 H10        -4.8922    2.4046   35.4695 H         1 THR         0.1885
    147 H11        -6.1512    4.3664   33.7945 H         1 THR         0.0826
    148 H12        -3.1983    3.9979   34.4772 H         1 THR         0.0639
    149 H13        -3.8140    5.5252   36.1401 H         1 THR         0.2101
    150 H14        -3.0658    6.4145   34.0586 H         1 THR         0.0257
    151 H15        -4.7937    6.4293   33.5681 H         1 THR         0.0257
    152 H16        -3.5889    5.5290   32.5859 H         1 THR         0.0257
    153 H17        -3.7478    1.7709   33.0503 H         1 THR         0.1885
    154 H18        -3.4170    2.4540   30.3215 H         1 THR         0.0821
    155 H19        -3.4495   -0.2919   31.6567 H         1 THR         0.0453
    156 H20        -2.0235    0.7705   31.4024 H         1 THR         0.0453
    157 H21        -1.7240    1.5206   28.8518 H         1 THR         0.0530
    158 H22        -3.7618   -2.0160   30.1194 H         1 THR         0.0530
    159 H23        -1.3465    0.5166   26.6410 H         1 THR         0.0525
    160 H24        -3.3794   -3.0280   27.9010 H         1 THR         0.0525
    161 H25        -1.5965   -2.6371   25.9751 H         1 THR         0.2458
    162 H26        -5.8646    0.3058   31.8723 H         1 THR         0.1883
    163 H27        -7.2613   -0.3499   29.5044 H         1 THR         0.0797
    164 H28        -9.2180   -0.7590   30.9887 H         1 THR         0.0277
    165 H29        -8.3714    0.0870   32.3281 H         1 THR         0.0277
    166 H30        -7.7067   -1.4478   31.6730 H         1 THR         0.0277
    167 H31        -7.6664    2.4944   31.7027 H         1 THR         0.1884
    168 H32        -9.8654    3.5746   30.2359 H         1 THR         0.0819
    169 H33        -9.3080    5.7215   31.2947 H         1 THR         0.0478
    170 H34        -7.7159    5.0653   31.8059 H         1 THR         0.0478
    171 H35        -6.3308    3.7908   29.7028 H         1 THR         0.1885
    172 H36        -6.4680    5.8406   27.6995 H         1 THR         0.0823
    173 H37        -4.4884    3.5562   28.1175 H         1 THR         0.0474
    174 H38        -4.3747    5.2217   28.7806 H         1 THR         0.0474
    175 H39        -4.7793    7.0177   26.6608 H         1 THR         0.0557
    176 H40        -2.9104    3.1841   26.4736 H         1 THR         0.0557
    177 H41        -3.5213    7.7252   24.6575 H         1 THR         0.0599
    178 H42        -1.6517    3.8993   24.4659 H         1 THR         0.0599
    179 H43        -1.9574    6.1784   23.5704 H         1 THR         0.0559
    180 H44        -6.4203    2.2479   27.4121 H         1 THR         0.1883
    181 H45        -6.7490    2.1413   24.6071 H         1 THR         0.0803
    182 H46        -7.9214    0.2652   26.7215 H         1 THR         0.0345
    183 H47        -5.8294   -1.0559   26.2793 H         1 THR         0.0267
    184 H48        -5.5652    0.5109   27.1171 H         1 THR         0.0267
    185 H49        -8.8596   -0.0381   24.4669 H         1 THR         0.0235
    186 H50        -7.8169   -1.4189   24.9495 H         1 THR         0.0235
    187 H51        -7.1985   -0.1855   23.7992 H         1 THR         0.0235
    188 H52        -3.8055    0.0921   25.4197 H         1 THR         0.0230
    189 H53        -4.7937    1.5253   24.9768 H         1 THR         0.0230
    190 H54        -5.0579   -0.0416   24.1390 H         1 THR         0.0230
    191 H55        -9.2118    2.5135   27.2088 H         1 THR         0.1883
    192 H56       -11.4386    2.2078   25.4347 H         1 THR         0.0797
    193 H57       -12.7686    3.2213   27.2743 H         1 THR         0.0277
    194 H58       -11.2462    3.6836   28.1081 H         1 THR         0.0277
    195 H59       -11.6508    1.9492   27.8733 H         1 THR         0.0277
    196 H60        -9.3157    4.9292   26.0494 H         1 THR         0.1884
    197 H61       -11.1022    7.0336   25.3397 H         1 THR         0.0823
    198 H62        -8.6686    7.0616   26.3586 H         1 THR         0.0606
    199 H63        -9.2008    8.4010   25.2866 H         1 THR         0.0606
    200 H64        -7.6919    6.1121   24.4828 H         1 THR         0.2097
    201 H65        -9.4881    4.6242   23.3707 H         1 THR         0.1881
    202 H66       -10.6993    5.6623   20.9773 H         1 THR         0.0763
    203 H67        -9.5512    4.2864   21.1016 H         1 THR         0.0763
    204 H68        -7.9441    6.8155   22.5567 H         1 THR         0.1883
    205 H69        -6.9388    7.8035   19.9251 H         1 THR         0.0800
    206 H70        -5.9123    9.6629   21.3034 H         1 THR         0.0313
    207 H71        -6.7906    9.0051   22.7256 H         1 THR         0.0313
    208 H72        -8.9500    9.3190   21.5407 H         1 THR         0.0301
    209 H73        -8.0745    9.9694   20.1134 H         1 THR         0.0301
    210 H74        -8.1041   11.2017   22.8969 H         1 THR         0.0689
    211 H75        -9.0869   11.7441   21.4945 H         1 THR         0.0689
    212 H76        -6.1898   12.1473   21.9382 H         1 THR         0.2642
    213 H77        -8.0960   13.3867   18.5640 H         1 THR         0.2615
    214 H78        -8.9235   12.2583   19.6707 H         1 THR         0.2615
    215 H79        -5.1489   13.5796   20.5287 H         1 THR         0.2615
    216 H80        -5.9746   14.1264   19.0449 H         1 THR         0.2615
    217 H81        -6.0580    5.2801   20.4766 H         1 THR         0.1884
    218 H82        -3.4291    5.5639   21.7914 H         1 THR         0.0826
    219 H83        -3.2379    3.1292   21.5835 H         1 THR         0.0639
    220 H84        -4.2842    2.9629   19.5370 H         1 THR         0.2101
    221 H85        -5.1919    2.3851   22.8854 H         1 THR         0.0257
    222 H86        -6.0508    3.9082   22.4742 H         1 THR         0.0257
    223 H87        -4.5654    3.9589   23.4831 H         1 THR         0.0257
    224 H88        -4.7040    5.7630   18.6114 H         1 THR         0.1881
    225 H89        -3.7201    5.4171   16.5152 H         1 THR         0.0763
    226 H90        -2.2324    4.8251   17.3295 H         1 THR         0.0763
    227 H91        -1.9511    6.4789   15.2177 H         1 THR         0.1883
    228 H92        -0.3469    8.5414   16.4173 H         1 THR         0.0800
    229 H93         0.2194    9.1992   14.1788 H         1 THR         0.0313
    230 H94        -1.2311    8.3785   13.5086 H         1 THR         0.0313
    231 H95        -0.3180    6.2588   13.7438 H         1 THR         0.0301
    232 H96         0.7734    6.7577   15.0804 H         1 THR         0.0301
    233 H97         1.8148    6.1650   12.8000 H         1 THR         0.0689
    234 H98         2.3516    7.6716   13.6176 H         1 THR         0.0689
    235 H99         0.4607    7.5132   11.2940 H         1 THR         0.2642
    236 H100        2.7927   10.7273   12.1520 H         1 THR         0.2615
    237 H101        2.8188    9.3375   13.2702 H         1 THR         0.2615
    238 H102        0.4635    9.2571    9.9530 H         1 THR         0.2615
    239 H103        1.4880   10.6758   10.2998 H         1 THR         0.2615
    240 H104       -0.6257   10.7399   16.5205 H         1 THR         0.1883
    241 H105       -3.4920   11.5563   16.5280 H         1 THR         0.0800
    242 H106       -2.8027   13.1359   18.3544 H         1 THR         0.0313
    243 H107       -1.1651   12.3986   18.3205 H         1 THR         0.0313
    244 H108       -2.4939   10.1495   18.6525 H         1 THR         0.0301
    245 H109       -3.7910   11.2383   19.2514 H         1 THR         0.0301
    246 H110       -2.5218   10.4475   21.1476 H         1 THR         0.0689
    247 H111       -2.1474   12.1873   20.9033 H         1 THR         0.0689
    248 H112       -0.1397   10.9056   19.5003 H         1 THR         0.2642
    249 H113        0.1894   10.1484   23.4799 H         1 THR         0.2615
    250 H114       -1.3980   10.6038   22.8050 H         1 THR         0.2615
    251 H115        1.8639   10.3455   20.3708 H         1 THR         0.2615
    252 H116        2.0183   10.0013   22.1145 H         1 THR         0.2615
    253 H117       -4.0815   13.2852   15.4304 H         1 THR         0.1883
    254 H118       -2.1595   14.7006   13.7350 H         1 THR         0.0797
    255 H119       -4.1639   15.8402   12.8122 H         1 THR         0.0277
    256 H120       -5.1868   15.0692   14.0715 H         1 THR         0.0277
    257 H121       -4.3884   14.0580   12.8198 H         1 THR         0.0277
    258 H122       -1.7824   16.8983   13.7639 H         1 THR         0.1883
    259 H123       -2.2233   18.3693   16.2115 H         1 THR         0.0797
    260 H124       -1.3591   20.3046   14.9172 H         1 THR         0.0277
    261 H125       -1.4538   19.3334   13.4090 H         1 THR         0.0277
    262 H126       -0.3182   18.8546   14.7158 H         1 THR         0.0277
    263 H127       -3.5333   20.2704   16.4516 H         1 THR         0.1875
    264 H128       -6.2091   19.7989   15.4074 H         1 THR         0.0729
    265 H129       -6.9271   21.6431   16.8487 H         1 THR         0.0338
    266 H130       -5.0498   23.1673   16.4707 H         1 THR         0.0267
    267 H131       -3.9563   22.0685   17.3781 H         1 THR         0.0267
    268 H132       -6.5723   19.3969   17.8280 H         1 THR         0.0234
    269 H133       -6.2682   20.7058   19.0201 H         1 THR         0.0234
    270 H134       -4.8871   19.8531   18.2506 H         1 THR         0.0234
    271 H135       -4.6241   23.9975   18.7407 H         1 THR         0.0230
    272 H136       -5.2604   22.4661   19.4311 H         1 THR         0.0230
    273 H137       -6.3539   23.5649   18.5236 H         1 THR         0.0230
@<TRIPOS>BOND
     1    1    2 1  
     2    2    3 1  
     3    2    5 1  
     4    3    4 2  
     5    3    8 am 
     6    5    6 1  
     7    5    7 1  
     8    8    9 1  
     9    9   10 1  
    10    9   12 1  
    11   10   11 2  
    12   10   15 am 
    13   12   13 1  
    14   12   14 1  
    15   15   16 1  
    16   16   17 1  
    17   16   19 1  
    18   17   18 2  
    19   17   27 am 
    20   19   20 1  
    21   20   21 ar 
    22   20   22 ar 
    23   21   23 ar 
    24   22   24 ar 
    25   23   25 ar 
    26   24   25 ar 
    27   25   26 1  
    28   27   28 1  
    29   28   29 1  
    30   28   31 1  
    31   29   30 2  
    32   29   32 am 
    33   32   33 1  
    34   33   34 1  
    35   33   36 1  
    36   34   35 2  
    37   34   40 am 
    38   36   37 1  
    39   37   38 ar 
    40   37   39 ar 
    41   40   41 1  
    42   41   42 1  
    43   41   44 1  
    44   42   43 2  
    45   42   51 am 
    46   44   45 1  
    47   45   46 ar 
    48   45   47 ar 
    49   46   48 ar 
    50   47   49 ar 
    51   48   50 ar 
    52   49   50 ar 
    53   51   52 1  
    54   52   53 1  
    55   52   55 1  
    56   53   54 2  
    57   53   59 am 
    58   55   56 1  
    59   55   57 1  
    60   56   58 1  
    61   59   60 1  
    62   60   61 1  
    63   60   63 1  
    64   61   62 2  
    65   61   64 am 
    66   64   65 1  
    67   65   66 1  
    68   65   68 1  
    69   66   67 2  
    70   66   70 am 
    71   68   69 1  
    72   70   71 1  
    73   71   72 1  
    74   72   73 2  
    75   72   74 am 
    76   74   75 1  
    77   75   76 1  
    78   75   78 1  
    79   76   77 2  
    80   76   85 am 
    81   78   79 1  
    82   79   80 1  
    83   80   81 1  
    84   81   82 ar 
    85   82   83 ar 
    86   82   84 ar 
    87   85   86 1  
    88   86   87 1  
    89   86   89 1  
    90   87   88 2  
    91   87   92 am 
    92   89   90 1  
    93   89   91 1  
    94   92   93 1  
    95   93   94 1  
    96   94   95 2  
    97   94   96 am 
    98   96   97 1  
    99   97   98 1  
   100   97  100 1  
   101   98   99 2  
   102   98  107 am 
   103  100  101 1  
   104  101  102 1  
   105  102  103 1  
   106  103  104 ar 
   107  104  105 ar 
   108  104  106 ar 
   109  107  108 1  
   110  108  109 1  
   111  108  111 1  
   112  109  110 2  
   113  109  118 am 
   114  111  112 1  
   115  112  113 1  
   116  113  114 1  
   117  114  115 ar 
   118  115  116 ar 
   119  115  117 ar 
   120  118  119 1  
   121  119  120 1  
   122  119  122 1  
   123  120  121 2  
   124  120  123 am 
   125  123  124 1  
   126  124  125 1  
   127  124  127 1  
   128  125  126 2  
   129  125  128 am 
   130  128  129 1  
   131  129  130 1  
   132  129  132 1  
   133  130  131 ar 
   134  130  136 ar 
   135  132  133 1  
   136  132  134 1  
   137  133  135 1  
   138    1  137 1  
   139    1  138 1  
   140    1  139 1  
   141    2  140 1  
   142    5  141 1  
   143    6  142 1  
   144    7  143 1  
   145    7  144 1  
   146    7  145 1  
   147    8  146 1  
   148    9  147 1  
   149   12  148 1  
   150   13  149 1  
   151   14  150 1  
   152   14  151 1  
   153   14  152 1  
   154   15  153 1  
   155   16  154 1  
   156   19  155 1  
   157   19  156 1  
   158   21  157 1  
   159   22  158 1  
   160   23  159 1  
   161   24  160 1  
   162   26  161 1  
   163   27  162 1  
   164   28  163 1  
   165   31  164 1  
   166   31  165 1  
   167   31  166 1  
   168   32  167 1  
   169   33  168 1  
   170   36  169 1  
   171   36  170 1  
   172   40  171 1  
   173   41  172 1  
   174   44  173 1  
   175   44  174 1  
   176   46  175 1  
   177   47  176 1  
   178   48  177 1  
   179   49  178 1  
   180   50  179 1  
   181   51  180 1  
   182   52  181 1  
   183   55  182 1  
   184   56  183 1  
   185   56  184 1  
   186   57  185 1  
   187   57  186 1  
   188   57  187 1  
   189   58  188 1  
   190   58  189 1  
   191   58  190 1  
   192   59  191 1  
   193   60  192 1  
   194   63  193 1  
   195   63  194 1  
   196   63  195 1  
   197   64  196 1  
   198   65  197 1  
   199   68  198 1  
   200   68  199 1  
   201   69  200 1  
   202   70  201 1  
   203   71  202 1  
   204   71  203 1  
   205   74  204 1  
   206   75  205 1  
   207   78  206 1  
   208   78  207 1  
   209   79  208 1  
   210   79  209 1  
   211   80  210 1  
   212   80  211 1  
   213   81  212 1  
   214   83  213 1  
   215   83  214 1  
   216   84  215 1  
   217   84  216 1  
   218   85  217 1  
   219   86  218 1  
   220   89  219 1  
   221   90  220 1  
   222   91  221 1  
   223   91  222 1  
   224   91  223 1  
   225   92  224 1  
   226   93  225 1  
   227   93  226 1  
   228   96  227 1  
   229   97  228 1  
   230  100  229 1  
   231  100  230 1  
   232  101  231 1  
   233  101  232 1  
   234  102  233 1  
   235  102  234 1  
   236  103  235 1  
   237  105  236 1  
   238  105  237 1  
   239  106  238 1  
   240  106  239 1  
   241  107  240 1  
   242  108  241 1  
   243  111  242 1  
   244  111  243 1  
   245  112  244 1  
   246  112  245 1  
   247  113  246 1  
   248  113  247 1  
   249  114  248 1  
   250  116  249 1  
   251  116  250 1  
   252  117  251 1  
   253  117  252 1  
   254  118  253 1  
   255  119  254 1  
   256  122  255 1  
   257  122  256 1  
   258  122  257 1  
   259  123  258 1  
   260  124  259 1  
   261  127  260 1  
   262  127  261 1  
   263  127  262 1  
   264  128  263 1  
   265  129  264 1  
   266  132  265 1  
   267  133  266 1  
   268  133  267 1  
   269  134  268 1  
   270  134  269 1  
   271  134  270 1  
   272  135  271 1  
   273  135  272 1  
   274  135  273 1  
@<TRIPOS>SUBSTRUCTURE
     1 THR         1

