### 
### Created by X-TOOL on Mon Sep 10 21:13:12 2018
### 

@<TRIPOS>MOLECULE
2lcs_ligand
  240   245     1     0     0
SMALL
GAST_HUCK


@<TRIPOS>ATOM
      1 N          -9.0920    3.7750   -5.4440 N.4       1 GLY         0.2357
      2 CA         -8.0010    3.9150   -6.3920 C.3       1 GLY         0.0545
      3 C          -8.3680    4.7910   -7.5730 C.2       1 GLY         0.2236
      4 O          -9.5250    5.1810   -7.7310 O.2       1 GLY        -0.3910
      5 N          -7.3810    5.1040   -8.4050 N.am      1 LYS        -0.2613
      6 CA         -7.6040    5.9400   -9.5780 C.3       1 LYS         0.1311
      7 C          -8.3340    5.1630  -10.6690 C.2       1 LYS         0.2040
      8 O          -9.4530    5.5100  -11.0490 O.2       1 LYS        -0.3944
      9 CB         -6.2710    6.4660  -10.1170 C.3       1 LYS        -0.0122
     10 CG         -5.5220    7.3470   -9.1320 C.3       1 LYS        -0.0440
     11 CD         -6.1210    8.7420   -9.0650 C.3       1 LYS        -0.0124
     12 CE         -5.9170    9.3710   -7.6950 C.3       1 LYS        -0.0354
     13 NZ         -6.9190    8.8840   -6.7070 N.4       1 LYS         0.2185
     14 N          -7.6950    4.1100  -11.1680 N.am      1 PHE        -0.2619
     15 CA         -8.2840    3.2840  -12.2150 C.3       1 PHE         0.1404
     16 C          -9.3730    2.3790  -11.6460 C.2       1 PHE         0.2060
     17 O          -9.2520    1.8710  -10.5300 O.2       1 PHE        -0.3942
     18 CB         -7.2050    2.4380  -12.8940 C.3       1 PHE         0.0214
     19 CG         -5.9560    3.2060  -13.2170 C.ar      1 PHE        -0.0386
     20 CD1        -6.0130    4.3580  -13.9840 C.ar      1 PHE        -0.0601
     21 CD2        -4.7230    2.7750  -12.7530 C.ar      1 PHE        -0.0601
     22 CE1        -4.8650    5.0670  -14.2820 C.ar      1 PHE        -0.0686
     23 CE2        -3.5720    3.4810  -13.0480 C.ar      1 PHE        -0.0686
     24 CZ         -3.6430    4.6270  -13.8140 C.ar      1 PHE        -0.0687
     25 N         -10.4350    2.1830  -12.4190 N.am      1 ILE        -0.2633
     26 CA        -11.5450    1.3390  -11.9920 C.3       1 ILE         0.1337
     27 C         -12.2750    0.7430  -13.1910 C.2       1 ILE         0.2067
     28 O         -13.2890    1.2650  -13.6550 O.2       1 ILE        -0.3942
     29 CB        -12.5510    2.1260  -11.1320 C.3       1 ILE        -0.0037
     30 CG1       -12.8950    3.4580  -11.8010 C.3       1 ILE        -0.0491
     31 CG2       -11.9900    2.3560   -9.7370 C.3       1 ILE        -0.0582
     32 CD1       -14.3250    3.8980  -11.5730 C.3       1 ILE        -0.0648
     33 N         -11.7490   -0.3790  -13.7060 N.am      1 PRO        -0.2498
     34 CA        -12.3360   -1.0730  -14.8560 C.3       1 PRO         0.1338
     35 C         -13.6670   -1.7350  -14.5160 C.2       1 PRO         0.2042
     36 O         -13.7980   -2.3930  -13.4840 O.2       1 PRO        -0.3944
     37 CB        -11.2860   -2.1310  -15.2050 C.3       1 PRO        -0.0104
     38 CG        -10.5530   -2.3730  -13.9310 C.3       1 PRO        -0.0281
     39 CD        -10.5420   -1.0570  -13.2030 C.3       1 PRO         0.0369
     40 N         -14.6510   -1.5570  -15.3910 N.am      1 SER        -0.2616
     41 CA        -15.9740   -2.1350  -15.1820 C.3       1 SER         0.1539
     42 C         -16.4580   -2.8530  -16.4380 C.2       1 SER         0.2062
     43 O         -17.4370   -2.4440  -17.0620 O.2       1 SER        -0.3943
     44 CB        -16.9730   -1.0460  -14.7860 C.3       1 SER         0.0843
     45 OG        -18.2990   -1.5470  -14.7850 O.3       1 SER        -0.3903
     46 N         -15.7640   -3.9270  -16.8020 N.am      1 ARG        -0.2637
     47 CA        -16.1220   -4.7020  -17.9840 C.3       1 ARG         0.1313
     48 C         -15.1870   -5.8960  -18.1540 C.2       1 ARG         0.2064
     49 O         -14.0470   -5.8950  -17.6880 O.2       1 ARG        -0.3942
     50 CB        -16.0720   -3.8200  -19.2330 C.3       1 ARG        -0.0092
     51 CG        -14.7630   -3.0660  -19.3940 C.3       1 ARG        -0.0156
     52 CD        -14.8850   -1.9520  -20.4230 C.3       1 ARG         0.0627
     53 NE        -15.3370   -2.4510  -21.7190 N.pl3     1 ARG        -0.2723
     54 CZ        -14.5770   -3.1740  -22.5340 C.cat     1 ARG         0.2882
     55 NH1       -13.3330   -3.4800  -22.1890 N.pl3     1 ARG        -0.2849
     56 NH2       -15.0600   -3.5920  -23.6970 N.pl3     1 ARG        -0.2849
     57 N         -15.6780   -6.9400  -18.8380 N.am      1 PRO        -0.2498
     58 CA        -14.9040   -8.1600  -19.0850 C.3       1 PRO         0.1338
     59 C         -13.7600   -7.9310  -20.0670 C.2       1 PRO         0.2041
     60 O         -13.9590   -7.3810  -21.1500 O.2       1 PRO        -0.3944
     61 CB        -15.9360   -9.1210  -19.6810 C.3       1 PRO        -0.0104
     62 CG        -16.9690   -8.2370  -20.2900 C.3       1 PRO        -0.0281
     63 CD        -17.0280   -7.0110  -19.4220 C.3       1 PRO         0.0369
     64 N         -12.5610   -8.3560  -19.6810 N.am      1 ALA        -0.2640
     65 CA        -11.3860   -8.2000  -20.5290 C.3       1 ALA         0.1284
     66 C         -11.5310   -8.9950  -21.8220 C.2       1 ALA         0.2061
     67 O         -12.2550   -9.9890  -21.8890 O.2       1 ALA        -0.3942
     68 CB        -10.1330   -8.6300  -19.7800 C.3       1 ALA        -0.0244
     69 N         -10.8280   -8.5500  -22.8740 N.am      1 PRO        -0.2498
     70 CA        -10.8630   -9.2070  -24.1840 C.3       1 PRO         0.1338
     71 C         -10.1690  -10.5650  -24.1700 C.2       1 PRO         0.2041
     72 O          -9.6060  -10.9760  -23.1560 O.2       1 PRO        -0.3944
     73 CB        -10.1080   -8.2300  -25.0900 C.3       1 PRO        -0.0104
     74 CG         -9.2070   -7.4800  -24.1710 C.3       1 PRO        -0.0281
     75 CD         -9.9440   -7.3730  -22.8650 C.3       1 PRO         0.0369
     76 N         -10.2140  -11.2580  -25.3030 N.am      1 LYS        -0.2637
     77 CA         -9.5890  -12.5700  -25.4230 C.3       1 LYS         0.1312
     78 C          -8.6120  -12.6020  -26.5950 C.2       1 LYS         0.2064
     79 O          -8.8100  -11.9450  -27.6170 O.2       1 LYS        -0.3942
     80 CB        -10.6560  -13.6510  -25.6050 C.3       1 LYS        -0.0122
     81 CG        -10.6380  -14.7120  -24.5180 C.3       1 LYS        -0.0440
     82 CD        -12.0110  -15.3350  -24.3250 C.3       1 LYS        -0.0124
     83 CE        -12.6070  -14.9620  -22.9770 C.3       1 LYS        -0.0354
     84 NZ        -13.4620  -13.7460  -23.0660 N.4       1 LYS         0.2185
     85 N          -7.5330  -13.3840  -26.4450 N.am      1 PRO        -0.2498
     86 CA         -6.5060  -13.5220  -27.4820 C.3       1 PRO         0.1340
     87 C          -7.0120  -14.2850  -28.7020 C.2       1 PRO         0.2066
     88 O          -8.0320  -14.9720  -28.6550 O.2       1 PRO        -0.3942
     89 CB         -5.3970  -14.3110  -26.7800 C.3       1 PRO        -0.0104
     90 CG         -6.0950  -15.0680  -25.7040 C.3       1 PRO        -0.0281
     91 CD         -7.2330  -14.1950  -25.2530 C.3       1 PRO         0.0369
     92 N          -6.2830  -14.1640  -29.8210 N.am      1 PRO        -0.2498
     93 CA         -6.6380  -14.8360  -31.0740 C.3       1 PRO         0.1338
     94 C          -6.4460  -16.3470  -30.9960 C.2       1 PRO         0.2042
     95 O          -6.2130  -16.8980  -29.9200 O.2       1 PRO        -0.3944
     96 CB         -5.6700  -14.2260  -32.0910 C.3       1 PRO        -0.0104
     97 CG         -4.5000  -13.7830  -31.2820 C.3       1 PRO        -0.0281
     98 CD         -5.0540  -13.3610  -29.9490 C.3       1 PRO         0.0369
     99 N          -6.5460  -17.0110  -32.1430 N.am      1 SER        -0.2616
    100 CA         -6.3870  -18.4600  -32.2030 C.3       1 SER         0.1539
    101 C          -5.1300  -18.8360  -32.9820 C.2       1 SER         0.2062
    102 O          -4.5110  -19.8680  -32.7230 O.2       1 SER        -0.3943
    103 CB         -7.6140  -19.1020  -32.8520 C.3       1 SER         0.0843
    104 OG         -7.9610  -18.4390  -34.0560 O.3       1 SER        -0.3903
    105 N          -4.7590  -17.9910  -33.9390 N.am      1 SER        -0.2615
    106 CA         -3.5790  -18.2350  -34.7600 C.3       1 SER         0.1539
    107 C          -2.3350  -18.3910  -33.8900 C.2       1 SER         0.2056
    108 O          -1.7540  -19.4730  -33.8080 O.2       1 SER        -0.3943
    109 CB         -3.3780  -17.0920  -35.7550 C.3       1 SER         0.0843
    110 OG         -2.6000  -17.5100  -36.8630 O.3       1 SER        -0.3903
    111 N          -1.9340  -17.3030  -33.2420 N.am      1 ALA        -0.2697
    112 CA         -0.7610  -17.3180  -32.3760 C.3       1 ALA         0.0916
    113 C          -0.9600  -18.2660  -31.1990 C.2       1 ALA         0.0598
    114 O          -2.0626  -18.3182  -30.5914 O.co2     1 ALA        -0.5666
    115 CB         -0.4540  -15.9130  -31.8780 C.3       1 ALA        -0.0300
    116 O          -0.0101  -19.0066  -30.8291 O.co2     1 ALA        -0.5666
    117 H1         -8.7997    3.1860   -4.6800 H         1 GLY         0.2012
    118 H2         -9.8860    3.3585   -5.9046 H         1 GLY         0.2012
    119 H3         -9.3476    4.6832   -5.0893 H         1 GLY         0.2012
    120 H4         -7.7270    2.9170   -6.7646 H         1 GLY         0.1061
    121 H5         -7.1395    4.3626   -5.8749 H         1 GLY         0.1061
    122 H6         -6.4611    4.7571   -8.2219 H         1 LYS         0.1884
    123 H7         -8.2269    6.7969   -9.2820 H         1 LYS         0.0800
    124 H8         -6.4705    7.0524  -11.0260 H         1 LYS         0.0312
    125 H9         -5.6336    5.6055  -10.3683 H         1 LYS         0.0312
    126 H10        -4.4714    7.4241   -9.4486 H         1 LYS         0.0269
    127 H11        -5.5713    6.8886   -8.1333 H         1 LYS         0.0269
    128 H12        -7.1995    8.6783   -9.2720 H         1 LYS         0.0317
    129 H13        -5.6386    9.3750   -9.8243 H         1 LYS         0.0317
    130 H14        -6.0102   10.4631   -7.7874 H         1 LYS         0.0813
    131 H15        -4.9092    9.1182   -7.3338 H         1 LYS         0.0813
    132 H16        -6.7514    9.3221   -5.8148 H         1 LYS         0.1994
    133 H17        -6.8375    7.8839   -6.6108 H         1 LYS         0.1994
    134 H18        -7.8463    9.1164   -7.0265 H         1 LYS         0.1994
    135 H19        -6.7878    3.8785  -10.8167 H         1 PHE         0.1885
    136 H20        -8.7373    3.9461  -12.9675 H         1 PHE         0.0823
    137 H21        -7.6173    2.0343  -13.8305 H         1 PHE         0.0474
    138 H22        -6.9394    1.6082  -12.2225 H         1 PHE         0.0474
    139 H23        -6.9697    4.7076  -14.3549 H         1 PHE         0.0557
    140 H24        -4.6608    1.8747  -12.1524 H         1 PHE         0.0557
    141 H25        -4.9239    5.9676  -14.8825 H         1 PHE         0.0599
    142 H26        -2.6138    3.1348  -12.6779 H         1 PHE         0.0599
    143 H27        -2.7408    5.1806  -14.0477 H         1 PHE         0.0559
    144 H28       -10.4745    2.6247  -13.3153 H         1 ILE         0.1883
    145 H29       -11.1360    0.5167  -11.3865 H         1 ILE         0.0803
    146 H30       -13.4730    1.5328  -11.0428 H         1 ILE         0.0345
    147 H31       -12.7308    3.3561  -12.8839 H         1 ILE         0.0267
    148 H32       -12.2246    4.2323  -11.3997 H         1 ILE         0.0267
    149 H33       -11.7496    1.3875   -9.2742 H         1 ILE         0.0235
    150 H34       -12.7372    2.8802   -9.1231 H         1 ILE         0.0235
    151 H35       -11.0775    2.9665   -9.8048 H         1 ILE         0.0235
    152 H36       -14.4985    4.8583  -12.0807 H         1 ILE         0.0230
    153 H37       -14.5048    4.0159  -10.4942 H         1 ILE         0.0230
    154 H38       -15.0110    3.1397  -11.9784 H         1 ILE         0.0230
    155 H39       -12.4837   -0.3752  -15.6934 H         1 PRO         0.0802
    156 H40       -10.6018   -1.7570  -15.9808 H         1 PRO         0.0313
    157 H41       -11.7685   -3.0550  -15.5561 H         1 PRO         0.0313
    158 H42        -9.5246   -2.7036  -14.1385 H         1 PRO         0.0287
    159 H43       -11.0699   -3.1370  -13.3317 H         1 PRO         0.0287
    160 H44       -10.6000   -1.2085  -12.1150 H         1 PRO         0.0524
    161 H45        -9.6369   -0.4807  -13.4452 H         1 PRO         0.0524
    162 H46       -14.4805   -1.0135  -16.2129 H         1 SER         0.1884
    163 H47       -15.9090   -2.8671  -14.3636 H         1 SER         0.0823
    164 H48       -16.9031   -0.2157  -15.5041 H         1 SER         0.0606
    165 H49       -16.7260   -0.6809  -13.7782 H         1 SER         0.0606
    166 H50       -18.5186   -1.8603  -15.6545 H         1 SER         0.2097
    167 H51       -14.9780   -4.2099  -16.2522 H         1 ARG         0.1883
    168 H52       -17.1487   -5.0761  -17.8580 H         1 ARG         0.0800
    169 H53       -16.8902   -3.0872  -19.1741 H         1 ARG         0.0313
    170 H54       -16.2155   -4.4597  -20.1163 H         1 ARG         0.0313
    171 H55       -13.9827   -3.7696  -19.7197 H         1 ARG         0.0301
    172 H56       -14.4809   -2.6284  -18.4250 H         1 ARG         0.0301
    173 H57       -13.9014   -1.4759  -20.5493 H         1 ARG         0.0689
    174 H58       -15.6081   -1.2082  -20.0571 H         1 ARG         0.0689
    175 H59       -16.2978   -2.2302  -22.0174 H         1 ARG         0.2642
    176 H60       -12.7459   -4.0407  -22.8229 H         1 ARG         0.2615
    177 H61       -12.9543   -3.1568  -21.2873 H         1 ARG         0.2615
    178 H62       -16.0253   -3.3564  -23.9683 H         1 ARG         0.2615
    179 H63       -14.4696   -4.1520  -24.3285 H         1 ARG         0.2615
    180 H64       -14.4970   -8.5559  -18.1429 H         1 PRO         0.0802
    181 H65       -16.3788   -9.7507  -18.8953 H         1 PRO         0.0313
    182 H66       -15.4732   -9.7611  -20.4465 H         1 PRO         0.0313
    183 H67       -17.9455   -8.7431  -20.3036 H         1 PRO         0.0287
    184 H68       -16.6825   -7.9651  -21.3166 H         1 PRO         0.0287
    185 H69       -17.2450   -6.1146  -20.0215 H         1 PRO         0.0524
    186 H70       -17.7909   -7.1209  -18.6372 H         1 PRO         0.0524
    187 H71       -12.4629   -8.7934  -18.7871 H         1 ALA         0.1883
    188 H72       -11.2873   -7.1356  -20.7885 H         1 ALA         0.0797
    189 H73        -9.2557   -8.5067  -20.4320 H         1 ALA         0.0277
    190 H74       -10.2258   -9.6859  -19.4859 H         1 ALA         0.0277
    191 H75       -10.0118   -8.0082  -18.8808 H         1 ALA         0.0277
    192 H76       -11.9013   -9.3357  -24.5236 H         1 PRO         0.0802
    193 H77       -10.8083   -7.5453  -25.5907 H         1 PRO         0.0313
    194 H78        -9.5240   -8.7748  -25.8464 H         1 PRO         0.0313
    195 H79        -8.9970   -6.4785  -24.5746 H         1 PRO         0.0287
    196 H80        -8.2618   -8.0254  -24.0329 H         1 PRO         0.0287
    197 H81        -9.2465   -7.4112  -22.0153 H         1 PRO         0.0524
    198 H82       -10.5284   -6.4423  -22.8181 H         1 PRO         0.0524
    199 H83       -10.6884  -10.8700  -26.0932 H         1 LYS         0.1883
    200 H84        -9.0322  -12.7770  -24.4972 H         1 LYS         0.0800
    201 H85       -10.4903  -14.1435  -26.5745 H         1 LYS         0.0312
    202 H86       -11.6443  -13.1680  -25.6032 H         1 LYS         0.0312
    203 H87       -10.3193  -14.2495  -23.5722 H         1 LYS         0.0269
    204 H88        -9.9243  -15.5002  -24.7996 H         1 LYS         0.0269
    205 H89       -11.9186  -16.4295  -24.3845 H         1 LYS         0.0317
    206 H90       -12.6802  -14.9796  -25.1224 H         1 LYS         0.0317
    207 H91       -11.7889  -14.7704  -22.2670 H         1 LYS         0.0813
    208 H92       -13.2186  -15.8011  -22.6140 H         1 LYS         0.0813
    209 H93       -13.8374  -13.5318  -22.1553 H         1 LYS         0.1994
    210 H94       -14.2188  -13.9138  -23.7104 H         1 LYS         0.1994
    211 H95       -12.9086  -12.9693  -23.3924 H         1 LYS         0.1994
    212 H96        -6.1437  -12.5332  -27.7998 H         1 PRO         0.0802
    213 H97        -4.6477  -13.6293  -26.3513 H         1 PRO         0.0313
    214 H98        -4.9062  -14.9999  -27.4832 H         1 PRO         0.0313
    215 H99        -5.4084  -15.2631  -24.8671 H         1 PRO         0.0287
    216 H100       -6.4774  -16.0225  -26.0948 H         1 PRO         0.0287
    217 H101       -8.1026  -14.8017  -24.9604 H         1 PRO         0.0524
    218 H102       -6.9299  -13.5577  -24.4092 H         1 PRO         0.0524
    219 H103       -7.6814  -14.6185  -31.3459 H         1 PRO         0.0802
    220 H104       -6.1339  -13.3700  -32.6029 H         1 PRO         0.0313
    221 H105       -5.3651  -14.9768  -32.8349 H         1 PRO         0.0313
    222 H106       -3.9952  -12.9370  -31.7713 H         1 PRO         0.0287
    223 H107       -3.7875  -14.6113  -31.1549 H         1 PRO         0.0287
    224 H108       -4.3471  -13.5911  -29.1382 H         1 PRO         0.0524
    225 H109       -5.2838  -12.2853  -29.9409 H         1 PRO         0.0524
    226 H110       -6.7347  -16.5054  -32.9849 H         1 SER         0.1884
    227 H111       -6.2906  -18.8432  -31.1764 H         1 SER         0.0823
    228 H112       -8.4615  -19.0442  -32.1532 H         1 SER         0.0606
    229 H113       -7.3927  -20.1564  -33.0737 H         1 SER         0.0606
    230 H114       -8.7242  -18.8566  -34.4376 H         1 SER         0.2097
    231 H115       -5.3029  -17.1674  -34.0998 H         1 SER         0.1884
    232 H116       -3.7324  -19.1680  -35.3221 H         1 SER         0.0823
    233 H117       -2.8646  -16.2613  -35.2487 H         1 SER         0.0606
    234 H118       -4.3604  -16.7516  -36.1141 H         1 SER         0.0606
    235 H119       -2.4906  -16.7825  -37.4642 H         1 SER         0.2097
    236 H120       -2.4492  -16.4528  -33.3507 H         1 ALA         0.1875
    237 H121        0.0977  -17.6738  -32.9642 H         1 ALA         0.0723
    238 H122        0.4321  -15.9403  -31.2268 H         1 ALA         0.0270
    239 H123       -1.3144  -15.5290  -31.3103 H         1 ALA         0.0270
    240 H124       -0.2578  -15.2543  -32.7368 H         1 ALA         0.0270
@<TRIPOS>BOND
     1    1    2 1  
     2    2    3 1  
     3    3    4 2  
     4    3    5 am 
     5    5    6 1  
     6    6    7 1  
     7    6    9 1  
     8    7    8 2  
     9    7   14 am 
    10    9   10 1  
    11   10   11 1  
    12   11   12 1  
    13   12   13 1  
    14   14   15 1  
    15   15   16 1  
    16   15   18 1  
    17   16   17 2  
    18   16   25 am 
    19   18   19 1  
    20   19   20 ar 
    21   19   21 ar 
    22   20   22 ar 
    23   21   23 ar 
    24   22   24 ar 
    25   23   24 ar 
    26   25   26 1  
    27   26   27 1  
    28   26   29 1  
    29   27   28 2  
    30   27   33 am 
    31   29   30 1  
    32   29   31 1  
    33   30   32 1  
    34   33   34 1  
    35   33   39 1  
    36   34   35 1  
    37   34   37 1  
    38   35   36 2  
    39   35   40 am 
    40   37   38 1  
    41   38   39 1  
    42   40   41 1  
    43   41   42 1  
    44   41   44 1  
    45   42   43 2  
    46   42   46 am 
    47   44   45 1  
    48   46   47 1  
    49   47   48 1  
    50   47   50 1  
    51   48   49 2  
    52   48   57 am 
    53   50   51 1  
    54   51   52 1  
    55   52   53 1  
    56   53   54 ar 
    57   54   55 ar 
    58   54   56 ar 
    59   57   58 1  
    60   57   63 1  
    61   58   59 1  
    62   58   61 1  
    63   59   60 2  
    64   59   64 am 
    65   61   62 1  
    66   62   63 1  
    67   64   65 1  
    68   65   66 1  
    69   65   68 1  
    70   66   67 2  
    71   66   69 am 
    72   69   70 1  
    73   69   75 1  
    74   70   71 1  
    75   70   73 1  
    76   71   72 2  
    77   71   76 am 
    78   73   74 1  
    79   74   75 1  
    80   76   77 1  
    81   77   78 1  
    82   77   80 1  
    83   78   79 2  
    84   78   85 am 
    85   80   81 1  
    86   81   82 1  
    87   82   83 1  
    88   83   84 1  
    89   85   86 1  
    90   85   91 1  
    91   86   87 1  
    92   86   89 1  
    93   87   88 2  
    94   87   92 am 
    95   89   90 1  
    96   90   91 1  
    97   92   93 1  
    98   92   98 1  
    99   93   94 1  
   100   93   96 1  
   101   94   95 2  
   102   94   99 am 
   103   96   97 1  
   104   97   98 1  
   105   99  100 1  
   106  100  101 1  
   107  100  103 1  
   108  101  102 2  
   109  101  105 am 
   110  103  104 1  
   111  105  106 1  
   112  106  107 1  
   113  106  109 1  
   114  107  108 2  
   115  107  111 am 
   116  109  110 1  
   117  111  112 1  
   118  112  113 1  
   119  112  115 1  
   120  113  114 ar 
   121  113  116 ar 
   122    1  117 1  
   123    1  118 1  
   124    1  119 1  
   125    2  120 1  
   126    2  121 1  
   127    5  122 1  
   128    6  123 1  
   129    9  124 1  
   130    9  125 1  
   131   10  126 1  
   132   10  127 1  
   133   11  128 1  
   134   11  129 1  
   135   12  130 1  
   136   12  131 1  
   137   13  132 1  
   138   13  133 1  
   139   13  134 1  
   140   14  135 1  
   141   15  136 1  
   142   18  137 1  
   143   18  138 1  
   144   20  139 1  
   145   21  140 1  
   146   22  141 1  
   147   23  142 1  
   148   24  143 1  
   149   25  144 1  
   150   26  145 1  
   151   29  146 1  
   152   30  147 1  
   153   30  148 1  
   154   31  149 1  
   155   31  150 1  
   156   31  151 1  
   157   32  152 1  
   158   32  153 1  
   159   32  154 1  
   160   34  155 1  
   161   37  156 1  
   162   37  157 1  
   163   38  158 1  
   164   38  159 1  
   165   39  160 1  
   166   39  161 1  
   167   40  162 1  
   168   41  163 1  
   169   44  164 1  
   170   44  165 1  
   171   45  166 1  
   172   46  167 1  
   173   47  168 1  
   174   50  169 1  
   175   50  170 1  
   176   51  171 1  
   177   51  172 1  
   178   52  173 1  
   179   52  174 1  
   180   53  175 1  
   181   55  176 1  
   182   55  177 1  
   183   56  178 1  
   184   56  179 1  
   185   58  180 1  
   186   61  181 1  
   187   61  182 1  
   188   62  183 1  
   189   62  184 1  
   190   63  185 1  
   191   63  186 1  
   192   64  187 1  
   193   65  188 1  
   194   68  189 1  
   195   68  190 1  
   196   68  191 1  
   197   70  192 1  
   198   73  193 1  
   199   73  194 1  
   200   74  195 1  
   201   74  196 1  
   202   75  197 1  
   203   75  198 1  
   204   76  199 1  
   205   77  200 1  
   206   80  201 1  
   207   80  202 1  
   208   81  203 1  
   209   81  204 1  
   210   82  205 1  
   211   82  206 1  
   212   83  207 1  
   213   83  208 1  
   214   84  209 1  
   215   84  210 1  
   216   84  211 1  
   217   86  212 1  
   218   89  213 1  
   219   89  214 1  
   220   90  215 1  
   221   90  216 1  
   222   91  217 1  
   223   91  218 1  
   224   93  219 1  
   225   96  220 1  
   226   96  221 1  
   227   97  222 1  
   228   97  223 1  
   229   98  224 1  
   230   98  225 1  
   231   99  226 1  
   232  100  227 1  
   233  103  228 1  
   234  103  229 1  
   235  104  230 1  
   236  105  231 1  
   237  106  232 1  
   238  109  233 1  
   239  109  234 1  
   240  110  235 1  
   241  111  236 1  
   242  112  237 1  
   243  115  238 1  
   244  115  239 1  
   245  115  240 1  
@<TRIPOS>SUBSTRUCTURE
     1 GLY         1

