2lcs_ligand
  -I-interpret- 

240245  0  0  0  0  0  0  0  0999 V2000
   -9.0920    3.7750   -5.4440 N   0  3  0  0  0
   -8.0010    3.9150   -6.3920 C   0  0  0  0  0
   -8.3680    4.7910   -7.5730 C   0  0  0  0  0
   -9.5250    5.1810   -7.7310 O   0  0  0  0  0
   -7.3810    5.1040   -8.4050 N   0  0  0  0  0
   -7.6040    5.9400   -9.5780 C   0  0  0  0  0
   -8.3340    5.1630  -10.6690 C   0  0  0  0  0
   -9.4530    5.5100  -11.0490 O   0  0  0  0  0
   -6.2710    6.4660  -10.1170 C   0  0  0  0  0
   -5.5220    7.3470   -9.1320 C   0  0  0  0  0
   -6.1210    8.7420   -9.0650 C   0  0  0  0  0
   -5.9170    9.3710   -7.6950 C   0  0  0  0  0
   -6.9190    8.8840   -6.7070 N   0  3  0  0  0
   -7.6950    4.1100  -11.1680 N   0  0  0  0  0
   -8.2840    3.2840  -12.2150 C   0  0  0  0  0
   -9.3730    2.3790  -11.6460 C   0  0  0  0  0
   -9.2520    1.8710  -10.5300 O   0  0  0  0  0
   -7.2050    2.4380  -12.8940 C   0  0  0  0  0
   -5.9560    3.2060  -13.2170 C   0  0  0  0  0
   -6.0130    4.3580  -13.9840 C   0  0  0  0  0
   -4.7230    2.7750  -12.7530 C   0  0  0  0  0
   -4.8650    5.0670  -14.2820 C   0  0  0  0  0
   -3.5720    3.4810  -13.0480 C   0  0  0  0  0
   -3.6430    4.6270  -13.8140 C   0  0  0  0  0
  -10.4350    2.1830  -12.4190 N   0  0  0  0  0
  -11.5450    1.3390  -11.9920 C   0  0  0  0  0
  -12.2750    0.7430  -13.1910 C   0  0  0  0  0
  -13.2890    1.2650  -13.6550 O   0  0  0  0  0
  -12.5510    2.1260  -11.1320 C   0  0  0  0  0
  -12.8950    3.4580  -11.8010 C   0  0  0  0  0
  -11.9900    2.3560   -9.7370 C   0  0  0  0  0
  -14.3250    3.8980  -11.5730 C   0  0  0  0  0
  -11.7490   -0.3790  -13.7060 N   0  0  0  0  0
  -12.3360   -1.0730  -14.8560 C   0  0  0  0  0
  -13.6670   -1.7350  -14.5160 C   0  0  0  0  0
  -13.7980   -2.3930  -13.4840 O   0  0  0  0  0
  -11.2860   -2.1310  -15.2050 C   0  0  0  0  0
  -10.5530   -2.3730  -13.9310 C   0  0  0  0  0
  -10.5420   -1.0570  -13.2030 C   0  0  0  0  0
  -14.6510   -1.5570  -15.3910 N   0  0  0  0  0
  -15.9740   -2.1350  -15.1820 C   0  0  0  0  0
  -16.4580   -2.8530  -16.4380 C   0  0  0  0  0
  -17.4370   -2.4440  -17.0620 O   0  0  0  0  0
  -16.9730   -1.0460  -14.7860 C   0  0  0  0  0
  -18.2990   -1.5470  -14.7850 O   0  0  0  0  0
  -15.7640   -3.9270  -16.8020 N   0  0  0  0  0
  -16.1220   -4.7020  -17.9840 C   0  0  0  0  0
  -15.1870   -5.8960  -18.1540 C   0  0  0  0  0
  -14.0470   -5.8950  -17.6880 O   0  0  0  0  0
  -16.0720   -3.8200  -19.2330 C   0  0  0  0  0
  -14.7630   -3.0660  -19.3940 C   0  0  0  0  0
  -14.8850   -1.9520  -20.4230 C   0  0  0  0  0
  -15.3370   -2.4510  -21.7190 N   0  0  0  0  0
  -14.5770   -3.1740  -22.5340 C   0  0  0  0  0
  -13.3330   -3.4800  -22.1890 N   0  0  0  0  0
  -15.0600   -3.5920  -23.6970 N   0  0  0  0  0
  -15.6780   -6.9400  -18.8380 N   0  0  0  0  0
  -14.9040   -8.1600  -19.0850 C   0  0  0  0  0
  -13.7600   -7.9310  -20.0670 C   0  0  0  0  0
  -13.9590   -7.3810  -21.1500 O   0  0  0  0  0
  -15.9360   -9.1210  -19.6810 C   0  0  0  0  0
  -16.9690   -8.2370  -20.2900 C   0  0  0  0  0
  -17.0280   -7.0110  -19.4220 C   0  0  0  0  0
  -12.5610   -8.3560  -19.6810 N   0  0  0  0  0
  -11.3860   -8.2000  -20.5290 C   0  0  0  0  0
  -11.5310   -8.9950  -21.8220 C   0  0  0  0  0
  -12.2550   -9.9890  -21.8890 O   0  0  0  0  0
  -10.1330   -8.6300  -19.7800 C   0  0  0  0  0
  -10.8280   -8.5500  -22.8740 N   0  0  0  0  0
  -10.8630   -9.2070  -24.1840 C   0  0  0  0  0
  -10.1690  -10.5650  -24.1700 C   0  0  0  0  0
   -9.6060  -10.9760  -23.1560 O   0  0  0  0  0
  -10.1080   -8.2300  -25.0900 C   0  0  0  0  0
   -9.2070   -7.4800  -24.1710 C   0  0  0  0  0
   -9.9440   -7.3730  -22.8650 C   0  0  0  0  0
  -10.2140  -11.2580  -25.3030 N   0  0  0  0  0
   -9.5890  -12.5700  -25.4230 C   0  0  0  0  0
   -8.6120  -12.6020  -26.5950 C   0  0  0  0  0
   -8.8100  -11.9450  -27.6170 O   0  0  0  0  0
  -10.6560  -13.6510  -25.6050 C   0  0  0  0  0
  -10.6380  -14.7120  -24.5180 C   0  0  0  0  0
  -12.0110  -15.3350  -24.3250 C   0  0  0  0  0
  -12.6070  -14.9620  -22.9770 C   0  0  0  0  0
  -13.4620  -13.7460  -23.0660 N   0  3  0  0  0
   -7.5330  -13.3840  -26.4450 N   0  0  0  0  0
   -6.5060  -13.5220  -27.4820 C   0  0  0  0  0
   -7.0120  -14.2850  -28.7020 C   0  0  0  0  0
   -8.0320  -14.9720  -28.6550 O   0  0  0  0  0
   -5.3970  -14.3110  -26.7800 C   0  0  0  0  0
   -6.0950  -15.0680  -25.7040 C   0  0  0  0  0
   -7.2330  -14.1950  -25.2530 C   0  0  0  0  0
   -6.2830  -14.1640  -29.8210 N   0  0  0  0  0
   -6.6380  -14.8360  -31.0740 C   0  0  0  0  0
   -6.4460  -16.3470  -30.9960 C   0  0  0  0  0
   -6.2130  -16.8980  -29.9200 O   0  0  0  0  0
   -5.6700  -14.2260  -32.0910 C   0  0  0  0  0
   -4.5000  -13.7830  -31.2820 C   0  0  0  0  0
   -5.0540  -13.3610  -29.9490 C   0  0  0  0  0
   -6.5460  -17.0110  -32.1430 N   0  0  0  0  0
   -6.3870  -18.4600  -32.2030 C   0  0  0  0  0
   -5.1300  -18.8360  -32.9820 C   0  0  0  0  0
   -4.5110  -19.8680  -32.7230 O   0  0  0  0  0
   -7.6140  -19.1020  -32.8520 C   0  0  0  0  0
   -7.9610  -18.4390  -34.0560 O   0  0  0  0  0
   -4.7590  -17.9910  -33.9390 N   0  0  0  0  0
   -3.5790  -18.2350  -34.7600 C   0  0  0  0  0
   -2.3350  -18.3910  -33.8900 C   0  0  0  0  0
   -1.7540  -19.4730  -33.8080 O   0  0  0  0  0
   -3.3780  -17.0920  -35.7550 C   0  0  0  0  0
   -2.6000  -17.5100  -36.8630 O   0  0  0  0  0
   -1.9340  -17.3030  -33.2420 N   0  0  0  0  0
   -0.7610  -17.3180  -32.3760 C   0  0  0  0  0
   -0.9600  -18.2660  -31.1990 C   0  0  0  0  0
   -2.0626  -18.3182  -30.5914 O   0  0  0  0  0
   -0.4540  -15.9130  -31.8780 C   0  0  0  0  0
   -0.0101  -19.0066  -30.8291 O   0  0  0  0  0
   -8.7951    3.1789   -4.6714 H   0  0  0  0  0
   -9.3497    4.6946   -5.0858 H   0  0  0  0  0
   -9.8948    3.3535   -5.9112 H   0  0  0  0  0
   -7.7560    2.9232   -6.7720 H   0  0  0  0  0
   -7.1631    4.3819   -5.8742 H   0  0  0  0  0
   -6.4427    4.7502   -8.2182 H   0  0  0  0  0
   -8.2259    6.7836   -9.2785 H   0  0  0  0  0
   -6.4902    7.0718  -10.9962 H   0  0  0  0  0
   -5.6403    5.6025  -10.3283 H   0  0  0  0  0
   -4.4867    7.4314   -9.4624 H   0  0  0  0  0
   -5.5902    6.8942   -8.1428 H   0  0  0  0  0
   -7.1918    8.6675   -9.2548 H   0  0  0  0  0
   -5.6261    9.3664   -9.8088 H   0  0  0  0  0
   -6.0305   10.4506   -7.7938 H   0  0  0  0  0
   -4.9239    9.0986   -7.3378 H   0  0  0  0  0
   -6.7485    9.3279   -5.8046 H   0  0  0  0  0
   -7.8569    9.1197   -7.0314 H   0  0  0  0  0
   -6.8356    7.8720   -6.6106 H   0  0  0  0  0
   -6.7697    3.8739  -10.8096 H   0  0  0  0  0
   -8.7357    3.9456  -12.9541 H   0  0  0  0  0
   -7.6181    2.0741  -13.8348 H   0  0  0  0  0
   -6.9300    1.6416  -12.2024 H   0  0  0  0  0
   -6.9750    4.7095  -14.3570 H   0  0  0  0  0
   -4.6605    1.8697  -12.1491 H   0  0  0  0  0
   -4.9242    5.9725  -14.8858 H   0  0  0  0  0
   -2.6085    3.1329  -12.6758 H   0  0  0  0  0
   -2.7358    5.1837  -14.0490 H   0  0  0  0  0
  -10.4752    2.6336  -13.3332 H   0  0  0  0  0
  -11.1182    0.5345  -11.3930 H   0  0  0  0  0
  -13.4656    1.5400  -11.0417 H   0  0  0  0  0
  -12.7596    3.3293  -12.8749 H   0  0  0  0  0
  -12.2456    4.2189  -11.3680 H   0  0  0  0  0
  -11.7927    1.3945   -9.2630 H   0  0  0  0  0
  -11.0626    2.9242   -9.8089 H   0  0  0  0  0
  -12.7141    2.9136   -9.1430 H   0  0  0  0  0
  -15.0037    3.1458  -11.9751 H   0  0  0  0  0
  -14.5019    4.0144  -10.5038 H   0  0  0  0  0
  -14.4957    4.8495  -12.0765 H   0  0  0  0  0
  -12.5601   -0.3888  -15.6743 H   0  0  0  0  0
  -10.6196   -1.7952  -15.9995 H   0  0  0  0  0
  -11.7412   -3.0430  -15.5912 H   0  0  0  0  0
   -9.5400   -2.7284  -14.1196 H   0  0  0  0  0
  -11.0376   -3.1484  -13.3377 H   0  0  0  0  0
  -10.5500   -1.1775  -12.1197 H   0  0  0  0  0
   -9.6328   -0.4844  -13.3864 H   0  0  0  0  0
  -14.4771   -1.0026  -16.2294 H   0  0  0  0  0
  -15.9017   -2.8628  -14.3738 H   0  0  0  0  0
  -16.9076   -0.2327  -15.5088 H   0  0  0  0  0
  -16.7305   -0.6982  -13.7819 H   0  0  0  0  0
  -18.9046   -0.8458  -14.5339 H   0  0  0  0  0
  -14.9623   -4.2156  -16.2412 H   0  0  0  0  0
  -17.1380   -5.0734  -17.8504 H   0  0  0  0  0
  -16.8664   -3.0793  -19.1417 H   0  0  0  0  0
  -16.1812   -4.4733  -20.0987 H   0  0  0  0  0
  -13.9999   -3.7669  -19.7324 H   0  0  0  0  0
  -14.4995   -2.6222  -18.4339 H   0  0  0  0  0
  -13.9014   -1.5014  -20.5556 H   0  0  0  0  0
  -15.6187   -1.2321  -20.0604 H   0  0  0  0  0
  -16.2884   -2.2324  -22.0145 H   0  0  0  0  0
  -12.9580   -3.1600  -21.2961 H   0  0  0  0  0
  -14.4754   -4.1466  -24.3223 H   0  0  0  0  0
  -16.0159   -3.3587  -23.9657 H   0  0  0  0  0
  -14.4295   -8.5325  -18.1771 H   0  0  0  0  0
  -16.3606   -9.7815  -18.9250 H   0  0  0  0  0
  -15.4903   -9.7915  -20.4158 H   0  0  0  0  0
  -17.9375   -8.7350  -20.3366 H   0  0  0  0  0
  -16.7136   -7.9811  -21.3183 H   0  0  0  0  0
  -17.2890   -6.1135  -19.9828 H   0  0  0  0  0
  -17.8090   -7.0721  -18.6641 H   0  0  0  0  0
  -12.4609   -8.8021  -18.7692 H   0  0  0  0  0
  -11.2958   -7.1457  -20.7906 H   0  0  0  0  0
  -10.0141   -8.0132  -18.8892 H   0  0  0  0  0
  -10.2262   -9.6763  -19.4892 H   0  0  0  0  0
   -9.2644   -8.5074  -20.4270 H   0  0  0  0  0
  -11.8825   -9.4123  -24.5105 H   0  0  0  0  0
  -10.7862   -7.5658  -25.6258 H   0  0  0  0  0
   -9.5518   -8.7476  -25.8715 H   0  0  0  0  0
   -8.9664   -6.4949  -24.5706 H   0  0  0  0  0
   -8.2539   -7.9939  -24.0458 H   0  0  0  0  0
   -9.2733   -7.3599  -22.0059 H   0  0  0  0  0
  -10.4944   -6.4369  -22.7706 H   0  0  0  0  0
  -10.6979  -10.8622  -26.1090 H   0  0  0  0  0
   -9.0347  -12.7663  -24.5052 H   0  0  0  0  0
  -10.4567  -14.1508  -26.5530 H   0  0  0  0  0
  -11.6285  -13.1602  -25.5667 H   0  0  0  0  0
  -10.3374  -14.2420  -23.5816 H   0  0  0  0  0
   -9.9411  -15.4966  -24.8128 H   0  0  0  0  0
  -11.9077  -16.4192  -24.3689 H   0  0  0  0  0
  -12.6716  -14.9650  -25.1091 H   0  0  0  0  0
  -11.7891  -14.7552  -22.2868 H   0  0  0  0  0
  -13.2264  -15.7914  -22.6356 H   0  0  0  0  0
  -13.8412  -13.5303  -22.1440 H   0  0  0  0  0
  -12.9010  -12.9608  -23.3964 H   0  0  0  0  0
  -14.2273  -13.9169  -23.7183 H   0  0  0  0  0
   -6.1825  -12.5546  -27.8662 H   0  0  0  0  0
   -4.6227  -13.6563  -26.3801 H   0  0  0  0  0
   -4.8711  -14.9732  -27.4677 H   0  0  0  0  0
   -5.4197  -15.2934  -24.8786 H   0  0  0  0  0
   -6.4561  -16.0295  -26.0688 H   0  0  0  0  0
   -8.0928  -14.7709  -24.9108 H   0  0  0  0  0
   -6.9761  -13.5864  -24.3859 H   0  0  0  0  0
   -7.6887  -14.6956  -31.3279 H   0  0  0  0  0
   -6.1228  -13.3987  -32.6375 H   0  0  0  0  0
   -5.3839  -14.9430  -32.8605 H   0  0  0  0  0
   -3.9719  -12.9625  -31.7678 H   0  0  0  0  0
   -3.7706  -14.5852  -31.1704 H   0  0  0  0  0
   -4.3542  -13.5328  -29.1311 H   0  0  0  0  0
   -5.2462  -12.2894  -29.8955 H   0  0  0  0  0
   -6.7385  -16.4953  -33.0017 H   0  0  0  0  0
   -6.2872  -18.8329  -31.1837 H   0  0  0  0  0
   -8.4528  -19.0290  -32.1597 H   0  0  0  0  0
   -7.3829  -20.1423  -33.0811 H   0  0  0  0  0
   -8.7322  -18.8610  -34.4416 H   0  0  0  0  0
   -5.3138  -17.1509  -34.1030 H   0  0  0  0  0
   -3.7358  -19.1627  -35.3104 H   0  0  0  0  0
   -2.8569  -16.2784  -35.2505 H   0  0  0  0  0
   -4.3542  -16.7691  -36.1167 H   0  0  0  0  0
   -2.4895  -16.7749  -37.4705 H   0  0  0  0  0
   -2.4595  -16.4358  -33.3529 H   0  0  0  0  0
    0.0861  -17.6779  -32.9599 H   0  0  0  0  0
   -2.6767  -17.6981  -30.9913 H   0  0  0  0  0
   -0.2598  -15.2613  -32.7299 H   0  0  0  0  0
   -1.3073  -15.5336  -31.3158 H   0  0  0  0  0
    0.4242  -15.9413  -31.2330 H   0  0  0  0  0
  1  2  1  0  0  0
  2  3  1  0  0  0
  3  4  2  0  0  0
  3  5  1  0  0  0
  5  6  1  0  0  0
  6  7  1  0  0  0
  6  9  1  0  0  0
  7  8  2  0  0  0
  7 14  1  0  0  0
  9 10  1  0  0  0
 10 11  1  0  0  0
 11 12  1  0  0  0
 12 13  1  0  0  0
 14 15  1  0  0  0
 15 16  1  0  0  0
 15 18  1  0  0  0
 16 17  2  0  0  0
 16 25  1  0  0  0
 18 19  1  0  0  0
 19 20  4  0  0  0
 19 21  4  0  0  0
 20 22  4  0  0  0
 21 23  4  0  0  0
 22 24  4  0  0  0
 23 24  4  0  0  0
 25 26  1  0  0  0
 26 27  1  0  0  0
 26 29  1  0  0  0
 27 28  2  0  0  0
 27 33  1  0  0  0
 29 30  1  0  0  0
 29 31  1  0  0  0
 30 32  1  0  0  0
 33 34  1  0  0  0
 33 39  1  0  0  0
 34 35  1  0  0  0
 34 37  1  0  0  0
 35 36  2  0  0  0
 35 40  1  0  0  0
 37 38  1  0  0  0
 38 39  1  0  0  0
 40 41  1  0  0  0
 41 42  1  0  0  0
 41 44  1  0  0  0
 42 43  2  0  0  0
 42 46  1  0  0  0
 44 45  1  0  0  0
 46 47  1  0  0  0
 47 48  1  0  0  0
 47 50  1  0  0  0
 48 49  2  0  0  0
 48 57  1  0  0  0
 50 51  1  0  0  0
 51 52  1  0  0  0
 52 53  1  0  0  0
 53 54  1  0  0  0
 54 55  2  0  0  0
 54 56  1  0  0  0
 57 58  1  0  0  0
 57 63  1  0  0  0
 58 59  1  0  0  0
 58 61  1  0  0  0
 59 60  2  0  0  0
 59 64  1  0  0  0
 61 62  1  0  0  0
 62 63  1  0  0  0
 64 65  1  0  0  0
 65 66  1  0  0  0
 65 68  1  0  0  0
 66 67  2  0  0  0
 66 69  1  0  0  0
 69 70  1  0  0  0
 69 75  1  0  0  0
 70 71  1  0  0  0
 70 73  1  0  0  0
 71 72  2  0  0  0
 71 76  1  0  0  0
 73 74  1  0  0  0
 74 75  1  0  0  0
 76 77  1  0  0  0
 77 78  1  0  0  0
 77 80  1  0  0  0
 78 79  2  0  0  0
 78 85  1  0  0  0
 80 81  1  0  0  0
 81 82  1  0  0  0
 82 83  1  0  0  0
 83 84  1  0  0  0
 85 86  1  0  0  0
 85 91  1  0  0  0
 86 87  1  0  0  0
 86 89  1  0  0  0
 87 88  2  0  0  0
 87 92  1  0  0  0
 89 90  1  0  0  0
 90 91  1  0  0  0
 92 93  1  0  0  0
 92 98  1  0  0  0
 93 94  1  0  0  0
 93 96  1  0  0  0
 94 95  2  0  0  0
 94 99  1  0  0  0
 96 97  1  0  0  0
 97 98  1  0  0  0
 99100  1  0  0  0
100101  1  0  0  0
100103  1  0  0  0
101102  2  0  0  0
101105  1  0  0  0
103104  1  0  0  0
105106  1  0  0  0
106107  1  0  0  0
106109  1  0  0  0
107108  2  0  0  0
107111  1  0  0  0
109110  1  0  0  0
111112  1  0  0  0
112113  1  0  0  0
112115  1  0  0  0
113114  1  0  0  0
113116  2  0  0  0
  1117  1  0  0  0
  1118  1  0  0  0
  1119  1  0  0  0
  2120  1  0  0  0
  2121  1  0  0  0
  5122  1  0  0  0
  6123  1  0  0  0
  9124  1  0  0  0
  9125  1  0  0  0
 10126  1  0  0  0
 10127  1  0  0  0
 11128  1  0  0  0
 11129  1  0  0  0
 12130  1  0  0  0
 12131  1  0  0  0
 13132  1  0  0  0
 13133  1  0  0  0
 13134  1  0  0  0
 14135  1  0  0  0
 15136  1  0  0  0
 18137  1  0  0  0
 18138  1  0  0  0
 20139  1  0  0  0
 21140  1  0  0  0
 22141  1  0  0  0
 23142  1  0  0  0
 24143  1  0  0  0
 25144  1  0  0  0
 26145  1  0  0  0
 29146  1  0  0  0
 30147  1  0  0  0
 30148  1  0  0  0
 31149  1  0  0  0
 31150  1  0  0  0
 31151  1  0  0  0
 32152  1  0  0  0
 32153  1  0  0  0
 32154  1  0  0  0
 34155  1  0  0  0
 37156  1  0  0  0
 37157  1  0  0  0
 38158  1  0  0  0
 38159  1  0  0  0
 39160  1  0  0  0
 39161  1  0  0  0
 40162  1  0  0  0
 41163  1  0  0  0
 44164  1  0  0  0
 44165  1  0  0  0
 45166  1  0  0  0
 46167  1  0  0  0
 47168  1  0  0  0
 50169  1  0  0  0
 50170  1  0  0  0
 51171  1  0  0  0
 51172  1  0  0  0
 52173  1  0  0  0
 52174  1  0  0  0
 53175  1  0  0  0
 55176  1  0  0  0
 56177  1  0  0  0
 56178  1  0  0  0
 58179  1  0  0  0
 61180  1  0  0  0
 61181  1  0  0  0
 62182  1  0  0  0
 62183  1  0  0  0
 63184  1  0  0  0
 63185  1  0  0  0
 64186  1  0  0  0
 65187  1  0  0  0
 68188  1  0  0  0
 68189  1  0  0  0
 68190  1  0  0  0
 70191  1  0  0  0
 73192  1  0  0  0
 73193  1  0  0  0
 74194  1  0  0  0
 74195  1  0  0  0
 75196  1  0  0  0
 75197  1  0  0  0
 76198  1  0  0  0
 77199  1  0  0  0
 80200  1  0  0  0
 80201  1  0  0  0
 81202  1  0  0  0
 81203  1  0  0  0
 82204  1  0  0  0
 82205  1  0  0  0
 83206  1  0  0  0
 83207  1  0  0  0
 84208  1  0  0  0
 84209  1  0  0  0
 84210  1  0  0  0
 86211  1  0  0  0
 89212  1  0  0  0
 89213  1  0  0  0
 90214  1  0  0  0
 90215  1  0  0  0
 91216  1  0  0  0
 91217  1  0  0  0
 93218  1  0  0  0
 96219  1  0  0  0
 96220  1  0  0  0
 97221  1  0  0  0
 97222  1  0  0  0
 98223  1  0  0  0
 98224  1  0  0  0
 99225  1  0  0  0
100226  1  0  0  0
103227  1  0  0  0
103228  1  0  0  0
104229  1  0  0  0
105230  1  0  0  0
106231  1  0  0  0
109232  1  0  0  0
109233  1  0  0  0
110234  1  0  0  0
111235  1  0  0  0
112236  1  0  0  0
114237  1  0  0  0
115238  1  0  0  0
115239  1  0  0  0
115240  1  0  0  0
M  END
$$$$
