6dqa_ligand
  -I-interpret- 

 55 58  0  0  0  0  0  0  0  0999 V2000
  -23.2700   17.9390    7.8260 C   0  0  0  0  0
  -23.4180   17.6060    6.3400 C   0  0  0  0  0
  -24.0010   18.5300    5.4970 C   0  0  0  0  0
  -24.1290   18.2310    4.1390 C   0  0  0  0  0
  -24.7510   19.2860    3.3780 C   0  0  0  0  0
  -25.0680   20.3720    4.1810 C   0  0  0  0  0
  -25.7190   21.6530    3.6920 C   0  0  0  0  0
  -26.9230   21.9020    4.5690 C   0  0  0  0  0
  -26.7940   22.6400    5.7430 C   0  0  0  0  0
  -27.9060   22.8590    6.5260 C   0  0  0  0  0
  -29.1420   22.3500    6.1480 C   0  0  0  0  0
  -29.2580   21.6270    4.9680 C   0  0  0  0  0
  -28.1470   21.3930    4.1850 C   0  0  0  0  0
  -24.8170   23.6850    2.9960 C   0  0  0  0  0
  -23.6220   24.5920    3.2700 C   0  0  0  0  0
  -23.4280   25.0740    0.9410 C   0  0  0  0  0
  -22.6740   24.8210   -0.3620 C   0  0  0  0  0
  -22.3530   23.3780   -0.5410 C   0  0  0  0  0
  -21.6140   22.8410    0.6330 C   0  0  0  0  0
  -22.3780   23.0810    1.9310 C   0  0  0  0  0
  -23.1680   16.1670    4.4130 C   0  0  0  0  0
  -22.9940   16.4030    5.7810 C   0  0  0  0  0
  -30.5370   21.0800    4.5510 N   0  0  0  0  0
  -22.7270   24.5150    2.1320 N   0  3  0  0  0
  -23.7310   17.0680    3.6330 N   0  0  0  0  0
  -22.5160   17.2640    8.5690 O   0  0  0  0  0
  -23.9040   18.9160    8.3020 O   0  0  0  0  0
  -24.7970   22.6670    3.9530 O   0  0  0  0  0
  -24.6410   20.0780    5.8090 S   0  0  0  0  0
  -24.9474   19.2365    2.3070 H   0  0  0  0  0
  -26.0013   21.6069    2.6402 H   0  0  0  0  0
  -25.8241   23.0398    6.0389 H   0  0  0  0  0
  -27.8156   23.4348    7.4471 H   0  0  0  0  0
  -30.0176   22.5175    6.7752 H   0  0  0  0  0
  -28.2351   20.8096    3.2685 H   0  0  0  0  0
  -24.7564   23.2663    1.9915 H   0  0  0  0  0
  -25.7473   24.2496    3.0582 H   0  0  0  0  0
  -23.1067   24.2709    4.1753 H   0  0  0  0  0
  -23.9560   25.6192    3.4161 H   0  0  0  0  0
  -24.3991   24.5848    0.8651 H   0  0  0  0  0
  -23.5078   26.1526    1.0764 H   0  0  0  0  0
  -21.7386   25.3798   -0.3317 H   0  0  0  0  0
  -23.3060   25.1378   -1.1917 H   0  0  0  0  0
  -21.7264   23.2684   -1.4261 H   0  0  0  0  0
  -23.2862   22.8248   -0.6472 H   0  0  0  0  0
  -20.6526   23.3505    0.6987 H   0  0  0  0  0
  -21.4879   21.7665    0.4999 H   0  0  0  0  0
  -21.7397   22.7715    2.7586 H   0  0  0  0  0
  -23.3069   22.5126    1.8840 H   0  0  0  0  0
  -22.8324   15.2223    3.9852 H   0  0  0  0  0
  -22.5264   15.6450    6.4095 H   0  0  0  0  0
  -31.3659   21.2247    5.1275 H   0  0  0  0  0
  -30.6064   20.5511    3.6816 H   0  0  0  0  0
  -21.8720   25.0508    2.2813 H   0  0  0  0  0
  -24.4303   19.3225    7.6096 H   0  0  0  0  0
  2  1  1  0  0  0
  1 26  2  0  0  0
  1 27  1  0  0  0
  3  2  4  0  0  0
  2 22  4  0  0  0
  3  4  4  0  0  0
 29  3  4  0  0  0
  5  4  4  0  0  0
  4 25  4  0  0  0
  6  5  4  0  0  0
  7  6  1  0  0  0
  6 29  4  0  0  0
  7  8  1  0  0  0
 28  7  1  0  0  0
  8  9  4  0  0  0
  8 13  4  0  0  0
  9 10  4  0  0  0
 10 11  4  0  0  0
 12 11  4  0  0  0
 13 12  4  0  0  0
 12 23  1  0  0  0
 15 14  1  0  0  0
 14 28  1  0  0  0
 24 15  1  0  0  0
 16 17  1  0  0  0
 16 24  1  0  0  0
 17 18  1  0  0  0
 18 19  1  0  0  0
 19 20  1  0  0  0
 20 24  1  0  0  0
 22 21  4  0  0  0
 21 25  4  0  0  0
  5 30  1  0  0  0
  7 31  1  0  0  0
  9 32  1  0  0  0
 10 33  1  0  0  0
 11 34  1  0  0  0
 13 35  1  0  0  0
 14 36  1  0  0  0
 14 37  1  0  0  0
 15 38  1  0  0  0
 15 39  1  0  0  0
 16 40  1  0  0  0
 16 41  1  0  0  0
 17 42  1  0  0  0
 17 43  1  0  0  0
 18 44  1  0  0  0
 18 45  1  0  0  0
 19 46  1  0  0  0
 19 47  1  0  0  0
 20 48  1  0  0  0
 20 49  1  0  0  0
 21 50  1  0  0  0
 22 51  1  0  0  0
 23 52  1  0  0  0
 23 53  1  0  0  0
 24 54  1  0  0  0
 27 55  1  0  0  0
M  END
$$$$
