3ddp_ligand
  -I-interpret- 

 61 64  0  0  0  0  0  0  0  0999 V2000
   32.8220  -14.6680   37.8260 C   0  0  0  0  0
   32.4820  -13.3730   35.9020 C   0  0  0  0  0
   32.2520  -14.5770   35.0940 C   0  0  0  0  0
   32.3460  -15.8790   35.8220 C   0  0  0  0  0
   32.0800  -12.7690   33.8540 C   0  0  0  0  0
   32.5600  -10.9610   35.6400 C   0  0  0  0  0
   33.5820  -10.2020   34.8150 C   0  0  0  0  0
   33.6690  -13.4830   39.7720 C   0  0  0  0  0
   35.7730  -12.4220   38.8480 C   0  0  0  0  0
   32.5230  -14.5970   41.6180 O   0  0  0  0  0
   33.1970  -13.3890   41.2230 C   0  0  0  0  0
   35.1980  -13.5070   39.7300 C   0  0  0  0  0
   33.1060  -14.6740   39.1450 N   0  0  0  0  0
   32.6250  -15.8340   37.1520 N   0  0  0  0  0
   32.3660  -12.3290   35.0980 N   0  0  0  0  0
   31.2200  -10.2740   35.7970 C   0  0  0  0  0
   32.0070  -14.1300   33.8420 N   0  0  0  0  0
   32.7540  -13.4710   37.2190 N   0  0  0  0  0
   32.1450  -17.0570   35.1830 N   0  0  0  0  0
   32.6390  -18.3290   35.6740 C   0  0  0  0  0
   31.5390  -18.9790   36.4700 C   0  0  0  0  0
   31.6840  -19.1560   37.8490 C   0  0  0  0  0
   30.6600  -19.7490   38.5860 C   0  0  0  0  0
   29.4990  -20.1740   37.9390 C   0  0  0  0  0
   29.3570  -19.9850   36.5630 C   0  0  0  0  0
   30.3780  -19.3900   35.8250 C   0  0  0  0  0
   28.3890  -20.7810   38.7220 C   0  0  0  0  0
   28.4590  -20.7870   40.0710 N   0  0  0  0  0
   27.4710  -21.3040   40.8310 C   0  0  0  0  0
   26.3260  -21.8340   40.2290 C   0  0  0  0  0
   26.2190  -21.8260   38.8380 C   0  0  0  0  0
   27.2580  -21.2880   38.0760 C   0  0  0  0  0
   31.9293  -12.1285   32.9850 H   0  0  0  0  0
   32.9858  -11.0013   36.6426 H   0  0  0  0  0
   34.5341  -10.7320   34.8412 H   0  0  0  0  0
   33.2336  -10.1290   33.7848 H   0  0  0  0  0
   33.7101   -9.2016   35.2283 H   0  0  0  0  0
   33.3242  -12.6115   39.2156 H   0  0  0  0  0
   35.4077  -12.5520   37.8293 H   0  0  0  0  0
   35.4634  -11.4472   39.2247 H   0  0  0  0  0
   36.8610  -12.4873   38.8563 H   0  0  0  0  0
   32.2351  -14.5178   42.5304 H   0  0  0  0  0
   32.5038  -12.5528   41.3145 H   0  0  0  0  0
   34.0643  -13.2429   41.8668 H   0  0  0  0  0
   35.5071  -14.4694   39.3222 H   0  0  0  0  0
   35.5638  -13.3439   40.7437 H   0  0  0  0  0
   32.9275  -15.5093   39.7025 H   0  0  0  0  0
   30.7298  -10.2103   34.8255 H   0  0  0  0  0
   30.5970  -10.8481   36.4828 H   0  0  0  0  0
   31.3719   -9.2708   36.1952 H   0  0  0  0  0
   31.6179  -17.0486   34.3098 H   0  0  0  0  0
   33.5173  -18.1753   36.3009 H   0  0  0  0  0
   32.9284  -18.9681   34.8398 H   0  0  0  0  0
   32.5970  -18.8306   38.3477 H   0  0  0  0  0
   30.7658  -19.8801   39.6629 H   0  0  0  0  0
   28.4425  -20.3047   36.0634 H   0  0  0  0  0
   30.2674  -19.2478   34.7500 H   0  0  0  0  0
   27.5659  -21.3084   41.9168 H   0  0  0  0  0
   25.5248  -22.2494   40.8403 H   0  0  0  0  0
   25.3338  -22.2354   38.3513 H   0  0  0  0  0
   27.1878  -21.2637   36.9885 H   0  0  0  0  0
 13  1  1  0  0  0
  1 14  4  0  0  0
  1 18  4  0  0  0
  2  3  4  0  0  0
  2 15  4  0  0  0
 18  2  4  0  0  0
  4  3  4  0  0  0
  3 17  4  0  0  0
 14  4  4  0  0  0
  4 19  1  0  0  0
 15  5  4  0  0  0
  5 17  4  0  0  0
  6  7  1  0  0  0
 15  6  1  0  0  0
  6 16  1  0  0  0
  8 11  1  0  0  0
  8 12  1  0  0  0
  8 13  1  0  0  0
 12  9  1  0  0  0
 11 10  1  0  0  0
 19 20  1  0  0  0
 20 21  1  0  0  0
 21 22  4  0  0  0
 21 26  4  0  0  0
 22 23  4  0  0  0
 23 24  4  0  0  0
 24 25  4  0  0  0
 24 27  1  0  0  0
 25 26  4  0  0  0
 27 28  4  0  0  0
 27 32  4  0  0  0
 28 29  4  0  0  0
 29 30  4  0  0  0
 30 31  4  0  0  0
 31 32  4  0  0  0
  5 33  1  0  0  0
  6 34  1  0  0  0
  7 35  1  0  0  0
  7 36  1  0  0  0
  7 37  1  0  0  0
  8 38  1  0  0  0
  9 39  1  0  0  0
  9 40  1  0  0  0
  9 41  1  0  0  0
 10 42  1  0  0  0
 11 43  1  0  0  0
 11 44  1  0  0  0
 12 45  1  0  0  0
 12 46  1  0  0  0
 13 47  1  0  0  0
 16 48  1  0  0  0
 16 49  1  0  0  0
 16 50  1  0  0  0
 19 51  1  0  0  0
 20 52  1  0  0  0
 20 53  1  0  0  0
 22 54  1  0  0  0
 23 55  1  0  0  0
 25 56  1  0  0  0
 26 57  1  0  0  0
 29 58  1  0  0  0
 30 59  1  0  0  0
 31 60  1  0  0  0
 32 61  1  0  0  0
M  END
$$$$
