### 
### Created by X-TOOL on Mon Sep 10 21:13:17 2018
### 

@<TRIPOS>MOLECULE
4mny_ligand
  190   193     1     0     0
SMALL
GAST_HUCK


@<TRIPOS>ATOM
      1 N         -31.5000   -4.6150  -26.1850 N.4       1 GLY         0.2357
      2 CA        -32.2720   -3.6980  -27.0710 C.3       1 GLY         0.0545
      3 C         -31.3540   -2.8820  -27.9550 C.2       1 GLY         0.2237
      4 O         -30.2690   -3.3390  -28.3200 O.2       1 GLY        -0.3910
      5 N         -31.7820   -1.6710  -28.2950 N.am      1 CYS        -0.2605
      6 CA        -30.9930   -0.7940  -29.1520 C.3       1 CYS         0.1397
      7 C         -30.8220    0.5950  -28.5460 C.2       1 CYS         0.2047
      8 O         -31.0070    1.6090  -29.2220 O.2       1 CYS        -0.3944
      9 CB        -31.6190   -0.7300  -30.5420 C.3       1 CYS         0.0311
     10 SG        -31.2110   -2.1800  -31.5400 S.3       1 CYS        -0.1735
     11 N         -30.4400    0.6260  -27.2710 N.am      1 GLN        -0.2636
     12 CA        -30.0840    1.8780  -26.5990 C.3       1 GLN         0.1330
     13 C         -28.5980    2.1780  -26.7900 C.2       1 GLN         0.2041
     14 O         -28.1800    3.3330  -26.7470 O.2       1 GLN        -0.3944
     15 CB        -30.4060    1.8070  -25.1030 C.3       1 GLN         0.0045
     16 CG        -31.0420    3.0790  -24.5490 C.3       1 GLN         0.0412
     17 CD        -32.4310    3.3900  -25.1030 C.2       1 GLN         0.1737
     18 OE1       -32.9370    4.4950  -24.9030 O.2       1 GLN        -0.3973
     19 NE2       -33.0570    2.4290  -25.7900 N.am      1 GLN        -0.3009
     20 N         -27.7970    1.1360  -26.9810 N.am      1 VAL        -0.2635
     21 CA        -26.3800    1.3240  -27.3000 C.3       1 VAL         0.1333
     22 C         -26.1090    0.8250  -28.7240 C.2       1 VAL         0.2043
     23 O         -26.3440   -0.3410  -29.0490 O.2       1 VAL        -0.3944
     24 CB        -25.4640    0.6440  -26.2630 C.3       1 VAL        -0.0063
     25 CG1       -23.9920    0.9190  -26.5770 C.3       1 VAL        -0.0584
     26 CG2       -25.8020    1.1530  -24.8640 C.3       1 VAL        -0.0584
     27 N         -25.6610    1.7460  -29.5710 N.am      1 ASN        -0.2616
     28 CA        -25.3530    1.4710  -30.9730 C.3       1 ASN         0.1476
     29 C         -24.1860    2.3180  -31.4450 C.2       1 ASN         0.2064
     30 O         -23.7850    3.2620  -30.7710 O.2       1 ASN        -0.3942
     31 CB        -26.5330    1.8480  -31.8610 C.3       1 ASN         0.0773
     32 CG        -27.8030    1.1470  -31.4770 C.2       1 ASN         0.1780
     33 OD1       -28.0210   -0.0150  -31.8320 O.2       1 ASN        -0.3970
     34 ND2       -28.6670    1.8590  -30.7570 N.am      1 ASN        -0.3007
     35 N         -23.6740    1.9930  -32.6300 N.am      1 TYR        -0.2620
     36 CA        -22.8320    2.9150  -33.3750 C.3       1 TYR         0.1390
     37 C         -23.6340    4.1750  -33.6850 C.2       1 TYR         0.2058
     38 O         -23.1660    5.2920  -33.4590 O.2       1 TYR        -0.3942
     39 CB        -22.3270    2.2870  -34.6890 C.3       1 TYR         0.0163
     40 CG        -21.5510    3.2620  -35.5450 C.ar      1 TYR        -0.0493
     41 CD1       -20.2890    3.7120  -35.1620 C.ar      1 TYR        -0.0685
     42 CD2       -22.0860    3.7500  -36.7400 C.ar      1 TYR        -0.0685
     43 CE1       -19.5970    4.6280  -35.9400 C.ar      1 TYR        -0.0398
     44 CE2       -21.4010    4.6550  -37.5260 C.ar      1 TYR        -0.0398
     45 CZ        -20.1570    5.0960  -37.1230 C.ar      1 TYR         0.0805
     46 OH        -19.4890    6.0080  -37.9150 O.3       1 TYR        -0.3376
     47 N         -24.8410    3.9790  -34.2130 N.am      1 CYS        -0.2628
     48 CA        -25.6930    5.0910  -34.6390 C.3       1 CYS         0.1398
     49 C         -27.1450    4.7210  -34.4030 C.2       1 CYS         0.2072
     50 O         -27.4830    3.5400  -34.4710 O.2       1 CYS        -0.3942
     51 CB        -25.4720    5.4170  -36.1310 C.3       1 CYS         0.0311
     52 SG        -25.5330    4.0150  -37.2860 S.3       1 CYS        -0.1735
     53 N         -28.0010    5.7170  -34.1030 N.am      1 PRO        -0.2498
     54 CA        -29.4310    5.4440  -33.8630 C.3       1 PRO         0.1340
     55 C         -30.0900    4.5000  -34.8730 C.2       1 PRO         0.2066
     56 O         -29.9220    4.6660  -36.0810 O.2       1 PRO        -0.3942
     57 CB        -30.0550    6.8360  -33.9430 C.3       1 PRO        -0.0104
     58 CG        -29.0070    7.7090  -33.3710 C.3       1 PRO        -0.0281
     59 CD        -27.6900    7.1390  -33.8670 C.3       1 PRO         0.0369
     60 N         -30.8540    3.5120  -34.3820 N.am      1 PRO        -0.2498
     61 CA        -31.4530    2.5260  -35.2800 C.3       1 PRO         0.1338
     62 C         -32.3000    3.1140  -36.4080 C.2       1 PRO         0.2041
     63 O         -32.9730    4.1390  -36.2310 O.2       1 PRO        -0.3944
     64 CB        -32.3010    1.6700  -34.3480 C.3       1 PRO        -0.0104
     65 CG        -31.6200    1.7770  -33.0380 C.3       1 PRO        -0.0281
     66 CD        -31.0880    3.1750  -32.9680 C.3       1 PRO         0.0369
     67 N         -32.2260    2.4510  -37.5540 N.am      1 VAL        -0.2635
     68 CA        -32.9980    2.7700  -38.7450 C.3       1 VAL         0.1334
     69 C         -33.9350    1.5840  -39.0560 C.2       1 VAL         0.2066
     70 O         -33.5160    0.4270  -38.9940 O.2       1 VAL        -0.3942
     71 CB        -32.0320    3.0510  -39.9130 C.3       1 VAL        -0.0062
     72 CG1       -32.7650    3.1390  -41.2440 C.3       1 VAL        -0.0584
     73 CG2       -31.2580    4.3300  -39.6360 C.3       1 VAL        -0.0584
     74 N         -35.2300    1.8530  -39.3400 N.am      1 PRO        -0.2498
     75 CA        -36.0890    0.7200  -39.6800 C.3       1 PRO         0.1338
     76 C         -35.5870   -0.1140  -40.8620 C.2       1 PRO         0.2041
     77 O         -35.1030    0.4300  -41.8630 O.2       1 PRO        -0.3944
     78 CB        -37.4320    1.3890  -40.0090 C.3       1 PRO        -0.0104
     79 CG        -37.4280    2.6300  -39.1920 C.3       1 PRO        -0.0281
     80 CD        -36.0060    3.1000  -39.1920 C.3       1 PRO         0.0369
     81 N         -35.6960   -1.4300  -40.7290 N.am      1 CYS        -0.2629
     82 CA        -35.1500   -2.3510  -41.7200 C.3       1 CYS         0.1396
     83 C         -36.0170   -2.4870  -42.9790 C.2       1 CYS         0.2047
     84 O         -37.2690   -2.3960  -42.9260 O.2       1 CYS        -0.3944
     85 CB        -34.9130   -3.7280  -41.0890 C.3       1 CYS         0.0311
     86 SG        -33.9600   -3.7190  -39.5450 S.3       1 CYS        -0.1735
     87 N         -35.3410   -2.7200  -44.1010 N.am      1 LEU        -0.2637
     88 CA        -35.9710   -3.0610  -45.3760 C.3       1 LEU         0.1309
     89 C         -35.4200   -4.3720  -45.9160 C.2       1 LEU         0.1992
     90 O         -36.1790   -5.2130  -46.4110 O.2       1 LEU        -0.3947
     91 CB        -35.7390   -1.9650  -46.4200 C.3       1 LEU        -0.0101
     92 CG        -36.3350   -0.5880  -46.1500 C.3       1 LEU        -0.0425
     93 CD1       -35.8610    0.4040  -47.2040 C.3       1 LEU        -0.0625
     94 CD2       -37.8530   -0.6430  -46.1120 C.3       1 LEU        -0.0625
     95 N         -34.1000   -4.5450  -45.8240 N.am      1 NH2        -0.2990
     96 H         -32.1380   -5.1430  -25.6104 H         1 GLY         0.2012
     97 H         -30.8857   -4.0749  -25.5960 H         1 GLY         0.2012
     98 H         -30.9544   -5.2472  -26.7495 H         1 GLY         0.2012
     99 H         -32.8681   -3.0155  -26.4474 H         1 GLY         0.1061
    100 H         -32.9431   -4.2948  -27.7062 H         1 GLY         0.1061
    101 H         -32.6670   -1.3532  -27.9548 H         1 CYS         0.1885
    102 H         -29.9905   -1.2352  -29.2532 H         1 CYS         0.0808
    103 H         -31.2495    0.1695  -31.0561 H         1 CYS         0.0422
    104 H         -32.7122   -0.6688  -30.4360 H         1 CYS         0.0422
    105 H         -31.6439   -2.0952  -32.4464 H         1 CYS         0.1019
    106 H         -30.3948   -0.2306  -26.7570 H         1 GLN         0.1883
    107 H         -30.6704    2.6939  -27.0467 H         1 GLN         0.0801
    108 H         -29.4705    1.6201  -24.5553 H         1 GLN         0.0337
    109 H         -31.1014    0.9710  -24.9371 H         1 GLN         0.0337
    110 H         -30.3805    3.9250  -24.7873 H         1 GLN         0.0504
    111 H         -31.1240    2.9739  -23.4571 H         1 GLN         0.0504
    112 H         -33.9677    2.5966  -26.1676 H         1 GLN         0.1814
    113 H         -32.6146    1.5426  -25.9262 H         1 GLN         0.1814
    114 H         -28.1667    0.2099  -26.9059 H         1 VAL         0.1883
    115 H         -26.1657    2.4026  -27.2725 H         1 VAL         0.0802
    116 H         -25.6353   -0.4420  -26.2982 H         1 VAL         0.0343
    117 H         -23.3584    0.4251  -25.8256 H         1 VAL         0.0234
    118 H         -23.8088    2.0034  -26.5554 H         1 VAL         0.0234
    119 H         -23.7505    0.5261  -27.5756 H         1 VAL         0.0234
    120 H         -26.8613    0.9514  -24.6465 H         1 VAL         0.0234
    121 H         -25.6169    2.2361  -24.8132 H         1 VAL         0.0234
    122 H         -25.1714    0.6382  -24.1242 H         1 VAL         0.0234
    123 H         -25.5275    2.6769  -29.2309 H         1 ASN         0.1885
    124 H         -25.1165    0.4030  -31.0893 H         1 ASN         0.0826
    125 H         -26.2878    1.5846  -32.9005 H         1 ASN         0.0551
    126 H         -26.6953    2.9334  -31.7862 H         1 ASN         0.0551
    127 H         -29.5330    1.4508  -30.4682 H         1 ASN         0.1814
    128 H         -28.4501    2.8021  -30.5049 H         1 ASN         0.1814
    129 H         -23.8733    1.0928  -33.0172 H         1 TYR         0.1885
    130 H         -21.9632    3.1819  -32.7554 H         1 TYR         0.0821
    131 H         -23.1941    1.9285  -35.2631 H         1 TYR         0.0453
    132 H         -21.6730    1.4373  -34.4437 H         1 TYR         0.0453
    133 H         -19.8433    3.3420  -34.2458 H         1 TYR         0.0530
    134 H         -23.0645    3.4091  -37.0583 H         1 TYR         0.0530
    135 H         -18.6205    4.9786  -35.6259 H         1 TYR         0.0525
    136 H         -21.8362    5.0158  -38.4509 H         1 TYR         0.0525
    137 H         -20.0109    6.7977  -37.9958 H         1 TYR         0.2458
    138 H         -25.1758    3.0430  -34.3219 H         1 CYS         0.1884
    139 H         -25.4448    5.9805  -34.0413 H         1 CYS         0.0808
    140 H         -24.4818    5.8862  -36.2273 H         1 CYS         0.0422
    141 H         -26.2488    6.1341  -36.4349 H         1 CYS         0.0422
    142 H         -25.3761    4.3474  -38.2246 H         1 CYS         0.1019
    143 H         -29.5632    5.0172  -32.8578 H         1 PRO         0.0802
    144 H         -30.9796    6.8886  -33.3494 H         1 PRO         0.0313
    145 H         -30.2723    7.1116  -34.9855 H         1 PRO         0.0313
    146 H         -29.0459    7.6871  -32.2719 H         1 PRO         0.0287
    147 H         -29.1346    8.7437  -33.7219 H         1 PRO         0.0287
    148 H         -27.3731    7.6324  -34.7976 H         1 PRO         0.0524
    149 H         -26.9024    7.2489  -33.1070 H         1 PRO         0.0524
    150 H         -30.6583    1.9173  -35.7360 H         1 PRO         0.0802
    151 H         -32.3247    0.6252  -34.6913 H         1 PRO         0.0313
    152 H         -33.3280    2.0593  -34.2869 H         1 PRO         0.0313
    153 H         -30.7968    1.0502  -32.9737 H         1 PRO         0.0287
    154 H         -32.3328    1.5970  -32.2198 H         1 PRO         0.0287
    155 H         -31.8242    3.8559  -32.5160 H         1 PRO         0.0524
    156 H         -30.1514    3.2131  -32.3923 H         1 PRO         0.0524
    157 H         -31.5948    1.6769  -37.6030 H         1 VAL         0.1883
    158 H         -33.6053    3.6683  -38.5601 H         1 VAL         0.0803
    159 H         -31.3159    2.2183  -39.9747 H         1 VAL         0.0343
    160 H         -32.0419    3.3398  -42.0482 H         1 VAL         0.0234
    161 H         -33.5032    3.9534  -41.2029 H         1 VAL         0.0234
    162 H         -33.2796    2.1873  -41.4429 H         1 VAL         0.0234
    163 H         -30.7379    4.2421  -38.6707 H         1 VAL         0.0234
    164 H         -31.9551    5.1801  -39.6008 H         1 VAL         0.0234
    165 H         -30.5209    4.4931  -40.4360 H         1 VAL         0.0234
    166 H         -36.1930    0.0564  -38.8090 H         1 PRO         0.0802
    167 H         -38.2723    0.7380  -39.7261 H         1 PRO         0.0313
    168 H         -37.4974    1.6273  -41.0809 H         1 PRO         0.0313
    169 H         -37.7631    2.4168  -38.1662 H         1 PRO         0.0287
    170 H         -38.0845    3.3893  -39.6419 H         1 PRO         0.0287
    171 H         -35.8177    3.7824  -40.0339 H         1 PRO         0.0524
    172 H         -35.7595    3.6065  -38.2472 H         1 PRO         0.0524
    173 H         -36.1653   -1.8005  -39.9274 H         1 CYS         0.1884
    174 H         -34.1755   -1.9505  -42.0362 H         1 CYS         0.0808
    175 H         -34.3717   -4.3478  -41.8189 H         1 CYS         0.0422
    176 H         -35.8940   -4.1797  -40.8803 H         1 CYS         0.0422
    177 H         -33.8574   -4.6639  -39.2094 H         1 CYS         0.1019
    178 H         -34.3434   -2.6583  -44.0707 H         1 LEU         0.1883
    179 H         -37.0530   -3.1701  -45.2106 H         1 LEU         0.0800
    180 H         -36.1595   -2.3236  -47.3711 H         1 LEU         0.0315
    181 H         -34.6516   -1.8368  -46.5250 H         1 LEU         0.0315
    182 H         -35.9798   -0.2456  -45.1669 H         1 LEU         0.0298
    183 H         -36.2970    1.3929  -46.9991 H         1 LEU         0.0232
    184 H         -36.1801    0.0618  -48.1995 H         1 LEU         0.0232
    185 H         -34.7636    0.4739  -47.1746 H         1 LEU         0.0232
    186 H         -38.1747   -1.3638  -45.3459 H         1 LEU         0.0232
    187 H         -38.2332   -0.9584  -47.0948 H         1 LEU         0.0232
    188 H         -38.2500    0.3533  -45.8677 H         1 LEU         0.0232
    189 H         -33.6814   -5.3876  -46.1626 H         1 NH2         0.1815
    190 H         -33.5295   -3.8320  -45.4164 H         1 NH2         0.1815
@<TRIPOS>BOND
     1    1    2 1  
     2    2    3 1  
     3    3    4 2  
     4    3    5 am 
     5    5    6 1  
     6    6    7 1  
     7    6    9 1  
     8    7    8 2  
     9    7   11 am 
    10    9   10 1  
    11   11   12 1  
    12   12   13 1  
    13   12   15 1  
    14   13   14 2  
    15   13   20 am 
    16   15   16 1  
    17   16   17 1  
    18   17   18 2  
    19   17   19 am 
    20   20   21 1  
    21   21   22 1  
    22   21   24 1  
    23   22   23 2  
    24   22   27 am 
    25   24   25 1  
    26   24   26 1  
    27   27   28 1  
    28   28   29 1  
    29   28   31 1  
    30   29   30 2  
    31   29   35 am 
    32   31   32 1  
    33   32   33 2  
    34   32   34 am 
    35   35   36 1  
    36   36   37 1  
    37   36   39 1  
    38   37   38 2  
    39   37   47 am 
    40   39   40 1  
    41   40   41 ar 
    42   40   42 ar 
    43   41   43 ar 
    44   42   44 ar 
    45   43   45 ar 
    46   44   45 ar 
    47   45   46 1  
    48   47   48 1  
    49   48   49 1  
    50   48   51 1  
    51   49   50 2  
    52   49   53 am 
    53   51   52 1  
    54   53   54 1  
    55   53   59 1  
    56   54   55 1  
    57   54   57 1  
    58   55   56 2  
    59   55   60 am 
    60   57   58 1  
    61   58   59 1  
    62   60   61 1  
    63   60   66 1  
    64   61   62 1  
    65   61   64 1  
    66   62   63 2  
    67   62   67 am 
    68   64   65 1  
    69   65   66 1  
    70   67   68 1  
    71   68   69 1  
    72   68   71 1  
    73   69   70 2  
    74   69   74 am 
    75   71   72 1  
    76   71   73 1  
    77   74   75 1  
    78   74   80 1  
    79   75   76 1  
    80   75   78 1  
    81   76   77 2  
    82   76   81 am 
    83   78   79 1  
    84   79   80 1  
    85   81   82 1  
    86   82   83 1  
    87   82   85 1  
    88   83   84 2  
    89   83   87 am 
    90   85   86 1  
    91   87   88 1  
    92   88   89 1  
    93   88   91 1  
    94   89   90 2  
    95   89   95 am 
    96   91   92 1  
    97   92   93 1  
    98   92   94 1  
    99    1   96 1  
   100    1   97 1  
   101    1   98 1  
   102    2   99 1  
   103    2  100 1  
   104    5  101 1  
   105    6  102 1  
   106    9  103 1  
   107    9  104 1  
   108   10  105 1  
   109   11  106 1  
   110   12  107 1  
   111   15  108 1  
   112   15  109 1  
   113   16  110 1  
   114   16  111 1  
   115   19  112 1  
   116   19  113 1  
   117   20  114 1  
   118   21  115 1  
   119   24  116 1  
   120   25  117 1  
   121   25  118 1  
   122   25  119 1  
   123   26  120 1  
   124   26  121 1  
   125   26  122 1  
   126   27  123 1  
   127   28  124 1  
   128   31  125 1  
   129   31  126 1  
   130   34  127 1  
   131   34  128 1  
   132   35  129 1  
   133   36  130 1  
   134   39  131 1  
   135   39  132 1  
   136   41  133 1  
   137   42  134 1  
   138   43  135 1  
   139   44  136 1  
   140   46  137 1  
   141   47  138 1  
   142   48  139 1  
   143   51  140 1  
   144   51  141 1  
   145   52  142 1  
   146   54  143 1  
   147   57  144 1  
   148   57  145 1  
   149   58  146 1  
   150   58  147 1  
   151   59  148 1  
   152   59  149 1  
   153   61  150 1  
   154   64  151 1  
   155   64  152 1  
   156   65  153 1  
   157   65  154 1  
   158   66  155 1  
   159   66  156 1  
   160   67  157 1  
   161   68  158 1  
   162   71  159 1  
   163   72  160 1  
   164   72  161 1  
   165   72  162 1  
   166   73  163 1  
   167   73  164 1  
   168   73  165 1  
   169   75  166 1  
   170   78  167 1  
   171   78  168 1  
   172   79  169 1  
   173   79  170 1  
   174   80  171 1  
   175   80  172 1  
   176   81  173 1  
   177   82  174 1  
   178   85  175 1  
   179   85  176 1  
   180   86  177 1  
   181   87  178 1  
   182   88  179 1  
   183   91  180 1  
   184   91  181 1  
   185   92  182 1  
   186   93  183 1  
   187   93  184 1  
   188   93  185 1  
   189   94  186 1  
   190   94  187 1  
   191   94  188 1  
   192   95  189 1  
   193   95  190 1  
@<TRIPOS>SUBSTRUCTURE
     1 GLY         1

