4mny_ligand
  -I-interpret- 

190193  0  0  0  0  0  0  0  0999 V2000
  -31.5000   -4.6150  -26.1850 N   0  3  0  0  0
  -32.2720   -3.6980  -27.0710 C   0  0  0  0  0
  -31.3540   -2.8820  -27.9550 C   0  0  0  0  0
  -30.2690   -3.3390  -28.3200 O   0  0  0  0  0
  -31.7820   -1.6710  -28.2950 N   0  0  0  0  0
  -30.9930   -0.7940  -29.1520 C   0  0  0  0  0
  -30.8220    0.5950  -28.5460 C   0  0  0  0  0
  -31.0070    1.6090  -29.2220 O   0  0  0  0  0
  -31.6190   -0.7300  -30.5420 C   0  0  0  0  0
  -31.2110   -2.1800  -31.5400 S   0  0  0  0  0
  -30.4400    0.6260  -27.2710 N   0  0  0  0  0
  -30.0840    1.8780  -26.5990 C   0  0  0  0  0
  -28.5980    2.1780  -26.7900 C   0  0  0  0  0
  -28.1800    3.3330  -26.7470 O   0  0  0  0  0
  -30.4060    1.8070  -25.1030 C   0  0  0  0  0
  -31.0420    3.0790  -24.5490 C   0  0  0  0  0
  -32.4310    3.3900  -25.1030 C   0  0  0  0  0
  -32.9370    4.4950  -24.9030 O   0  0  0  0  0
  -33.0570    2.4290  -25.7900 N   0  0  0  0  0
  -27.7970    1.1360  -26.9810 N   0  0  0  0  0
  -26.3800    1.3240  -27.3000 C   0  0  0  0  0
  -26.1090    0.8250  -28.7240 C   0  0  0  0  0
  -26.3440   -0.3410  -29.0490 O   0  0  0  0  0
  -25.4640    0.6440  -26.2630 C   0  0  0  0  0
  -23.9920    0.9190  -26.5770 C   0  0  0  0  0
  -25.8020    1.1530  -24.8640 C   0  0  0  0  0
  -25.6610    1.7460  -29.5710 N   0  0  0  0  0
  -25.3530    1.4710  -30.9730 C   0  0  0  0  0
  -24.1860    2.3180  -31.4450 C   0  0  0  0  0
  -23.7850    3.2620  -30.7710 O   0  0  0  0  0
  -26.5330    1.8480  -31.8610 C   0  0  0  0  0
  -27.8030    1.1470  -31.4770 C   0  0  0  0  0
  -28.0210   -0.0150  -31.8320 O   0  0  0  0  0
  -28.6670    1.8590  -30.7570 N   0  0  0  0  0
  -23.6740    1.9930  -32.6300 N   0  0  0  0  0
  -22.8320    2.9150  -33.3750 C   0  0  0  0  0
  -23.6340    4.1750  -33.6850 C   0  0  0  0  0
  -23.1660    5.2920  -33.4590 O   0  0  0  0  0
  -22.3270    2.2870  -34.6890 C   0  0  0  0  0
  -21.5510    3.2620  -35.5450 C   0  0  0  0  0
  -20.2890    3.7120  -35.1620 C   0  0  0  0  0
  -22.0860    3.7500  -36.7400 C   0  0  0  0  0
  -19.5970    4.6280  -35.9400 C   0  0  0  0  0
  -21.4010    4.6550  -37.5260 C   0  0  0  0  0
  -20.1570    5.0960  -37.1230 C   0  0  0  0  0
  -19.4890    6.0080  -37.9150 O   0  0  0  0  0
  -24.8410    3.9790  -34.2130 N   0  0  0  0  0
  -25.6930    5.0910  -34.6390 C   0  0  0  0  0
  -27.1450    4.7210  -34.4030 C   0  0  0  0  0
  -27.4830    3.5400  -34.4710 O   0  0  0  0  0
  -25.4720    5.4170  -36.1310 C   0  0  0  0  0
  -25.5330    4.0150  -37.2860 S   0  0  0  0  0
  -28.0010    5.7170  -34.1030 N   0  0  0  0  0
  -29.4310    5.4440  -33.8630 C   0  0  0  0  0
  -30.0900    4.5000  -34.8730 C   0  0  0  0  0
  -29.9220    4.6660  -36.0810 O   0  0  0  0  0
  -30.0550    6.8360  -33.9430 C   0  0  0  0  0
  -29.0070    7.7090  -33.3710 C   0  0  0  0  0
  -27.6900    7.1390  -33.8670 C   0  0  0  0  0
  -30.8540    3.5120  -34.3820 N   0  0  0  0  0
  -31.4530    2.5260  -35.2800 C   0  0  0  0  0
  -32.3000    3.1140  -36.4080 C   0  0  0  0  0
  -32.9730    4.1390  -36.2310 O   0  0  0  0  0
  -32.3010    1.6700  -34.3480 C   0  0  0  0  0
  -31.6200    1.7770  -33.0380 C   0  0  0  0  0
  -31.0880    3.1750  -32.9680 C   0  0  0  0  0
  -32.2260    2.4510  -37.5540 N   0  0  0  0  0
  -32.9980    2.7700  -38.7450 C   0  0  0  0  0
  -33.9350    1.5840  -39.0560 C   0  0  0  0  0
  -33.5160    0.4270  -38.9940 O   0  0  0  0  0
  -32.0320    3.0510  -39.9130 C   0  0  0  0  0
  -32.7650    3.1390  -41.2440 C   0  0  0  0  0
  -31.2580    4.3300  -39.6360 C   0  0  0  0  0
  -35.2300    1.8530  -39.3400 N   0  0  0  0  0
  -36.0890    0.7200  -39.6800 C   0  0  0  0  0
  -35.5870   -0.1140  -40.8620 C   0  0  0  0  0
  -35.1030    0.4300  -41.8630 O   0  0  0  0  0
  -37.4320    1.3890  -40.0090 C   0  0  0  0  0
  -37.4280    2.6300  -39.1920 C   0  0  0  0  0
  -36.0060    3.1000  -39.1920 C   0  0  0  0  0
  -35.6960   -1.4300  -40.7290 N   0  0  0  0  0
  -35.1500   -2.3510  -41.7200 C   0  0  0  0  0
  -36.0170   -2.4870  -42.9790 C   0  0  0  0  0
  -37.2690   -2.3960  -42.9260 O   0  0  0  0  0
  -34.9130   -3.7280  -41.0890 C   0  0  0  0  0
  -33.9600   -3.7190  -39.5450 S   0  0  0  0  0
  -35.3410   -2.7200  -44.1010 N   0  0  0  0  0
  -35.9710   -3.0610  -45.3760 C   0  0  0  0  0
  -35.4200   -4.3720  -45.9160 C   0  0  0  0  0
  -36.1790   -5.2130  -46.4110 O   0  0  0  0  0
  -35.7390   -1.9650  -46.4200 C   0  0  0  0  0
  -36.3350   -0.5880  -46.1500 C   0  0  0  0  0
  -35.8610    0.4040  -47.2040 C   0  0  0  0  0
  -37.8530   -0.6430  -46.1120 C   0  0  0  0  0
  -34.1000   -4.5450  -45.8240 N   0  0  0  0  0
  -32.1465   -5.1487  -25.6040 H   0  0  0  0  0
  -30.9483   -5.2542  -26.7573 H   0  0  0  0  0
  -30.8787   -4.0674  -25.5895 H   0  0  0  0  0
  -32.8473   -3.0153  -26.4456 H   0  0  0  0  0
  -32.9225   -4.2979  -27.7075 H   0  0  0  0  0
  -32.6847   -1.3468  -27.9480 H   0  0  0  0  0
  -29.9908   -1.2135  -29.2405 H   0  0  0  0  0
  -31.2293    0.1523  -31.0497 H   0  0  0  0  0
  -32.7021   -0.6919  -30.4253 H   0  0  0  0  0
  -31.7822   -2.0681  -32.7359 H   0  0  0  0  0
  -30.3939   -0.2477  -26.7467 H   0  0  0  0  0
  -30.6740    2.6786  -27.0453 H   0  0  0  0  0
  -29.4645    1.6575  -24.5745 H   0  0  0  0  0
  -31.1224    0.9976  -24.9627 H   0  0  0  0  0
  -30.3937    3.9080  -24.8329 H   0  0  0  0  0
  -31.1532    2.9365  -23.4741 H   0  0  0  0  0
  -33.9882    2.5980  -26.1703 H   0  0  0  0  0
  -32.6034    1.5268  -25.9338 H   0  0  0  0  0
  -28.1741    0.1913  -26.9044 H   0  0  0  0  0
  -26.1463    2.3877  -27.2543 H   0  0  0  0  0
  -25.6293   -0.4325  -26.3065 H   0  0  0  0  0
  -23.7540    0.5293  -27.5667 H   0  0  0  0  0
  -23.8118    1.9938  -26.5553 H   0  0  0  0  0
  -23.3652    0.4291  -25.8318 H   0  0  0  0  0
  -25.6530    2.2321  -24.8255 H   0  0  0  0  0
  -26.8420    0.9202  -24.6355 H   0  0  0  0  0
  -25.1515    0.6689  -24.1356 H   0  0  0  0  0
  -25.5249    2.6955  -29.2241 H   0  0  0  0  0
  -25.1222    0.4080  -31.0431 H   0  0  0  0  0
  -26.2875    1.5550  -32.8818 H   0  0  0  0  0
  -26.6999    2.9198  -31.7542 H   0  0  0  0  0
  -29.5562    1.4472  -30.4739 H   0  0  0  0  0
  -28.4399    2.8164  -30.4884 H   0  0  0  0  0
  -23.8773    1.0748  -33.0250 H   0  0  0  0  0
  -21.9608    3.1566  -32.7661 H   0  0  0  0  0
  -23.1972    1.9618  -35.2592 H   0  0  0  0  0
  -21.6592    1.4651  -34.4308 H   0  0  0  0  0
  -19.8408    3.3399  -34.2407 H   0  0  0  0  0
  -23.0700    3.4072  -37.0600 H   0  0  0  0  0
  -18.6151    4.9806  -35.6242 H   0  0  0  0  0
  -21.8386    5.0178  -38.4561 H   0  0  0  0  0
  -20.0244    6.2143  -38.6847 H   0  0  0  0  0
  -25.1825    3.0243  -34.3241 H   0  0  0  0  0
  -25.4337    5.9759  -34.0577 H   0  0  0  0  0
  -24.4638    5.8246  -36.2045 H   0  0  0  0  0
  -26.2875    6.0805  -36.4187 H   0  0  0  0  0
  -25.3260    4.4535  -38.5244 H   0  0  0  0  0
  -29.5723    4.9240  -32.9155 H   0  0  0  0  0
  -31.0001    6.9049  -33.4043 H   0  0  0  0  0
  -30.3275    7.1170  -34.9603 H   0  0  0  0  0
  -29.0507    7.7250  -32.2820 H   0  0  0  0  0
  -29.1364    8.7455  -33.6824 H   0  0  0  0  0
  -27.3264    7.6426  -34.7627 H   0  0  0  0  0
  -26.8782    7.2774  -33.1529 H   0  0  0  0  0
  -30.6798    1.9777  -35.8181 H   0  0  0  0  0
  -32.3749    0.6378  -34.6904 H   0  0  0  0  0
  -33.3354    2.0109  -34.3033 H   0  0  0  0  0
  -30.8195    1.0430  -32.9460 H   0  0  0  0  0
  -32.3063    1.5722  -32.2163 H   0  0  0  0  0
  -31.7755    3.8643  -32.4778 H   0  0  0  0  0
  -30.1865    3.2538  -32.3604 H   0  0  0  0  0
  -31.5822    1.6614  -37.6040 H   0  0  0  0  0
  -33.6064    3.6609  -38.5896 H   0  0  0  0  0
  -31.3346    2.2168  -39.9891 H   0  0  0  0  0
  -33.2745    2.1955  -41.4398 H   0  0  0  0  0
  -33.4962    3.9463  -41.2020 H   0  0  0  0  0
  -32.0475    3.3380  -42.0400 H   0  0  0  0  0
  -31.9562    5.1608  -39.5339 H   0  0  0  0  0
  -30.6891    4.2163  -38.7132 H   0  0  0  0  0
  -30.5757    4.5266  -40.4630 H   0  0  0  0  0
  -36.1335   -0.0012  -38.8639 H   0  0  0  0  0
  -38.2808    0.7456  -39.7772 H   0  0  0  0  0
  -37.5392    1.5967  -41.0736 H   0  0  0  0  0
  -37.7889    2.4449  -38.1803 H   0  0  0  0  0
  -38.0991    3.3834  -39.6044 H   0  0  0  0  0
  -35.8027    3.8153  -39.9890 H   0  0  0  0  0
  -35.7473    3.6476  -38.2857 H   0  0  0  0  0
  -36.1747   -1.8079  -39.9114 H   0  0  0  0  0
  -34.2028   -1.9218  -42.0466 H   0  0  0  0  0
  -34.3347   -4.3064  -41.8096 H   0  0  0  0  0
  -35.8953   -4.1340  -40.8474 H   0  0  0  0  0
  -33.8246   -4.9658  -39.1021 H   0  0  0  0  0
  -34.3234   -2.6571  -44.0701 H   0  0  0  0  0
  -37.0404   -3.1595  -45.1893 H   0  0  0  0  0
  -36.2269   -2.3201  -47.3277 H   0  0  0  0  0
  -34.6598   -1.8143  -46.4484 H   0  0  0  0  0
  -35.9908   -0.2540  -45.1712 H   0  0  0  0  0
  -34.7736    0.4723  -47.1739 H   0  0  0  0  0
  -36.1778    0.0637  -48.1899 H   0  0  0  0  0
  -36.2936    1.3834  -46.9999 H   0  0  0  0  0
  -38.2264   -1.0018  -47.0711 H   0  0  0  0  0
  -38.1710   -1.3212  -45.3201 H   0  0  0  0  0
  -38.2467    0.3547  -45.9176 H   0  0  0  0  0
  -33.6727   -5.4035  -46.1715 H   0  0  0  0  0
  -33.5183   -3.8187  -45.4062 H   0  0  0  0  0
  1  2  1  0  0  0
  2  3  1  0  0  0
  3  4  2  0  0  0
  3  5  1  0  0  0
  5  6  1  0  0  0
  6  7  1  0  0  0
  6  9  1  0  0  0
  7  8  2  0  0  0
  7 11  1  0  0  0
  9 10  1  0  0  0
 11 12  1  0  0  0
 12 13  1  0  0  0
 12 15  1  0  0  0
 13 14  2  0  0  0
 13 20  1  0  0  0
 15 16  1  0  0  0
 16 17  1  0  0  0
 17 18  2  0  0  0
 17 19  1  0  0  0
 20 21  1  0  0  0
 21 22  1  0  0  0
 21 24  1  0  0  0
 22 23  2  0  0  0
 22 27  1  0  0  0
 24 25  1  0  0  0
 24 26  1  0  0  0
 27 28  1  0  0  0
 28 29  1  0  0  0
 28 31  1  0  0  0
 29 30  2  0  0  0
 29 35  1  0  0  0
 31 32  1  0  0  0
 32 33  2  0  0  0
 32 34  1  0  0  0
 35 36  1  0  0  0
 36 37  1  0  0  0
 36 39  1  0  0  0
 37 38  2  0  0  0
 37 47  1  0  0  0
 39 40  1  0  0  0
 40 41  4  0  0  0
 40 42  4  0  0  0
 41 43  4  0  0  0
 42 44  4  0  0  0
 43 45  4  0  0  0
 44 45  4  0  0  0
 45 46  1  0  0  0
 47 48  1  0  0  0
 48 49  1  0  0  0
 48 51  1  0  0  0
 49 50  2  0  0  0
 49 53  1  0  0  0
 51 52  1  0  0  0
 53 54  1  0  0  0
 53 59  1  0  0  0
 54 55  1  0  0  0
 54 57  1  0  0  0
 55 56  2  0  0  0
 55 60  1  0  0  0
 57 58  1  0  0  0
 58 59  1  0  0  0
 60 61  1  0  0  0
 60 66  1  0  0  0
 61 62  1  0  0  0
 61 64  1  0  0  0
 62 63  2  0  0  0
 62 67  1  0  0  0
 64 65  1  0  0  0
 65 66  1  0  0  0
 67 68  1  0  0  0
 68 69  1  0  0  0
 68 71  1  0  0  0
 69 70  2  0  0  0
 69 74  1  0  0  0
 71 72  1  0  0  0
 71 73  1  0  0  0
 74 75  1  0  0  0
 74 80  1  0  0  0
 75 76  1  0  0  0
 75 78  1  0  0  0
 76 77  2  0  0  0
 76 81  1  0  0  0
 78 79  1  0  0  0
 79 80  1  0  0  0
 81 82  1  0  0  0
 82 83  1  0  0  0
 82 85  1  0  0  0
 83 84  2  0  0  0
 83 87  1  0  0  0
 85 86  1  0  0  0
 87 88  1  0  0  0
 88 89  1  0  0  0
 88 91  1  0  0  0
 89 90  2  0  0  0
 89 95  1  0  0  0
 91 92  1  0  0  0
 92 93  1  0  0  0
 92 94  1  0  0  0
  1 96  1  0  0  0
  1 97  1  0  0  0
  1 98  1  0  0  0
  2 99  1  0  0  0
  2100  1  0  0  0
  5101  1  0  0  0
  6102  1  0  0  0
  9103  1  0  0  0
  9104  1  0  0  0
 10105  1  0  0  0
 11106  1  0  0  0
 12107  1  0  0  0
 15108  1  0  0  0
 15109  1  0  0  0
 16110  1  0  0  0
 16111  1  0  0  0
 19112  1  0  0  0
 19113  1  0  0  0
 20114  1  0  0  0
 21115  1  0  0  0
 24116  1  0  0  0
 25117  1  0  0  0
 25118  1  0  0  0
 25119  1  0  0  0
 26120  1  0  0  0
 26121  1  0  0  0
 26122  1  0  0  0
 27123  1  0  0  0
 28124  1  0  0  0
 31125  1  0  0  0
 31126  1  0  0  0
 34127  1  0  0  0
 34128  1  0  0  0
 35129  1  0  0  0
 36130  1  0  0  0
 39131  1  0  0  0
 39132  1  0  0  0
 41133  1  0  0  0
 42134  1  0  0  0
 43135  1  0  0  0
 44136  1  0  0  0
 46137  1  0  0  0
 47138  1  0  0  0
 48139  1  0  0  0
 51140  1  0  0  0
 51141  1  0  0  0
 52142  1  0  0  0
 54143  1  0  0  0
 57144  1  0  0  0
 57145  1  0  0  0
 58146  1  0  0  0
 58147  1  0  0  0
 59148  1  0  0  0
 59149  1  0  0  0
 61150  1  0  0  0
 64151  1  0  0  0
 64152  1  0  0  0
 65153  1  0  0  0
 65154  1  0  0  0
 66155  1  0  0  0
 66156  1  0  0  0
 67157  1  0  0  0
 68158  1  0  0  0
 71159  1  0  0  0
 72160  1  0  0  0
 72161  1  0  0  0
 72162  1  0  0  0
 73163  1  0  0  0
 73164  1  0  0  0
 73165  1  0  0  0
 75166  1  0  0  0
 78167  1  0  0  0
 78168  1  0  0  0
 79169  1  0  0  0
 79170  1  0  0  0
 80171  1  0  0  0
 80172  1  0  0  0
 81173  1  0  0  0
 82174  1  0  0  0
 85175  1  0  0  0
 85176  1  0  0  0
 86177  1  0  0  0
 87178  1  0  0  0
 88179  1  0  0  0
 91180  1  0  0  0
 91181  1  0  0  0
 92182  1  0  0  0
 93183  1  0  0  0
 93184  1  0  0  0
 93185  1  0  0  0
 94186  1  0  0  0
 94187  1  0  0  0
 94188  1  0  0  0
 95189  1  0  0  0
 95190  1  0  0  0
M  END
$$$$
