6gr7_ligand
  -I-interpret- 

 19 19  0  0  0  0  0  0  0  0999 V2000
   42.5890   -0.0350    3.2980 O   0  0  0  0  0
   43.8160   -0.3920    3.5380 C   0  0  0  0  0
   44.7920    0.2100    3.0720 O   0  0  0  0  0
   44.0100   -1.5940    4.4240 C   0  0  0  0  0
   42.9750   -1.7160    5.3750 O   0  0  0  0  0
   42.9080   -0.7260    6.3190 C   0  0  0  0  0
   42.0880    0.3630    6.1940 C   0  0  0  0  0
   42.0620    1.3280    7.1600 C   0  0  0  0  0
   41.0070    2.6500    6.9360 Cl  0  0  0  0  0
   42.8680    1.2320    8.2890 C   0  0  0  0  0
   42.8430    2.4580    9.5020 Cl  0  0  0  0  0
   43.7210    0.1290    8.4380 C   0  0  0  0  0
   43.7240   -0.8440    7.4340 C   0  0  0  0  0
   44.7630   -2.2220    7.5870 Cl  0  0  0  0  0
   41.9889   -0.6311    3.7520 H   0  0  0  0  0
   44.9535   -1.4780    4.9573 H   0  0  0  0  0
   44.0065   -2.4858    3.7973 H   0  0  0  0  0
   41.4501    0.4608    5.3156 H   0  0  0  0  0
   44.3642    0.0328    9.3127 H   0  0  0  0  0
  1  2  1  0  0  0
  2  3  2  0  0  0
  2  4  1  0  0  0
  4  5  1  0  0  0
  5  6  1  0  0  0
  6  7  4  0  0  0
  6 13  4  0  0  0
  7  8  4  0  0  0
  8  9  1  0  0  0
  8 10  4  0  0  0
 10 11  1  0  0  0
 10 12  4  0  0  0
 12 13  4  0  0  0
 13 14  1  0  0  0
  1 15  1  0  0  0
  4 16  1  0  0  0
  4 17  1  0  0  0
  7 18  1  0  0  0
 12 19  1  0  0  0
M  END
$$$$
