4xty_ligand
  -I-interpret- 

 66 70  0  0  0  0  0  0  0  0999 V2000
   -5.7380   -0.3080   11.3990 C   0  0  0  0  0
   -6.1950   -1.0640   14.9220 N   0  0  0  0  0
   -5.4140   -0.5450   12.7170 C   0  0  0  0  0
   -4.6040   -0.0710   10.7400 N   0  0  0  0  0
   -3.5680   -0.1900   11.5940 C   0  0  0  0  0
   -2.1540   -9.9100   13.7480 C   0  0  0  0  0
   -0.9240   -9.1750   13.4970 N   0  0  0  0  0
   -0.0130   -9.3750   14.4560 C   0  0  0  0  0
    1.0740   -8.8020   14.5290 O   0  0  0  0  0
   -0.4670  -10.2650   15.3410 N   0  0  0  0  0
   -1.8440  -10.6250   15.0750 C   0  0  0  0  0
   -2.7380  -10.0980   16.2050 C   0  0  0  0  0
   -3.2630   -8.5160   15.6340 S   0  0  0  0  0
   -3.3670   -8.9920   13.9370 C   0  0  0  0  0
   -3.4370   -7.8090   12.9750 C   0  0  0  0  0
   -3.6520   -8.2930   11.5500 C   0  0  0  0  0
   -3.9370   -7.1370   10.5940 C   0  0  0  0  0
   -4.0890   -7.5860    9.1460 C   0  0  0  0  0
   -4.4620   -6.3970    8.2680 C   0  0  0  0  0
   -5.5320   -5.8440    8.3940 O   0  0  0  0  0
   -3.5610   -5.9700    7.3870 N   0  0  0  0  0
   -3.9710   -4.8790    6.2760 S   0  0  0  0  0
   -5.1800   -5.2530    5.5890 O   0  0  0  0  0
   -2.8920   -4.7350    5.3410 O   0  0  0  0  0
   -4.2480   -3.4850    7.0150 N   0  0  0  0  0
   -3.1500   -2.7370    7.6010 C   0  0  0  0  0
   -3.5690   -1.2800    7.7480 C   0  0  0  0  0
   -4.6710   -1.0850    8.6390 O   0  0  0  0  0
   -2.4710   -0.3980    8.3100 C   0  0  0  0  0
   -1.5410   -0.0510    7.2740 O   0  0  0  0  0
   -3.2470    0.7930    8.8290 C   0  0  0  0  0
   -4.5670    0.1920    9.2940 C   0  0  0  0  0
   -4.0620   -0.4710   12.8250 N   0  0  0  0  0
   -7.0240   -0.3100   10.9840 N   0  0  0  0  0
   -8.0000   -0.5710   11.8710 C   0  0  0  0  0
   -7.7200   -0.8150   13.1590 N   0  0  0  0  0
   -6.4450   -0.8090   13.6140 C   0  0  0  0  0
   -3.5620    1.5620    7.7330 F   0  0  0  0  0
   -5.2351   -1.0650   15.2670 H   0  0  0  0  0
   -6.9668   -1.2548   15.5610 H   0  0  0  0  0
   -2.5141   -0.0793   11.3388 H   0  0  0  0  0
   -2.4155  -10.5642   12.9163 H   0  0  0  0  0
   -0.7737   -8.5769   12.6845 H   0  0  0  0  0
    0.0870  -10.6442   16.1089 H   0  0  0  0  0
   -2.0138  -11.7001   15.0161 H   0  0  0  0  0
   -2.2086  -10.0384   17.1559 H   0  0  0  0  0
   -3.5778  -10.7619   16.4101 H   0  0  0  0  0
   -4.2970   -9.5074   13.6970 H   0  0  0  0  0
   -2.4982   -7.2572   13.0236 H   0  0  0  0  0
   -4.2716   -7.1690   13.2612 H   0  0  0  0  0
   -4.5116   -8.9632   11.5423 H   0  0  0  0  0
   -2.7431   -8.7951   11.2184 H   0  0  0  0  0
   -3.0918   -6.4503   10.6419 H   0  0  0  0  0
   -4.8769   -6.6772   10.8996 H   0  0  0  0  0
   -4.8756   -8.3381    9.0844 H   0  0  0  0  0
   -3.1444   -8.0054    8.7995 H   0  0  0  0  0
   -2.6088   -6.3345    7.4154 H   0  0  0  0  0
   -5.1992   -3.1215    7.0741 H   0  0  0  0  0
   -2.2728   -2.8051    6.9576 H   0  0  0  0  0
   -2.9032   -3.1500    8.5791 H   0  0  0  0  0
   -3.8299   -1.0080    6.7253 H   0  0  0  0  0
   -1.8616   -0.8610    9.0861 H   0  0  0  0  0
   -0.8504    0.5069    7.6392 H   0  0  0  0  0
   -2.7145    1.3617    9.5913 H   0  0  0  0  0
   -5.3691    0.8925    9.0614 H   0  0  0  0  0
   -9.0374   -0.5844   11.5369 H   0  0  0  0  0
  1  3  4  0  0  0
  4  1  4  0  0  0
  1 34  4  0  0  0
 37  2  1  0  0  0
 33  3  4  0  0  0
  3 37  4  0  0  0
  4  5  4  0  0  0
 32  4  1  0  0  0
  5 33  4  0  0  0
  6  7  1  0  0  0
  6 11  1  0  0  0
 14  6  1  0  0  0
  7  8  1  0  0  0
  8  9  2  0  0  0
 10  8  1  0  0  0
 11 10  1  0  0  0
 12 11  1  0  0  0
 13 12  1  0  0  0
 14 13  1  0  0  0
 15 14  1  0  0  0
 16 15  1  0  0  0
 17 16  1  0  0  0
 18 17  1  0  0  0
 19 18  1  0  0  0
 19 20  2  0  0  0
 21 19  1  0  0  0
 22 21  1  0  0  0
 22 23  2  0  0  0
 22 24  2  0  0  0
 25 22  1  0  0  0
 26 25  1  0  0  0
 27 26  1  0  0  0
 28 27  1  0  0  0
 27 29  1  0  0  0
 28 32  1  0  0  0
 29 30  1  0  0  0
 29 31  1  0  0  0
 31 32  1  0  0  0
 31 38  1  0  0  0
 34 35  4  0  0  0
 35 36  4  0  0  0
 36 37  4  0  0  0
  2 39  1  0  0  0
  2 40  1  0  0  0
  5 41  1  0  0  0
  6 42  1  0  0  0
  7 43  1  0  0  0
 10 44  1  0  0  0
 11 45  1  0  0  0
 12 46  1  0  0  0
 12 47  1  0  0  0
 14 48  1  0  0  0
 15 49  1  0  0  0
 15 50  1  0  0  0
 16 51  1  0  0  0
 16 52  1  0  0  0
 17 53  1  0  0  0
 17 54  1  0  0  0
 18 55  1  0  0  0
 18 56  1  0  0  0
 21 57  1  0  0  0
 25 58  1  0  0  0
 26 59  1  0  0  0
 26 60  1  0  0  0
 27 61  1  0  0  0
 29 62  1  0  0  0
 30 63  1  0  0  0
 31 64  1  0  0  0
 32 65  1  0  0  0
 35 66  1  0  0  0
M  END
$$$$
