6gz9_ligand
  -I-interpret- 

 43 44  0  0  0  0  0  0  0  0999 V2000
    5.1140    4.1970  -15.1550 C   0  0  0  0  0
    3.7390    3.5350  -15.2240 C   0  0  0  0  0
    3.3140    3.0790  -13.8440 C   0  0  0  0  0
    2.6310    4.3830  -15.8910 C   0  0  0  0  0
    2.3390    5.6960  -15.3230 N   0  3  0  0  0
    1.2300    3.6530  -15.9490 C   0  0  0  0  0
    0.4150    3.6690  -15.0650 O   0  0  0  0  0
    1.0400    3.0590  -17.1340 O   0  0  0  0  0
   -0.2620    2.4560  -17.3650 C   0  0  0  0  0
   -0.1820    1.4810  -18.5090 C   0  0  0  0  0
   -0.7540    2.0070  -19.6940 O   0  0  0  0  0
   -2.0290    1.4990  -19.9710 C   0  0  0  0  0
   -3.0890    2.3390  -19.4050 N   0  0  0  0  0
   -3.1980    2.7600  -18.1150 C   0  0  0  0  0
   -4.1900    3.5940  -17.9170 N   0  0  0  0  0
   -4.7850    3.7160  -19.1650 C   0  0  0  0  0
   -4.1240    2.9370  -20.0760 C   0  0  0  0  0
   -4.5290    2.8000  -21.3850 N   0  0  0  0  0
   -5.6580    3.4870  -21.7440 C   0  0  0  0  0
   -6.1300    3.2700  -22.9700 N   0  0  0  0  0
   -6.3230    4.2870  -20.9120 N   0  0  0  0  0
   -5.9570    4.4720  -19.5880 C   0  0  0  0  0
   -6.5820    5.2350  -18.8370 O   0  0  0  0  0
    5.4594    4.4204  -16.1644 H   0  0  0  0  0
    5.0426    5.1210  -14.5813 H   0  0  0  0  0
    5.8177    3.5203  -14.6703 H   0  0  0  0  0
    3.8613    2.6775  -15.8857 H   0  0  0  0  0
    3.1155    3.9503  -13.2199 H   0  0  0  0  0
    2.4104    2.4748  -13.9247 H   0  0  0  0  0
    4.1113    2.4848  -13.3975 H   0  0  0  0  0
    3.0924    4.5213  -16.8688 H   0  0  0  0  0
    3.2026    6.2342  -15.2523 H   0  0  0  0  0
    1.6793    6.1871  -15.9264 H   0  0  0  0  0
    1.9319    5.5807  -14.3949 H   0  0  0  0  0
   -0.9810    3.2378  -17.6097 H   0  0  0  0  0
   -0.5774    1.9280  -16.4651 H   0  0  0  0  0
   -0.7353    0.5836  -18.2320 H   0  0  0  0  0
    0.8692    1.2677  -18.7029 H   0  0  0  0  0
   -2.1052    0.5072  -19.5254 H   0  0  0  0  0
   -2.1573    1.4709  -21.0531 H   0  0  0  0  0
   -2.5245    2.4346  -17.3221 H   0  0  0  0  0
   -4.0171    2.2197  -22.0496 H   0  0  0  0  0
   -6.9975    3.7156  -23.2688 H   0  0  0  0  0
  1  2  1  0  0  0
  2  3  1  0  0  0
  2  4  1  0  0  0
  4  5  1  0  0  0
  4  6  1  0  0  0
  6  7  2  0  0  0
  6  8  1  0  0  0
  8  9  1  0  0  0
  9 10  1  0  0  0
 10 11  1  0  0  0
 11 12  1  0  0  0
 12 13  1  0  0  0
 13 14  4  0  0  0
 13 17  4  0  0  0
 14 15  4  0  0  0
 15 16  4  0  0  0
 16 17  4  0  0  0
 16 22  1  0  0  0
 17 18  1  0  0  0
 18 19  1  0  0  0
 19 20  2  0  0  0
 19 21  4  0  0  0
 21 22  1  0  0  0
 22 23  2  0  0  0
  1 24  1  0  0  0
  1 25  1  0  0  0
  1 26  1  0  0  0
  2 27  1  0  0  0
  3 28  1  0  0  0
  3 29  1  0  0  0
  3 30  1  0  0  0
  4 31  1  0  0  0
  5 32  1  0  0  0
  5 33  1  0  0  0
  5 34  1  0  0  0
  9 35  1  0  0  0
  9 36  1  0  0  0
 10 37  1  0  0  0
 10 38  1  0  0  0
 12 39  1  0  0  0
 12 40  1  0  0  0
 14 41  1  0  0  0
 18 42  1  0  0  0
 20 43  1  0  0  0
M  END
$$$$
