3g4l_ligand
  -I-interpret- 

 40 42  0  0  0  0  0  0  0  0999 V2000
   20.7990   -4.7950   28.8480 O   0  0  0  0  0
   23.5250   -8.9900   34.2760 C   0  0  0  0  0
   22.6750   -9.6160   33.1710 C   0  0  0  0  0
   22.4660   -8.1640   33.5680 C   0  0  0  0  0
   21.1530   -3.6730   29.1700 C   0  0  0  0  0
   21.5620   -3.5750   30.6070 C   0  0  0  0  0
   21.4300   -2.4010   31.3460 C   0  0  0  0  0
   21.7650   -2.3880   32.7040 C   0  0  0  0  0
   22.2140   -3.5590   33.3370 C   0  0  0  0  0
   22.5580   -3.6370   34.6670 O   0  0  0  0  0
   22.7660   -2.5200   35.5070 C   0  0  0  0  0
   23.5790   -1.6130   34.8790 F   0  0  0  0  0
   21.5450   -1.9960   35.7840 F   0  0  0  0  0
   22.3140   -4.7370   32.6110 C   0  0  0  0  0
   22.7580   -5.8640   33.2730 O   0  0  0  0  0
   23.0240   -7.1110   32.6350 C   0  0  0  0  0
   21.9670   -4.7420   31.2530 C   0  0  0  0  0
   21.0250   -2.6100   28.3610 N   0  0  0  0  0
   20.4070   -2.7050   27.1270 C   0  0  0  0  0
   20.9470   -1.9530   26.1130 C   0  0  0  0  0
   22.2250   -0.7930   26.5400 Cl  0  0  0  0  0
   20.5110   -2.0710   24.7980 C   0  0  0  0  0
   19.5640   -2.9490   24.4520 N   0  0  0  0  0
   19.0120   -3.7260   25.3920 C   0  0  0  0  0
   19.4110   -3.6240   26.7320 C   0  0  0  0  0
   18.5560   -4.7120   27.8740 Cl  0  0  0  0  0
   24.5758   -8.9092   34.5543 H   0  0  0  0  0
   23.8408   -9.2173   35.2942 H   0  0  0  0  0
   22.0799  -10.5138   33.0040 H   0  0  0  0  0
   22.8138  -10.2061   32.2651 H   0  0  0  0  0
   21.5940   -7.5818   33.8660 H   0  0  0  0  0
   21.0657   -1.4928   30.8658 H   0  0  0  0  0
   21.6771   -1.4635   33.2747 H   0  0  0  0  0
   23.2623   -2.8017   36.4357 H   0  0  0  0  0
   22.5626   -7.1636   31.6489 H   0  0  0  0  0
   24.0906   -7.2534   32.4614 H   0  0  0  0  0
   22.0147   -5.6753   30.6919 H   0  0  0  0  0
   21.3931   -1.7082   28.6639 H   0  0  0  0  0
   20.9514   -1.4331   24.0317 H   0  0  0  0  0
   18.2433   -4.4464   25.1122 H   0  0  0  0  0
  5  1  2  0  0  0
  3  2  1  0  0  0
  4  2  1  0  0  0
  4  3  1  0  0  0
 16  4  1  0  0  0
  6  5  1  0  0  0
  5 18  1  0  0  0
  6  7  4  0  0  0
 17  6  4  0  0  0
  8  7  4  0  0  0
  9  8  4  0  0  0
  9 10  1  0  0  0
 14  9  4  0  0  0
 10 11  1  0  0  0
 11 12  1  0  0  0
 11 13  1  0  0  0
 15 14  1  0  0  0
 14 17  4  0  0  0
 15 16  1  0  0  0
 18 19  1  0  0  0
 19 20  4  0  0  0
 19 25  4  0  0  0
 20 21  1  0  0  0
 20 22  4  0  0  0
 22 23  4  0  0  0
 23 24  4  0  0  0
 24 25  4  0  0  0
 25 26  1  0  0  0
  2 27  1  0  0  0
  2 28  1  0  0  0
  3 29  1  0  0  0
  3 30  1  0  0  0
  4 31  1  0  0  0
  7 32  1  0  0  0
  8 33  1  0  0  0
 11 34  1  0  0  0
 16 35  1  0  0  0
 16 36  1  0  0  0
 17 37  1  0  0  0
 18 38  1  0  0  0
 22 39  1  0  0  0
 24 40  1  0  0  0
M  END
$$$$
