6cck_ligand
  -I-interpret- 

 36 38  0  0  0  0  0  0  0  0999 V2000
   30.4720  -10.0150   31.8960 C   0  0  0  0  0
   29.9110  -10.8190   30.9590 C   0  0  0  0  0
   28.5100  -10.5810   30.5650 C   0  0  0  0  0
   24.1720   -7.5670   31.4980 C   0  0  0  0  0
   23.1950   -6.4450   31.9200 C   0  0  0  0  0
   21.9260   -6.5440   31.2160 C   0  0  0  0  0
   23.6400   -8.9380   31.9730 C   0  0  0  0  0
   23.9250   -9.4200   33.2720 C   0  0  0  0  0
   23.4220  -10.6680   33.6580 C   0  0  0  0  0
   22.6450  -11.4470   32.7900 C   0  0  0  0  0
   22.3990  -11.0030   31.4870 C   0  0  0  0  0
   22.8830   -9.7410   31.0950 C   0  0  0  0  0
   27.9730   -9.5280   31.1660 N   0  0  0  0  0
   28.5860   -8.7600   32.0920 C   0  0  0  0  0
   29.8350   -8.9860   32.4340 N   0  0  0  0  0
   26.6440   -8.9890   31.0770 N   0  0  0  0  0
   26.5400   -7.9790   31.8680 C   0  0  0  0  0
   27.8280   -7.8280   32.4840 N   0  0  0  0  0
   31.8910  -10.2540   32.3660 C   0  0  0  0  0
   27.8790  -11.2460   29.7440 O   0  0  0  0  0
   25.4860   -7.2480   32.0700 N   0  0  0  0  0
   23.7530  -11.2420   35.2600 Cl  0  0  0  0  0
   20.9080   -6.6170   30.6850 N   0  0  0  0  0
   30.4853  -11.6267   30.5052 H   0  0  0  0  0
   24.2626   -7.6292   30.4136 H   0  0  0  0  0
   23.6490   -5.4845   31.6762 H   0  0  0  0  0
   23.0033   -6.5405   32.9888 H   0  0  0  0  0
   24.5271   -8.8287   33.9619 H   0  0  0  0  0
   22.2332  -12.3972   33.1299 H   0  0  0  0  0
   21.8414  -11.6244   30.7862 H   0  0  0  0  0
   22.6680   -9.3762   30.0906 H   0  0  0  0  0
   30.3065   -8.3780   33.1037 H   0  0  0  0  0
   31.9649  -11.2501   32.8024 H   0  0  0  0  0
   32.5713  -10.1761   31.5179 H   0  0  0  0  0
   32.1550   -9.5073   33.1149 H   0  0  0  0  0
   25.5749   -6.4151   32.6520 H   0  0  0  0  0
  1  2  2  0  0  0
 15  1  1  0  0  0
  1 19  1  0  0  0
  3  2  1  0  0  0
 13  3  1  0  0  0
  3 20  2  0  0  0
  4  5  1  0  0  0
  4  7  1  0  0  0
 21  4  1  0  0  0
  5  6  1  0  0  0
  6 23  3  0  0  0
  7  8  4  0  0  0
  7 12  4  0  0  0
  8  9  4  0  0  0
  9 10  4  0  0  0
  9 22  1  0  0  0
 11 10  4  0  0  0
 12 11  4  0  0  0
 14 13  4  0  0  0
 16 13  4  0  0  0
 14 15  1  0  0  0
 18 14  4  0  0  0
 17 16  4  0  0  0
 17 18  4  0  0  0
 17 21  1  0  0  0
  2 24  1  0  0  0
  4 25  1  0  0  0
  5 26  1  0  0  0
  5 27  1  0  0  0
  8 28  1  0  0  0
 10 29  1  0  0  0
 11 30  1  0  0  0
 12 31  1  0  0  0
 15 32  1  0  0  0
 19 33  1  0  0  0
 19 34  1  0  0  0
 19 35  1  0  0  0
 21 36  1  0  0  0
M  END
$$$$
