185l_ligand
  -I-interpret- 

 15 16  0  0  0  0  0  0  0  0999 V2000
   28.5560    7.3580    3.1830 N   0  0  0  0  0
   28.3670    6.5900    2.0680 C   0  0  0  0  0
   27.4810    5.6010    2.3230 C   0  0  0  0  0
   26.1410    5.1180    4.4680 C   0  0  0  0  0
   26.0020    5.5250    5.7650 C   0  0  0  0  0
   26.7180    6.5870    6.2770 C   0  0  0  0  0
   27.5970    7.2920    5.5050 C   0  0  0  0  0
   27.7470    6.8770    4.1890 C   0  0  0  0  0
   27.0540    5.7730    3.6750 C   0  0  0  0  0
   28.8604    6.7519    1.1096 H   0  0  0  0  0
   27.1559    4.8238    1.6314 H   0  0  0  0  0
   25.5442    4.2961    4.0724 H   0  0  0  0  0
   25.3049    4.9949    6.4140 H   0  0  0  0  0
   26.5793    6.8698    7.3205 H   0  0  0  0  0
   28.1541    8.1400    5.9034 H   0  0  0  0  0
  2  1  4  0  0  0
  1  8  4  0  0  0
  3  2  4  0  0  0
  9  3  4  0  0  0
  4  5  4  0  0  0
  4  9  4  0  0  0
  5  6  4  0  0  0
  6  7  4  0  0  0
  7  8  4  0  0  0
  8  9  4  0  0  0
  2 10  1  0  0  0
  3 11  1  0  0  0
  4 12  1  0  0  0
  5 13  1  0  0  0
  6 14  1  0  0  0
  7 15  1  0  0  0
M  END
$$$$
