5t90_ligand
  -I-interpret- 

226229  0  0  0  0  0  0  0  0999 V2000
  -11.3850    5.4840   -5.8050 N   0  3  0  0  0
  -11.6110    5.5580   -7.2430 C   0  0  0  0  0
  -12.7300    4.6230   -7.6760 C   0  0  0  0  0
  -12.7500    3.4490   -7.2890 O   0  0  0  0  0
  -10.3320    5.2330   -8.0120 C   0  0  0  0  0
  -10.4640    5.5240   -9.3920 O   0  0  0  0  0
  -13.6530    5.1640   -8.4750 N   0  0  0  0  0
  -14.7880    4.4300   -9.0250 C   0  0  0  0  0
  -14.3560    3.3340   -9.9860 C   0  0  0  0  0
  -15.1110    2.3900  -10.2630 O   0  0  0  0  0
  -13.1230    3.4870  -10.5200 N   0  0  0  0  0
  -12.4210    2.5850  -11.4270 C   0  0  0  0  0
  -12.3070    1.1860  -10.8140 C   0  0  0  0  0
  -12.5620    0.1950  -11.4960 O   0  0  0  0  0
  -11.0440    3.1620  -11.7390 C   0  0  0  0  0
   -9.9760    2.0700  -12.7030 S   0  0  0  0  0
  -11.9690    1.1270   -9.5100 N   0  0  0  0  0
  -11.7750   -0.0890   -8.7250 C   0  0  0  0  0
  -13.0390   -0.9320   -8.5840 C   0  0  0  0  0
  -12.9350   -2.1410   -8.3720 O   0  0  0  0  0
  -11.1580    0.2430   -7.3700 C   0  0  0  0  0
   -9.5900    1.1550   -7.4730 S   0  0  0  0  0
  -14.2230   -0.3050   -8.7500 N   0  0  0  0  0
  -15.5310   -0.9660   -8.7050 C   0  0  0  0  0
  -15.8690   -1.6350  -10.0630 C   0  0  0  0  0
  -16.7620   -2.4840  -10.1300 O   0  0  0  0  0
  -16.6130    0.0390   -8.3220 C   0  0  0  0  0
  -17.7940   -0.6070   -7.8790 O   0  0  0  0  0
  -15.1330   -1.2520  -11.1360 N   0  0  0  0  0
  -15.2780   -1.7460  -12.5100 C   0  0  0  0  0
  -14.2210   -2.8370  -12.8120 C   0  0  0  0  0
  -13.0460   -2.6530  -12.4820 O   0  0  0  0  0
  -15.1810   -0.5700  -13.5010 C   0  0  0  0  0
  -15.4600   -0.9150  -14.9460 C   0  0  0  0  0
  -14.6630   -1.5660  -15.6170 O   0  0  0  0  0
  -16.5550   -0.4130  -15.4840 N   0  0  0  0  0
  -14.6210   -3.9750  -13.4330 N   0  0  0  0  0
  -13.6570   -5.0600  -13.7000 C   0  0  0  0  0
  -12.6320   -4.7400  -14.7780 C   0  0  0  0  0
  -11.4540   -5.0480  -14.5990 O   0  0  0  0  0
  -14.5440   -6.2330  -14.1210 C   0  0  0  0  0
  -15.9110   -5.8300  -13.8290 C   0  0  0  0  0
  -15.9710   -4.3580  -13.8760 C   0  0  0  0  0
  -13.0890   -4.1470  -15.9010 N   0  0  0  0  0
  -12.2610   -3.7450  -17.0350 C   0  0  0  0  0
  -11.2340   -2.7120  -16.5990 C   0  0  0  0  0
  -10.0610   -2.8550  -16.9360 O   0  0  0  0  0
  -13.1330   -3.1880  -18.1510 C   0  0  0  0  0
  -11.6630   -1.7150  -15.7980 N   0  0  0  0  0
  -10.8250   -0.6340  -15.2790 C   0  0  0  0  0
   -9.7310   -1.1440  -14.3510 C   0  0  0  0  0
   -8.5640   -0.8100  -14.5560 O   0  0  0  0  0
  -11.6810    0.4370  -14.6100 C   0  0  0  0  0
  -10.8920    2.0650  -14.5180 S   0  0  0  0  0
  -10.1110   -1.9590  -13.3450 N   0  0  0  0  0
   -9.2170   -2.5670  -12.3580 C   0  0  0  0  0
   -8.0050   -3.2270  -13.0330 C   0  0  0  0  0
   -6.8760   -2.9160  -12.6620 O   0  0  0  0  0
   -9.9840   -3.5970  -11.5030 C   0  0  0  0  0
  -10.0700   -3.2430  -10.0330 C   0  0  0  0  0
  -10.2450   -4.4770   -9.1590 C   0  0  0  0  0
   -9.4050   -4.4140   -7.9580 N   0  0  0  0  0
   -9.7560   -3.8130   -6.8260 C   0  0  0  0  0
  -10.9430   -3.2280   -6.7160 N   0  0  0  0  0
   -8.9200   -3.7850   -5.7970 N   0  0  0  0  0
   -8.2420   -4.0910  -14.0550 N   0  0  0  0  0
   -7.1830   -4.7890  -14.8000 C   0  0  0  0  0
   -6.4520   -3.8520  -15.7730 C   0  0  0  0  0
   -5.3150   -4.1410  -16.1410 O   0  0  0  0  0
   -7.6370   -6.1090  -15.4930 C   0  0  0  0  0
   -8.1300   -7.1290  -14.4710 C   0  0  0  0  0
   -8.6800   -5.8660  -16.5830 C   0  0  0  0  0
   -7.0890   -2.7400  -16.1840 N   0  0  0  0  0
   -6.4650   -1.7650  -17.0850 C   0  0  0  0  0
   -5.5450   -0.7860  -16.3570 C   0  0  0  0  0
   -4.6670   -0.1940  -16.9800 O   0  0  0  0  0
   -7.5090   -1.0120  -17.9180 C   0  0  0  0  0
   -7.7430   -1.6230  -19.2760 C   0  0  0  0  0
   -7.0830   -1.2800  -20.2680 O   0  0  0  0  0
   -8.6630   -2.5650  -19.3420 N   0  0  0  0  0
   -5.7550   -0.6030  -15.0490 N   0  0  0  0  0
   -4.9710    0.3240  -14.2360 C   0  0  0  0  0
   -4.4240   -0.3550  -12.9620 C   0  0  0  0  0
   -5.0110   -0.2040  -11.8850 O   0  0  0  0  0
   -5.7850    1.5910  -13.9230 C   0  0  0  0  0
   -6.2810    2.3060  -15.1530 C   0  0  0  0  0
   -5.5700    3.1040  -15.7600 O   0  0  0  0  0
   -7.5010    2.0070  -15.5680 N   0  0  0  0  0
   -3.3000   -1.1160  -13.0660 N   0  0  0  0  0
   -2.7430   -1.7710  -11.8640 C   0  0  0  0  0
   -2.1560   -0.7830  -10.8490 C   0  0  0  0  0
   -2.1340   -1.0720   -9.6520 O   0  0  0  0  0
   -1.6770   -2.7090  -12.4340 C   0  0  0  0  0
   -1.2770   -2.1080  -13.7270 C   0  0  0  0  0
   -2.4820   -1.4010  -14.2670 C   0  0  0  0  0
   -1.7090    0.3920  -11.3320 N   0  0  0  0  0
   -1.1220    1.4680  -10.5320 C   0  0  0  0  0
   -2.1540    2.1630   -9.6310 C   0  0  0  0  0
   -1.8150    2.5630   -8.5180 O   0  0  0  0  0
   -0.4260    2.4870  -11.4520 C   0  0  0  0  0
    0.7140    1.9380  -12.2920 C   0  0  0  0  0
    0.8040    0.7360  -12.5880 O   0  0  0  0  0
    1.6000    2.8270  -12.7250 N   0  0  0  0  0
   -3.4010    2.3030  -10.1090 N   0  0  0  0  0
   -4.4860    2.9640   -9.3790 C   0  0  0  0  0
   -5.1610    2.0040   -8.3730 C   0  0  0  0  0
   -5.2550    2.3350   -7.1870 O   0  0  0  0  0
   -5.4900    3.6540  -10.3640 C   0  0  0  0  0
   -4.8530    4.9030  -11.0160 C   0  0  0  0  0
   -6.8200    4.0280   -9.6970 C   0  0  0  0  0
   -4.3080    4.6950  -12.4220 C   0  0  0  0  0
   -5.6350    0.8370   -8.8420 N   0  0  0  0  0
   -6.3280   -0.1410   -7.9950 C   0  0  0  0  0
   -5.3960   -1.2450   -7.4890 C   0  0  0  0  0
   -5.3210   -1.4800   -6.2860 O   0  0  0  0  0
   -7.5450   -0.7150   -8.7180 C   0  0  0  0  0
   -8.7570    0.5330   -9.2200 S   0  0  0  0  0
   -4.5810   -1.8150   -8.3800 N   0  0  0  0  0
  -12.2515    5.7045   -5.3141 H   0  0  0  0  0
  -11.0829    4.5417   -5.5576 H   0  0  0  0  0
  -10.6630    6.1542   -5.5406 H   0  0  0  0  0
  -11.9100    6.5804   -7.4740 H   0  0  0  0  0
  -10.1263    4.1681   -7.9031 H   0  0  0  0  0
   -9.5234    5.8420   -7.6078 H   0  0  0  0  0
   -9.6445    5.3084   -9.8432 H   0  0  0  0  0
  -13.5590    6.1507   -8.7156 H   0  0  0  0  0
  -15.4120    5.1348   -9.5746 H   0  0  0  0  0
  -15.3215    3.9628   -8.1973 H   0  0  0  0  0
  -12.6230    4.3362  -10.2567 H   0  0  0  0  0
  -12.9845    2.4906  -12.3553 H   0  0  0  0  0
  -10.5463    3.3342  -10.7847 H   0  0  0  0  0
  -11.2021    4.0611  -12.3346 H   0  0  0  0  0
  -11.8363    2.0152   -9.0264 H   0  0  0  0  0
  -11.0762   -0.7139   -9.2812 H   0  0  0  0  0
  -10.9489   -0.7028   -6.8702 H   0  0  0  0  0
  -11.8669    0.8789   -6.8398 H   0  0  0  0  0
  -14.2064    0.7008   -8.9189 H   0  0  0  0  0
  -15.4905   -1.7495   -7.9483 H   0  0  0  0  0
  -16.8563    0.6343   -9.2021 H   0  0  0  0  0
  -16.2344    0.6586   -7.5090 H   0  0  0  0  0
  -18.4510    0.0535   -7.6472 H   0  0  0  0  0
  -14.4086   -0.5529  -10.9719 H   0  0  0  0  0
  -16.2596   -2.2058  -12.6243 H   0  0  0  0  0
  -14.1523   -0.2121  -13.4595 H   0  0  0  0  0
  -15.9399    0.1528  -13.2015 H   0  0  0  0  0
  -16.7519   -0.5627  -16.4736 H   0  0  0  0  0
  -17.2047    0.1248  -14.9104 H   0  0  0  0  0
  -13.0439   -5.2558  -12.8203 H   0  0  0  0  0
  -14.2775   -7.1419  -13.5815 H   0  0  0  0  0
  -14.4183   -6.4619  -15.1793 H   0  0  0  0  0
  -16.2070   -6.1880  -12.8429 H   0  0  0  0  0
  -16.5949   -6.2586  -14.5616 H   0  0  0  0  0
  -16.2248   -3.9703  -14.8626 H   0  0  0  0  0
  -16.7616   -3.9408  -13.2523 H   0  0  0  0  0
  -14.0908   -3.9654  -15.9625 H   0  0  0  0  0
  -11.7325   -4.6213  -17.4103 H   0  0  0  0  0
  -13.8374   -3.9535  -18.4764 H   0  0  0  0  0
  -13.6812   -2.3206  -17.7834 H   0  0  0  0  0
  -12.5027   -2.8924  -18.9897 H   0  0  0  0  0
  -12.6482   -1.7148  -15.5337 H   0  0  0  0  0
  -10.3161   -0.1784  -16.1284 H   0  0  0  0  0
  -11.8649    0.1098  -13.5867 H   0  0  0  0  0
  -12.5835    0.5498  -15.2107 H   0  0  0  0  0
  -11.1059   -2.1694  -13.2655 H   0  0  0  0  0
   -8.8464   -1.7745  -11.7079 H   0  0  0  0  0
   -9.4437   -4.5409  -11.5753 H   0  0  0  0  0
  -11.0043   -3.6356  -11.8846 H   0  0  0  0  0
  -10.9358   -2.5968   -9.8880 H   0  0  0  0  0
   -9.1408   -2.7508   -9.7459 H   0  0  0  0  0
   -9.9516   -5.3527   -9.7380 H   0  0  0  0  0
  -11.2878   -4.5318   -8.8465 H   0  0  0  0  0
   -8.4893   -4.8619   -7.9943 H   0  0  0  0  0
  -11.2039   -2.7632   -5.8463 H   0  0  0  0  0
  -11.5939   -3.2434   -7.5012 H   0  0  0  0  0
   -8.0033   -4.2259   -5.8725 H   0  0  0  0  0
   -9.2111   -4.2657  -14.3210 H   0  0  0  0  0
   -6.4701   -5.1054  -14.0386 H   0  0  0  0  0
   -6.7583   -6.5242  -15.9865 H   0  0  0  0  0
   -7.3249   -7.3612  -13.7739 H   0  0  0  0  0
   -8.9769   -6.7138  -13.9247 H   0  0  0  0  0
   -8.4391   -8.0381  -14.9869 H   0  0  0  0  0
   -9.5599   -5.3959  -16.1438 H   0  0  0  0  0
   -8.2598   -5.2115  -17.3467 H   0  0  0  0  0
   -8.9616   -6.8179  -17.0333 H   0  0  0  0  0
   -8.0400   -2.5690  -15.8572 H   0  0  0  0  0
   -5.8395   -2.3445  -17.7640 H   0  0  0  0  0
   -7.1383    0.0013  -18.0725 H   0  0  0  0  0
   -8.4527   -1.0482  -17.3738 H   0  0  0  0  0
   -8.8491   -3.0349  -20.2280 H   0  0  0  0  0
   -9.1887   -2.8239  -18.5071 H   0  0  0  0  0
   -6.4981   -1.1361  -14.5973 H   0  0  0  0  0
   -4.0996    0.6308  -14.8145 H   0  0  0  0  0
   -5.1295    2.2774  -13.3871 H   0  0  0  0  0
   -6.6586    1.2852  -13.3473 H   0  0  0  0  0
   -7.8737    2.4425  -16.4117 H   0  0  0  0  0
   -8.0689    1.3410  -15.0443 H   0  0  0  0  0
   -3.5114   -2.2900  -11.2911 H   0  0  0  0  0
   -2.0615   -3.7206  -12.5641 H   0  0  0  0  0
   -0.8275   -2.8080  -11.7582 H   0  0  0  0  0
   -0.9343   -2.8752  -14.4214 H   0  0  0  0  0
   -0.4484   -1.4130  -13.5914 H   0  0  0  0  0
   -2.2188   -0.4943  -14.8117 H   0  0  0  0  0
   -3.0200   -2.0030  -14.9993 H   0  0  0  0  0
   -1.7858    0.5446  -12.3376 H   0  0  0  0  0
   -0.3839    1.0169   -9.8687 H   0  0  0  0  0
    0.0061    3.2476  -10.8017 H   0  0  0  0  0
   -1.1834    2.8420  -12.1509 H   0  0  0  0  0
    2.3765    2.5276  -13.3148 H   0  0  0  0  0
    1.5042    3.8094  -12.4679 H   0  0  0  0  0
   -3.6050    1.9270  -11.0350 H   0  0  0  0  0
   -4.0587    3.7648   -8.7755 H   0  0  0  0  0
   -5.7138    2.9184  -11.1366 H   0  0  0  0  0
   -4.0056    5.1841  -10.3908 H   0  0  0  0  0
   -5.6417    5.6513  -11.0941 H   0  0  0  0  0
   -7.2980    3.1271   -9.3122 H   0  0  0  0  0
   -6.6314    4.7198   -8.8760 H   0  0  0  0  0
   -7.4722    4.5019  -10.4305 H   0  0  0  0  0
   -3.5345    3.9273  -12.4006 H   0  0  0  0  0
   -5.1169    4.3793  -13.0808 H   0  0  0  0  0
   -3.8837    5.6300  -12.7878 H   0  0  0  0  0
   -5.5074    0.6214   -9.8308 H   0  0  0  0  0
   -6.6778    0.3889   -7.1091 H   0  0  0  0  0
   -8.0447   -1.3913   -8.0245 H   0  0  0  0  0
   -7.1841   -1.1995   -9.6252 H   0  0  0  0  0
   -3.8647   -2.4713   -8.0692 H   0  0  0  0  0
   -4.6747   -1.5941   -9.3714 H   0  0  0  0  0
  1  2  1  0  0  0
  2  3  1  0  0  0
  2  5  1  0  0  0
  3  4  2  0  0  0
  3  7  1  0  0  0
  5  6  1  0  0  0
  7  8  1  0  0  0
  8  9  1  0  0  0
  9 10  2  0  0  0
  9 11  1  0  0  0
 11 12  1  0  0  0
 12 13  1  0  0  0
 12 15  1  0  0  0
 13 14  2  0  0  0
 13 17  1  0  0  0
 15 16  1  0  0  0
 16 54  1  0  0  0
 17 18  1  0  0  0
 18 19  1  0  0  0
 18 21  1  0  0  0
 19 20  2  0  0  0
 19 23  1  0  0  0
 21 22  1  0  0  0
 22117  1  0  0  0
 23 24  1  0  0  0
 24 25  1  0  0  0
 24 27  1  0  0  0
 25 26  2  0  0  0
 25 29  1  0  0  0
 27 28  1  0  0  0
 29 30  1  0  0  0
 30 31  1  0  0  0
 30 33  1  0  0  0
 31 32  2  0  0  0
 31 37  1  0  0  0
 33 34  1  0  0  0
 34 35  2  0  0  0
 34 36  1  0  0  0
 37 38  1  0  0  0
 37 43  1  0  0  0
 38 39  1  0  0  0
 38 41  1  0  0  0
 39 40  2  0  0  0
 39 44  1  0  0  0
 41 42  1  0  0  0
 42 43  1  0  0  0
 44 45  1  0  0  0
 45 46  1  0  0  0
 45 48  1  0  0  0
 46 47  2  0  0  0
 46 49  1  0  0  0
 49 50  1  0  0  0
 50 51  1  0  0  0
 50 53  1  0  0  0
 51 52  2  0  0  0
 51 55  1  0  0  0
 53 54  1  0  0  0
 55 56  1  0  0  0
 56 57  1  0  0  0
 56 59  1  0  0  0
 57 58  2  0  0  0
 57 66  1  0  0  0
 59 60  1  0  0  0
 60 61  1  0  0  0
 61 62  1  0  0  0
 62 63  1  0  0  0
 63 64  1  0  0  0
 63 65  2  0  0  0
 66 67  1  0  0  0
 67 68  1  0  0  0
 67 70  1  0  0  0
 68 69  2  0  0  0
 68 73  1  0  0  0
 70 71  1  0  0  0
 70 72  1  0  0  0
 73 74  1  0  0  0
 74 75  1  0  0  0
 74 77  1  0  0  0
 75 76  2  0  0  0
 75 81  1  0  0  0
 77 78  1  0  0  0
 78 79  2  0  0  0
 78 80  1  0  0  0
 81 82  1  0  0  0
 82 83  1  0  0  0
 82 85  1  0  0  0
 83 84  2  0  0  0
 83 89  1  0  0  0
 85 86  1  0  0  0
 86 87  2  0  0  0
 86 88  1  0  0  0
 89 90  1  0  0  0
 89 95  1  0  0  0
 90 91  1  0  0  0
 90 93  1  0  0  0
 91 92  2  0  0  0
 91 96  1  0  0  0
 93 94  1  0  0  0
 94 95  1  0  0  0
 96 97  1  0  0  0
 97 98  1  0  0  0
 97100  1  0  0  0
 98 99  2  0  0  0
 98104  1  0  0  0
100101  1  0  0  0
101102  2  0  0  0
101103  1  0  0  0
104105  1  0  0  0
105106  1  0  0  0
105108  1  0  0  0
106107  2  0  0  0
106112  1  0  0  0
108109  1  0  0  0
108110  1  0  0  0
109111  1  0  0  0
112113  1  0  0  0
113114  1  0  0  0
113116  1  0  0  0
114115  2  0  0  0
114118  1  0  0  0
116117  1  0  0  0
  1119  1  0  0  0
  1120  1  0  0  0
  1121  1  0  0  0
  2122  1  0  0  0
  5123  1  0  0  0
  5124  1  0  0  0
  6125  1  0  0  0
  7126  1  0  0  0
  8127  1  0  0  0
  8128  1  0  0  0
 11129  1  0  0  0
 12130  1  0  0  0
 15131  1  0  0  0
 15132  1  0  0  0
 17133  1  0  0  0
 18134  1  0  0  0
 21135  1  0  0  0
 21136  1  0  0  0
 23137  1  0  0  0
 24138  1  0  0  0
 27139  1  0  0  0
 27140  1  0  0  0
 28141  1  0  0  0
 29142  1  0  0  0
 30143  1  0  0  0
 33144  1  0  0  0
 33145  1  0  0  0
 36146  1  0  0  0
 36147  1  0  0  0
 38148  1  0  0  0
 41149  1  0  0  0
 41150  1  0  0  0
 42151  1  0  0  0
 42152  1  0  0  0
 43153  1  0  0  0
 43154  1  0  0  0
 44155  1  0  0  0
 45156  1  0  0  0
 48157  1  0  0  0
 48158  1  0  0  0
 48159  1  0  0  0
 49160  1  0  0  0
 50161  1  0  0  0
 53162  1  0  0  0
 53163  1  0  0  0
 55164  1  0  0  0
 56165  1  0  0  0
 59166  1  0  0  0
 59167  1  0  0  0
 60168  1  0  0  0
 60169  1  0  0  0
 61170  1  0  0  0
 61171  1  0  0  0
 62172  1  0  0  0
 64173  1  0  0  0
 64174  1  0  0  0
 65175  1  0  0  0
 66176  1  0  0  0
 67177  1  0  0  0
 70178  1  0  0  0
 71179  1  0  0  0
 71180  1  0  0  0
 71181  1  0  0  0
 72182  1  0  0  0
 72183  1  0  0  0
 72184  1  0  0  0
 73185  1  0  0  0
 74186  1  0  0  0
 77187  1  0  0  0
 77188  1  0  0  0
 80189  1  0  0  0
 80190  1  0  0  0
 81191  1  0  0  0
 82192  1  0  0  0
 85193  1  0  0  0
 85194  1  0  0  0
 88195  1  0  0  0
 88196  1  0  0  0
 90197  1  0  0  0
 93198  1  0  0  0
 93199  1  0  0  0
 94200  1  0  0  0
 94201  1  0  0  0
 95202  1  0  0  0
 95203  1  0  0  0
 96204  1  0  0  0
 97205  1  0  0  0
100206  1  0  0  0
100207  1  0  0  0
103208  1  0  0  0
103209  1  0  0  0
104210  1  0  0  0
105211  1  0  0  0
108212  1  0  0  0
109213  1  0  0  0
109214  1  0  0  0
110215  1  0  0  0
110216  1  0  0  0
110217  1  0  0  0
111218  1  0  0  0
111219  1  0  0  0
111220  1  0  0  0
112221  1  0  0  0
113222  1  0  0  0
116223  1  0  0  0
116224  1  0  0  0
118225  1  0  0  0
118226  1  0  0  0
M  END
$$$$
