### 
### Created by X-TOOL on Mon Sep 10 21:13:34 2018
### 

@<TRIPOS>MOLECULE
5t90_ligand
  227   230     1     0     0
SMALL
GAST_HUCK


@<TRIPOS>ATOM
      1 N         -11.3850    5.4840   -5.8050 N.4       1 SER         0.2396
      2 CA        -11.6110    5.5580   -7.2430 C.3       1 SER         0.0884
      3 C         -12.7300    4.6230   -7.6760 C.2       1 SER         0.2288
      4 O         -12.7500    3.4490   -7.2890 O.2       1 SER        -0.3906
      5 CB        -10.3320    5.2330   -8.0120 C.3       1 SER         0.1041
      6 OG        -10.4640    5.5240   -9.3920 O.3       1 SER        -0.3870
      7 N         -13.6530    5.1640   -8.4750 N.am      1 GLY        -0.2636
      8 CA        -14.7880    4.4300   -9.0250 C.3       1 GLY         0.1202
      9 C         -14.3560    3.3340   -9.9860 C.2       1 GLY         0.2008
     10 O         -15.1110    2.3900  -10.2630 O.2       1 GLY        -0.3947
     11 N         -13.1230    3.4870  -10.5200 N.am      1 CYS        -0.2631
     12 CA        -12.4210    2.5850  -11.4270 C.3       1 CYS         0.1406
     13 C         -12.3070    1.1860  -10.8140 C.2       1 CYS         0.2048
     14 O         -12.5620    0.1950  -11.4960 O.2       1 CYS        -0.3944
     15 CB        -11.0440    3.1620  -11.7390 C.3       1 CYS         0.0443
     16 SG         -9.9760    2.0700  -12.7030 S.3       1 CYS        -0.0882
     17 N         -11.9690    1.1270   -9.5100 N.am      1 CYS        -0.2629
     18 CA        -11.7750   -0.0890   -8.7250 C.3       1 CYS         0.1406
     19 C         -13.0390   -0.9320   -8.5840 C.2       1 CYS         0.2048
     20 O         -12.9350   -2.1410   -8.3720 O.2       1 CYS        -0.3944
     21 CB        -11.1580    0.2430   -7.3700 C.3       1 CYS         0.0443
     22 SG         -9.5900    1.1550   -7.4730 S.3       1 CYS        -0.0882
     23 N         -14.2230   -0.3050   -8.7500 N.am      1 SER        -0.2615
     24 CA        -15.5310   -0.9660   -8.7050 C.3       1 SER         0.1539
     25 C         -15.8690   -1.6350  -10.0630 C.2       1 SER         0.2063
     26 O         -16.7620   -2.4840  -10.1300 O.2       1 SER        -0.3943
     27 CB        -16.6130    0.0390   -8.3220 C.3       1 SER         0.0843
     28 OG        -17.7940   -0.6070   -7.8790 O.3       1 SER        -0.3903
     29 N         -15.1330   -1.2520  -11.1360 N.am      1 ASN        -0.2615
     30 CA        -15.2780   -1.7460  -12.5100 C.3       1 ASN         0.1478
     31 C         -14.2210   -2.8370  -12.8120 C.2       1 ASN         0.2088
     32 O         -13.0460   -2.6530  -12.4820 O.2       1 ASN        -0.3940
     33 CB        -15.1810   -0.5700  -13.5010 C.3       1 ASN         0.0773
     34 CG        -15.4600   -0.9150  -14.9460 C.2       1 ASN         0.1780
     35 OD1       -14.6630   -1.5660  -15.6170 O.2       1 ASN        -0.3970
     36 ND2       -16.5550   -0.4130  -15.4840 N.am      1 ASN        -0.3007
     37 N         -14.6210   -3.9750  -13.4330 N.am      1 PRO        -0.2497
     38 CA        -13.6570   -5.0600  -13.7000 C.3       1 PRO         0.1338
     39 C         -12.6320   -4.7400  -14.7780 C.2       1 PRO         0.2041
     40 O         -11.4540   -5.0480  -14.5990 O.2       1 PRO        -0.3944
     41 CB        -14.5440   -6.2330  -14.1210 C.3       1 PRO        -0.0104
     42 CG        -15.9110   -5.8300  -13.8290 C.3       1 PRO        -0.0281
     43 CD        -15.9710   -4.3580  -13.8760 C.3       1 PRO         0.0369
     44 N         -13.0890   -4.1470  -15.9010 N.am      1 ALA        -0.2640
     45 CA        -12.2610   -3.7450  -17.0350 C.3       1 ALA         0.1282
     46 C         -11.2340   -2.7120  -16.5990 C.2       1 ALA         0.2036
     47 O         -10.0610   -2.8550  -16.9360 O.2       1 ALA        -0.3944
     48 CB        -13.1330   -3.1880  -18.1510 C.3       1 ALA        -0.0244
     49 N         -11.6630   -1.7150  -15.7980 N.am      1 CYS        -0.2629
     50 CA        -10.8250   -0.6340  -15.2790 C.3       1 CYS         0.1406
     51 C          -9.7310   -1.1440  -14.3510 C.2       1 CYS         0.2047
     52 O          -8.5640   -0.8100  -14.5560 O.2       1 CYS        -0.3944
     53 CB        -11.6810    0.4370  -14.6100 C.3       1 CYS         0.0443
     54 SG        -10.8920    2.0650  -14.5180 S.3       1 CYS        -0.0882
     55 N         -10.1110   -1.9590  -13.3450 N.am      1 ARG        -0.2637
     56 CA         -9.2170   -2.5670  -12.3580 C.3       1 ARG         0.1311
     57 C          -8.0050   -3.2270  -13.0330 C.2       1 ARG         0.2039
     58 O          -6.8760   -2.9160  -12.6620 O.2       1 ARG        -0.3944
     59 CB         -9.9840   -3.5970  -11.5030 C.3       1 ARG        -0.0092
     60 CG        -10.0700   -3.2430  -10.0330 C.3       1 ARG        -0.0156
     61 CD        -10.2450   -4.4770   -9.1590 C.3       1 ARG         0.0627
     62 NE         -9.4050   -4.4140   -7.9580 N.pl3     1 ARG        -0.2723
     63 CZ         -9.7560   -3.8130   -6.8260 C.cat     1 ARG         0.2882
     64 NH1       -10.9430   -3.2280   -6.7160 N.pl3     1 ARG        -0.2849
     65 NH2        -8.9200   -3.7850   -5.7970 N.pl3     1 ARG        -0.2849
     66 N          -8.2420   -4.0910  -14.0550 N.am      1 VAL        -0.2635
     67 CA         -7.1830   -4.7890  -14.8000 C.3       1 VAL         0.1333
     68 C          -6.4520   -3.8520  -15.7730 C.2       1 VAL         0.2043
     69 O          -5.3150   -4.1410  -16.1410 O.2       1 VAL        -0.3944
     70 CB         -7.6370   -6.1090  -15.4930 C.3       1 VAL        -0.0063
     71 CG1        -8.1300   -7.1290  -14.4710 C.3       1 VAL        -0.0584
     72 CG2        -8.6800   -5.8660  -16.5830 C.3       1 VAL        -0.0584
     73 N          -7.0890   -2.7400  -16.1840 N.am      1 ASN        -0.2616
     74 CA         -6.4650   -1.7650  -17.0850 C.3       1 ASN         0.1476
     75 C          -5.5450   -0.7860  -16.3570 C.2       1 ASN         0.2064
     76 O          -4.6670   -0.1940  -16.9800 O.2       1 ASN        -0.3942
     77 CB         -7.5090   -1.0120  -17.9180 C.3       1 ASN         0.0773
     78 CG         -7.7430   -1.6230  -19.2760 C.2       1 ASN         0.1780
     79 OD1        -7.0830   -1.2800  -20.2680 O.2       1 ASN        -0.3970
     80 ND2        -8.6630   -2.5650  -19.3420 N.am      1 ASN        -0.3007
     81 N          -5.7550   -0.6030  -15.0490 N.am      1 ASN        -0.2615
     82 CA         -4.9710    0.3240  -14.2360 C.3       1 ASN         0.1478
     83 C          -4.4240   -0.3550  -12.9620 C.2       1 ASN         0.2088
     84 O          -5.0110   -0.2040  -11.8850 O.2       1 ASN        -0.3940
     85 CB         -5.7850    1.5910  -13.9230 C.3       1 ASN         0.0773
     86 CG         -6.2810    2.3060  -15.1530 C.2       1 ASN         0.1780
     87 OD1        -5.5700    3.1040  -15.7600 O.2       1 ASN        -0.3970
     88 ND2        -7.5010    2.0070  -15.5680 N.am      1 ASN        -0.3007
     89 N          -3.3000   -1.1160  -13.0660 N.am      1 PRO        -0.2497
     90 CA         -2.7430   -1.7710  -11.8640 C.3       1 PRO         0.1338
     91 C          -2.1560   -0.7830  -10.8490 C.2       1 PRO         0.2042
     92 O          -2.1340   -1.0720   -9.6520 O.2       1 PRO        -0.3944
     93 CB         -1.6770   -2.7090  -12.4340 C.3       1 PRO        -0.0104
     94 CG         -1.2770   -2.1080  -13.7270 C.3       1 PRO        -0.0281
     95 CD         -2.4820   -1.4010  -14.2670 C.3       1 PRO         0.0369
     96 N          -1.7090    0.3920  -11.3320 N.am      1 ASN        -0.2616
     97 CA         -1.1220    1.4680  -10.5320 C.3       1 ASN         0.1476
     98 C          -2.1540    2.1630   -9.6310 C.2       1 ASN         0.2063
     99 O          -1.8150    2.5630   -8.5180 O.2       1 ASN        -0.3942
    100 CB         -0.4260    2.4870  -11.4520 C.3       1 ASN         0.0773
    101 CG          0.7140    1.9380  -12.2920 C.2       1 ASN         0.1780
    102 OD1         0.8040    0.7360  -12.5880 O.2       1 ASN        -0.3970
    103 ND2         1.6000    2.8270  -12.7250 N.am      1 ASN        -0.3007
    104 N          -3.4010    2.3030  -10.1090 N.am      1 ILE        -0.2633
    105 CA         -4.4860    2.9640   -9.3790 C.3       1 ILE         0.1335
    106 C          -5.1610    2.0040   -8.3730 C.2       1 ILE         0.2042
    107 O          -5.2550    2.3350   -7.1870 O.2       1 ILE        -0.3944
    108 CB         -5.4900    3.6540  -10.3640 C.3       1 ILE        -0.0037
    109 CG1        -4.8530    4.9030  -11.0160 C.3       1 ILE        -0.0491
    110 CG2        -6.8200    4.0280   -9.6970 C.3       1 ILE        -0.0582
    111 CD1        -4.3080    4.6950  -12.4220 C.3       1 ILE        -0.0648
    112 N          -5.6350    0.8370   -8.8420 N.am      1 CYS        -0.2629
    113 CA         -6.3280   -0.1410   -7.9950 C.3       1 CYS         0.1403
    114 C          -5.3960   -1.2450   -7.4890 C.2       1 CYS         0.2000
    115 O          -5.3210   -1.4800   -6.2860 O.2       1 CYS        -0.3947
    116 CB         -7.5450   -0.7150   -8.7180 C.3       1 CYS         0.0443
    117 SG         -8.7570    0.5330   -9.2200 S.3       1 CYS        -0.0882
    118 N          -4.5810   -1.8150   -8.3800 N.am      1 NH2        -0.2989
    119 H1        -10.6399    6.1129   -5.5492 H         1 SER         0.2016
    120 H2        -11.1308    4.5418   -5.5529 H         1 SER         0.2016
    121 H3        -12.2279    5.7463   -5.3184 H         1 SER         0.2016
    122 H4        -11.9093    6.5879   -7.4884 H         1 SER         0.1122
    123 H5        -10.1063    4.1630   -7.8930 H         1 SER         0.0640
    124 H6         -9.5058    5.8302   -7.5989 H         1 SER         0.0640
    125 H7         -9.6530    5.3107   -9.8385 H         1 SER         0.2099
    126 H8        -13.5608    6.1314   -8.7109 H         1 GLY         0.1882
    127 H9        -15.4384    5.1356   -9.5627 H         1 GLY         0.0763
    128 H10       -15.3487    3.9729   -8.1963 H         1 GLY         0.0763
    129 H11       -12.6328    4.3195  -10.2619 H         1 CYS         0.1884
    130 H12       -12.9922    2.5086  -12.3640 H         1 CYS         0.0808
    131 H13       -10.5399    3.3826  -10.7865 H         1 CYS         0.0432
    132 H14       -11.1825    4.0948  -12.3052 H         1 CYS         0.0432
    133 H15       -11.8390    1.9978   -9.0359 H         1 CYS         0.1884
    134 H16       -11.0462   -0.7066   -9.2702 H         1 CYS         0.0808
    135 H17       -10.9748   -0.6996   -6.8334 H         1 CYS         0.0432
    136 H18       -11.8764    0.8538   -6.8035 H         1 CYS         0.0432
    137 H19       -14.2068    0.6811   -8.9155 H         1 SER         0.1884
    138 H20       -15.4955   -1.7501   -7.9344 H         1 SER         0.0823
    139 H21       -16.8525    0.6571   -9.1998 H         1 SER         0.0606
    140 H22       -16.2332    0.6813   -7.5138 H         1 SER         0.0606
    141 H23       -18.1309   -1.1600   -8.5741 H         1 SER         0.2097
    142 H24       -14.4228   -0.5666  -10.9751 H         1 ASN         0.1885
    143 H25       -16.2747   -2.1999  -12.6124 H         1 ASN         0.0826
    144 H26       -14.1626   -0.1587  -13.4409 H         1 ASN         0.0551
    145 H27       -15.9052    0.1970  -13.1894 H         1 ASN         0.0551
    146 H28       -16.7811   -0.6138  -16.4372 H         1 ASN         0.1814
    147 H29       -17.1589    0.1683  -14.9386 H         1 ASN         0.1814
    148 H30       -13.1148   -5.3056  -12.7750 H         1 PRO         0.0802
    149 H31       -14.2814   -7.1349  -13.5487 H         1 PRO         0.0313
    150 H32       -14.4266   -6.4338  -15.1961 H         1 PRO         0.0313
    151 H33       -16.1989   -6.1837  -12.8280 H         1 PRO         0.0287
    152 H34       -16.5941   -6.2557  -14.5788 H         1 PRO         0.0287
    153 H35       -16.1720   -3.9999  -14.8965 H         1 PRO         0.0524
    154 H36       -16.7400   -3.9687  -13.1926 H         1 PRO         0.0524
    155 H37       -14.0712   -3.9690  -15.9613 H         1 ALA         0.1883
    156 H38       -11.7292   -4.6304  -17.4135 H         1 ALA         0.0797
    157 H39       -12.4980   -2.8893  -18.9981 H         1 ALA         0.0277
    158 H40       -13.6868   -2.3124  -17.7813 H         1 ALA         0.0277
    159 H41       -13.8444   -3.9596  -18.4803 H         1 ALA         0.0277
    160 H42       -12.6288   -1.7148  -15.5388 H         1 CYS         0.1884
    161 H43       -10.3256   -0.1655  -16.1399 H         1 CYS         0.0808
    162 H44       -11.9103    0.1061  -13.5863 H         1 CYS         0.0432
    163 H45       -12.6159    0.5382  -15.1808 H         1 CYS         0.0432
    164 H46       -11.0864   -2.1653  -13.2670 H         1 ARG         0.1883
    165 H47        -8.8481   -1.7717  -11.6936 H         1 ARG         0.0800
    166 H48        -9.4758   -4.5682  -11.5947 H         1 ARG         0.0313
    167 H49       -11.0072   -3.6798  -11.8982 H         1 ARG         0.0313
    168 H50       -10.9291   -2.5736   -9.8785 H         1 ARG         0.0301
    169 H51        -9.1449   -2.7266   -9.7373 H         1 ARG         0.0301
    170 H52        -9.9685   -5.3684   -9.7411 H         1 ARG         0.0689
    171 H53       -11.2991   -4.5510   -8.8534 H         1 ARG         0.0689
    172 H54        -8.4804   -4.8663   -7.9947 H         1 ARG         0.2642
    173 H55       -11.2088   -2.7639   -5.8357 H         1 ARG         0.2615
    174 H56       -11.5979   -3.2383   -7.5109 H         1 ARG         0.2615
    175 H57        -7.9967   -4.2355   -5.8712 H         1 ARG         0.2615
    176 H58        -9.1939   -3.3128   -4.9236 H         1 ARG         0.2615
    177 H59        -9.1921   -4.2622  -14.3158 H         1 VAL         0.1883
    178 H60        -6.4395   -5.0897  -14.0471 H         1 VAL         0.0802
    179 H61        -6.7509   -6.5385  -15.9833 H         1 VAL         0.0343
    180 H62        -8.4423   -8.0470  -14.9905 H         1 VAL         0.0234
    181 H63        -8.9848   -6.7112  -13.9190 H         1 VAL         0.0234
    182 H64        -7.3184   -7.3643  -13.7668 H         1 VAL         0.0234
    183 H65        -8.2943   -5.1278  -17.3015 H         1 VAL         0.0234
    184 H66        -9.6053   -5.4846  -16.1266 H         1 VAL         0.0234
    185 H67        -8.8912   -6.8106  -17.1056 H         1 VAL         0.0234
    186 H68        -8.0213   -2.5724  -15.8636 H         1 ASN         0.1885
    187 H69        -5.8380   -2.3353  -17.7861 H         1 ASN         0.0826
    188 H70        -7.1646    0.0235  -18.0559 H         1 ASN         0.0551
    189 H71        -8.4610   -1.0115  -17.3669 H         1 ASN         0.0551
    190 H72        -8.8632   -3.0080  -20.2159 H         1 ASN         0.1814
    191 H73        -9.1606   -2.8365  -18.5182 H         1 ASN         0.1814
    192 H74        -6.4835   -1.1256  -14.6061 H         1 ASN         0.1885
    193 H75        -4.1020    0.6337  -14.8351 H         1 ASN         0.0826
    194 H76        -5.1476    2.2821  -13.3519 H         1 ASN         0.0551
    195 H77        -6.6541    1.3045  -13.3127 H         1 ASN         0.0551
    196 H78        -7.8766    2.4541  -16.3798 H         1 ASN         0.1814
    197 H79        -8.0476    1.3338  -15.0699 H         1 ASN         0.1814
    198 H80        -3.5280   -2.3536  -11.3596 H         1 PRO         0.0802
    199 H81        -2.0929   -3.7154  -12.5895 H         1 PRO         0.0313
    200 H82        -0.8142   -2.7697  -11.7543 H         1 PRO         0.0313
    201 H83        -0.9541   -2.8936  -14.4260 H         1 PRO         0.0287
    202 H84        -0.4553   -1.3928  -13.5741 H         1 PRO         0.0287
    203 H85        -2.1934   -0.4682  -14.7736 H         1 PRO         0.0524
    204 H86        -3.0308   -2.0453  -14.9697 H         1 PRO         0.0524
    205 H87        -1.7843    0.5416  -12.3179 H         1 ASN         0.1885
    206 H88        -0.3584    1.0210   -9.8785 H         1 ASN         0.0826
    207 H89        -0.0242    3.2937  -10.8214 H         1 ASN         0.0551
    208 H90        -1.1830    2.8985  -12.1358 H         1 ASN         0.0551
    209 H91         2.3747    2.5298  -13.2831 H         1 ASN         0.1814
    210 H92         1.4926    3.7938  -12.4930 H         1 ASN         0.1814
    211 H93        -3.6010    1.9344  -11.0168 H         1 ILE         0.1883
    212 H94        -4.0291    3.7682   -8.7836 H         1 ILE         0.0803
    213 H95        -5.7129    2.9321  -11.1635 H         1 ILE         0.0345
    214 H96        -4.0229    5.2351  -10.3753 H         1 ILE         0.0267
    215 H97        -5.6191    5.6910  -11.0614 H         1 ILE         0.0267
    216 H98        -7.2639    3.1329   -9.2369 H         1 ILE         0.0235
    217 H99        -7.5091    4.4313  -10.4537 H         1 ILE         0.0235
    218 H100       -6.6407    4.7879   -8.9222 H         1 ILE         0.0235
    219 H101       -3.8795    5.6380  -12.7923 H         1 ILE         0.0230
    220 H102       -5.1234    4.3764  -13.0880 H         1 ILE         0.0230
    221 H103       -3.5272    3.9205  -12.4018 H         1 ILE         0.0230
    222 H104       -5.5099    0.6256   -9.8114 H         1 CYS         0.1884
    223 H105       -6.6966    0.3987   -7.1102 H         1 CYS         0.0808
    224 H106       -8.0421   -1.4295   -8.0455 H         1 CYS         0.0432
    225 H107       -7.1963   -1.2410   -9.6189 H         1 CYS         0.0432
    226 H108       -3.9554   -2.5404   -8.0930 H         1 NH2         0.1815
    227 H109       -4.5962   -1.5164   -9.3343 H         1 NH2         0.1815
@<TRIPOS>BOND
     1    1    2 1  
     2    2    3 1  
     3    2    5 1  
     4    3    4 2  
     5    3    7 am 
     6    5    6 1  
     7    7    8 1  
     8    8    9 1  
     9    9   10 2  
    10    9   11 am 
    11   11   12 1  
    12   12   13 1  
    13   12   15 1  
    14   13   14 2  
    15   13   17 am 
    16   15   16 1  
    17   16   54 1  
    18   17   18 1  
    19   18   19 1  
    20   18   21 1  
    21   19   20 2  
    22   19   23 am 
    23   21   22 1  
    24   22  117 1  
    25   23   24 1  
    26   24   25 1  
    27   24   27 1  
    28   25   26 2  
    29   25   29 am 
    30   27   28 1  
    31   29   30 1  
    32   30   31 1  
    33   30   33 1  
    34   31   32 2  
    35   31   37 am 
    36   33   34 1  
    37   34   35 2  
    38   34   36 am 
    39   37   38 1  
    40   37   43 1  
    41   38   39 1  
    42   38   41 1  
    43   39   40 2  
    44   39   44 am 
    45   41   42 1  
    46   42   43 1  
    47   44   45 1  
    48   45   46 1  
    49   45   48 1  
    50   46   47 2  
    51   46   49 am 
    52   49   50 1  
    53   50   51 1  
    54   50   53 1  
    55   51   52 2  
    56   51   55 am 
    57   53   54 1  
    58   55   56 1  
    59   56   57 1  
    60   56   59 1  
    61   57   58 2  
    62   57   66 am 
    63   59   60 1  
    64   60   61 1  
    65   61   62 1  
    66   62   63 ar 
    67   63   64 ar 
    68   63   65 ar 
    69   66   67 1  
    70   67   68 1  
    71   67   70 1  
    72   68   69 2  
    73   68   73 am 
    74   70   71 1  
    75   70   72 1  
    76   73   74 1  
    77   74   75 1  
    78   74   77 1  
    79   75   76 2  
    80   75   81 am 
    81   77   78 1  
    82   78   79 2  
    83   78   80 am 
    84   81   82 1  
    85   82   83 1  
    86   82   85 1  
    87   83   84 2  
    88   83   89 am 
    89   85   86 1  
    90   86   87 2  
    91   86   88 am 
    92   89   90 1  
    93   89   95 1  
    94   90   91 1  
    95   90   93 1  
    96   91   92 2  
    97   91   96 am 
    98   93   94 1  
    99   94   95 1  
   100   96   97 1  
   101   97   98 1  
   102   97  100 1  
   103   98   99 2  
   104   98  104 am 
   105  100  101 1  
   106  101  102 2  
   107  101  103 am 
   108  104  105 1  
   109  105  106 1  
   110  105  108 1  
   111  106  107 2  
   112  106  112 am 
   113  108  109 1  
   114  108  110 1  
   115  109  111 1  
   116  112  113 1  
   117  113  114 1  
   118  113  116 1  
   119  114  115 2  
   120  114  118 am 
   121  116  117 1  
   122    1  119 1  
   123    1  120 1  
   124    1  121 1  
   125    2  122 1  
   126    5  123 1  
   127    5  124 1  
   128    6  125 1  
   129    7  126 1  
   130    8  127 1  
   131    8  128 1  
   132   11  129 1  
   133   12  130 1  
   134   15  131 1  
   135   15  132 1  
   136   17  133 1  
   137   18  134 1  
   138   21  135 1  
   139   21  136 1  
   140   23  137 1  
   141   24  138 1  
   142   27  139 1  
   143   27  140 1  
   144   28  141 1  
   145   29  142 1  
   146   30  143 1  
   147   33  144 1  
   148   33  145 1  
   149   36  146 1  
   150   36  147 1  
   151   38  148 1  
   152   41  149 1  
   153   41  150 1  
   154   42  151 1  
   155   42  152 1  
   156   43  153 1  
   157   43  154 1  
   158   44  155 1  
   159   45  156 1  
   160   48  157 1  
   161   48  158 1  
   162   48  159 1  
   163   49  160 1  
   164   50  161 1  
   165   53  162 1  
   166   53  163 1  
   167   55  164 1  
   168   56  165 1  
   169   59  166 1  
   170   59  167 1  
   171   60  168 1  
   172   60  169 1  
   173   61  170 1  
   174   61  171 1  
   175   62  172 1  
   176   64  173 1  
   177   64  174 1  
   178   65  175 1  
   179   65  176 1  
   180   66  177 1  
   181   67  178 1  
   182   70  179 1  
   183   71  180 1  
   184   71  181 1  
   185   71  182 1  
   186   72  183 1  
   187   72  184 1  
   188   72  185 1  
   189   73  186 1  
   190   74  187 1  
   191   77  188 1  
   192   77  189 1  
   193   80  190 1  
   194   80  191 1  
   195   81  192 1  
   196   82  193 1  
   197   85  194 1  
   198   85  195 1  
   199   88  196 1  
   200   88  197 1  
   201   90  198 1  
   202   93  199 1  
   203   93  200 1  
   204   94  201 1  
   205   94  202 1  
   206   95  203 1  
   207   95  204 1  
   208   96  205 1  
   209   97  206 1  
   210  100  207 1  
   211  100  208 1  
   212  103  209 1  
   213  103  210 1  
   214  104  211 1  
   215  105  212 1  
   216  108  213 1  
   217  109  214 1  
   218  109  215 1  
   219  110  216 1  
   220  110  217 1  
   221  110  218 1  
   222  111  219 1  
   223  111  220 1  
   224  111  221 1  
   225  112  222 1  
   226  113  223 1  
   227  116  224 1  
   228  116  225 1  
   229  118  226 1  
   230  118  227 1  
@<TRIPOS>SUBSTRUCTURE
     1 SER         1

