6jse_ligand
  -I-interpret- 

 54 57  0  0  0  0  0  0  0  0999 V2000
   21.5320   39.2410   -7.5400 C   0  0  0  0  0
   21.3270   38.5410   -8.7330 C   0  0  0  0  0
   20.0370   38.1280   -9.0870 C   0  0  0  0  0
   18.8680   38.4290   -8.1840 C   0  0  0  0  0
   19.1650   39.1380   -7.0070 C   0  0  0  0  0
   17.4320   37.9950   -8.5160 C   0  0  0  0  0
   16.9420   38.6380   -9.8470 C   0  0  0  0  0
   15.1580   39.5340   -6.0980 N   0  0  0  0  0
   20.5930   40.2170   -5.4890 N   0  0  0  0  0
   20.9640   43.6230   -0.1190 O   0  0  0  0  0
   16.8180   40.1800   -9.7560 C   0  0  0  0  0
   20.3870   41.3810   -2.8850 N   0  0  0  0  0
   15.9250   39.4260   -7.1810 C   0  0  0  0  0
   21.6730   40.8220   -4.9460 C   0  0  0  0  0
   21.4910   41.5780   -3.6540 C   0  0  0  0  0
   20.1890   42.0400   -1.7310 C   0  0  0  0  0
   21.1520   42.9520   -1.3030 C   0  0  0  0  0
   22.4570   42.4900   -3.2230 C   0  0  0  0  0
   17.4640   36.4620   -8.6120 C   0  0  0  0  0
   22.9090   43.6240    1.1070 F   0  0  0  0  0
   21.9820   44.4290    0.4900 C   0  0  0  0  0
   22.2630   43.1440   -2.0650 N   0  0  0  0  0
   22.7950   40.7990   -5.4360 O   0  0  0  0  0
   20.4620   39.5460   -6.6750 C   0  0  0  0  0
   19.8520   37.4590  -10.2360 F   0  0  0  0  0
   16.5150   38.3150   -7.4010 N   0  0  0  0  0
   16.0860   40.7350   -8.2210 S   0  0  0  0  0
   15.7110   37.9720  -10.4160 C   0  0  0  0  0
   15.8650   37.1540  -11.5500 C   0  0  0  0  0
   14.7690   36.4860  -12.1150 C   0  0  0  0  0
   13.4950   36.6250  -11.5510 C   0  0  0  0  0
   13.3150   37.4220  -10.4140 C   0  0  0  0  0
   14.4160   38.0880   -9.8540 C   0  0  0  0  0
   22.5405   39.5574   -7.2735 H   0  0  0  0  0
   22.1703   38.3172   -9.3864 H   0  0  0  0  0
   18.3507   39.3802   -6.3241 H   0  0  0  0  0
   17.7295   38.4461  -10.5757 H   0  0  0  0  0
   15.0525   38.7399   -5.4665 H   0  0  0  0  0
   19.7431   40.2685   -4.9274 H   0  0  0  0  0
   16.1715   40.5091  -10.5695 H   0  0  0  0  0
   17.8233   40.5973   -9.8138 H   0  0  0  0  0
   19.2904   41.8643   -1.1396 H   0  0  0  0  0
   23.3538   42.6685   -3.8163 H   0  0  0  0  0
   17.8274   36.0478   -7.6715 H   0  0  0  0  0
   16.4585   36.0905   -8.8096 H   0  0  0  0  0
   18.1287   36.1638   -9.4227 H   0  0  0  0  0
   21.5256   45.0852    1.2311 H   0  0  0  0  0
   22.4767   45.0240   -0.2777 H   0  0  0  0  0
   16.3336   37.5653   -6.7336 H   0  0  0  0  0
   16.8523   37.0375  -11.9969 H   0  0  0  0  0
   14.9091   35.8576  -12.9946 H   0  0  0  0  0
   12.6429   36.1124  -11.9974 H   0  0  0  0  0
   12.3263   37.5245   -9.9668 H   0  0  0  0  0
   14.2717   38.7071   -8.9686 H   0  0  0  0  0
  1  2  4  0  0  0
 24  1  4  0  0  0
  2  3  4  0  0  0
  4  3  4  0  0  0
  3 25  1  0  0  0
  5  4  4  0  0  0
  4  6  1  0  0  0
 24  5  4  0  0  0
  6  7  1  0  0  0
  6 19  1  0  0  0
  6 26  1  0  0  0
  7 11  1  0  0  0
  7 28  1  0  0  0
 13  8  2  0  0  0
 14  9  1  0  0  0
  9 24  1  0  0  0
 17 10  1  0  0  0
 10 21  1  0  0  0
 11 27  1  0  0  0
 12 15  4  0  0  0
 16 12  4  0  0  0
 26 13  1  0  0  0
 13 27  1  0  0  0
 15 14  1  0  0  0
 14 23  2  0  0  0
 15 18  4  0  0  0
 16 17  4  0  0  0
 17 22  4  0  0  0
 18 22  4  0  0  0
 21 20  1  0  0  0
 28 29  4  0  0  0
 28 33  4  0  0  0
 29 30  4  0  0  0
 30 31  4  0  0  0
 31 32  4  0  0  0
 32 33  4  0  0  0
  1 34  1  0  0  0
  2 35  1  0  0  0
  5 36  1  0  0  0
  7 37  1  0  0  0
  8 38  1  0  0  0
  9 39  1  0  0  0
 11 40  1  0  0  0
 11 41  1  0  0  0
 16 42  1  0  0  0
 18 43  1  0  0  0
 19 44  1  0  0  0
 19 45  1  0  0  0
 19 46  1  0  0  0
 21 47  1  0  0  0
 21 48  1  0  0  0
 26 49  1  0  0  0
 29 50  1  0  0  0
 30 51  1  0  0  0
 31 52  1  0  0  0
 32 53  1  0  0  0
 33 54  1  0  0  0
M  END
$$$$
