4crb_ligand
  -I-interpret- 

 64 68  0  0  0  0  0  0  0  0999 V2000
   26.2000    9.5370   55.0110 C   0  0  0  0  0
   25.3570    9.9080   55.8240 O   0  0  0  0  0
   27.1740    8.4730   55.3670 C   0  0  0  0  0
   28.3860    8.3750   54.7050 C   0  0  0  0  0
   29.2700    7.3790   55.0660 C   0  0  0  0  0
   28.9450    6.4940   56.0840 C   0  0  0  0  0
   27.7430    6.5930   56.7400 C   0  0  0  0  0
   26.8570    7.5880   56.3810 C   0  0  0  0  0
   27.4610    5.6350   57.8180 C   0  0  0  0  0
   28.3190    4.6720   58.1800 C   0  0  0  0  0
   29.6090    4.5560   57.4780 C   0  0  0  0  0
   30.4060    3.6780   57.8010 O   0  0  0  0  0
   29.8400    5.4800   56.4710 N   0  0  0  0  0
   26.2580    5.7780   58.4400 O   0  0  0  0  0
   26.3400   10.0950   53.7540 N   0  0  0  0  0
   25.6060   11.2790   53.3790 C   0  0  0  0  0
   24.8570   10.8830   52.1290 C   0  0  0  0  0
   25.2390   10.0020   51.3770 O   0  0  0  0  0
   26.5660   12.3950   53.0010 C   0  0  0  0  0
   27.5820   12.7140   54.0590 C   0  0  0  0  0
   27.1840   13.2180   55.2810 C   0  0  0  0  0
   28.9210   12.5150   53.8120 C   0  0  0  0  0
   28.1100   13.5210   56.2530 C   0  0  0  0  0
   29.8530   12.8100   54.7860 C   0  0  0  0  0
   29.4490   13.3140   56.0040 C   0  0  0  0  0
   18.6600   11.2170   48.9850 C   0  0  0  0  0
   18.8700   11.3940   47.6230 C   0  0  0  0  0
   20.0790   11.8940   47.1840 C   0  0  0  0  0
   21.0630   12.2140   48.1020 C   0  0  0  0  0
   20.8720   12.0500   49.4640 C   0  0  0  0  0
   19.6540   11.5460   49.8970 C   0  0  0  0  0
   20.3650   12.1350   45.4710 Cl  0  0  0  0  0
   19.4020   11.3720   51.2760 N   0  0  0  0  0
   19.9170   10.4290   52.1240 C   0  0  0  0  0
   19.3750   10.5760   53.3200 N   0  0  0  0  0
   18.5080   11.6310   53.1910 N   0  0  0  0  0
   18.5170   12.1240   51.9570 N   0  0  0  0  0
   21.9770   12.4320   50.4060 C   0  0  0  0  0
   22.8470   11.2630   50.7970 C   0  0  0  0  0
   23.7030   11.6050   51.9140 N   0  0  0  0  0
   28.6386    9.0755   53.9090 H   0  0  0  0  0
   30.2259    7.2872   54.5503 H   0  0  0  0  0
   25.9023    7.6768   56.8994 H   0  0  0  0  0
   28.0655    3.9820   58.9849 H   0  0  0  0  0
   30.7276    5.4201   55.9720 H   0  0  0  0  0
   25.7826    6.5148   58.0493 H   0  0  0  0  0
   26.9725    9.6626   53.0807 H   0  0  0  0  0
   24.9657   11.6254   54.1903 H   0  0  0  0  0
   25.9699   13.2941   52.8448 H   0  0  0  0  0
   27.1129   12.0647   52.1179 H   0  0  0  0  0
   26.1240   13.3778   55.4783 H   0  0  0  0  0
   29.2454   12.1245   52.8474 H   0  0  0  0  0
   27.7861   13.9221   57.2134 H   0  0  0  0  0
   30.9126   12.6439   54.5916 H   0  0  0  0  0
   30.1886   13.5486   56.7695 H   0  0  0  0  0
   17.7098   10.8177   49.3395 H   0  0  0  0  0
   18.0873   11.1404   46.9081 H   0  0  0  0  0
   22.0149   12.6060   47.7437 H   0  0  0  0  0
   20.6574    9.6756   51.8551 H   0  0  0  0  0
   21.5191   12.8242   51.3141 H   0  0  0  0  0
   22.6085   13.1617   49.8993 H   0  0  0  0  0
   23.4727   10.9924   49.9465 H   0  0  0  0  0
   22.2055   10.4316   51.0893 H   0  0  0  0  0
   23.4539   12.3738   52.5363 H   0  0  0  0  0
  1  2  2  0  0  0
  1  3  1  0  0  0
 15  1  1  0  0  0
  3  4  4  0  0  0
  3  8  4  0  0  0
  4  5  4  0  0  0
  5  6  4  0  0  0
  7  6  4  0  0  0
  6 13  1  0  0  0
  8  7  4  0  0  0
  7  9  1  0  0  0
  9 10  2  0  0  0
  9 14  1  0  0  0
 10 11  1  0  0  0
 11 12  2  0  0  0
 13 11  1  0  0  0
 16 15  1  0  0  0
 17 16  1  0  0  0
 16 19  1  0  0  0
 17 18  2  0  0  0
 40 17  1  0  0  0
 19 20  1  0  0  0
 20 21  4  0  0  0
 20 22  4  0  0  0
 21 23  4  0  0  0
 22 24  4  0  0  0
 23 25  4  0  0  0
 24 25  4  0  0  0
 26 27  4  0  0  0
 31 26  4  0  0  0
 28 27  4  0  0  0
 29 28  4  0  0  0
 28 32  1  0  0  0
 30 29  4  0  0  0
 30 31  4  0  0  0
 38 30  1  0  0  0
 31 33  1  0  0  0
 33 34  4  0  0  0
 33 37  4  0  0  0
 34 35  4  0  0  0
 36 35  4  0  0  0
 37 36  4  0  0  0
 39 38  1  0  0  0
 39 40  1  0  0  0
  4 41  1  0  0  0
  5 42  1  0  0  0
  8 43  1  0  0  0
 10 44  1  0  0  0
 13 45  1  0  0  0
 14 46  1  0  0  0
 15 47  1  0  0  0
 16 48  1  0  0  0
 19 49  1  0  0  0
 19 50  1  0  0  0
 21 51  1  0  0  0
 22 52  1  0  0  0
 23 53  1  0  0  0
 24 54  1  0  0  0
 25 55  1  0  0  0
 26 56  1  0  0  0
 27 57  1  0  0  0
 29 58  1  0  0  0
 34 59  1  0  0  0
 38 60  1  0  0  0
 38 61  1  0  0  0
 39 62  1  0  0  0
 39 63  1  0  0  0
 40 64  1  0  0  0
M  END
$$$$
