2wu7_ligand
  -I-interpret- 

 35 36  0  0  0  0  0  0  0  0999 V2000
   33.6540   17.4260   20.9730 C   0  0  0  0  0
   34.6880   16.3710   21.2420 C   0  0  0  0  0
   35.2090   15.8090   19.9910 O   0  0  0  0  0
   35.3970   16.1370   18.7310 C   0  0  0  0  0
   35.7750   17.2310   18.4890 O   0  0  0  0  0
   35.4580   15.3250   17.3800 C   0  0  0  0  0
   35.6870   15.7960   15.9550 N   0  0  0  0  0
   35.9390   17.1890   15.4380 C   0  0  0  0  0
   35.7000   14.7820   15.1310 C   0  0  0  0  0
   35.8910   14.6820   13.7070 C   0  0  0  0  0
   36.0960   16.1330   12.7270 Cl  0  0  0  0  0
   35.8730   13.4630   13.0960 C   0  0  0  0  0
   36.0860   13.3560   11.4490 Cl  0  0  0  0  0
   35.6500   12.2500   13.8790 C   0  0  0  0  0
   35.4410   12.2920   15.2890 C   0  0  0  0  0
   35.4650   13.5460   15.9460 C   0  0  0  0  0
   35.3220   13.9410   17.2830 C   0  0  0  0  0
   35.0620   12.9580   18.1280 C   0  0  0  0  0
   35.6880   11.8030   18.6170 C   0  0  0  0  0
   35.8220   10.9390   19.1320 N   0  0  0  0  0
   33.8050   13.0350   18.6270 C   0  0  0  0  0
   32.7780   13.7800   18.5560 N   0  0  0  0  0
   34.1010   18.2304   20.3888 H   0  0  0  0  0
   32.8259   16.9876   20.4161 H   0  0  0  0  0
   33.2872   17.8231   21.9195 H   0  0  0  0  0
   34.2259   15.5693   21.8181 H   0  0  0  0  0
   35.5136   16.8244   21.7906 H   0  0  0  0  0
   35.0934   17.8281   15.6923 H   0  0  0  0  0
   36.8461   17.5858   15.8939 H   0  0  0  0  0
   36.0591   17.1571   14.3551 H   0  0  0  0  0
   35.6432   11.2856   13.3711 H   0  0  0  0  0
   35.2658   11.3747   15.8512 H   0  0  0  0  0
   33.6155   12.1974   19.2982 H   0  0  0  0  0
   32.7913   14.6121   17.9662 H   0  0  0  0  0
   31.9403   13.5459   19.0888 H   0  0  0  0  0
  1  2  1  0  0  0
  2  3  1  0  0  0
  3  4  1  0  0  0
  4  5  2  0  0  0
  4  6  1  0  0  0
  6  7  4  0  0  0
  6 17  4  0  0  0
  7  8  1  0  0  0
  7  9  4  0  0  0
  9 10  4  0  0  0
  9 16  4  0  0  0
 10 11  1  0  0  0
 10 12  4  0  0  0
 12 13  1  0  0  0
 12 14  4  0  0  0
 14 15  4  0  0  0
 15 16  4  0  0  0
 16 17  4  0  0  0
 17 18  1  0  0  0
 18 19  1  0  0  0
 18 21  2  0  0  0
 19 20  3  0  0  0
 21 22  1  0  0  0
  1 23  1  0  0  0
  1 24  1  0  0  0
  1 25  1  0  0  0
  2 26  1  0  0  0
  2 27  1  0  0  0
  8 28  1  0  0  0
  8 29  1  0  0  0
  8 30  1  0  0  0
 14 31  1  0  0  0
 15 32  1  0  0  0
 21 33  1  0  0  0
 22 34  1  0  0  0
 22 35  1  0  0  0
M  END
$$$$
