6ic0_ligand
  -I-interpret- 

 56 61  0  0  0  0  0  0  0  0999 V2000
  142.5440  -37.3750  266.1920 C   0  0  0  0  0
  142.7490  -36.1590  266.7340 C   0  0  0  0  0
  142.1910  -35.5500  267.7820 N   0  0  0  0  0
  141.1520  -36.1070  268.6510 C   0  0  0  0  0
  142.7300  -34.3420  267.8880 C   0  0  0  0  0
  143.6340  -34.1770  266.9160 C   0  0  0  0  0
  143.6330  -35.2970  266.1950 C   0  0  0  0  0
  144.3520  -35.6460  265.1330 C   0  0  0  0  0
  144.1700  -36.8850  264.5280 C   0  0  0  0  0
  143.2490  -37.7830  265.0560 C   0  0  0  0  0
  143.0430  -39.0370  264.4370 C   0  0  0  0  0
  141.7450  -39.3450  263.9910 C   0  0  0  0  0
  144.0600  -39.9840  264.2110 C   0  0  0  0  0
  145.3320  -39.7170  264.5980 N   0  0  0  0  0
  146.3270  -40.6600  264.3630 C   0  0  0  0  0
  145.9990  -41.8450  263.7190 C   0  0  0  0  0
  144.6760  -42.0900  263.3200 N   0  0  0  0  0
  143.7220  -41.2030  263.5630 C   0  0  0  0  0
  142.4200  -41.5030  263.1470 C   0  0  0  0  0
  141.4080  -40.5470  263.3430 C   0  0  0  0  0
  140.0950  -40.7130  263.0620 N   0  0  0  0  0
  139.6100  -41.3350  261.9810 C   0  0  0  0  0
  140.3840  -41.5270  260.8360 C   0  0  0  0  0
  139.8770  -42.1450  259.7110 N   0  0  0  0  0
  138.5600  -42.5340  259.7080 C   0  0  0  0  0
  137.7790  -42.3360  260.8360 C   0  0  0  0  0
  138.2600  -41.7390  262.0050 C   0  0  0  0  0
  137.3950  -41.5570  263.1180 C   0  0  0  0  0
  137.7150  -40.8300  264.0380 O   0  0  0  0  0
  136.2190  -42.1970  263.1030 N   0  0  0  0  0
  135.3560  -42.1320  264.1170 C   0  0  0  0  0
  134.8150  -43.3470  264.5430 C   0  0  0  0  0
  133.8810  -43.3850  265.5590 N   0  0  0  0  0
  133.5080  -42.1980  266.1910 C   0  0  0  0  0
  134.0260  -40.9670  265.7760 N   0  0  0  0  0
  134.9450  -40.9440  264.7160 C   0  0  0  0  0
  141.8183  -38.0502  266.6455 H   0  0  0  0  0
  140.2678  -36.3370  268.0566 H   0  0  0  0  0
  141.5228  -37.0181  269.1206 H   0  0  0  0  0
  140.8948  -35.3790  269.4204 H   0  0  0  0  0
  142.4763  -33.6017  268.6467 H   0  0  0  0  0
  144.2525  -33.2956  266.7465 H   0  0  0  0  0
  145.0922  -34.9537  264.7319 H   0  0  0  0  0
  144.7475  -37.1513  263.6427 H   0  0  0  0  0
  140.9563  -38.6112  264.1568 H   0  0  0  0  0
  147.3523  -40.4707  264.6808 H   0  0  0  0  0
  146.7719  -42.5881  263.5224 H   0  0  0  0  0
  142.1944  -42.4613  262.6791 H   0  0  0  0  0
  139.4211  -40.3338  263.7272 H   0  0  0  0  0
  141.4171  -41.1795  260.8299 H   0  0  0  0  0
  138.1296  -42.9976  258.8203 H   0  0  0  0  0
  136.7391  -42.6617  260.8102 H   0  0  0  0  0
  135.9743  -42.7552  262.2851 H   0  0  0  0  0
  135.1335  -44.2751  264.0683 H   0  0  0  0  0
  132.8021  -42.2308  267.0209 H   0  0  0  0  0
  135.3389  -39.9921  264.3599 H   0  0  0  0  0
  1  2  4  0  0  0
  1 10  4  0  0  0
  2  3  4  0  0  0
  2  7  4  0  0  0
  3  4  1  0  0  0
  3  5  4  0  0  0
  5  6  4  0  0  0
  6  7  4  0  0  0
  7  8  4  0  0  0
  8  9  4  0  0  0
  9 10  4  0  0  0
 10 11  1  0  0  0
 11 12  4  0  0  0
 11 13  4  0  0  0
 12 20  4  0  0  0
 13 14  4  0  0  0
 13 18  4  0  0  0
 14 15  4  0  0  0
 15 16  4  0  0  0
 16 17  4  0  0  0
 17 18  4  0  0  0
 18 19  4  0  0  0
 19 20  4  0  0  0
 20 21  1  0  0  0
 21 22  1  0  0  0
 22 23  4  0  0  0
 22 27  4  0  0  0
 23 24  4  0  0  0
 24 25  4  0  0  0
 25 26  4  0  0  0
 26 27  4  0  0  0
 27 28  1  0  0  0
 28 29  2  0  0  0
 28 30  1  0  0  0
 30 31  1  0  0  0
 31 32  4  0  0  0
 31 36  4  0  0  0
 32 33  4  0  0  0
 33 34  4  0  0  0
 34 35  4  0  0  0
 35 36  4  0  0  0
  1 37  1  0  0  0
  4 38  1  0  0  0
  4 39  1  0  0  0
  4 40  1  0  0  0
  5 41  1  0  0  0
  6 42  1  0  0  0
  8 43  1  0  0  0
  9 44  1  0  0  0
 12 45  1  0  0  0
 15 46  1  0  0  0
 16 47  1  0  0  0
 19 48  1  0  0  0
 21 49  1  0  0  0
 23 50  1  0  0  0
 25 51  1  0  0  0
 26 52  1  0  0  0
 30 53  1  0  0  0
 32 54  1  0  0  0
 34 55  1  0  0  0
 36 56  1  0  0  0
M  END
$$$$
