4idv_ligand
  -I-interpret- 

 48 50  0  0  0  0  0  0  0  0999 V2000
   19.5890   10.9270   88.6120 N   0  0  0  0  0
   19.7440   12.1660   88.1280 C   0  0  0  0  0
   18.6350   12.8400   87.8910 N   0  0  0  0  0
   20.9710   12.5790   87.9580 N   0  0  0  0  0
   21.1440   13.8250   87.4710 C   0  0  0  0  0
   20.0640   14.6500   87.1370 C   0  0  0  0  0
   20.1930   15.9660   86.6530 O   0  0  0  0  0
   21.1930   16.5670   85.8670 C   0  0  0  0  0
   20.7460   17.9990   85.4810 C   0  0  0  0  0
   19.8450   18.1280   84.3770 O   0  0  0  0  0
   18.8890   19.1670   84.3330 C   0  0  0  0  0
   18.7510   14.1000   87.3960 C   0  0  0  0  0
   17.4830   14.8770   87.0480 C   0  0  0  0  0
   17.4360   16.1270   86.4700 C   0  0  0  0  0
   16.1650   16.4690   86.2600 N   0  0  0  0  0
   16.1520   14.4570   87.1460 C   0  0  0  0  0
   15.3260   15.4890   86.6500 C   0  0  0  0  0
   13.9440   15.4360   86.6140 C   0  0  0  0  0
   13.3290   14.3050   87.0880 C   0  0  0  0  0
   15.4880   13.3350   87.6150 C   0  0  0  0  0
   14.0940   13.2790   87.5980 C   0  0  0  0  0
   13.5040   12.1150   88.0770 C   0  0  0  0  0
   12.9780   11.0900   88.4670 C   0  0  0  0  0
   12.3450    9.8140   88.9100 C   0  0  0  0  0
   12.2530    9.8640   90.3890 C   0  0  0  0  0
   13.1870    8.6670   88.4140 C   0  0  0  0  0
   11.0750    9.7010   88.3860 O   0  0  0  0  0
   18.6527   10.5570   88.7761 H   0  0  0  0  0
   20.4072   10.3533   88.8165 H   0  0  0  0  0
   22.1576   14.2014   87.3332 H   0  0  0  0  0
   21.3518   15.9776   84.9640 H   0  0  0  0  0
   22.1235   16.6144   86.4327 H   0  0  0  0  0
   21.6547   18.5225   85.1838 H   0  0  0  0  0
   20.2091   18.3849   86.3476 H   0  0  0  0  0
   18.2249   19.0847   85.1934 H   0  0  0  0  0
   19.3994   20.1298   84.3571 H   0  0  0  0  0
   18.3076   19.0854   83.4146 H   0  0  0  0  0
   18.3027   16.7402   86.2231 H   0  0  0  0  0
   13.3608   16.2686   86.2205 H   0  0  0  0  0
   12.2427   14.2188   87.0613 H   0  0  0  0  0
   16.0588   12.4900   88.0000 H   0  0  0  0  0
   13.2531    9.9644   90.8108 H   0  0  0  0  0
   11.6448   10.7187   90.6852 H   0  0  0  0  0
   11.7937    8.9455   90.7544 H   0  0  0  0  0
   13.2386    8.6998   87.3257 H   0  0  0  0  0
   14.1914    8.7491   88.8293 H   0  0  0  0  0
   12.7379    7.7253   88.7295 H   0  0  0  0  0
   10.6812    8.8762   88.6795 H   0  0  0  0  0
  1  2  1  0  0  0
  2  3  4  0  0  0
  2  4  4  0  0  0
  3 12  4  0  0  0
  4  5  4  0  0  0
  5  6  4  0  0  0
  6  7  1  0  0  0
  6 12  4  0  0  0
  7  8  1  0  0  0
  8  9  1  0  0  0
  9 10  1  0  0  0
 10 11  1  0  0  0
 12 13  1  0  0  0
 13 14  4  0  0  0
 13 16  4  0  0  0
 14 15  4  0  0  0
 15 17  4  0  0  0
 16 17  4  0  0  0
 16 20  4  0  0  0
 17 18  4  0  0  0
 18 19  4  0  0  0
 19 21  4  0  0  0
 20 21  4  0  0  0
 21 22  1  0  0  0
 22 23  3  0  0  0
 23 24  1  0  0  0
 24 25  1  0  0  0
 24 26  1  0  0  0
 24 27  1  0  0  0
  1 28  1  0  0  0
  1 29  1  0  0  0
  5 30  1  0  0  0
  8 31  1  0  0  0
  8 32  1  0  0  0
  9 33  1  0  0  0
  9 34  1  0  0  0
 11 35  1  0  0  0
 11 36  1  0  0  0
 11 37  1  0  0  0
 14 38  1  0  0  0
 18 39  1  0  0  0
 19 40  1  0  0  0
 20 41  1  0  0  0
 25 42  1  0  0  0
 25 43  1  0  0  0
 25 44  1  0  0  0
 26 45  1  0  0  0
 26 46  1  0  0  0
 26 47  1  0  0  0
 27 48  1  0  0  0
M  END
$$$$
