6qlu_ligand
  -I-interpret- 

 55 58  0  0  0  0  0  0  0  0999 V2000
  -13.3160    8.6070    0.4240 C   0  0  0  0  0
  -13.4480    8.4790    1.8170 C   0  0  0  0  0
  -12.3850    8.6760    2.6740 C   0  0  0  0  0
  -10.9350    9.1070    0.7540 C   0  0  0  0  0
  -18.5280    9.1910   -1.3590 C   0  0  0  0  0
  -25.5730    9.0200   -5.7430 C   0  0  0  0  0
  -24.4290    9.3220   -4.7280 C   0  0  0  0  0
  -24.0720   10.6380   -4.3900 C   0  0  0  0  0
  -23.0490   10.9400   -3.4760 C   0  0  0  0  0
  -23.6830    8.3300   -4.0780 C   0  0  0  0  0
  -22.6560    8.6320   -3.1560 C   0  0  0  0  0
  -22.3340    9.9510   -2.8430 C   0  0  0  0  0
  -19.9700    8.8230   -1.6800 C   0  0  0  0  0
  -19.8830    6.5950   -0.9160 C   0  0  0  0  0
  -20.5870    5.6460    0.0850 C   0  0  0  0  0
  -18.3840    6.7310   -0.6020 C   0  0  0  0  0
  -17.7920    7.8560   -1.5330 C   0  0  0  0  0
  -15.7770    8.3940   -0.1380 C   0  0  0  0  0
  -14.4220    8.3480   -0.4220 C   0  0  0  0  0
  -11.1530    8.9910    2.1100 C   0  0  0  0  0
  -12.0380    8.8990   -0.0640 C   0  0  0  0  0
   -9.6200    9.4500    0.2710 C   0  0  0  0  0
  -10.1000    9.1770    2.9750 F   0  0  0  0  0
  -16.4080    7.9880   -1.2910 N   0  0  0  0  0
  -14.3520    7.9110   -1.7390 N   0  0  0  0  0
  -15.4940    7.7090   -2.2290 N   0  0  0  0  0
  -20.4810    7.8880   -0.7520 O   0  0  0  0  0
  -21.9150    5.4950   -0.3540 O   0  0  0  0  0
  -18.1980    7.1150    0.7360 O   0  0  0  0  0
  -18.0390   10.0040   -2.4180 O   0  0  0  0  0
  -21.0370   10.2850   -1.6710 S   0  0  0  0  0
  -14.4204    8.2159    2.2334 H   0  0  0  0  0
  -12.5061    8.5880    3.7537 H   0  0  0  0  0
  -18.4162    9.6798   -0.3912 H   0  0  0  0  0
  -26.5069    9.4425   -5.3722 H   0  0  0  0  0
  -25.3286    9.4657   -6.7072 H   0  0  0  0  0
  -25.6807    7.9413   -5.8568 H   0  0  0  0  0
  -24.6126   11.4609   -4.8576 H   0  0  0  0  0
  -22.8165   11.9835   -3.2635 H   0  0  0  0  0
  -23.9036    7.2842   -4.2921 H   0  0  0  0  0
  -22.1062    7.8193   -2.6814 H   0  0  0  0  0
  -19.9654    8.3804   -2.6761 H   0  0  0  0  0
  -19.9911    6.2000   -1.9261 H   0  0  0  0  0
  -20.5592    6.0600    1.0929 H   0  0  0  0  0
  -20.0814    4.6811    0.1217 H   0  0  0  0  0
  -17.8877    5.7751   -0.7696 H   0  0  0  0  0
  -17.9406    7.5600   -2.5714 H   0  0  0  0  0
  -16.2447    8.6896    0.8011 H   0  0  0  0  0
  -11.9005    8.9669   -1.1432 H   0  0  0  0  0
   -9.3280   10.4199    0.6736 H   0  0  0  0  0
   -8.9066    8.6916    0.5935 H   0  0  0  0  0
   -9.6351    9.4968   -0.8179 H   0  0  0  0  0
  -22.3844    4.9102    0.2454 H   0  0  0  0  0
  -17.2587    7.1958    0.9169 H   0  0  0  0  0
  -17.1286   10.2493   -2.2374 H   0  0  0  0  0
  1  2  4  0  0  0
 19  1  1  0  0  0
  1 21  4  0  0  0
  2  3  4  0  0  0
  3 20  4  0  0  0
  4 20  4  0  0  0
 21  4  4  0  0  0
  4 22  1  0  0  0
  5 13  1  0  0  0
 17  5  1  0  0  0
  5 30  1  0  0  0
  7  6  1  0  0  0
  8  7  4  0  0  0
 10  7  4  0  0  0
  9  8  4  0  0  0
 12  9  4  0  0  0
 11 10  4  0  0  0
 12 11  4  0  0  0
 31 12  1  0  0  0
 13 27  1  0  0  0
 13 31  1  0  0  0
 14 15  1  0  0  0
 16 14  1  0  0  0
 14 27  1  0  0  0
 15 28  1  0  0  0
 17 16  1  0  0  0
 16 29  1  0  0  0
 24 17  1  0  0  0
 18 19  4  0  0  0
 18 24  4  0  0  0
 19 25  4  0  0  0
 20 23  1  0  0  0
 24 26  4  0  0  0
 25 26  4  0  0  0
  2 32  1  0  0  0
  3 33  1  0  0  0
  5 34  1  0  0  0
  6 35  1  0  0  0
  6 36  1  0  0  0
  6 37  1  0  0  0
  8 38  1  0  0  0
  9 39  1  0  0  0
 10 40  1  0  0  0
 11 41  1  0  0  0
 13 42  1  0  0  0
 14 43  1  0  0  0
 15 44  1  0  0  0
 15 45  1  0  0  0
 16 46  1  0  0  0
 17 47  1  0  0  0
 18 48  1  0  0  0
 21 49  1  0  0  0
 22 50  1  0  0  0
 22 51  1  0  0  0
 22 52  1  0  0  0
 28 53  1  0  0  0
 29 54  1  0  0  0
 30 55  1  0  0  0
M  END
$$$$
