4b76_ligand
  -I-interpret- 

 29 30  0  0  0  0  0  0  0  0999 V2000
    1.6890   16.2410  -41.6570 C   0  0  0  0  0
    2.6250   17.2050  -41.3700 C   0  0  0  0  0
    3.9390   16.8510  -41.2380 C   0  0  0  0  0
    4.8460   17.8070  -40.9570 F   0  0  0  0  0
    4.3740   15.5550  -41.3820 C   0  0  0  0  0
    3.4180   14.5950  -41.6710 C   0  0  0  0  0
    2.0770   14.9160  -41.8110 C   0  0  0  0  0
    1.0330   13.8670  -42.1270 C   0  0  0  0  0
    1.2490   13.2160  -43.4380 N   0  3  0  0  0
    8.2200   13.8480  -39.0380 C   0  0  0  0  0
    7.5890   14.4170  -40.1230 C   0  0  0  0  0
    6.2320   14.6850  -40.0720 C   0  0  0  0  0
    5.5100   14.3800  -38.9300 C   0  0  0  0  0
    5.7260   15.2590  -41.2360 O   0  0  0  0  0
    6.1470   13.8110  -37.8480 C   0  0  0  0  0
    3.8040   13.3140  -41.8190 F   0  0  0  0  0
    7.4990   13.5450  -37.9010 C   0  0  0  0  0
    0.6398   16.5164  -41.7641 H   0  0  0  0  0
    2.3220   18.2450  -41.2484 H   0  0  0  0  0
    0.0623   14.3619  -42.1571 H   0  0  0  0  0
    1.0926   13.0961  -41.3587 H   0  0  0  0  0
    0.5185   12.5218  -43.5960 H   0  0  0  0  0
    1.2160   13.9200  -44.1754 H   0  0  0  0  0
    2.1609   12.7590  -43.4432 H   0  0  0  0  0
    9.2887   13.6373  -39.0779 H   0  0  0  0  0
    8.1584   14.6560  -41.0212 H   0  0  0  0  0
    4.4412   14.5893  -38.8870 H   0  0  0  0  0
    5.5805   13.5707  -36.9483 H   0  0  0  0  0
    7.9990   13.0947  -37.0435 H   0  0  0  0  0
  2  1  4  0  0  0
  7  1  4  0  0  0
  3  2  4  0  0  0
  3  4  1  0  0  0
  5  3  4  0  0  0
  5  6  4  0  0  0
 14  5  1  0  0  0
  6  7  4  0  0  0
  6 16  1  0  0  0
  7  8  1  0  0  0
  8  9  1  0  0  0
 11 10  4  0  0  0
 10 17  4  0  0  0
 12 11  4  0  0  0
 12 13  4  0  0  0
 12 14  1  0  0  0
 13 15  4  0  0  0
 15 17  4  0  0  0
  1 18  1  0  0  0
  2 19  1  0  0  0
  8 20  1  0  0  0
  8 21  1  0  0  0
  9 22  1  0  0  0
  9 23  1  0  0  0
  9 24  1  0  0  0
 10 25  1  0  0  0
 11 26  1  0  0  0
 13 27  1  0  0  0
 15 28  1  0  0  0
 17 29  1  0  0  0
M  END
$$$$
