### 
### Created by X-TOOL on Mon Aug  2 16:15:06 2021
### 

@<TRIPOS>MOLECULE
6mxb_ligand
   35    37     1     0     0
SMALL
GAST_HUCK


@<TRIPOS>ATOM
      1 P          -7.9240    4.0000  -55.5050 P.3       1 XMP         0.2008
      2 O1P        -7.3790    5.4050  -55.3270 O.co2     1 XMP        -0.5537
      3 O2P        -9.2960    4.0680  -56.1550 O.co2     1 XMP        -0.5537
      4 O5'        -8.0540    3.2540  -53.9970 O.3       1 XMP        -0.2734
      5 O3P        -6.9760    3.2010  -56.3840 O.co2     1 XMP        -0.5537
      6 C5'        -8.4780    4.0510  -52.8910 C.3       1 XMP         0.1072
      7 C4'        -9.2030    3.1790  -51.8990 C.3       1 XMP         0.1182
      8 O4'       -10.3490    2.8260  -52.3470 O.3       1 XMP        -0.3363
      9 C1'       -10.6260    1.5010  -51.6660 C.3       1 XMP         0.2010
     10 N9        -11.1300    0.6140  -52.5400 N.pl3     1 XMP        -0.1896
     11 C4        -11.8760   -0.4530  -52.2180 C.2       1 XMP         0.2049
     12 N3        -12.3570   -0.9870  -50.9340 N.am      1 XMP        -0.1835
     13 N1        -13.4930   -2.8610  -52.1550 N.am      1 XMP        -0.1870
     14 C2        -13.1970   -2.2290  -50.8310 C.2       1 XMP         0.3214
     15 O2        -13.5870   -2.6640  -49.8020 O.2       1 XMP        -0.3846
     16 C6        -13.0050   -2.3100  -53.3900 C.2       1 XMP         0.1997
     17 O6        -13.2620   -2.8430  -54.4110 O.2       1 XMP        -0.4080
     18 C5        -12.1780   -1.0740  -53.3910 C.2       1 XMP         0.1084
     19 N7        -11.6110   -0.3690  -54.3840 N.2       1 XMP        -0.3331
     20 C8        -10.9820    0.6500  -53.8470 C.2       1 XMP         0.0923
     21 C2'        -9.2120    1.0130  -51.1120 C.3       1 XMP         0.1387
     22 O2'        -9.1510    1.1800  -49.6110 O.3       1 XMP        -0.3836
     23 C3'        -8.3890    1.7450  -51.6540 C.3       1 XMP         0.1149
     24 O3'        -7.2110    1.9570  -50.7610 O.3       1 XMP        -0.3864
     25 H1         -9.1532    4.8433  -53.2463 H         1 XMP         0.0639
     26 H2         -7.6007    4.5061  -52.4081 H         1 XMP         0.0639
     27 H3         -9.3128    3.7254  -50.9506 H         1 XMP         0.0650
     28 H4        -11.3358    1.6370  -50.8367 H         1 XMP         0.0998
     29 H5        -12.1145   -0.5025  -50.0935 H         1 XMP         0.2360
     30 H6        -14.0476   -3.6927  -52.1814 H         1 XMP         0.2254
     31 H7        -10.4248    1.4069  -54.3970 H         1 XMP         0.1125
     32 H8         -9.0318   -0.0395  -51.3761 H         1 XMP         0.0676
     33 H9         -8.3048    0.8860  -49.2949 H         1 XMP         0.2101
     34 H10        -8.0550    1.3169  -52.6107 H         1 XMP         0.0648
     35 H11        -7.4981    2.3609  -49.9505 H         1 XMP         0.2100
@<TRIPOS>BOND
     1    1    2 ar 
     2    1    3 ar 
     3    1    4 1  
     4    1    5 ar 
     5    4    6 1  
     6    6    7 1  
     7    7    8 1  
     8    7   23 1  
     9    8    9 1  
    10    9   10 1  
    11    9   21 1  
    12   10   11 1  
    13   10   20 1  
    14   11   12 1  
    15   11   18 2  
    16   12   14 am 
    17   14   13 am 
    18   13   16 am 
    19   14   15 2  
    20   16   17 2  
    21   16   18 1  
    22   18   19 1  
    23   19   20 2  
    24   21   22 1  
    25   21   23 1  
    26   23   24 1  
    27    6   25 1  
    28    6   26 1  
    29    7   27 1  
    30    9   28 1  
    31   12   29 1  
    32   13   30 1  
    33   20   31 1  
    34   21   32 1  
    35   22   33 1  
    36   23   34 1  
    37   24   35 1  
@<TRIPOS>SUBSTRUCTURE
     1 XMP         1

