6mxb_ligand
  -I-interpret- 

 37 39  0  0  0  0  0  0  0  0999 V2000
   -7.9240    4.0000  -55.5050 P   0  0  0  0  0
   -7.3790    5.4050  -55.3270 O   0  0  0  0  0
   -9.2960    4.0680  -56.1550 O   0  0  0  0  0
   -8.0540    3.2540  -53.9970 O   0  0  0  0  0
   -6.9760    3.2010  -56.3840 O   0  0  0  0  0
   -8.4780    4.0510  -52.8910 C   0  0  0  0  0
   -9.2030    3.1790  -51.8990 C   0  0  0  0  0
  -10.3490    2.8260  -52.3470 O   0  0  0  0  0
  -10.6260    1.5010  -51.6660 C   0  0  0  0  0
  -11.1300    0.6140  -52.5400 N   0  0  0  0  0
  -11.8760   -0.4530  -52.2180 C   0  0  0  0  0
  -12.3570   -0.9870  -50.9340 N   0  0  0  0  0
  -13.4930   -2.8610  -52.1550 N   0  0  0  0  0
  -13.1970   -2.2290  -50.8310 C   0  0  0  0  0
  -13.5870   -2.6640  -49.8020 O   0  0  0  0  0
  -13.0050   -2.3100  -53.3900 C   0  0  0  0  0
  -13.2620   -2.8430  -54.4110 O   0  0  0  0  0
  -12.1780   -1.0740  -53.3910 C   0  0  0  0  0
  -11.6110   -0.3690  -54.3840 N   0  0  0  0  0
  -10.9820    0.6500  -53.8470 C   0  0  0  0  0
   -9.2120    1.0130  -51.1120 C   0  0  0  0  0
   -9.1510    1.1800  -49.6110 O   0  0  0  0  0
   -8.3890    1.7450  -51.6540 C   0  0  0  0  0
   -7.2110    1.9570  -50.7610 O   0  0  0  0  0
   -9.6401    3.1788  -56.2673 H   0  0  0  0  0
   -7.3195    2.3118  -56.4975 H   0  0  0  0  0
   -9.1458    4.8375  -53.2424 H   0  0  0  0  0
   -7.6094    4.5038  -52.4129 H   0  0  0  0  0
   -9.2817    3.7695  -50.9862 H   0  0  0  0  0
  -11.3620    1.5983  -50.8679 H   0  0  0  0  0
  -12.1096   -0.4928  -50.0767 H   0  0  0  0  0
  -14.0587   -3.7093  -52.1820 H   0  0  0  0  0
  -10.4243    1.4076  -54.3975 H   0  0  0  0  0
   -9.0293   -0.0404  -51.3244 H   0  0  0  0  0
   -8.2958    0.8829  -49.2916 H   0  0  0  0  0
   -8.0043    1.3228  -52.5824 H   0  0  0  0  0
   -6.7550    1.1223  -50.6311 H   0  0  0  0  0
  1  2  2  0  0  0
  1  3  1  0  0  0
  1  4  1  0  0  0
  1  5  1  0  0  0
  4  6  1  0  0  0
  6  7  1  0  0  0
  7  8  1  0  0  0
  7 23  1  0  0  0
  8  9  1  0  0  0
  9 10  1  0  0  0
  9 21  1  0  0  0
 10 11  4  0  0  0
 10 20  4  0  0  0
 11 12  1  0  0  0
 11 18  4  0  0  0
 12 14  1  0  0  0
 14 13  1  0  0  0
 13 16  1  0  0  0
 14 15  2  0  0  0
 16 17  2  0  0  0
 16 18  1  0  0  0
 18 19  4  0  0  0
 19 20  4  0  0  0
 21 22  1  0  0  0
 21 23  1  0  0  0
 23 24  1  0  0  0
  3 25  1  0  0  0
  5 26  1  0  0  0
  6 27  1  0  0  0
  6 28  1  0  0  0
  7 29  1  0  0  0
  9 30  1  0  0  0
 12 31  1  0  0  0
 13 32  1  0  0  0
 20 33  1  0  0  0
 21 34  1  0  0  0
 22 35  1  0  0  0
 23 36  1  0  0  0
 24 37  1  0  0  0
M  END
$$$$
