3qa2_ligand
  -I-interpret- 

 56 60  0  0  0  0  0  0  0  0999 V2000
   -3.1160   -1.2070   15.1500 C   0  0  0  0  0
   -3.5590    0.1010   15.8150 C   0  0  0  0  0
   -3.6990    1.3200   15.0640 C   0  0  0  0  0
   -4.1370    2.5280   15.7130 C   0  0  0  0  0
   -4.4450    2.5520   17.1240 C   0  0  0  0  0
   -4.2990    1.3390   17.8910 C   0  0  0  0  0
   -3.8580    0.1340   17.2350 C   0  0  0  0  0
   -3.6890   -1.0890   17.9940 N   0  0  0  0  0
   -4.7160   -1.4480   18.9630 C   0  0  0  0  0
   -5.6900   -0.5610   19.4160 N   0  0  0  0  0
   -6.5990   -1.0300   20.3620 C   0  0  0  0  0
   -6.5780   -2.3320   20.8810 N   0  0  0  0  0
   -5.5920   -3.1930   20.4090 C   0  0  0  0  0
   -5.4730   -4.5800   20.8730 C   0  0  0  0  0
   -4.5040   -5.4020   20.4090 N   0  0  0  0  0
   -3.6090   -4.9130   19.4590 C   0  0  0  0  0
   -3.6240   -3.6390   18.9460 N   0  0  0  0  0
   -4.6100   -2.8240   19.4340 C   0  0  0  0  0
   -6.4280   -5.0560   21.8830 N   0  0  0  0  0
   -6.2970   -6.4340   22.3590 C   0  0  0  0  0
   -7.4260   -7.2430   21.6970 C   0  0  0  0  0
   -8.3340   -7.9530   22.7030 C   0  0  0  0  0
   -7.3360   -8.7620   21.8590 C   0  0  0  0  0
   -7.6680   -0.1330   20.9150 N   0  0  0  0  0
   -7.7120    1.2700   20.6420 C   0  0  0  0  0
   -9.1700    1.6040   20.2560 C   0  0  0  0  0
  -10.1080    1.2270   21.4050 N   0  3  0  0  0
   -9.9360   -0.2610   21.7310 C   0  0  0  0  0
   -8.4520   -0.5570   22.0390 C   0  0  0  0  0
   -3.8290   -1.4767   14.3709 H   0  0  0  0  0
   -2.1281   -1.0727   14.7095 H   0  0  0  0  0
   -3.0770   -1.9985   15.8984 H   0  0  0  0  0
   -3.4722    1.3290   13.9979 H   0  0  0  0  0
   -4.2382    3.4423   15.1283 H   0  0  0  0  0
   -4.7823    3.4719   17.6016 H   0  0  0  0  0
   -4.5205    1.3339   18.9582 H   0  0  0  0  0
   -2.8720   -1.6832   17.8534 H   0  0  0  0  0
   -2.8387   -5.5932   19.0956 H   0  0  0  0  0
   -7.1609   -4.4441   22.2420 H   0  0  0  0  0
   -6.3750   -6.4775   23.4453 H   0  0  0  0  0
   -5.3216   -6.8435   22.0961 H   0  0  0  0  0
   -7.5681   -6.5784   20.8448 H   0  0  0  0  0
   -9.3892   -7.9826   22.9747 H   0  0  0  0  0
   -8.6334   -7.8555   23.7465 H   0  0  0  0  0
   -6.5724   -9.5263   22.0032 H   0  0  0  0  0
   -7.3278   -9.6533   21.2317 H   0  0  0  0  0
   -7.0280    1.5292   19.8339 H   0  0  0  0  0
   -7.4007    1.8445   21.5144 H   0  0  0  0  0
   -9.4458    1.0400   19.3650 H   0  0  0  0  0
   -9.2549    2.6722   20.0563 H   0  0  0  0  0
  -11.0738    1.4073   21.1309 H   0  0  0  0  0
   -9.8818    1.7855   22.2280 H   0  0  0  0  0
  -10.2540   -0.8577   20.8761 H   0  0  0  0  0
  -10.5432   -0.5134   22.6003 H   0  0  0  0  0
   -8.1413   -0.0214   22.9361 H   0  0  0  0  0
   -8.3109   -1.6237   22.2134 H   0  0  0  0  0
  1  2  1  0  0  0
  2  3  4  0  0  0
  2  7  4  0  0  0
  3  4  4  0  0  0
  4  5  4  0  0  0
  5  6  4  0  0  0
  6  7  4  0  0  0
  7  8  1  0  0  0
  8  9  1  0  0  0
  9 10  4  0  0  0
  9 18  4  0  0  0
 10 11  4  0  0  0
 11 12  4  0  0  0
 11 24  1  0  0  0
 12 13  4  0  0  0
 13 14  4  0  0  0
 13 18  4  0  0  0
 14 15  4  0  0  0
 14 19  1  0  0  0
 15 16  4  0  0  0
 16 17  4  0  0  0
 17 18  4  0  0  0
 19 20  1  0  0  0
 20 21  1  0  0  0
 21 22  1  0  0  0
 21 23  1  0  0  0
 22 23  1  0  0  0
 24 25  1  0  0  0
 24 29  1  0  0  0
 25 26  1  0  0  0
 26 27  1  0  0  0
 27 28  1  0  0  0
 28 29  1  0  0  0
  1 30  1  0  0  0
  1 31  1  0  0  0
  1 32  1  0  0  0
  3 33  1  0  0  0
  4 34  1  0  0  0
  5 35  1  0  0  0
  6 36  1  0  0  0
  8 37  1  0  0  0
 16 38  1  0  0  0
 19 39  1  0  0  0
 20 40  1  0  0  0
 20 41  1  0  0  0
 21 42  1  0  0  0
 22 43  1  0  0  0
 22 44  1  0  0  0
 23 45  1  0  0  0
 23 46  1  0  0  0
 25 47  1  0  0  0
 25 48  1  0  0  0
 26 49  1  0  0  0
 26 50  1  0  0  0
 27 51  1  0  0  0
 27 52  1  0  0  0
 28 53  1  0  0  0
 28 54  1  0  0  0
 29 55  1  0  0  0
 29 56  1  0  0  0
M  END
$$$$
