2xn3_ligand
  -I-interpret- 

 33 34  0  0  0  0  0  0  0  0999 V2000
    6.0940    9.1420   24.4630 O   0  0  0  0  0
    7.2800    8.8240   24.1930 C   0  0  0  0  0
    7.9380    9.4860   23.3460 O   0  0  0  0  0
    7.8990    7.6110   24.8790 C   0  0  0  0  0
    7.5470    7.3300   26.2040 C   0  0  0  0  0
    8.0800    6.2250   26.8630 C   0  0  0  0  0
    8.9730    5.3730   26.2180 C   0  0  0  0  0
    9.3570    5.6020   24.8910 C   0  0  0  0  0
    8.8440    6.6860   24.1460 C   0  0  0  0  0
    9.1490    7.0030   22.8290 N   0  0  0  0  0
   10.1880    6.3630   22.2280 C   0  0  0  0  0
   10.2050    4.8730   22.0330 C   0  0  0  0  0
    8.9630    4.0280   22.2160 C   0  0  0  0  0
   11.3940    7.0550   22.0700 C   0  0  0  0  0
   12.5730    6.4060   21.6740 C   0  0  0  0  0
   12.6250    5.0290   21.4500 C   0  0  0  0  0
   11.4900    4.2360   21.6170 C   0  0  0  0  0
   11.5790    2.7520   21.3690 C   0  0  0  0  0
    8.8176    9.1108   23.2616 H   0  0  0  0  0
    6.8479    7.9833   26.7260 H   0  0  0  0  0
    7.7949    6.0246   27.8958 H   0  0  0  0  0
    9.3791    4.5152   26.7540 H   0  0  0  0  0
   10.0708    4.9255   24.4209 H   0  0  0  0  0
    8.6050    7.7015   22.3225 H   0  0  0  0  0
    8.5980    4.1372   23.2372 H   0  0  0  0  0
    8.1945    4.3578   21.5169 H   0  0  0  0  0
    9.2051    2.9825   22.0252 H   0  0  0  0  0
   11.4180    8.1281   22.2599 H   0  0  0  0  0
   13.4788    6.9966   21.5366 H   0  0  0  0  0
   13.5634    4.5684   21.1411 H   0  0  0  0  0
   11.3143    2.2161   22.2805 H   0  0  0  0  0
   10.8898    2.4763   20.5708 H   0  0  0  0  0
   12.5970    2.4941   21.0770 H   0  0  0  0  0
  1  2  2  0  0  0
  2  3  1  0  0  0
  2  4  1  0  0  0
  4  5  4  0  0  0
  4  9  4  0  0  0
  5  6  4  0  0  0
  6  7  4  0  0  0
  7  8  4  0  0  0
  8  9  4  0  0  0
  9 10  1  0  0  0
 10 11  1  0  0  0
 11 12  4  0  0  0
 11 14  4  0  0  0
 12 13  1  0  0  0
 12 17  4  0  0  0
 14 15  4  0  0  0
 15 16  4  0  0  0
 16 17  4  0  0  0
 17 18  1  0  0  0
  3 19  1  0  0  0
  5 20  1  0  0  0
  6 21  1  0  0  0
  7 22  1  0  0  0
  8 23  1  0  0  0
 10 24  1  0  0  0
 13 25  1  0  0  0
 13 26  1  0  0  0
 13 27  1  0  0  0
 14 28  1  0  0  0
 15 29  1  0  0  0
 16 30  1  0  0  0
 18 31  1  0  0  0
 18 32  1  0  0  0
 18 33  1  0  0  0
M  END
$$$$
