4zro_ligand
  -I-interpret- 

 97 97  0  0  0  0  0  0  0  0999 V2000
   46.3520   -8.4620   26.4790 O   0  0  0  0  0
   45.8190   -9.3170   27.1360 C   0  0  0  0  0
   46.2820  -10.6720   27.1770 O   0  0  0  0  0
   47.5920  -10.9870   26.7090 C   0  0  0  0  0
   47.6530  -10.8970   25.1990 C   0  0  0  0  0
   47.8320  -12.4660   27.1190 C   0  0  0  0  0
   48.7090  -10.1040   27.3450 C   0  0  0  0  0
   44.6140   -8.9840   27.9380 N   0  0  0  0  0
   44.2330   -7.5840   28.0260 C   0  0  0  0  0
   45.2150   -6.8660   28.9420 C   0  0  0  0  0
   45.7290   -7.4360   29.8620 O   0  0  0  0  0
   42.8890   -7.4250   28.6100 C   0  0  0  0  0
   42.0210   -8.3630   28.0040 O   0  0  0  0  0
   45.5270   -5.4490   28.6530 N   0  0  0  0  0
   46.4070   -4.7340   29.4750 C   0  0  0  0  0
   45.5930   -3.5500   30.0280 C   0  0  0  0  0
   45.0690   -2.7380   29.2920 O   0  0  0  0  0
   47.5930   -4.2180   28.6700 C   0  0  0  0  0
   48.4910   -3.3440   29.5670 C   0  0  0  0  0
   48.3930   -5.4030   28.0670 C   0  0  0  0  0
   45.4530   -3.4180   31.4680 N   0  0  0  0  0
   44.6950   -2.3100   32.0110 C   0  0  0  0  0
   45.5660   -1.1040   31.7140 C   0  0  0  0  0
   46.7680   -1.1830   31.8690 O   0  0  0  0  0
   44.4970   -2.5300   33.5000 C   0  0  0  0  0
   43.2050   -3.3170   33.8250 C   0  0  0  0  0
   43.0330   -4.6040   32.9790 C   0  0  0  0  0
   43.1580   -3.7010   35.3300 C   0  0  0  0  0
   48.4370    1.1890   33.9990 O   0  0  0  0  0
   48.3880    1.1640   35.4220 C   0  0  0  0  0
   49.6530    0.4960   35.9980 C   0  0  0  0  0
   44.9780    0.1050   31.2180 N   0  0  0  0  0
   45.8040    1.2430   30.8960 C   0  0  0  0  0
   45.5080    1.6040   29.4270 C   0  0  0  0  0
   46.0920    0.5200   28.4950 C   0  0  0  0  0
   45.5430    2.3580   31.8840 C   0  0  0  0  0
   45.8790    0.7870   27.0870 C   0  0  0  0  0
   44.8400    1.1500   26.5650 O   0  0  0  0  0
   47.1330    0.5090   26.3480 N   0  0  0  0  0
   48.1030    0.1100   27.2360 C   0  0  0  0  0
   47.5740    0.5060   28.6350 C   0  0  0  0  0
   46.0950    2.0010   33.3070 C   0  0  0  0  0
   47.6150    2.1590   33.3710 C   0  0  0  0  0
   48.1490    3.1400   32.8600 O   0  0  0  0  0
   47.5088   -9.8611   24.8919 H   0  0  0  0  0
   48.6259  -11.2474   24.8544 H   0  0  0  0  0
   46.8680  -11.5179   24.7673 H   0  0  0  0  0
   48.8091  -12.7876   26.7585 H   0  0  0  0  0
   47.7981  -12.5507   28.2052 H   0  0  0  0  0
   47.0566  -13.0938   26.6800 H   0  0  0  0  0
   48.6714  -10.1987   28.4302 H   0  0  0  0  0
   49.6824  -10.4356   26.9836 H   0  0  0  0  0
   48.5512   -9.0627   27.0642 H   0  0  0  0  0
   44.0744   -9.7101   28.4091 H   0  0  0  0  0
   44.2382   -7.1710   27.0173 H   0  0  0  0  0
   42.5244   -6.4131   28.4332 H   0  0  0  0  0
   42.9287   -7.5964   29.6857 H   0  0  0  0  0
   41.1410   -8.2698   28.3761 H   0  0  0  0  0
   45.0982   -4.9896   27.8495 H   0  0  0  0  0
   46.8056   -5.3628   30.2711 H   0  0  0  0  0
   47.2276   -3.6064   27.8451 H   0  0  0  0  0
   47.9143   -2.4989   29.9429 H   0  0  0  0  0
   48.8544   -3.9390   30.4049 H   0  0  0  0  0
   49.3372   -2.9782   28.9854 H   0  0  0  0  0
   48.7594   -6.0395   28.8724 H   0  0  0  0  0
   47.7429   -5.9824   27.4114 H   0  0  0  0  0
   49.2366   -5.0166   27.4951 H   0  0  0  0  0
   45.8850   -4.1001   32.0913 H   0  0  0  0  0
   43.6974   -2.1913   31.5881 H   0  0  0  0  0
   44.4193   -1.5515   33.9740 H   0  0  0  0  0
   45.3427   -3.1120   33.8662 H   0  0  0  0  0
   42.3849   -2.6444   33.5737 H   0  0  0  0  0
   42.9970   -4.3403   31.9220 H   0  0  0  0  0
   43.8756   -5.2714   33.1598 H   0  0  0  0  0
   42.1058   -5.1023   33.2623 H   0  0  0  0  0
   44.0198   -4.3230   35.5720 H   0  0  0  0  0
   43.1806   -2.7951   35.9357 H   0  0  0  0  0
   42.2408   -4.2534   35.5342 H   0  0  0  0  0
   47.5139    0.5930   35.7350 H   0  0  0  0  0
   48.3305    2.1880   35.7911 H   0  0  0  0  0
   49.7222   -0.5272   35.6288 H   0  0  0  0  0
   50.5334    1.0570   35.6845 H   0  0  0  0  0
   49.5944    0.4877   37.0864 H   0  0  0  0  0
   43.9674    0.1614   31.0916 H   0  0  0  0  0
   46.8705    1.0353   30.9831 H   0  0  0  0  0
   45.9649    2.5655   29.1927 H   0  0  0  0  0
   44.4295    1.6629   29.2803 H   0  0  0  0  0
   45.5953   -0.4060   28.7846 H   0  0  0  0  0
   44.4662    2.5101   31.9582 H   0  0  0  0  0
   46.0478    3.2577   31.5323 H   0  0  0  0  0
   47.2567    0.5995   25.3396 H   0  0  0  0  0
   49.0597    0.5866   27.0220 H   0  0  0  0  0
   48.2884   -0.9620   27.1687 H   0  0  0  0  0
   47.9011   -0.1937   29.4041 H   0  0  0  0  0
   47.9594    1.4744   28.9540 H   0  0  0  0  0
   45.8452    0.9626   33.5250 H   0  0  0  0  0
   45.6454    2.6785   34.0329 H   0  0  0  0  0
  2  1  2  0  0  0
  2  3  1  0  0  0
  8  2  1  0  0  0
  3  4  1  0  0  0
  4  5  1  0  0  0
  4  6  1  0  0  0
  4  7  1  0  0  0
  9  8  1  0  0  0
 10  9  1  0  0  0
  9 12  1  0  0  0
 10 11  2  0  0  0
 14 10  1  0  0  0
 12 13  1  0  0  0
 15 14  1  0  0  0
 16 15  1  0  0  0
 15 18  1  0  0  0
 16 17  2  0  0  0
 21 16  1  0  0  0
 18 19  1  0  0  0
 18 20  1  0  0  0
 22 21  1  0  0  0
 23 22  1  0  0  0
 22 25  1  0  0  0
 23 24  2  0  0  0
 32 23  1  0  0  0
 25 26  1  0  0  0
 26 27  1  0  0  0
 26 28  1  0  0  0
 29 30  1  0  0  0
 43 29  1  0  0  0
 30 31  1  0  0  0
 33 32  1  0  0  0
 33 34  1  0  0  0
 36 33  1  0  0  0
 34 35  1  0  0  0
 35 37  1  0  0  0
 35 41  1  0  0  0
 42 36  1  0  0  0
 37 38  2  0  0  0
 37 39  1  0  0  0
 40 39  1  0  0  0
 41 40  1  0  0  0
 42 43  1  0  0  0
 43 44  2  0  0  0
  5 45  1  0  0  0
  5 46  1  0  0  0
  5 47  1  0  0  0
  6 48  1  0  0  0
  6 49  1  0  0  0
  6 50  1  0  0  0
  7 51  1  0  0  0
  7 52  1  0  0  0
  7 53  1  0  0  0
  8 54  1  0  0  0
  9 55  1  0  0  0
 12 56  1  0  0  0
 12 57  1  0  0  0
 13 58  1  0  0  0
 14 59  1  0  0  0
 15 60  1  0  0  0
 18 61  1  0  0  0
 19 62  1  0  0  0
 19 63  1  0  0  0
 19 64  1  0  0  0
 20 65  1  0  0  0
 20 66  1  0  0  0
 20 67  1  0  0  0
 21 68  1  0  0  0
 22 69  1  0  0  0
 25 70  1  0  0  0
 25 71  1  0  0  0
 26 72  1  0  0  0
 27 73  1  0  0  0
 27 74  1  0  0  0
 27 75  1  0  0  0
 28 76  1  0  0  0
 28 77  1  0  0  0
 28 78  1  0  0  0
 30 79  1  0  0  0
 30 80  1  0  0  0
 31 81  1  0  0  0
 31 82  1  0  0  0
 31 83  1  0  0  0
 32 84  1  0  0  0
 33 85  1  0  0  0
 34 86  1  0  0  0
 34 87  1  0  0  0
 35 88  1  0  0  0
 36 89  1  0  0  0
 36 90  1  0  0  0
 39 91  1  0  0  0
 40 92  1  0  0  0
 40 93  1  0  0  0
 41 94  1  0  0  0
 41 95  1  0  0  0
 42 96  1  0  0  0
 42 97  1  0  0  0
M  END
$$$$
