### 
### Created by X-TOOL on Wed Jan  1 15:39:36 2020
### 

@<TRIPOS>MOLECULE
6e8k_ligand
   52    53     1     0     0
SMALL
GAST_HUCK


@<TRIPOS>ATOM
      1 N           8.6190   17.2470   16.6870 N.4       1 PRO         0.2461
      2 CA          7.7280   18.2390   16.0710 C.3       1 PRO         0.0670
      3 C           8.2400   18.7530   14.7230 C.2       1 PRO         0.2270
      4 O           7.4710   19.3750   13.9710 O.2       1 PRO        -0.3907
      5 CB          7.6930   19.3580   17.1110 C.3       1 PRO         0.0127
      6 CG          9.0540   19.2990   17.7470 C.3       1 PRO        -0.0053
      7 CD          9.5060   17.8540   17.6980 C.3       1 PRO        -0.0313
      8 N           9.5160   18.5110   14.4200 N.am      1 PTR        -0.2580
      9 CA         10.0560   18.8260   13.0940 C.3       1 PTR         0.1469
     10 C          10.0750   17.5780   12.2150 C.2       1 PTR         0.2069
     11 O          10.0810   17.6790   10.9930 O.2       1 PTR        -0.3941
     12 CB         11.4850   19.3820   13.1190 C.3       1 PTR         0.0400
     13 CG         11.6630   20.8280   13.5450 C.ar      1 PTR        -0.0004
     14 CD1        11.5960   21.8760   12.6230 C.ar      1 PTR        -0.0239
     15 CD2        11.9610   21.1420   14.8620 C.ar      1 PTR        -0.0239
     16 CE1        11.7850   23.1970   13.0280 C.ar      1 PTR         0.0115
     17 CE2        12.1490   22.4530   15.2700 C.ar      1 PTR         0.0115
     18 CZ         12.0700   23.4730   14.3580 C.ar      1 PTR         0.1728
     19 OH         12.2690   24.6950   14.7780 O.3       1 PTR        -0.2040
     20 P          13.7490   25.3540   14.6310 P.3       1 PTR         0.1348
     21 O1P        14.0050   25.6460   13.1490 O.co2     1 PTR        -0.6653
     22 O2P        13.7260   26.6130   15.4160 O.co2     1 PTR        -0.6653
     23 O3P        14.8260   24.4030   15.1650 O.co2     1 PTR        -0.6653
     24 N          10.1050   16.4070   12.8460 N.am      1 SER        -0.2670
     25 CA         10.2220   15.1440   12.1200 C.3       1 SER         0.1173
     26 C           8.9350   14.7940   11.3720 C.2       1 SER         0.0623
     27 O           8.9730   14.1460   10.3210 O.co2     1 SER        -0.5665
     28 CB         10.5970   14.0160   13.0830 C.3       1 SER         0.0789
     29 OG         11.7480   14.3490   13.8430 O.3       1 SER        -0.3910
     30 OXT         7.8360   15.1530   11.8060 O.co2     1 SER        -0.5665
     31 H1          9.1857   16.8268   15.9670 H         1 PRO         0.2035
     32 H2          8.0581   16.5366   17.1306 H         1 PRO         0.2035
     33 H3          6.7247   17.8119   15.9264 H         1 PRO         0.1099
     34 H4          6.9042   19.1763   17.8558 H         1 PRO         0.0347
     35 H5          7.5266   20.3338   16.6313 H         1 PRO         0.0347
     36 H6          8.9980   19.6416   18.7908 H         1 PRO         0.0320
     37 H7          9.7587   19.9339   17.1900 H         1 PRO         0.0320
     38 H8         10.5595   17.7823   17.3899 H         1 PRO         0.0814
     39 H9          9.3762   17.3686   18.6765 H         1 PRO         0.0814
     40 H10        10.1159   18.1069   15.1105 H         1 PTR         0.1887
     41 H11         9.3988   19.5793   12.6350 H         1 PTR         0.0840
     42 H12        11.8953   19.2842   12.1031 H         1 PTR         0.0584
     43 H13        12.0696   18.7592   13.8121 H         1 PTR         0.0584
     44 H14        11.3946   21.6594   11.5801 H         1 PTR         0.0703
     45 H15        12.0490   20.3434   15.5897 H         1 PTR         0.0703
     46 H16        11.7097   24.0038   12.3080 H         1 PTR         0.0736
     47 H17        12.3586   22.6718   16.3108 H         1 PTR         0.0736
     48 H18        10.0459   16.3906   13.8441 H         1 SER         0.1876
     49 H19        11.0282   15.2501   11.3792 H         1 SER         0.0749
     50 H20        10.8016   13.1035   12.5039 H         1 SER         0.0599
     51 H21         9.7555   13.8347   13.7678 H         1 SER         0.0599
     52 H22        11.9566   13.6321   14.4304 H         1 SER         0.2096
@<TRIPOS>BOND
     1    1    2 1  
     2    1    7 1  
     3    2    3 1  
     4    2    5 1  
     5    3    4 2  
     6    3    8 am 
     7    5    6 1  
     8    6    7 1  
     9    8    9 1  
    10    9   10 1  
    11    9   12 1  
    12   10   11 2  
    13   10   24 am 
    14   12   13 1  
    15   13   14 ar 
    16   13   15 ar 
    17   14   16 ar 
    18   15   17 ar 
    19   16   18 ar 
    20   17   18 ar 
    21   18   19 1  
    22   19   20 1  
    23   20   21 ar 
    24   20   22 ar 
    25   20   23 ar 
    26   24   25 1  
    27   25   26 1  
    28   25   28 1  
    29   26   27 ar 
    30   26   30 ar 
    31   28   29 1  
    32    1   31 1  
    33    1   32 1  
    34    2   33 1  
    35    5   34 1  
    36    5   35 1  
    37    6   36 1  
    38    6   37 1  
    39    7   38 1  
    40    7   39 1  
    41    8   40 1  
    42    9   41 1  
    43   12   42 1  
    44   12   43 1  
    45   14   44 1  
    46   15   45 1  
    47   16   46 1  
    48   17   47 1  
    49   24   48 1  
    50   25   49 1  
    51   28   50 1  
    52   28   51 1  
    53   29   52 1  
@<TRIPOS>SUBSTRUCTURE
     1 PRO         1

