6e8k_ligand
  -I-interpret- 

 55 56  0  0  0  0  0  0  0  0999 V2000
    8.6190   17.2470   16.6870 N   0  3  0  0  0
    7.7280   18.2390   16.0710 C   0  0  0  0  0
    8.2400   18.7530   14.7230 C   0  0  0  0  0
    7.4710   19.3750   13.9710 O   0  0  0  0  0
    7.6930   19.3580   17.1110 C   0  0  0  0  0
    9.0540   19.2990   17.7470 C   0  0  0  0  0
    9.5060   17.8540   17.6980 C   0  0  0  0  0
    9.5160   18.5110   14.4200 N   0  0  0  0  0
   10.0560   18.8260   13.0940 C   0  0  0  0  0
   10.0750   17.5780   12.2150 C   0  0  0  0  0
   10.0810   17.6790   10.9930 O   0  0  0  0  0
   11.4850   19.3820   13.1190 C   0  0  0  0  0
   11.6630   20.8280   13.5450 C   0  0  0  0  0
   11.5960   21.8760   12.6230 C   0  0  0  0  0
   11.9610   21.1420   14.8620 C   0  0  0  0  0
   11.7850   23.1970   13.0280 C   0  0  0  0  0
   12.1490   22.4530   15.2700 C   0  0  0  0  0
   12.0700   23.4730   14.3580 C   0  0  0  0  0
   12.2690   24.6950   14.7780 O   0  0  0  0  0
   13.7490   25.3540   14.6310 P   0  0  0  0  0
   14.0050   25.6460   13.1490 O   0  0  0  0  0
   13.7260   26.6130   15.4160 O   0  0  0  0  0
   14.8260   24.4030   15.1650 O   0  0  0  0  0
   10.1050   16.4070   12.8460 N   0  0  0  0  0
   10.2220   15.1440   12.1200 C   0  0  0  0  0
    8.9350   14.7940   11.3720 C   0  0  0  0  0
    8.9730   14.1460   10.3210 O   0  0  0  0  0
   10.5970   14.0160   13.0830 C   0  0  0  0  0
   11.7480   14.3490   13.8430 O   0  0  0  0  0
    7.8360   15.1530   11.8060 O   0  0  0  0  0
    9.2010   16.8418   15.9538 H   0  0  0  0  0
    8.0426   16.5437   17.1491 H   0  0  0  0  0
    6.7492   17.8204   15.8371 H   0  0  0  0  0
    6.8900   19.2258   17.8361 H   0  0  0  0  0
    7.4843   20.3312   16.6667 H   0  0  0  0  0
    9.0135   19.6549   18.7765 H   0  0  0  0  0
    9.7560   19.9401   17.2139 H   0  0  0  0  0
   10.5605   17.7556   17.4402 H   0  0  0  0  0
    9.4319   17.3610   18.6673 H   0  0  0  0  0
   10.1279   18.0989   15.1243 H   0  0  0  0  0
    9.3941   19.5959   12.6974 H   0  0  0  0  0
   11.8386   19.3325   12.0891 H   0  0  0  0  0
   12.0193   18.7883   13.8607 H   0  0  0  0  0
   11.3935   21.6582   11.5743 H   0  0  0  0  0
   12.0495   20.3390   15.5937 H   0  0  0  0  0
   11.7093   24.0083   12.3040 H   0  0  0  0  0
   12.3598   22.6730   16.3166 H   0  0  0  0  0
   14.0163   24.8207   12.6587 H   0  0  0  0  0
   14.8250   23.5960   14.6451 H   0  0  0  0  0
   10.0447   16.3903   13.8641 H   0  0  0  0  0
   11.0108   15.2630   11.3772 H   0  0  0  0  0
    9.8855   13.9380   10.1075 H   0  0  0  0  0
   10.8125   13.1199   12.5010 H   0  0  0  0  0
    9.7645   13.8526   13.7673 H   0  0  0  0  0
   11.9588   13.6245   14.4366 H   0  0  0  0  0
  1  2  1  0  0  0
  1  7  1  0  0  0
  2  3  1  0  0  0
  2  5  1  0  0  0
  3  4  2  0  0  0
  3  8  1  0  0  0
  5  6  1  0  0  0
  6  7  1  0  0  0
  8  9  1  0  0  0
  9 10  1  0  0  0
  9 12  1  0  0  0
 10 11  2  0  0  0
 10 24  1  0  0  0
 12 13  1  0  0  0
 13 14  4  0  0  0
 13 15  4  0  0  0
 14 16  4  0  0  0
 15 17  4  0  0  0
 16 18  4  0  0  0
 17 18  4  0  0  0
 18 19  1  0  0  0
 19 20  1  0  0  0
 20 21  1  0  0  0
 20 22  2  0  0  0
 20 23  1  0  0  0
 24 25  1  0  0  0
 25 26  1  0  0  0
 25 28  1  0  0  0
 26 27  1  0  0  0
 26 30  2  0  0  0
 28 29  1  0  0  0
  1 31  1  0  0  0
  1 32  1  0  0  0
  2 33  1  0  0  0
  5 34  1  0  0  0
  5 35  1  0  0  0
  6 36  1  0  0  0
  6 37  1  0  0  0
  7 38  1  0  0  0
  7 39  1  0  0  0
  8 40  1  0  0  0
  9 41  1  0  0  0
 12 42  1  0  0  0
 12 43  1  0  0  0
 14 44  1  0  0  0
 15 45  1  0  0  0
 16 46  1  0  0  0
 17 47  1  0  0  0
 21 48  1  0  0  0
 23 49  1  0  0  0
 24 50  1  0  0  0
 25 51  1  0  0  0
 27 52  1  0  0  0
 28 53  1  0  0  0
 28 54  1  0  0  0
 29 55  1  0  0  0
M  END
$$$$
