1gi4_ligand
  -I-interpret- 

 30 32  0  0  0  0  0  0  0  0999 V2000
   43.8450   -2.6200   26.3150 C   0  0  0  0  0
   44.3910   -1.3120   26.5250 C   0  0  0  0  0
   44.2550   -0.5740   27.7130 C   0  0  0  0  0
   43.5460   -1.2100   28.6920 C   0  0  0  0  0
   43.0360   -2.4460   28.5270 C   0  0  0  0  0
   43.1400   -3.1860   27.3870 C   0  0  0  0  0
   44.0280   -3.3280   25.1170 C   0  0  0  0  0
   43.8400   -4.6310   25.0870 N   0  0  0  0  0
   44.3860   -2.6840   24.0310 N   0  0  0  0  0
   43.3130   -0.7180   29.8950 N   0  0  0  0  0
   42.4440   -2.7370   29.6330 N   0  0  0  0  0
   42.6130   -1.7180   30.4190 C   0  0  0  0  0
   42.0620   -1.7300   31.7660 C   0  0  0  0  0
   41.1150   -2.7470   32.1220 C   0  0  0  0  0
   40.5390   -2.8090   33.3720 C   0  0  0  0  0
   40.8740   -1.8690   34.3340 C   0  0  0  0  0
   41.7850   -0.8480   34.0790 C   0  0  0  0  0
   42.3750   -0.7780   32.8230 C   0  0  0  0  0
   43.2710    0.2670   32.7590 O   0  0  0  0  0
   44.9504   -0.8582   25.7069 H   0  0  0  0  0
   44.6793    0.4216   27.8423 H   0  0  0  0  0
   42.6933   -4.1774   27.3117 H   0  0  0  0  0
   43.9726   -5.1455   24.2163 H   0  0  0  0  0
   43.5618   -5.1258   25.9345 H   0  0  0  0  0
   44.5202   -3.1928   23.1572 H   0  0  0  0  0
   40.8420   -3.4959   31.3786 H   0  0  0  0  0
   39.8212   -3.5958   33.6040 H   0  0  0  0  0
   40.4106   -1.9311   35.3186 H   0  0  0  0  0
   42.0308   -0.1175   34.8497 H   0  0  0  0  0
   43.2785    0.7325   33.5985 H   0  0  0  0  0
  7  1  1  0  0  0
  1  6  4  0  0  0
  1  2  4  0  0  0
  2  3  4  0  0  0
  3  4  4  0  0  0
  4 10  4  0  0  0
  4  5  4  0  0  0
  5 11  4  0  0  0
  6  5  4  0  0  0
 11 12  4  0  0  0
 12 13  1  0  0  0
 10 12  4  0  0  0
 13 18  4  0  0  0
 13 14  4  0  0  0
 14 15  4  0  0  0
 15 16  4  0  0  0
 16 17  4  0  0  0
 18 17  4  0  0  0
 18 19  1  0  0  0
  7  9  2  0  0  0
  7  8  1  0  0  0
  2 20  1  0  0  0
  3 21  1  0  0  0
  6 22  1  0  0  0
  8 23  1  0  0  0
  8 24  1  0  0  0
  9 25  1  0  0  0
 14 26  1  0  0  0
 15 27  1  0  0  0
 16 28  1  0  0  0
 17 29  1  0  0  0
 19 30  1  0  0  0
M  END
$$$$
