3ldq_ligand
  -I-interpret- 

 52 56  0  0  0  0  0  0  0  0999 V2000
   18.0700   -5.5890   -2.7520 N   0  0  0  0  0
   16.8300   -5.6940   -2.2740 C   0  0  0  0  0
   16.4460   -5.0110   -1.2130 N   0  0  0  0  0
   18.9780   -4.8550   -2.1280 C   0  0  0  0  0
   17.1800   -3.5050    0.5480 N   0  0  0  0  0
   18.3790   -2.9190    0.8020 C   0  0  0  0  0
   19.2500   -3.3100   -0.1780 N   0  0  0  0  0
   18.6030   -4.1410   -0.9900 C   0  0  0  0  0
   17.3120   -4.2410   -0.5520 C   0  0  0  0  0
   15.9390   -3.3990    1.3400 C   0  0  0  0  0
   15.6050   -2.0170    1.5780 O   0  0  0  0  0
   14.8200   -1.9880    2.8400 C   0  0  0  0  0
   15.0110   -3.3820    3.5070 C   0  0  0  0  0
   16.1320   -3.9910    2.7290 C   0  0  0  0  0
   20.2550   -4.8090   -2.5980 N   0  0  0  0  0
   18.6600   -2.0640    1.8260 N   0  0  0  0  0
   20.0400   -1.5640    2.0260 C   0  0  0  0  0
   20.8410   -2.5330    2.9670 C   0  0  0  0  0
   22.1870   -2.6730    2.8030 N   0  0  0  0  0
   20.9110   -4.0590    4.8280 C   0  0  0  0  0
   20.1860   -3.2260    3.9900 C   0  0  0  0  0
   22.2840   -4.1790    4.6500 C   0  0  0  0  0
   22.9100   -3.4890    3.6210 C   0  0  0  0  0
   24.3000   -3.6340    3.4210 C   0  0  0  0  0
   25.0470   -4.4660    4.2600 C   0  0  0  0  0
   24.4140   -5.1660    5.2820 C   0  0  0  0  0
   23.0320   -5.0190    5.4860 C   0  0  0  0  0
   15.4350   -0.8720    3.7230 C   0  0  0  0  0
   16.8340   -1.1170    3.8910 O   0  0  0  0  0
   13.7910   -4.1650    3.3450 O   0  0  0  0  0
   16.0000   -5.4340    2.6790 O   0  0  0  0  0
   16.1202   -6.3566   -2.7692 H   0  0  0  0  0
   15.1679   -3.9207    0.7731 H   0  0  0  0  0
   13.7587   -1.7905    2.6891 H   0  0  0  0  0
   15.2215   -3.3325    4.5753 H   0  0  0  0  0
   17.1124   -3.7897    3.1608 H   0  0  0  0  0
   20.5115   -5.3398   -3.4303 H   0  0  0  0  0
   20.9551   -4.2437   -2.1178 H   0  0  0  0  0
   17.9162   -1.7671    2.4577 H   0  0  0  0  0
   19.9972   -0.5767    2.4859 H   0  0  0  0  0
   20.5423   -1.5108    1.0601 H   0  0  0  0  0
   20.4086   -4.6150    5.6196 H   0  0  0  0  0
   19.1108   -3.1117    4.1277 H   0  0  0  0  0
   24.7918   -3.0960    2.6106 H   0  0  0  0  0
   26.1225   -4.5660    4.1138 H   0  0  0  0  0
   24.9914   -5.8297    5.9256 H   0  0  0  0  0
   22.5408   -5.5589    6.2955 H   0  0  0  0  0
   14.9464   -0.8676    4.6973 H   0  0  0  0  0
   15.2898    0.0950    3.2415 H   0  0  0  0  0
   17.2153   -0.4262    4.4378 H   0  0  0  0  0
   13.9071   -5.0249    3.7557 H   0  0  0  0  0
   16.1235   -5.7962    3.5594 H   0  0  0  0  0
  2  1  4  0  0  0
  1  4  4  0  0  0
  3  2  4  0  0  0
  9  3  4  0  0  0
  4  8  4  0  0  0
  4 15  1  0  0  0
  5  6  4  0  0  0
  5  9  4  0  0  0
  5 10  1  0  0  0
  6  7  4  0  0  0
  6 16  1  0  0  0
  7  8  4  0  0  0
  8  9  4  0  0  0
 10 11  1  0  0  0
 10 14  1  0  0  0
 11 12  1  0  0  0
 12 13  1  0  0  0
 12 28  1  0  0  0
 13 14  1  0  0  0
 13 30  1  0  0  0
 14 31  1  0  0  0
 16 17  1  0  0  0
 17 18  1  0  0  0
 18 19  4  0  0  0
 18 21  4  0  0  0
 19 23  4  0  0  0
 21 20  4  0  0  0
 20 22  4  0  0  0
 22 23  4  0  0  0
 22 27  4  0  0  0
 23 24  4  0  0  0
 24 25  4  0  0  0
 25 26  4  0  0  0
 26 27  4  0  0  0
 28 29  1  0  0  0
  2 32  1  0  0  0
 10 33  1  0  0  0
 12 34  1  0  0  0
 13 35  1  0  0  0
 14 36  1  0  0  0
 15 37  1  0  0  0
 15 38  1  0  0  0
 16 39  1  0  0  0
 17 40  1  0  0  0
 17 41  1  0  0  0
 20 42  1  0  0  0
 21 43  1  0  0  0
 24 44  1  0  0  0
 25 45  1  0  0  0
 26 46  1  0  0  0
 27 47  1  0  0  0
 28 48  1  0  0  0
 28 49  1  0  0  0
 29 50  1  0  0  0
 30 51  1  0  0  0
 31 52  1  0  0  0
M  END
$$$$
