5fh8_ligand
  -I-interpret- 

 40 42  0  0  0  0  0  0  0  0999 V2000
    0.4560   28.1270   13.4240 C   0  0  0  0  0
    3.4270   26.9190    7.0740 C   0  0  0  0  0
    0.6170   29.3710   10.6340 C   0  0  0  0  0
    0.6040   28.3480    9.7860 C   0  0  0  0  0
    2.7930   24.4430    5.8660 C   0  0  0  0  0
   -0.4720   27.3140    9.6390 C   0  0  0  0  0
    0.0890   26.2500    8.7090 C   0  0  0  0  0
    2.2060   26.2500    7.3140 C   0  0  0  0  0
    1.8950   25.0310    6.7270 C   0  0  0  0  0
    4.0080   25.0610    5.5970 C   0  0  0  0  0
    4.3250   26.2600    6.2110 C   0  0  0  0  0
    2.7470   28.6920    8.6460 N   0  0  0  0  0
    0.1270   29.5660   13.0520 C   0  0  0  0  0
    5.9800   26.7950    6.0030 Cl  0  0  0  0  0
    3.6910   28.2170    7.7430 C   0  0  0  0  0
    4.6450   28.9210    7.4320 O   0  0  0  0  0
    1.6450   28.0290    8.8560 C   0  0  0  0  0
    1.3250   26.8530    8.2130 N   0  0  0  0  0
   -0.4170   29.7250   11.6580 C   0  0  0  0  0
   -0.7870   31.2000   11.3840 C   0  0  0  0  0
   -1.5950   31.3670   10.1310 C   0  0  0  0  0
   -0.4472   27.5204   13.3578 H   0  0  0  0  0
    1.2075   27.7382   12.7369 H   0  0  0  0  0
    0.8424   28.0957   14.4427 H   0  0  0  0  0
    0.5342   30.2148    9.9490 H   0  0  0  0  0
    1.4630   29.1086   11.2693 H   0  0  0  0  0
    2.5507   23.4907    5.3942 H   0  0  0  0  0
   -1.4574   27.3233   10.1048 H   0  0  0  0  0
   -0.3297   25.2725    8.4696 H   0  0  0  0  0
    0.9455   24.5428    6.9467 H   0  0  0  0  0
    4.7113   24.6015    4.9025 H   0  0  0  0  0
    2.9178   29.5640    9.1468 H   0  0  0  0  0
    1.0550   30.1353   13.1052 H   0  0  0  0  0
   -0.6425   29.9119   13.7422 H   0  0  0  0  0
   -1.2856   29.0701   11.5882 H   0  0  0  0  0
    0.1391   31.7621   11.2641 H   0  0  0  0  0
   -1.3871   31.5570   12.2210 H   0  0  0  0  0
   -1.0221   31.0005    9.2792 H   0  0  0  0  0
   -2.5212   30.7990   10.2190 H   0  0  0  0  0
   -1.8267   32.4224    9.9876 H   0  0  0  0  0
 13  1  1  0  0  0
  2  8  4  0  0  0
  2 11  4  0  0  0
 15  2  1  0  0  0
  3  4  1  0  0  0
 19  3  1  0  0  0
  4  6  4  0  0  0
  4 17  4  0  0  0
  9  5  4  0  0  0
 10  5  4  0  0  0
  6  7  4  0  0  0
  7 18  4  0  0  0
  8  9  4  0  0  0
 18  8  1  0  0  0
 11 10  4  0  0  0
 11 14  1  0  0  0
 12 15  1  0  0  0
 17 12  1  0  0  0
 13 19  1  0  0  0
 15 16  2  0  0  0
 17 18  4  0  0  0
 19 20  1  0  0  0
 20 21  1  0  0  0
  1 22  1  0  0  0
  1 23  1  0  0  0
  1 24  1  0  0  0
  3 25  1  0  0  0
  3 26  1  0  0  0
  5 27  1  0  0  0
  6 28  1  0  0  0
  7 29  1  0  0  0
  9 30  1  0  0  0
 10 31  1  0  0  0
 12 32  1  0  0  0
 13 33  1  0  0  0
 13 34  1  0  0  0
 19 35  1  0  0  0
 20 36  1  0  0  0
 20 37  1  0  0  0
 21 38  1  0  0  0
 21 39  1  0  0  0
 21 40  1  0  0  0
M  END
$$$$
