2jkh_ligand
  -I-interpret- 

 60 64  0  0  0  0  0  0  0  0999 V2000
   -3.3790   10.1460   22.3380 O   0  0  0  0  0
   -3.9410   11.1580   21.9180 C   0  0  0  0  0
   -4.9910   11.0850   21.0360 N   0  0  0  0  0
   -5.8800    9.9090   21.1480 C   0  0  0  0  0
   -5.5610    9.1700   19.8540 C   0  0  0  0  0
   -6.3260    7.8750   19.6540 C   0  0  0  0  0
   -6.0510    7.1990   18.3700 N   0  3  0  0  0
   -4.6370    6.8540   18.2010 C   0  0  0  0  0
   -6.7910    5.9390   18.3930 C   0  0  0  0  0
   -6.5190    7.9920   17.2120 C   0  0  0  0  0
   -3.5440   12.5840   22.2200 C   0  0  0  0  0
   -3.3790   12.9840   23.6880 C   0  0  0  0  0
   -4.7170   13.3720   24.1640 N   0  3  0  0  0
   -4.6370   14.4120   25.2040 C   0  0  0  0  0
   -4.7100   15.7650   24.5000 C   0  0  0  0  0
   -5.1380   15.4870   23.0620 C   0  0  0  0  0
   -5.3720   13.9770   22.9790 C   0  0  0  0  0
   -4.7430   13.3810   21.7340 C   0  0  0  0  0
   -5.5910   12.3290   21.0820 C   0  0  0  0  0
   -6.6970   12.5320   20.5910 O   0  0  0  0  0
   -2.5260   12.0300   24.4490 C   0  0  0  0  0
   -3.0640   11.1180   25.3850 C   0  0  0  0  0
   -1.1850   11.9120   24.2960 N   0  0  0  0  0
   -0.8190   10.8700   25.1950 O   0  0  0  0  0
   -1.9190   10.4620   25.8600 C   0  0  0  0  0
   -1.8730    9.3760   26.7280 C   0  0  0  0  0
   -2.7630    9.0540   27.7450 C   0  0  0  0  0
   -2.4110    7.8370   28.3300 C   0  0  0  0  0
   -0.5750    8.2640   26.4200 S   0  0  0  0  0
   -1.2890    7.3390   27.6830 C   0  0  0  0  0
   -0.4950    5.7740   28.1070 Cl  0  0  0  0  0
   -6.9338   10.1649   21.2584 H   0  0  0  0  0
   -5.7098    9.3147   22.0457 H   0  0  0  0  0
   -4.5032    8.9096   19.8914 H   0  0  0  0  0
   -5.8410    9.8322   19.0347 H   0  0  0  0  0
   -7.3871    8.1243   19.6645 H   0  0  0  0  0
   -6.0175    7.1943   20.4475 H   0  0  0  0  0
   -4.3146    6.2295   19.0342 H   0  0  0  0  0
   -4.5064    6.3099   17.2656 H   0  0  0  0  0
   -4.0418    7.7669   18.1779 H   0  0  0  0  0
   -6.6304    5.4076   17.4549 H   0  0  0  0  0
   -6.4386    5.3273   19.2235 H   0  0  0  0  0
   -7.8540    6.1456   18.5176 H   0  0  0  0  0
   -5.9317    8.9073   17.1389 H   0  0  0  0  0
   -6.3979    7.4073   16.3001 H   0  0  0  0  0
   -7.5710    8.2436   17.3469 H   0  0  0  0  0
   -2.5670   12.7476   21.7652 H   0  0  0  0  0
   -2.7648   13.8678   23.8607 H   0  0  0  0  0
   -5.2091   12.5695   24.5568 H   0  0  0  0  0
   -3.7067   14.3219   25.7648 H   0  0  0  0  0
   -5.4560   14.3059   25.9154 H   0  0  0  0  0
   -3.7446   16.2703   24.5276 H   0  0  0  0  0
   -5.4218   16.4241   24.9971 H   0  0  0  0  0
   -4.3754   15.8089   22.3528 H   0  0  0  0  0
   -6.0396   16.0421   22.8031 H   0  0  0  0  0
   -6.4434   13.7797   22.9445 H   0  0  0  0  0
   -4.5553   14.2000   21.0397 H   0  0  0  0  0
   -4.1056   10.9635   25.6666 H   0  0  0  0  0
   -3.6149    9.6650   28.0435 H   0  0  0  0  0
   -2.9316    7.3568   29.1585 H   0  0  0  0  0
  1  2  2  0  0  0
  2  3  1  0  0  0
  2 11  1  0  0  0
  3  4  1  0  0  0
  3 19  1  0  0  0
  4  5  1  0  0  0
  5  6  1  0  0  0
  6  7  1  0  0  0
  7  8  1  0  0  0
  7  9  1  0  0  0
  7 10  1  0  0  0
 11 12  1  0  0  0
 11 18  1  0  0  0
 12 13  1  0  0  0
 12 21  1  0  0  0
 13 14  1  0  0  0
 13 17  1  0  0  0
 14 15  1  0  0  0
 15 16  1  0  0  0
 16 17  1  0  0  0
 17 18  1  0  0  0
 18 19  1  0  0  0
 19 20  2  0  0  0
 21 22  4  0  0  0
 21 23  4  0  0  0
 22 25  4  0  0  0
 23 24  4  0  0  0
 24 25  4  0  0  0
 25 26  1  0  0  0
 26 27  4  0  0  0
 26 29  4  0  0  0
 27 28  4  0  0  0
 28 30  4  0  0  0
 29 30  4  0  0  0
 30 31  1  0  0  0
  4 32  1  0  0  0
  4 33  1  0  0  0
  5 34  1  0  0  0
  5 35  1  0  0  0
  6 36  1  0  0  0
  6 37  1  0  0  0
  8 38  1  0  0  0
  8 39  1  0  0  0
  8 40  1  0  0  0
  9 41  1  0  0  0
  9 42  1  0  0  0
  9 43  1  0  0  0
 10 44  1  0  0  0
 10 45  1  0  0  0
 10 46  1  0  0  0
 11 47  1  0  0  0
 12 48  1  0  0  0
 13 49  1  0  0  0
 14 50  1  0  0  0
 14 51  1  0  0  0
 15 52  1  0  0  0
 15 53  1  0  0  0
 16 54  1  0  0  0
 16 55  1  0  0  0
 17 56  1  0  0  0
 18 57  1  0  0  0
 22 58  1  0  0  0
 27 59  1  0  0  0
 28 60  1  0  0  0
M  END
$$$$
