5ygi_ligand
  -I-interpret- 

 45 45  0  0  0  0  0  0  0  0999 V2000
  -14.3430   35.5540  -10.3840 O   0  0  0  0  0
  -15.3720   35.5590   -9.2800 P   0  0  0  0  0
  -15.2310   36.7720   -8.3770 O   0  0  0  0  0
  -16.7210   35.5990   -9.9300 O   0  0  0  0  0
  -15.1750   34.0110   -8.3200 C   0  0  0  0  0
  -16.3720   34.0630   -6.9120 P   0  0  0  0  0
  -16.1310   35.2600   -6.0290 O   0  0  0  0  0
  -16.2420   32.7720   -6.1190 O   0  0  0  0  0
  -17.7400   34.1570   -7.5380 O   0  0  0  0  0
  -15.4750   32.9080   -9.2400 N   0  0  0  0  0
  -15.1200   31.5650   -8.8770 C   0  0  0  0  0
  -14.0660   31.3960   -8.0420 N   0  0  0  0  0
  -13.7330   30.1370   -7.6790 C   0  0  0  0  0
  -14.4440   29.0500   -8.1610 C   0  0  0  0  0
  -15.4820   29.2150   -9.0100 C   0  0  0  0  0
  -16.1440   28.0560   -9.4660 O   0  0  0  0  0
  -17.2980   28.1660  -10.2300 C   0  0  0  0  0
  -17.8040   26.7540  -10.4760 C   0  0  0  0  0
  -19.1230   26.7960  -11.2450 C   0  0  0  0  0
  -19.6990   25.3720  -11.2510 C   0  0  0  0  0
  -19.1390   24.6070  -12.4300 C   0  0  0  0  0
  -20.1050   23.4800  -12.7460 C   0  0  0  0  0
  -15.8370   30.4700   -9.3810 C   0  0  0  0  0
  -13.4635   35.5286  -10.0000 H   0  0  0  0  0
  -14.3690   36.7567   -7.9547 H   0  0  0  0  0
  -14.1719   33.8841   -7.9129 H   0  0  0  0  0
  -16.3991   32.0239   -6.6997 H   0  0  0  0  0
  -17.8872   33.3920   -8.0989 H   0  0  0  0  0
  -15.9330   33.0942  -10.1321 H   0  0  0  0  0
  -12.8960   29.9754   -6.9997 H   0  0  0  0  0
  -14.1611   28.0444   -7.8499 H   0  0  0  0  0
  -17.0895   28.6709  -11.1733 H   0  0  0  0  0
  -18.0496   28.7601   -9.7102 H   0  0  0  0  0
  -17.9639   26.2592   -9.5180 H   0  0  0  0  0
  -17.0657   26.2062  -11.0616 H   0  0  0  0  0
  -18.9591   27.1454  -12.2644 H   0  0  0  0  0
  -19.8194   27.4871  -10.7701 H   0  0  0  0  0
  -20.7850   25.4195  -11.3312 H   0  0  0  0  0
  -19.4252   24.8652  -10.3256 H   0  0  0  0  0
  -18.1536   24.2074  -12.1907 H   0  0  0  0  0
  -19.0272   25.2649  -13.2918 H   0  0  0  0  0
  -20.1966   22.8275  -11.8777 H   0  0  0  0  0
  -21.0810   23.8981  -12.9924 H   0  0  0  0  0
  -19.7288   22.9078  -13.5940 H   0  0  0  0  0
  -16.6716   30.6263  -10.0644 H   0  0  0  0  0
  1  2  1  0  0  0
  2  3  1  0  0  0
  2  4  2  0  0  0
  2  5  1  0  0  0
  5  6  1  0  0  0
  5 10  1  0  0  0
  6  7  2  0  0  0
  6  8  1  0  0  0
  6  9  1  0  0  0
 10 11  1  0  0  0
 11 12  4  0  0  0
 11 23  4  0  0  0
 12 13  4  0  0  0
 13 14  4  0  0  0
 14 15  4  0  0  0
 15 16  1  0  0  0
 15 23  4  0  0  0
 16 17  1  0  0  0
 17 18  1  0  0  0
 18 19  1  0  0  0
 19 20  1  0  0  0
 20 21  1  0  0  0
 21 22  1  0  0  0
  1 24  1  0  0  0
  3 25  1  0  0  0
  5 26  1  0  0  0
  8 27  1  0  0  0
  9 28  1  0  0  0
 10 29  1  0  0  0
 13 30  1  0  0  0
 14 31  1  0  0  0
 17 32  1  0  0  0
 17 33  1  0  0  0
 18 34  1  0  0  0
 18 35  1  0  0  0
 19 36  1  0  0  0
 19 37  1  0  0  0
 20 38  1  0  0  0
 20 39  1  0  0  0
 21 40  1  0  0  0
 21 41  1  0  0  0
 22 42  1  0  0  0
 22 43  1  0  0  0
 22 44  1  0  0  0
 23 45  1  0  0  0
M  END
$$$$
