### 
### Created by X-TOOL on Mon Aug  2 16:12:21 2021
### 

@<TRIPOS>MOLECULE
5ygi_ligand
   41    41     1     0     0
SMALL
GAST_HUCK


@<TRIPOS>ATOM
      1 O1        -14.3430   35.5540  -10.3840 O.co2     1 T93        -0.5598
      2 P2        -15.3720   35.5590   -9.2800 P.3       1 T93         0.1025
      3 O3        -15.2310   36.7720   -8.3770 O.co2     1 T93        -0.5598
      4 O4        -16.7210   35.5990   -9.9300 O.co2     1 T93        -0.5598
      5 C5        -15.1750   34.0110   -8.3200 C.3       1 T93         0.1782
      6 P6        -16.3720   34.0630   -6.9120 P.3       1 T93         0.1025
      7 O7        -16.1310   35.2600   -6.0290 O.co2     1 T93        -0.5598
      8 O8        -16.2420   32.7720   -6.1190 O.co2     1 T93        -0.5598
      9 O9        -17.7400   34.1570   -7.5380 O.co2     1 T93        -0.5598
     10 N10       -15.4750   32.9080   -9.2400 N.pl3     1 T93        -0.2800
     11 C11       -15.1200   31.5650   -8.8770 C.ar      1 T93         0.1012
     12 N12       -14.0660   31.3960   -8.0420 N.ar      1 T93        -0.3007
     13 C13       -13.7330   30.1370   -7.6790 C.ar      1 T93        -0.0143
     14 C14       -14.4440   29.0500   -8.1610 C.ar      1 T93        -0.0192
     15 C15       -15.4820   29.2150   -9.0100 C.ar      1 T93         0.0995
     16 O16       -16.1440   28.0560   -9.4660 O.3       1 T93        -0.3118
     17 C17       -17.2980   28.1660  -10.2300 C.3       1 T93         0.0730
     18 C18       -17.8040   26.7540  -10.4760 C.3       1 T93        -0.0246
     19 C19       -19.1230   26.7960  -11.2450 C.3       1 T93        -0.0506
     20 C20       -19.6990   25.3720  -11.2510 C.3       1 T93        -0.0532
     21 C21       -19.1390   24.6070  -12.4300 C.3       1 T93        -0.0559
     22 C22       -20.1050   23.4800  -12.7460 C.3       1 T93        -0.0653
     23 C23       -15.8370   30.4700   -9.3810 C.ar      1 T93         0.0103
     24 H1        -14.1488   33.9154   -7.9357 H         1 T93         0.0946
     25 H2        -15.9375   33.0961  -10.1409 H         1 T93         0.1827
     26 H3        -12.9006   29.9763   -7.0034 H         1 T93         0.0748
     27 H4        -14.1627   28.0499   -7.8516 H         1 T93         0.0531
     28 H5        -17.0719   28.6584  -11.1873 H         1 T93         0.0619
     29 H6        -18.0561   28.7498   -9.6874 H         1 T93         0.0619
     30 H7        -17.9615   26.2505   -9.5108 H         1 T93         0.0291
     31 H8        -17.0584   26.1973  -11.0626 H         1 T93         0.0291
     32 H9        -18.9457   27.1338  -12.2767 H         1 T93         0.0266
     33 H10       -19.8249   27.4830  -10.7497 H         1 T93         0.0266
     34 H11       -20.7949   25.4200  -11.3321 H         1 T93         0.0265
     35 H12       -19.4225   24.8606  -10.3172 H         1 T93         0.0265
     36 H13       -18.1518   24.1944  -12.1748 H         1 T93         0.0263
     37 H14       -19.0439   25.2743  -13.2993 H         1 T93         0.0263
     38 H15       -19.7264   22.9017  -13.6017 H         1 T93         0.0230
     39 H16       -21.0904   23.9007  -12.9949 H         1 T93         0.0230
     40 H17       -20.1983   22.8207  -11.8705 H         1 T93         0.0230
     41 H18       -16.6670   30.6255  -10.0606 H         1 T93         0.0522
@<TRIPOS>BOND
     1    1    2 ar 
     2    2    3 ar 
     3    2    4 ar 
     4    2    5 1  
     5    5    6 1  
     6    5   10 1  
     7    6    7 ar 
     8    6    8 ar 
     9    6    9 ar 
    10   10   11 1  
    11   11   12 ar 
    12   11   23 ar 
    13   12   13 ar 
    14   13   14 ar 
    15   14   15 ar 
    16   15   16 1  
    17   15   23 ar 
    18   16   17 1  
    19   17   18 1  
    20   18   19 1  
    21   19   20 1  
    22   20   21 1  
    23   21   22 1  
    24    5   24 1  
    25   10   25 1  
    26   13   26 1  
    27   14   27 1  
    28   17   28 1  
    29   17   29 1  
    30   18   30 1  
    31   18   31 1  
    32   19   32 1  
    33   19   33 1  
    34   20   34 1  
    35   20   35 1  
    36   21   36 1  
    37   21   37 1  
    38   22   38 1  
    39   22   39 1  
    40   22   40 1  
    41   23   41 1  
@<TRIPOS>SUBSTRUCTURE
     1 T93         1

