4f64_ligand
  -I-interpret- 

 45 47  0  0  0  0  0  0  0  0999 V2000
   90.5280    2.7210   15.8220 C   0  0  0  0  0
   89.4190    1.9150   15.3640 O   0  0  0  0  0
   88.8240    2.5830   14.2340 C   0  0  0  0  0
   88.0610    1.5670   13.3700 C   0  0  0  0  0
   89.0930    1.0000   12.3960 C   0  0  0  0  0
   88.4990    0.4590   11.1240 C   0  0  0  0  0
   87.5450    1.0550   10.2820 C   0  0  0  0  0
   87.3430    0.2080    9.2400 C   0  0  0  0  0
   86.5070    0.2720    8.1460 N   0  0  0  0  0
   85.6680    1.3410    7.9020 C   0  0  0  0  0
   85.6120    2.4020    8.6950 N   0  0  0  0  0
   84.7930    3.4240    8.4150 C   0  0  0  0  0
   84.7100    4.5440    9.2420 N   0  0  0  0  0
   85.6690    4.8140   10.3160 C   0  0  0  0  0
   85.1610    4.1830   11.5820 C   0  0  0  0  0
   84.0730    3.3770   11.7630 C   0  0  0  0  0
   84.0880    3.0500   13.1570 C   0  0  0  0  0
   83.1130    2.1980   13.9280 C   0  0  0  0  0
   85.1310    3.6480   13.6470 N   0  0  0  0  0
   85.7300    4.2850   12.7840 O   0  0  0  0  0
   84.0250    3.4130    7.3420 N   0  0  0  0  0
   84.0380    2.3890    6.4950 C   0  0  0  0  0
   84.8750    1.3070    6.7560 C   0  0  0  0  0
   84.9670   -0.1760    5.5540 Br  0  0  0  0  0
   88.1260   -0.8340    9.4390 N   0  0  0  0  0
   88.8480   -0.6760   10.6030 N   0  0  0  0  0
   91.2563    2.8252   15.0177 H   0  0  0  0  0
   90.1635    3.7060   16.1138 H   0  0  0  0  0
   90.9975    2.2375   16.6787 H   0  0  0  0  0
   89.6084    3.0469   13.6360 H   0  0  0  0  0
   88.1308    3.3450   14.5903 H   0  0  0  0  0
   87.2305    2.0362   12.8425 H   0  0  0  0  0
   87.6141    0.7815   13.9793 H   0  0  0  0  0
   89.5917    0.1713   12.8987 H   0  0  0  0  0
   89.7607    1.8162   12.1202 H   0  0  0  0  0
   87.0579    2.0178   10.4364 H   0  0  0  0  0
   86.5082   -0.5061    7.4864 H   0  0  0  0  0
   83.9474    5.2047    9.0923 H   0  0  0  0  0
   85.7775    5.8896   10.4550 H   0  0  0  0  0
   86.6424    4.3969   10.0580 H   0  0  0  0  0
   83.3523    3.0540   11.0118 H   0  0  0  0  0
   82.1166    2.6342   13.8577 H   0  0  0  0  0
   83.1010    1.1919   13.5087 H   0  0  0  0  0
   83.4187    2.1538   14.9733 H   0  0  0  0  0
   83.4029    2.3959    5.6091 H   0  0  0  0  0
  1  2  1  0  0  0
  2  3  1  0  0  0
  3  4  1  0  0  0
  4  5  1  0  0  0
  5  6  1  0  0  0
  6  7  4  0  0  0
  6 26  4  0  0  0
  7  8  4  0  0  0
  8  9  1  0  0  0
  8 25  4  0  0  0
  9 10  1  0  0  0
 10 11  4  0  0  0
 10 23  4  0  0  0
 11 12  4  0  0  0
 12 13  1  0  0  0
 12 21  4  0  0  0
 13 14  1  0  0  0
 14 15  1  0  0  0
 15 16  4  0  0  0
 15 20  4  0  0  0
 16 17  4  0  0  0
 17 18  1  0  0  0
 17 19  4  0  0  0
 19 20  4  0  0  0
 21 22  4  0  0  0
 22 23  4  0  0  0
 23 24  1  0  0  0
 25 26  4  0  0  0
  1 27  1  0  0  0
  1 28  1  0  0  0
  1 29  1  0  0  0
  3 30  1  0  0  0
  3 31  1  0  0  0
  4 32  1  0  0  0
  4 33  1  0  0  0
  5 34  1  0  0  0
  5 35  1  0  0  0
  7 36  1  0  0  0
  9 37  1  0  0  0
 13 38  1  0  0  0
 14 39  1  0  0  0
 14 40  1  0  0  0
 16 41  1  0  0  0
 18 42  1  0  0  0
 18 43  1  0  0  0
 18 44  1  0  0  0
 22 45  1  0  0  0
M  END
$$$$
