5f2k_ligand
  -I-interpret- 

 47 49  0  0  0  0  0  0  0  0999 V2000
  -21.5560   -3.2870  -31.9000 N   0  3  0  0  0
  -20.4620   -2.8150  -31.0380 C   0  0  0  0  0
  -19.2570   -3.7670  -31.1360 C   0  0  0  0  0
  -18.5490   -3.7510  -32.4970 C   0  0  0  0  0
  -16.9770   -4.5730  -32.3800 S   0  0  0  0  0
  -20.0970   -1.3890  -31.3530 C   0  0  0  0  0
  -20.7280   -0.7300  -32.1850 O   0  0  0  0  0
  -19.1600   -0.8350  -30.7660 O   0  0  0  0  0
  -17.1090   -5.8240  -33.6230 C   0  0  0  0  0
  -17.7520   -7.0990  -33.0730 C   0  0  0  0  0
  -18.1890   -7.9250  -34.1630 O   0  0  0  0  0
  -16.7660   -7.9340  -32.2510 C   0  0  0  0  0
  -17.3040   -8.2520  -30.9620 O   0  0  0  0  0
  -16.5930   -9.1970  -33.0720 C   0  0  0  0  0
  -16.2890  -10.3620  -32.2970 O   0  0  0  0  0
  -17.9440   -9.2680  -33.7720 C   0  0  0  0  0
  -17.9140  -10.2110  -34.9050 N   0  0  0  0  0
  -17.0110  -10.2770  -35.9010 C   0  0  0  0  0
  -17.3100  -11.3000  -36.7430 N   0  0  0  0  0
  -18.4130  -11.9040  -36.2630 C   0  0  0  0  0
  -19.2670  -13.0410  -36.6520 C   0  0  0  0  0
  -18.9730  -13.7680  -37.7520 N   0  0  0  0  0
  -20.3390  -13.3260  -35.8700 N   0  0  0  0  0
  -20.6360  -12.6170  -34.7650 C   0  0  0  0  0
  -19.9000  -11.5680  -34.3540 N   0  0  0  0  0
  -18.8060  -11.1780  -35.0530 C   0  0  0  0  0
  -21.7805   -4.2535  -31.6638 H   0  0  0  0  0
  -22.3781   -2.7007  -31.7557 H   0  0  0  0  0
  -21.2655   -3.2330  -32.8763 H   0  0  0  0  0
  -20.8015   -2.8243  -30.0023 H   0  0  0  0  0
  -19.6337   -4.7782  -30.9823 H   0  0  0  0  0
  -18.5297   -3.4415  -30.3922 H   0  0  0  0  0
  -18.3895   -2.7175  -32.8044 H   0  0  0  0  0
  -19.1693   -4.2692  -33.2283 H   0  0  0  0  0
  -18.7581   -1.4537  -30.1518 H   0  0  0  0  0
  -16.1063   -6.0678  -33.9740 H   0  0  0  0  0
  -17.7351   -5.4430  -34.4299 H   0  0  0  0  0
  -18.5808   -6.7855  -32.4382 H   0  0  0  0  0
  -15.8299   -7.4070  -32.0665 H   0  0  0  0  0
  -16.6661   -8.7744  -30.4703 H   0  0  0  0  0
  -15.7380   -9.1674  -33.7475 H   0  0  0  0  0
  -16.1942  -11.1178  -32.8812 H   0  0  0  0  0
  -18.7426   -9.6514  -33.1370 H   0  0  0  0  0
  -16.1605   -9.6049  -36.0156 H   0  0  0  0  0
  -18.1575  -13.5310  -38.3170 H   0  0  0  0  0
  -19.5665  -14.5539  -38.0176 H   0  0  0  0  0
  -21.5088  -12.9045  -34.1788 H   0  0  0  0  0
  1  2  1  0  0  0
  2  3  1  0  0  0
  2  6  1  0  0  0
  3  4  1  0  0  0
  4  5  1  0  0  0
  5  9  1  0  0  0
  6  7  2  0  0  0
  6  8  1  0  0  0
  9 10  1  0  0  0
 10 11  1  0  0  0
 10 12  1  0  0  0
 11 16  1  0  0  0
 12 13  1  0  0  0
 12 14  1  0  0  0
 14 15  1  0  0  0
 14 16  1  0  0  0
 16 17  1  0  0  0
 17 18  4  0  0  0
 17 26  4  0  0  0
 18 19  4  0  0  0
 19 20  4  0  0  0
 20 21  4  0  0  0
 20 26  4  0  0  0
 21 22  1  0  0  0
 21 23  4  0  0  0
 23 24  4  0  0  0
 24 25  4  0  0  0
 25 26  4  0  0  0
  1 27  1  0  0  0
  1 28  1  0  0  0
  1 29  1  0  0  0
  2 30  1  0  0  0
  3 31  1  0  0  0
  3 32  1  0  0  0
  4 33  1  0  0  0
  4 34  1  0  0  0
  8 35  1  0  0  0
  9 36  1  0  0  0
  9 37  1  0  0  0
 10 38  1  0  0  0
 12 39  1  0  0  0
 13 40  1  0  0  0
 14 41  1  0  0  0
 15 42  1  0  0  0
 16 43  1  0  0  0
 18 44  1  0  0  0
 22 45  1  0  0  0
 22 46  1  0  0  0
 24 47  1  0  0  0
M  END
$$$$
