3qce_ligand
  -I-interpret- 

 26 27  0  0  0  0  0  0  0  0999 V2000
   34.0480   54.6640   79.0750 C   0  0  0  0  0
   34.5230   53.3640   78.5930 C   0  0  0  0  0
   33.5910   56.0440   78.0990 S   0  0  0  0  0
   34.1320   54.4270   80.3690 C   0  0  0  0  0
   34.9730   52.2960   79.9730 S   0  0  0  0  0
   34.6050   52.9900   77.1630 C   0  0  0  0  0
   32.7530   57.1120   79.2960 C   0  0  0  0  0
   34.4870   53.4840   81.2210 C   0  0  0  0  0
   34.9220   51.8130   76.8930 O   0  0  0  0  0
   34.3580   53.8380   76.2810 O   0  0  0  0  0
   31.9300   58.1840   78.5920 C   0  0  0  0  0
   30.5250   57.9400   78.4440 C   0  0  0  0  0
   32.5720   59.4090   78.1670 C   0  0  0  0  0
   29.7780   59.0270   77.9090 C   0  0  0  0  0
   31.8180   60.4720   77.5810 C   0  0  0  0  0
   30.4180   60.2370   77.4840 C   0  0  0  0  0
   28.0580   58.9890   77.8950 Cl  0  0  0  0  0
   29.3780   61.4820   76.8620 Cl  0  0  0  0  0
   33.7950   55.3048   80.9204 H   0  0  0  0  0
   33.5057   57.6003   79.9150 H   0  0  0  0  0
   32.0843   56.5001   79.9015 H   0  0  0  0  0
   34.4850   53.4426   82.3102 H   0  0  0  0  0
   35.0688   51.3273   77.7080 H   0  0  0  0  0
   30.0631   56.9923   78.7207 H   0  0  0  0  0
   33.6483   59.5229   78.2959 H   0  0  0  0  0
   32.2814   61.3954   77.2337 H   0  0  0  0  0
  1  2  4  0  0  0
  1  3  1  0  0  0
  1  4  4  0  0  0
  2  5  4  0  0  0
  2  6  1  0  0  0
  3  7  1  0  0  0
  4  8  4  0  0  0
  5  8  4  0  0  0
  6  9  1  0  0  0
  6 10  2  0  0  0
  7 11  1  0  0  0
 11 12  4  0  0  0
 11 13  4  0  0  0
 12 14  4  0  0  0
 13 15  4  0  0  0
 14 16  4  0  0  0
 14 17  1  0  0  0
 15 16  4  0  0  0
 16 18  1  0  0  0
  4 19  1  0  0  0
  7 20  1  0  0  0
  7 21  1  0  0  0
  8 22  1  0  0  0
  9 23  1  0  0  0
 12 24  1  0  0  0
 13 25  1  0  0  0
 15 26  1  0  0  0
M  END
$$$$
