### 
### Created by X-TOOL on Fri Nov  2 10:51:02 2018
### 

@<TRIPOS>MOLECULE
5hh5_ligand
   19    19     1     0     0
SMALL
GAST_HUCK


@<TRIPOS>ATOM
      1 C13       -20.5430   22.3790    1.8480 C.ar      1 MOL        -0.0453
      2 C14       -21.2860   22.5770    3.0510 C.ar      1 MOL        -0.0268
      3 O01       -22.1410   23.4660    5.7890 O.co2     1 MOL        -0.5572
      4 C02       -22.3800   24.1420    4.7310 C.2       1 MOL         0.0788
      5 O03       -23.3000   25.0360    4.7730 O.co2     1 MOL        -0.5572
      6 C04       -21.5850   23.9120    3.4270 C.ar      1 MOL         0.0741
      7 N05       -21.2090   24.9830    2.7180 N.ar      1 MOL        -0.2823
      8 C06       -20.4840   24.8340    1.5640 C.ar      1 MOL         0.0477
      9 C07       -20.0890   26.0110    0.7720 C.3       1 MOL         0.0689
     10 P08       -21.3470   26.4030   -0.6570 P.3       1 MOL         0.0725
     11 O09       -22.6660   26.6230    0.0620 O.co2     1 MOL        -0.5605
     12 O10       -20.8120   27.6290   -1.3930 O.co2     1 MOL        -0.5605
     13 O11       -21.2540   25.1310   -1.4740 O.co2     1 MOL        -0.5605
     14 C12       -20.1480   23.5310    1.0980 C.ar      1 MOL        -0.0286
     15 H1        -20.2849   21.3813    1.5117 H         1 MOL         0.0725
     16 H2        -21.6100   21.7375    3.6554 H         1 MOL         0.0687
     17 H3        -19.0998   25.8225    0.3293 H         1 MOL         0.0644
     18 H4        -20.0315   26.8828    1.4403 H         1 MOL         0.0644
     19 H5        -19.5927   23.4122    0.1746 H         1 MOL         0.0671
@<TRIPOS>BOND
     1    2    1 ar 
     2    1   14 ar 
     3    6    2 ar 
     4    4    3 ar 
     5    4    5 ar 
     6    4    6 1  
     7    6    7 ar 
     8    7    8 ar 
     9    8    9 1  
    10    8   14 ar 
    11    9   10 1  
    12   10   11 ar 
    13   10   12 ar 
    14   10   13 ar 
    15    1   15 1  
    16    2   16 1  
    17    9   17 1  
    18    9   18 1  
    19   14   19 1  
@<TRIPOS>SUBSTRUCTURE
     1 MOL         1

