5hh5_ligand
  -I-interpret- 

 22 22  0  0  0  0  0  0  0  0999 V2000
  -20.5430   22.3790    1.8480 C   0  0  0  0  0
  -21.2860   22.5770    3.0510 C   0  0  0  0  0
  -22.1410   23.4660    5.7890 O   0  0  0  0  0
  -22.3800   24.1420    4.7310 C   0  0  0  0  0
  -23.3000   25.0360    4.7730 O   0  0  0  0  0
  -21.5850   23.9120    3.4270 C   0  0  0  0  0
  -21.2090   24.9830    2.7180 N   0  0  0  0  0
  -20.4840   24.8340    1.5640 C   0  0  0  0  0
  -20.0890   26.0110    0.7720 C   0  0  0  0  0
  -21.3470   26.4030   -0.6570 P   0  0  0  0  0
  -22.6660   26.6230    0.0620 O   0  0  0  0  0
  -20.8120   27.6290   -1.3930 O   0  0  0  0  0
  -21.2540   25.1310   -1.4740 O   0  0  0  0  0
  -20.1480   23.5310    1.0980 C   0  0  0  0  0
  -20.2835   21.3758    1.5099 H   0  0  0  0  0
  -21.6118   21.7328    3.6587 H   0  0  0  0  0
  -23.3703   25.4617    3.9154 H   0  0  0  0  0
  -19.1200   25.8017    0.3189 H   0  0  0  0  0
  -20.0602   26.8717    1.4402 H   0  0  0  0  0
  -22.6294   27.4491    0.5496 H   0  0  0  0  0
  -20.8963   28.4014   -0.8291 H   0  0  0  0  0
  -19.5897   23.4116    0.1695 H   0  0  0  0  0
  2  1  4  0  0  0
  1 14  4  0  0  0
  6  2  4  0  0  0
  4  3  2  0  0  0
  4  5  1  0  0  0
  4  6  1  0  0  0
  6  7  4  0  0  0
  7  8  4  0  0  0
  8  9  1  0  0  0
  8 14  4  0  0  0
  9 10  1  0  0  0
 10 11  1  0  0  0
 10 12  1  0  0  0
 10 13  2  0  0  0
  1 15  1  0  0  0
  2 16  1  0  0  0
  5 17  1  0  0  0
  9 18  1  0  0  0
  9 19  1  0  0  0
 11 20  1  0  0  0
 12 21  1  0  0  0
 14 22  1  0  0  0
M  END
$$$$
