4hdb_ligand
  -I-interpret- 

 82 86  0  0  0  0  0  0  0  0999 V2000
   21.0300   27.6650   14.9000 C   0  0  0  0  0
   19.6840   27.5730   14.5350 C   0  0  0  0  0
   18.9260   26.4450   14.8310 C   0  0  0  0  0
   19.5160   25.3650   15.4860 C   0  0  0  0  0
   20.8560   25.4570   15.8230 C   0  0  0  0  0
   21.6360   26.5720   15.5270 C   0  0  0  0  0
   18.5630   23.9480   15.9080 S   0  0  0  0  0
   17.4960   23.7720   14.8800 O   0  0  0  0  0
   19.4570   22.7590   16.0020 O   0  0  0  0  0
   17.8480   24.1840   17.3650 N   0  0  0  0  0
   18.7450   24.5520   18.4410 C   0  0  0  0  0
   18.4390   23.8320   19.7640 C   0  0  0  0  0
   18.6640   22.3150   19.6690 C   0  0  0  0  0
   19.3600   24.3830   20.8690 C   0  0  0  0  0
   16.5980   24.9440   17.3420 C   0  0  0  0  0
   15.4440   24.0910   17.8700 C   0  0  0  0  0
   14.2780   24.8730   18.1490 O   0  0  0  0  0
   15.1030   22.9320   16.9310 C   0  0  0  0  0
   14.1910   22.0130   17.6170 N   0  0  0  0  0
   14.4620   20.7510   17.9680 C   0  0  0  0  0
   15.5690   20.2320   17.7750 O   0  0  0  0  0
   13.4200   20.0860   18.5320 O   0  0  0  0  0
   13.6860   18.7060   18.8020 C   0  0  0  0  0
   13.2260   18.4400   20.2390 C   0  0  0  0  0
   11.7990   18.2870   20.1790 O   0  0  0  0  0
   11.4400   17.9360   18.8510 C   0  0  0  0  0
   10.6480   18.9880   18.3130 O   0  0  0  0  0
   11.1070   19.4040   17.0490 C   0  0  0  0  0
   12.2810   18.5060   16.6670 C   0  0  0  0  0
   12.6860   17.8570   17.9990 C   0  0  0  0  0
   14.3960   23.4360   15.6700 C   0  0  0  0  0
   12.7630   21.8300   14.5840 C   0  0  0  0  0
   12.4740   20.7440   13.7590 C   0  0  0  0  0
   13.4950   20.0750   13.0810 C   0  0  0  0  0
   14.8010   20.5450   13.2060 C   0  0  0  0  0
   15.0930   21.6200   14.0500 C   0  0  0  0  0
   14.0750   22.2560   14.7450 C   0  0  0  0  0
   21.6940   28.8250   14.6730 O   0  0  0  0  0
   23.0730   28.7310   15.0370 C   0  0  0  0  0
   10.0890   19.1310   16.0790 O   0  0  0  0  0
   10.1530   17.7140   15.8480 C   0  0  0  0  0
   11.6560   17.4990   15.7010 C   0  0  0  0  0
   19.2176   28.4043   14.0063 H   0  0  0  0  0
   17.8732   26.4055   14.5515 H   0  0  0  0  0
   21.3209   24.6194   16.3431 H   0  0  0  0  0
   22.6963   26.5922   15.7787 H   0  0  0  0  0
   18.6285   25.6218   18.6145 H   0  0  0  0  0
   19.7536   24.2698   18.1390 H   0  0  0  0  0
   17.3884   24.0114   19.9926 H   0  0  0  0  0
   18.0127   21.8998   18.8999 H   0  0  0  0  0
   19.7045   22.1188   19.4104 H   0  0  0  0  0
   18.4338   21.8540   20.6295 H   0  0  0  0  0
   20.4002   24.2118   20.5920 H   0  0  0  0  0
   19.1851   25.4525   20.9862 H   0  0  0  0  0
   19.1440   23.8732   21.8079 H   0  0  0  0  0
   16.3806   25.2379   16.3151 H   0  0  0  0  0
   16.7067   25.8244   17.9754 H   0  0  0  0  0
   15.7921   23.6642   18.8106 H   0  0  0  0  0
   13.5808   24.3002   18.4769 H   0  0  0  0  0
   16.0328   22.4361   16.6523 H   0  0  0  0  0
   13.2634   22.3686   17.8484 H   0  0  0  0  0
   14.7329   18.4861   18.5927 H   0  0  0  0  0
   13.5066   19.2597   20.9003 H   0  0  0  0  0
   13.7010   17.5471   20.6455 H   0  0  0  0  0
   10.9097   16.9837   18.8576 H   0  0  0  0  0
   11.3705   20.4613   17.0780 H   0  0  0  0  0
   13.1501   18.9746   16.2053 H   0  0  0  0  0
   13.1056   16.8730   17.7895 H   0  0  0  0  0
   15.0483   24.1356   15.1473 H   0  0  0  0  0
   13.4685   23.9341   15.9525 H   0  0  0  0  0
   11.9565   22.3465   15.1044 H   0  0  0  0  0
   11.4417   20.4142   13.6422 H   0  0  0  0  0
   13.2749   19.2023   12.4661 H   0  0  0  0  0
   15.6023   20.0697   12.6402 H   0  0  0  0  0
   16.1227   21.9593   14.1623 H   0  0  0  0  0
   23.1521   28.4942   16.0980 H   0  0  0  0  0
   23.5492   27.9446   14.4514 H   0  0  0  0  0
   23.5656   29.6828   14.8382 H   0  0  0  0  0
    9.5780   17.3861   14.9820 H   0  0  0  0  0
    9.7026   17.1208   16.6438 H   0  0  0  0  0
   11.9475   16.4745   15.9326 H   0  0  0  0  0
   11.9930   17.6520   14.6757 H   0  0  0  0  0
  2  1  4  0  0  0
  6  1  4  0  0  0
  1 38  1  0  0  0
  3  2  4  0  0  0
  4  3  4  0  0  0
  4  5  4  0  0  0
  7  4  1  0  0  0
  5  6  4  0  0  0
  7  8  2  0  0  0
  7  9  2  0  0  0
 10  7  1  0  0  0
 10 11  1  0  0  0
 15 10  1  0  0  0
 11 12  1  0  0  0
 12 13  1  0  0  0
 12 14  1  0  0  0
 16 15  1  0  0  0
 16 17  1  0  0  0
 18 16  1  0  0  0
 18 19  1  0  0  0
 31 18  1  0  0  0
 19 20  1  0  0  0
 20 21  2  0  0  0
 20 22  1  0  0  0
 22 23  1  0  0  0
 23 24  1  0  0  0
 23 30  1  0  0  0
 24 25  1  0  0  0
 26 25  1  0  0  0
 26 27  1  0  0  0
 30 26  1  0  0  0
 28 27  1  0  0  0
 29 28  1  0  0  0
 28 40  1  0  0  0
 30 29  1  0  0  0
 29 42  1  0  0  0
 37 31  1  0  0  0
 32 33  4  0  0  0
 32 37  4  0  0  0
 33 34  4  0  0  0
 34 35  4  0  0  0
 35 36  4  0  0  0
 36 37  4  0  0  0
 38 39  1  0  0  0
 40 41  1  0  0  0
 41 42  1  0  0  0
  2 43  1  0  0  0
  3 44  1  0  0  0
  5 45  1  0  0  0
  6 46  1  0  0  0
 11 47  1  0  0  0
 11 48  1  0  0  0
 12 49  1  0  0  0
 13 50  1  0  0  0
 13 51  1  0  0  0
 13 52  1  0  0  0
 14 53  1  0  0  0
 14 54  1  0  0  0
 14 55  1  0  0  0
 15 56  1  0  0  0
 15 57  1  0  0  0
 16 58  1  0  0  0
 17 59  1  0  0  0
 18 60  1  0  0  0
 19 61  1  0  0  0
 23 62  1  0  0  0
 24 63  1  0  0  0
 24 64  1  0  0  0
 26 65  1  0  0  0
 28 66  1  0  0  0
 29 67  1  0  0  0
 30 68  1  0  0  0
 31 69  1  0  0  0
 31 70  1  0  0  0
 32 71  1  0  0  0
 33 72  1  0  0  0
 34 73  1  0  0  0
 35 74  1  0  0  0
 36 75  1  0  0  0
 39 76  1  0  0  0
 39 77  1  0  0  0
 39 78  1  0  0  0
 41 79  1  0  0  0
 41 80  1  0  0  0
 42 81  1  0  0  0
 42 82  1  0  0  0
M  END
$$$$
