2ao6_ligand
  -I-interpret- 

 45 48  0  0  0  0  0  0  0  0999 V2000
   27.2230    5.6740    3.6940 C   0  0  0  0  0
   26.3530    6.8180    4.2060 C   0  0  0  0  0
   24.8960    6.6830    3.7900 C   0  0  0  0  0
   24.3220    5.3580    3.9950 C   0  0  0  0  0
   25.0940    4.2280    4.0720 C   0  0  0  0  0
   24.3940    2.8690    4.3110 C   0  0  0  0  0
   25.1900    1.7150    3.7000 C   0  0  0  0  0
   26.6350    1.7090    4.2960 C   0  0  0  0  0
   27.3540    3.0980    4.0390 C   0  0  0  0  0
   26.6080    4.2590    3.9420 C   0  0  0  0  0
   28.8360    3.0620    3.9340 C   0  0  0  0  0
   29.5820    1.9280    4.0330 C   0  0  0  0  0
   28.9390    0.5400    4.2460 C   0  0  0  0  0
   27.4720    0.5830    3.6920 C   0  0  0  0  0
   26.9510   -0.8690    3.8880 C   0  0  0  0  0
   28.2610   -1.6930    3.7160 C   0  0  0  0  0
   29.4430   -0.6890    3.4440 C   0  0  0  0  0
   28.9380    0.2760    5.8040 C   0  0  0  0  0
   29.5480   -0.4410    1.9370 C   0  0  0  0  0
   24.2400    7.6200    3.3440 O   0  0  0  0  0
   30.6520   -1.2580    3.9540 O   0  0  0  0  0
   28.1695    5.7174    4.2329 H   0  0  0  0  0
   27.3270    5.8003    2.6163 H   0  0  0  0  0
   26.7369    7.7453    3.7806 H   0  0  0  0  0
   26.3916    6.8048    5.2952 H   0  0  0  0  0
   23.2404    5.2629    4.0904 H   0  0  0  0  0
   23.4114    2.8987    3.8402 H   0  0  0  0  0
   24.3161    2.7045    5.3857 H   0  0  0  0  0
   25.2426    1.8412    2.6186 H   0  0  0  0  0
   24.6971    0.7705    3.9303 H   0  0  0  0  0
   26.5468    1.5454    5.3700 H   0  0  0  0  0
   29.3588    4.0038    3.7671 H   0  0  0  0  0
   30.6670    2.0017    3.9597 H   0  0  0  0  0
   27.4091    0.8530    2.6378 H   0  0  0  0  0
   26.1637   -1.1489    3.1881 H   0  0  0  0  0
   26.4561   -1.0301    4.8457 H   0  0  0  0  0
   28.1598   -2.3870    2.8816 H   0  0  0  0  0
   28.4609   -2.2709    4.6183 H   0  0  0  0  0
   29.9630    0.2906    6.1744 H   0  0  0  0  0
   28.3590    1.0534    6.3026 H   0  0  0  0  0
   28.4912   -0.6975    6.0060 H   0  0  0  0  0
   28.5660   -0.1774    1.5442 H   0  0  0  0  0
   30.2458    0.3757    1.7522 H   0  0  0  0  0
   29.9066   -1.3453    1.4454 H   0  0  0  0  0
   30.9039   -2.0097    3.4126 H   0  0  0  0  0
  1  2  1  0  0  0
  1 10  1  0  0  0
  2  3  1  0  0  0
  3  4  1  0  0  0
  3 20  2  0  0  0
  4  5  2  0  0  0
  5  6  1  0  0  0
  5 10  1  0  0  0
  6  7  1  0  0  0
  7  8  1  0  0  0
  8  9  1  0  0  0
  8 14  1  0  0  0
  9 10  2  0  0  0
  9 11  1  0  0  0
 11 12  2  0  0  0
 12 13  1  0  0  0
 13 14  1  0  0  0
 13 17  1  0  0  0
 13 18  1  0  0  0
 14 15  1  0  0  0
 15 16  1  0  0  0
 16 17  1  0  0  0
 17 19  1  0  0  0
 17 21  1  0  0  0
  1 22  1  0  0  0
  1 23  1  0  0  0
  2 24  1  0  0  0
  2 25  1  0  0  0
  4 26  1  0  0  0
  6 27  1  0  0  0
  6 28  1  0  0  0
  7 29  1  0  0  0
  7 30  1  0  0  0
  8 31  1  0  0  0
 11 32  1  0  0  0
 12 33  1  0  0  0
 14 34  1  0  0  0
 15 35  1  0  0  0
 15 36  1  0  0  0
 16 37  1  0  0  0
 16 38  1  0  0  0
 18 39  1  0  0  0
 18 40  1  0  0  0
 18 41  1  0  0  0
 19 42  1  0  0  0
 19 43  1  0  0  0
 19 44  1  0  0  0
 21 45  1  0  0  0
M  END
$$$$
