2xef_ligand
  -I-interpret- 

122123  0  0  0  0  0  0  0  0999 V2000
   13.6780   48.5550   40.4320 O   0  0  0  0  0
   13.7100   47.3180   40.1820 C   0  0  0  0  0
   12.9160   46.7110   39.4310 O   0  0  0  0  0
   14.8640   46.5160   40.8210 C   0  0  0  0  0
   14.6130   45.0040   41.0280 C   0  0  0  0  0
   15.9530   44.2980   41.3870 C   0  0  0  0  0
   16.9260   44.4800   40.1820 C   0  0  0  0  0
   16.8290   43.6820   39.2200 O   0  0  0  0  0
   17.8310   45.3600   40.2180 O   0  0  0  0  0
   16.6050   44.9270   42.5620 N   0  0  0  0  0
   17.8670   44.5470   42.8730 C   0  0  0  0  0
   18.3030   43.4720   42.4230 O   0  0  0  0  0
   18.5170   45.3040   43.7580 N   0  0  0  0  0
   19.8540   44.9550   44.2150 C   0  0  0  0  0
   20.0470   45.6070   45.5870 C   0  0  0  0  0
   20.6410   44.9100   46.4450 O   0  0  0  0  0
   19.5110   46.7230   45.7860 O   0  0  0  0  0
   20.7270   45.6880   43.1890 C   0  0  0  0  0
   22.2140   45.3450   43.1670 C   0  0  0  0  0
   22.7530   46.1600   41.9810 C   0  0  0  0  0
   24.1760   45.7860   41.5860 C   0  0  0  0  0
   24.6640   46.7580   40.5820 N   0  0  0  0  0
   24.9100   48.0490   40.8200 C   0  0  0  0  0
   24.9000   46.4700   39.3960 N   0  0  0  0  0
   25.2980   47.4730   38.7760 N   0  0  0  0  0
   25.3180   48.4970   39.6360 C   0  0  0  0  0
   25.7160   49.8140   39.3400 C   0  0  0  0  0
   24.8670   50.9660   39.6180 O   0  0  0  0  0
   25.5780   52.0450   40.2580 C   0  0  0  0  0
   25.2060   52.2120   41.7450 C   0  0  0  0  0
   25.2280   53.5980   42.1700 O   0  0  0  0  0
   26.5500   53.9950   42.5860 C   0  0  0  0  0
   27.0290   55.2170   41.8030 C   0  0  0  0  0
   27.9940   55.9200   42.6180 O   0  0  0  0  0
   29.1800   56.2430   41.8270 C   0  0  0  0  0
   29.5210   57.7510   41.9710 C   0  0  0  0  0
   29.9510   57.9940   43.3550 O   0  0  0  0  0
   29.3900   59.2770   43.8130 C   0  0  0  0  0
   28.3590   59.1040   44.9820 C   0  0  0  0  0
   27.2840   58.2190   44.5910 O   0  0  0  0  0
   26.1090   58.9570   44.0750 C   0  0  0  0  0
   25.2120   58.0390   43.2250 C   0  0  0  0  0
   23.9380   57.5710   43.8790 O   0  0  0  0  0
   24.1860   56.9210   45.1310 C   0  0  0  0  0
   23.0620   55.9480   45.4400 C   0  0  0  0  0
   23.3750   54.5230   45.4660 O   0  0  0  0  0
   24.7760   54.2090   45.4550 C   0  0  0  0  0
   25.1800   53.3100   46.6010 C   0  0  0  0  0
   26.5540   52.9360   46.4100 O   0  0  0  0  0
   27.3190   53.4180   47.5260 C   0  0  0  0  0
   28.6570   54.0450   47.1140 C   0  0  0  0  0
   29.6730   53.6210   48.0950 N   0  0  0  0  0
   31.0010   53.7140   47.9320 C   0  0  0  0  0
   31.5480   54.5880   46.9860 C   0  0  0  0  0
   32.9320   54.6830   46.8420 C   0  0  0  0  0
   33.7840   53.9150   47.6410 C   0  0  0  0  0
   35.1200   54.0020   47.4960 N   0  0  0  0  0
   35.6970   54.8660   46.5070 O   0  0  0  0  0
   36.0120   53.2200   48.3080 O   0  0  0  0  0
   33.2310   53.0480   48.5890 C   0  0  0  0  0
   31.8470   52.9370   48.7440 C   0  0  0  0  0
   31.3570   52.0880   49.6660 N   0  0  0  0  0
   29.9680   51.8380   49.7760 O   0  0  0  0  0
   32.2200   51.4110   50.5550 O   0  0  0  0  0
   14.3913   48.7770   41.0349 H   0  0  0  0  0
   15.0141   46.9382   41.8146 H   0  0  0  0  0
   15.7056   46.5931   40.1326 H   0  0  0  0  0
   14.2111   44.5742   40.1105 H   0  0  0  0  0
   13.8997   44.8626   41.8400 H   0  0  0  0  0
   15.7400   43.2524   41.6093 H   0  0  0  0  0
   17.7456   45.8724   41.0253 H   0  0  0  0  0
   16.1159   45.6266   43.1203 H   0  0  0  0  0
   18.0680   46.1445   44.1219 H   0  0  0  0  0
   20.0624   43.8882   44.2962 H   0  0  0  0  0
   20.9588   44.1022   46.0351 H   0  0  0  0  0
   20.6707   46.7440   43.4530 H   0  0  0  0  0
   20.3418   45.3979   42.2115 H   0  0  0  0  0
   22.3944   44.2758   43.0554 H   0  0  0  0  0
   22.7133   45.5911   44.1042 H   0  0  0  0  0
   22.7598   47.2084   42.2791 H   0  0  0  0  0
   22.1104   45.9573   41.1242 H   0  0  0  0  0
   24.1900   44.7810   41.1641 H   0  0  0  0  0
   24.8208   45.8076   42.4646 H   0  0  0  0  0
   24.8028   48.5998   41.7545 H   0  0  0  0  0
   25.7981   49.8159   38.2531 H   0  0  0  0  0
   26.5770   49.9708   39.9898 H   0  0  0  0  0
   25.3135   52.9688   39.7434 H   0  0  0  0  0
   26.6430   51.8188   40.2052 H   0  0  0  0  0
   25.9394   51.6663   42.3387 H   0  0  0  0  0
   24.1931   51.8338   41.8830 H   0  0  0  0  0
   27.2371   53.1697   42.3994 H   0  0  0  0  0
   26.5208   54.2490   43.6456 H   0  0  0  0  0
   26.1869   55.8687   41.5701 H   0  0  0  0  0
   27.4851   54.9067   40.8629 H   0  0  0  0  0
   28.9835   56.0186   40.7786 H   0  0  0  0  0
   30.0216   55.6496   42.1845 H   0  0  0  0  0
   28.6454   58.3572   41.7386 H   0  0  0  0  0
   30.3170   58.0232   41.2779 H   0  0  0  0  0
   28.8685   59.7336   42.9717 H   0  0  0  0  0
   30.2130   59.8899   44.1806 H   0  0  0  0  0
   27.9396   60.0795   45.2283 H   0  0  0  0  0
   28.8720   58.6753   45.8429 H   0  0  0  0  0
   26.4586   59.7798   43.4514 H   0  0  0  0  0
   25.5294   59.3276   44.9205 H   0  0  0  0  0
   25.7979   57.1430   43.0199 H   0  0  0  0  0
   24.9127   58.6236   42.3551 H   0  0  0  0  0
   24.2398   57.6705   45.9206 H   0  0  0  0  0
   25.1278   56.3753   45.0723 H   0  0  0  0  0
   22.3432   56.0708   44.6298 H   0  0  0  0  0
   22.7401   56.1912   46.4526 H   0  0  0  0  0
   25.3296   55.1431   45.5506 H   0  0  0  0  0
   24.9947   53.6848   44.5247 H   0  0  0  0  0
   24.5480   52.4222   46.6236 H   0  0  0  0  0
   25.0609   53.8333   47.5497 H   0  0  0  0  0
   27.5373   52.5661   48.1700 H   0  0  0  0  0
   26.7305   54.1901   48.0216 H   0  0  0  0  0
   28.5769   55.1319   47.0972 H   0  0  0  0  0
   28.9368   53.7170   46.1129 H   0  0  0  0  0
   29.3373   53.2231   48.9722 H   0  0  0  0  0
   30.8923   55.1947   46.3615 H   0  0  0  0  0
   33.3528   55.3618   46.1002 H   0  0  0  0  0
   33.8906   52.4492   49.2171 H   0  0  0  0  0
  1  2  1  0  0  0
  2  3  2  0  0  0
  2  4  1  0  0  0
  4  5  1  0  0  0
  5  6  1  0  0  0
  6  7  1  0  0  0
  6 10  1  0  0  0
  7  8  2  0  0  0
  7  9  1  0  0  0
 10 11  1  0  0  0
 11 12  2  0  0  0
 11 13  1  0  0  0
 13 14  1  0  0  0
 14 15  1  0  0  0
 14 18  1  0  0  0
 15 16  1  0  0  0
 15 17  2  0  0  0
 18 19  1  0  0  0
 19 20  1  0  0  0
 20 21  1  0  0  0
 21 22  1  0  0  0
 22 23  4  0  0  0
 22 24  4  0  0  0
 23 26  4  0  0  0
 24 25  4  0  0  0
 25 26  4  0  0  0
 26 27  1  0  0  0
 27 28  1  0  0  0
 28 29  1  0  0  0
 29 30  1  0  0  0
 30 31  1  0  0  0
 31 32  1  0  0  0
 32 33  1  0  0  0
 33 34  1  0  0  0
 34 35  1  0  0  0
 35 36  1  0  0  0
 36 37  1  0  0  0
 37 38  1  0  0  0
 38 39  1  0  0  0
 39 40  1  0  0  0
 40 41  1  0  0  0
 41 42  1  0  0  0
 42 43  1  0  0  0
 43 44  1  0  0  0
 44 45  1  0  0  0
 45 46  1  0  0  0
 46 47  1  0  0  0
 47 48  1  0  0  0
 48 49  1  0  0  0
 49 50  1  0  0  0
 50 51  1  0  0  0
 51 52  1  0  0  0
 52 53  1  0  0  0
 53 54  4  0  0  0
 53 61  4  0  0  0
 54 55  4  0  0  0
 55 56  4  0  0  0
 56 57  1  0  0  0
 56 60  4  0  0  0
 57 58  2  0  0  0
 57 59  2  0  0  0
 60 61  4  0  0  0
 61 62  1  0  0  0
 62 63  2  0  0  0
 62 64  2  0  0  0
  1 65  1  0  0  0
  4 66  1  0  0  0
  4 67  1  0  0  0
  5 68  1  0  0  0
  5 69  1  0  0  0
  6 70  1  0  0  0
  9 71  1  0  0  0
 10 72  1  0  0  0
 13 73  1  0  0  0
 14 74  1  0  0  0
 16 75  1  0  0  0
 18 76  1  0  0  0
 18 77  1  0  0  0
 19 78  1  0  0  0
 19 79  1  0  0  0
 20 80  1  0  0  0
 20 81  1  0  0  0
 21 82  1  0  0  0
 21 83  1  0  0  0
 23 84  1  0  0  0
 27 85  1  0  0  0
 27 86  1  0  0  0
 29 87  1  0  0  0
 29 88  1  0  0  0
 30 89  1  0  0  0
 30 90  1  0  0  0
 32 91  1  0  0  0
 32 92  1  0  0  0
 33 93  1  0  0  0
 33 94  1  0  0  0
 35 95  1  0  0  0
 35 96  1  0  0  0
 36 97  1  0  0  0
 36 98  1  0  0  0
 38 99  1  0  0  0
 38100  1  0  0  0
 39101  1  0  0  0
 39102  1  0  0  0
 41103  1  0  0  0
 41104  1  0  0  0
 42105  1  0  0  0
 42106  1  0  0  0
 44107  1  0  0  0
 44108  1  0  0  0
 45109  1  0  0  0
 45110  1  0  0  0
 47111  1  0  0  0
 47112  1  0  0  0
 48113  1  0  0  0
 48114  1  0  0  0
 50115  1  0  0  0
 50116  1  0  0  0
 51117  1  0  0  0
 51118  1  0  0  0
 52119  1  0  0  0
 54120  1  0  0  0
 55121  1  0  0  0
 60122  1  0  0  0
M  END
$$$$
