5fb7_ligand
  -I-interpret- 

 54 53  0  0  0  0  0  0  0  0999 V2000
  -29.0630   12.5390  -17.6250 C   0  0  0  0  0
  -27.9920   12.1700  -16.6410 C   0  0  0  0  0
  -27.0200   13.2810  -16.3510 C   0  0  0  0  0
  -27.4810   14.2810  -15.3270 C   0  0  0  0  0
  -27.2610   13.5840  -14.0530 C   0  0  0  0  0
  -26.3260   13.9020  -13.2020 C   0  0  0  0  0
  -25.3940   15.0340  -13.3410 C   0  0  0  0  0
  -25.9420   15.9850  -12.3600 C   0  0  0  0  0
  -25.5310   17.2210  -12.2440 C   0  0  0  0  0
  -24.4060   17.7760  -13.0710 C   0  0  0  0  0
  -24.7970   19.1320  -13.5500 C   0  0  0  0  0
  -24.4360   20.3060  -13.0700 C   0  0  0  0  0
  -23.5940   20.5120  -11.8860 C   0  0  0  0  0
  -24.1840   21.6550  -11.1070 C   0  0  0  0  0
  -23.5020   22.2940  -10.1950 C   0  0  0  0  0
  -22.1030   21.9120   -9.8200 C   0  0  0  0  0
  -21.1390   23.0370  -10.0710 C   0  0  0  0  0
  -19.8960   22.8710   -9.2360 C   0  0  0  0  0
  -18.7970   23.6700   -9.8830 C   0  0  0  0  0
  -17.9610   24.3090   -8.8230 C   0  0  0  0  0
  -29.8140   11.6280  -18.0400 O   0  0  0  0  0
  -29.1310   13.7180  -17.9770 O   0  0  0  0  0
  -27.4234   11.3474  -17.0747 H   0  0  0  0  0
  -28.4868   11.9196  -15.7026 H   0  0  0  0  0
  -26.8814   13.8280  -17.2836 H   0  0  0  0  0
  -26.1201   12.8141  -15.9506 H   0  0  0  0  0
  -28.5198   14.5791  -15.4689 H   0  0  0  0  0
  -26.9396   15.2251  -15.3883 H   0  0  0  0  0
  -27.9187   12.7512  -13.8042 H   0  0  0  0  0
  -26.2256   13.2783  -12.3137 H   0  0  0  0  0
  -25.3395   15.4335  -14.3537 H   0  0  0  0  0
  -24.3530   14.7681  -13.1575 H   0  0  0  0  0
  -26.7332   15.6402  -11.6942 H   0  0  0  0  0
  -26.0224   17.8722  -11.5211 H   0  0  0  0  0
  -24.2112   17.1224  -13.9213 H   0  0  0  0  0
  -23.4987   17.8404  -12.4703 H   0  0  0  0  0
  -25.4684   19.1566  -14.4083 H   0  0  0  0  0
  -24.7911   21.1933  -13.5941 H   0  0  0  0  0
  -22.5696   20.7395  -12.1810 H   0  0  0  0  0
  -23.5653   19.6090  -11.2762 H   0  0  0  0  0
  -25.2110   21.9590  -11.3095 H   0  0  0  0  0
  -23.9688   23.1379   -9.6870 H   0  0  0  0  0
  -21.8034   21.0584  -10.4280 H   0  0  0  0  0
  -22.0839   21.6716   -8.7570 H   0  0  0  0  0
  -21.6193   23.9783   -9.8039 H   0  0  0  0  0
  -20.8587   23.0319  -11.1243 H   0  0  0  0  0
  -19.6160   21.8191   -9.1792 H   0  0  0  0  0
  -20.0727   23.2241   -8.2200 H   0  0  0  0  0
  -19.2324   24.4412  -10.5185 H   0  0  0  0  0
  -18.1758   23.0112  -10.4897 H   0  0  0  0  0
  -18.5843   24.9678   -8.2184 H   0  0  0  0  0
  -17.5263   23.5358   -8.1896 H   0  0  0  0  0
  -17.1645   24.8881   -9.2902 H   0  0  0  0  0
  -29.5690   10.7984  -17.6237 H   0  0  0  0  0
  1  2  1  0  0  0
  1 21  1  0  0  0
  1 22  2  0  0  0
  2  3  1  0  0  0
  3  4  1  0  0  0
  4  5  1  0  0  0
  5  6  2  0  0  0
  6  7  1  0  0  0
  7  8  1  0  0  0
  8  9  2  0  0  0
  9 10  1  0  0  0
 10 11  1  0  0  0
 11 12  2  0  0  0
 12 13  1  0  0  0
 13 14  1  0  0  0
 14 15  2  0  0  0
 15 16  1  0  0  0
 16 17  1  0  0  0
 17 18  1  0  0  0
 18 19  1  0  0  0
 19 20  1  0  0  0
  2 23  1  0  0  0
  2 24  1  0  0  0
  3 25  1  0  0  0
  3 26  1  0  0  0
  4 27  1  0  0  0
  4 28  1  0  0  0
  5 29  1  0  0  0
  6 30  1  0  0  0
  7 31  1  0  0  0
  7 32  1  0  0  0
  8 33  1  0  0  0
  9 34  1  0  0  0
 10 35  1  0  0  0
 10 36  1  0  0  0
 11 37  1  0  0  0
 12 38  1  0  0  0
 13 39  1  0  0  0
 13 40  1  0  0  0
 14 41  1  0  0  0
 15 42  1  0  0  0
 16 43  1  0  0  0
 16 44  1  0  0  0
 17 45  1  0  0  0
 17 46  1  0  0  0
 18 47  1  0  0  0
 18 48  1  0  0  0
 19 49  1  0  0  0
 19 50  1  0  0  0
 20 51  1  0  0  0
 20 52  1  0  0  0
 20 53  1  0  0  0
 21 54  1  0  0  0
M  END
$$$$
