5aqh_ligand
  -I-interpret- 

 21 23  0  0  0  0  0  0  0  0999 V2000
    0.9930    8.6380   33.6350 C   0  0  0  0  0
   -0.0710    7.7980   33.0480 N   0  0  0  0  0
   -0.0390    6.4250   33.1840 C   0  0  0  0  0
   -0.2760    3.6570   33.3060 N   0  0  0  0  0
   -1.1120    5.7660   32.5910 C   0  0  0  0  0
    0.8990    5.6660   33.8330 N   0  0  0  0  0
   -1.2080    4.3660   32.6690 C   0  0  0  0  0
   -2.3860    4.0390   32.0010 N   0  0  0  0  0
    0.7160    4.3650   33.8470 C   0  0  0  0  0
   -1.0860    8.4700   32.3750 N   0  0  0  0  0
   -2.9910    5.2350   31.5230 C   0  0  0  0  0
   -3.1020    8.4720   31.2020 N   0  0  0  0  0
   -2.2070    6.3120   31.8850 C   0  0  0  0  0
   -2.1080    7.7630   31.8240 C   0  0  0  0  0
    1.4823    9.2073   32.8447 H   0  0  0  0  0
    0.5544    9.3235   34.3601 H   0  0  0  0  0
    1.7246    8.0008   34.1318 H   0  0  0  0  0
    1.4771    3.7870   34.3711 H   0  0  0  0  0
   -3.9235    5.2916   30.9614 H   0  0  0  0  0
   -3.0561    9.4903   31.1659 H   0  0  0  0  0
   -3.8878    7.9814   30.7751 H   0  0  0  0  0
  2  1  1  0  0  0
  3  2  1  0  0  0
  2 10  1  0  0  0
  5  3  4  0  0  0
  3  6  4  0  0  0
  7  4  4  0  0  0
  4  9  4  0  0  0
  5  7  4  0  0  0
  5 13  4  0  0  0
  6  9  4  0  0  0
  7  8  4  0  0  0
  8 11  4  0  0  0
 10 14  2  0  0  0
 11 13  4  0  0  0
 14 12  1  0  0  0
 13 14  1  0  0  0
  1 15  1  0  0  0
  1 16  1  0  0  0
  1 17  1  0  0  0
  9 18  1  0  0  0
 11 19  1  0  0  0
 12 20  1  0  0  0
 12 21  1  0  0  0
M  END
$$$$
