1ymx_ligand
  -I-interpret- 

 42 43  0  0  0  0  0  0  0  0999 V2000
   -8.7680   55.5470   37.6260 C   0  0  0  0  0
   -8.4310   56.2250   36.6850 O   0  0  0  0  0
   -8.1880   53.2340   36.5780 N   0  0  0  0  0
   -9.4210   53.1610   37.3380 C   0  0  0  0  0
  -10.5520   51.9220   36.6180 S   0  0  0  0  0
   -9.3570   50.5340   36.4610 C   0  0  0  0  0
   -8.0640   50.8610   36.0050 C   0  0  0  0  0
   -7.5200   52.1520   36.0850 C   0  0  0  0  0
   -7.3590   49.6600   35.4700 C   0  0  0  0  0
   -6.1120   52.5590   35.7360 C   0  0  0  0  0
   -5.3620   52.5550   36.7260 O   0  0  0  0  0
   -5.9670   52.8830   34.5290 O   0  0  0  0  0
  -10.0080   54.6040   37.3970 C   0  0  0  0  0
  -10.8840   54.6420   38.5550 O   0  0  0  0  0
  -11.3920   55.9210   38.9500 C   0  0  0  0  0
  -10.6720   54.9890   36.1330 N   0  0  0  0  0
  -11.9870   54.7640   35.8290 C   0  0  0  0  0
  -12.7650   54.1960   36.6150 O   0  0  0  0  0
  -12.4790   55.2350   34.4370 C   0  0  0  0  0
  -13.6150   56.2830   34.5180 C   0  0  0  0  0
  -14.5880   56.4960   35.9390 S   0  0  0  0  0
  -15.5060   57.7320   35.2280 C   0  0  0  0  0
  -15.1120   57.9940   33.9620 C   0  0  0  0  0
  -14.0220   57.1720   33.5220 C   0  0  0  0  0
   -8.2431   55.5857   38.5805 H   0  0  0  0  0
   -7.7935   54.1576   36.4000 H   0  0  0  0  0
   -9.2520   52.8166   38.3583 H   0  0  0  0  0
   -9.7768   49.8591   35.7151 H   0  0  0  0  0
   -9.2285   50.1330   37.4664 H   0  0  0  0  0
   -7.0816   49.8361   34.4307 H   0  0  0  0  0
   -6.4618   49.4739   36.0604 H   0  0  0  0  0
   -8.0203   48.7956   35.5294 H   0  0  0  0  0
   -6.7928   52.7432   34.0599 H   0  0  0  0  0
  -10.5598   56.5821   39.1921 H   0  0  0  0  0
  -11.9714   56.3488   38.1319 H   0  0  0  0  0
  -12.0301   55.8024   39.8257 H   0  0  0  0  0
  -10.1031   55.4610   35.4302 H   0  0  0  0  0
  -12.8688   54.3636   33.9109 H   0  0  0  0  0
  -11.6352   55.6996   33.9269 H   0  0  0  0  0
  -16.3187   58.2541   35.7330 H   0  0  0  0  0
  -15.5772   58.7557   33.3363 H   0  0  0  0  0
  -13.5681   57.2339   32.5330 H   0  0  0  0  0
  1  2  2  0  0  0
 13  1  1  0  0  0
  4  3  1  0  0  0
  3  8  1  0  0  0
  4  5  1  0  0  0
  4 13  1  0  0  0
  5  6  1  0  0  0
  6  7  1  0  0  0
  7  8  2  0  0  0
  7  9  1  0  0  0
  8 10  1  0  0  0
 10 11  2  0  0  0
 10 12  1  0  0  0
 13 14  1  0  0  0
 13 16  1  0  0  0
 14 15  1  0  0  0
 16 17  1  0  0  0
 17 18  2  0  0  0
 17 19  1  0  0  0
 19 20  1  0  0  0
 20 21  4  0  0  0
 20 24  4  0  0  0
 21 22  4  0  0  0
 22 23  4  0  0  0
 23 24  4  0  0  0
  1 25  1  0  0  0
  3 26  1  0  0  0
  4 27  1  0  0  0
  6 28  1  0  0  0
  6 29  1  0  0  0
  9 30  1  0  0  0
  9 31  1  0  0  0
  9 32  1  0  0  0
 12 33  1  0  0  0
 15 34  1  0  0  0
 15 35  1  0  0  0
 15 36  1  0  0  0
 16 37  1  0  0  0
 19 38  1  0  0  0
 19 39  1  0  0  0
 22 40  1  0  0  0
 23 41  1  0  0  0
 24 42  1  0  0  0
M  END
$$$$
