1tve_ligand
  -I-interpret- 

 43 44  0  0  0  0  0  0  0  0999 V2000
   -4.8950   35.3630  -18.8670 O   0  0  0  0  0
   -4.0130   36.3900  -18.6150 C   0  0  0  0  0
   -2.6140   36.1520  -18.6410 C   0  0  0  0  0
   -2.0890   34.7780  -18.9420 C   0  0  0  0  0
   -1.2680   34.2700  -17.7680 C   0  0  0  0  0
   -1.2260   34.8190  -20.1880 C   0  0  0  0  0
   -1.7240   37.2080  -18.3830 C   0  0  0  0  0
   -2.2210   38.4950  -18.1020 C   0  0  0  0  0
   -3.6080   38.7270  -18.0770 C   0  0  0  0  0
   -4.5000   37.6850  -18.3320 C   0  0  0  0  0
   -1.1420   39.7700  -17.7890 S   0  0  0  0  0
    1.1630   38.1690  -12.6140 O   0  0  0  0  0
    0.6180   38.5440  -13.8210 C   0  0  0  0  0
   -0.7670   38.8270  -13.9230 C   0  0  0  0  0
   -1.6500   38.7190  -12.7130 C   0  0  0  0  0
   -2.3050   40.0610  -12.4330 C   0  0  0  0  0
   -2.7200   37.6700  -12.9470 C   0  0  0  0  0
   -1.3090   39.2080  -15.1590 C   0  0  0  0  0
   -0.4810   39.3080  -16.2930 C   0  0  0  0  0
    0.8930   39.0270  -16.1900 C   0  0  0  0  0
    1.4420   38.6470  -14.9660 C   0  0  0  0  0
   -5.7944   35.6938  -18.8097 H   0  0  0  0  0
   -2.9299   34.1049  -19.1092 H   0  0  0  0  0
   -0.9025   33.2671  -17.9888 H   0  0  0  0  0
   -0.4227   34.9377  -17.6015 H   0  0  0  0  0
   -1.8921   34.2422  -16.8748 H   0  0  0  0  0
   -0.3807   35.4866  -20.0211 H   0  0  0  0  0
   -0.8605   33.8160  -20.4084 H   0  0  0  0  0
   -1.8186   35.1837  -21.0270 H   0  0  0  0  0
   -0.6486   37.0309  -18.4004 H   0  0  0  0  0
   -3.9875   39.7249  -17.8575 H   0  0  0  0  0
   -5.5739   37.8706  -18.3128 H   0  0  0  0  0
    2.1046   38.0169  -12.7228 H   0  0  0  0  0
   -1.0434   38.4277  -11.8555 H   0  0  0  0  0
   -1.5337   40.8095  -12.2516 H   0  0  0  0  0
   -2.9055   40.3573  -13.2931 H   0  0  0  0  0
   -2.9441   39.9756  -11.5541 H   0  0  0  0  0
   -3.3234   37.9544  -13.8090 H   0  0  0  0  0
   -2.2471   36.7061  -13.1350 H   0  0  0  0  0
   -3.3558   37.5983  -12.0646 H   0  0  0  0  0
   -2.3735   39.4271  -15.2418 H   0  0  0  0  0
    1.5311   39.1065  -17.0701 H   0  0  0  0  0
    2.5074   38.4291  -14.8914 H   0  0  0  0  0
  2  1  1  0  0  0
  3  2  4  0  0  0
 10  2  4  0  0  0
  3  4  1  0  0  0
  7  3  4  0  0  0
  4  5  1  0  0  0
  4  6  1  0  0  0
  8  7  4  0  0  0
  8  9  4  0  0  0
 11  8  1  0  0  0
  9 10  4  0  0  0
 19 11  1  0  0  0
 13 12  1  0  0  0
 14 13  4  0  0  0
 13 21  4  0  0  0
 14 15  1  0  0  0
 18 14  4  0  0  0
 15 16  1  0  0  0
 15 17  1  0  0  0
 18 19  4  0  0  0
 19 20  4  0  0  0
 20 21  4  0  0  0
  1 22  1  0  0  0
  4 23  1  0  0  0
  5 24  1  0  0  0
  5 25  1  0  0  0
  5 26  1  0  0  0
  6 27  1  0  0  0
  6 28  1  0  0  0
  6 29  1  0  0  0
  7 30  1  0  0  0
  9 31  1  0  0  0
 10 32  1  0  0  0
 12 33  1  0  0  0
 15 34  1  0  0  0
 16 35  1  0  0  0
 16 36  1  0  0  0
 16 37  1  0  0  0
 17 38  1  0  0  0
 17 39  1  0  0  0
 17 40  1  0  0  0
 18 41  1  0  0  0
 20 42  1  0  0  0
 21 43  1  0  0  0
M  END
$$$$
