### 
### Created by X-TOOL on Mon Sep 10 21:12:57 2018
### 

@<TRIPOS>MOLECULE
3f9y_ligand
  150   150     1     0     0
SMALL
GAST_HUCK


@<TRIPOS>ATOM
      1 N          -9.3680    1.7100   22.9700 N.4       1 LYS         0.2379
      2 CA        -10.1850    1.0960   24.0720 C.3       1 LYS         0.0650
      3 C         -10.9690   -0.0940   23.4850 C.2       1 LYS         0.2267
      4 O         -11.7290    0.0530   22.5270 O.2       1 LYS        -0.3907
      5 CB        -11.1850    2.0940   24.6590 C.3       1 LYS         0.0080
      6 CG        -10.6490    3.4920   25.0180 C.3       1 LYS        -0.0410
      7 CD        -11.5090    4.1350   26.1290 C.3       1 LYS        -0.0123
      8 CE        -12.9350    4.5170   25.6400 C.3       1 LYS        -0.0354
      9 NZ        -14.0450    4.2180   26.6680 N.4       1 LYS         0.2185
     10 N         -10.7840   -1.2590   24.0770 N.am      1 ARG        -0.2610
     11 CA        -11.3110   -2.4800   23.4790 C.3       1 ARG         0.1312
     12 C         -12.6850   -2.7990   24.0360 C.2       1 ARG         0.2040
     13 O         -12.9620   -2.4920   25.2010 O.2       1 ARG        -0.3944
     14 CB        -10.3780   -3.6130   23.8210 C.3       1 ARG        -0.0092
     15 CG         -9.0020   -3.4800   23.2520 C.3       1 ARG        -0.0156
     16 CD         -8.0970   -4.5570   23.8000 C.3       1 ARG         0.0627
     17 NE         -8.6430   -5.9030   23.6310 N.pl3     1 ARG        -0.2723
     18 CZ         -8.6810   -6.5910   22.4860 C.cat     1 ARG         0.2882
     19 NH1        -8.2050   -6.0470   21.3560 N.pl3     1 ARG        -0.2849
     20 NH2        -9.2240   -7.8240   22.4680 N.pl3     1 ARG        -0.2849
     21 N         -13.5180   -3.4700   23.2330 N.am      1 HIS        -0.2625
     22 CA        -14.7110   -4.1360   23.7710 C.3       1 HIS         0.1369
     23 C         -14.4940   -5.6410   23.7740 C.2       1 HIS         0.2054
     24 O         -13.5280   -6.1450   23.2530 O.2       1 HIS        -0.3942
     25 CB        -15.9660   -3.8180   22.9300 C.3       1 HIS         0.0145
     26 CG        -15.9400   -4.3960   21.5390 C.2       1 HIS        -0.0027
     27 ND1       -16.3470   -5.7060   21.2770 N.2       1 HIS        -0.3252
     28 CD2       -15.5300   -3.8850   20.3510 C.2       1 HIS         0.0291
     29 CE1       -16.2080   -5.9500   19.9860 C.2       1 HIS         0.0907
     30 NE2       -15.7030   -4.8730   19.4000 N.pl3     1 HIS        -0.2752
     31 N         -15.4430   -6.3650   24.3320 N.am      1 ARG        -0.2636
     32 CA        -15.3830   -7.8380   24.2470 C.3       1 ARG         0.1311
     33 C         -16.7170   -8.3930   23.7010 C.2       1 ARG         0.2039
     34 O         -17.5270   -7.6640   23.1670 O.2       1 ARG        -0.3944
     35 CB        -15.0210   -8.4820   25.5870 C.3       1 ARG        -0.0092
     36 CG        -16.0020   -8.2050   26.5960 C.3       1 ARG        -0.0156
     37 CD        -15.5990   -8.8850   27.8470 C.3       1 ARG         0.0627
     38 NE        -16.5260   -8.6270   28.9200 N.pl3     1 ARG        -0.2723
     39 CZ        -16.6800   -9.4540   29.9590 C.cat     1 ARG         0.2882
     40 NH1       -16.0260  -10.6180   29.9900 N.pl3     1 ARG        -0.2849
     41 NH2       -17.5280   -9.1500   30.9230 N.pl3     1 ARG        -0.2849
     42 N         -16.8500   -9.7220   23.7330 N.am      1 MLZ        -0.2637
     43 CA        -18.1010  -10.4640   23.5390 C.3       1 MLZ         0.1310
     44 CB        -18.0700  -11.3960   22.3160 C.3       1 MLZ        -0.0122
     45 CG        -17.8290  -10.5530   21.0510 C.3       1 MLZ        -0.0440
     46 CD        -17.4940  -11.4960   19.8550 C.3       1 MLZ        -0.0124
     47 CE        -16.9780  -10.6210   18.6990 C.3       1 MLZ        -0.0339
     48 NZ        -16.4690  -11.3710   17.5420 N.4       1 MLZ         0.2248
     49 CM        -15.8320  -10.5420   16.5530 C.3       1 MLZ        -0.0449
     50 C         -18.3240  -11.2700   24.7830 C.2       1 MLZ         0.2039
     51 O         -17.4030  -11.7450   25.4010 O.2       1 MLZ        -0.3944
     52 N         -19.5540  -11.3270   25.2290 N.am      1 VAL        -0.2635
     53 CA        -19.8820  -12.0420   26.4820 C.3       1 VAL         0.1332
     54 C         -21.1660  -12.8120   26.2860 C.2       1 VAL         0.2036
     55 O         -22.1370  -12.2760   25.7740 O.2       1 VAL        -0.3944
     56 CB        -20.1690  -11.1080   27.6630 C.3       1 VAL        -0.0063
     57 CG1       -20.1090  -11.9450   28.9460 C.3       1 VAL        -0.0584
     58 CG2       -19.2570   -9.9180   27.6950 C.3       1 VAL        -0.0584
     59 N         -21.1710  -14.0860   26.6720 N.am      1 LEU        -0.2695
     60 CA        -22.4160  -14.8630   26.6090 C.3       1 LEU         0.0946
     61 C         -23.3840  -14.4650   27.7790 C.2       1 LEU         0.0601
     62 O         -23.0190  -14.5050   28.9843 O.co2     1 LEU        -0.5666
     63 CB        -22.1070  -16.4030   26.5960 C.3       1 LEU        -0.0156
     64 CG        -23.2840  -17.3680   26.3670 C.3       1 LEU        -0.0431
     65 CD1       -23.8370  -17.2020   24.9790 C.3       1 LEU        -0.0625
     66 CD2       -22.8580  -18.8300   26.6230 C.3       1 LEU        -0.0625
     67 O75       -24.5572  -14.0957   27.5055 O.co2     1 LEU        -0.5666
     68 H1         -8.8465    2.4920   23.3341 H         1 LYS         0.2015
     69 H2         -9.9801    2.0275   22.2348 H         1 LYS         0.2015
     70 H3         -8.7294    1.0224   22.6020 H         1 LYS         0.2015
     71 H4         -9.5134    0.7453   24.8694 H         1 LYS         0.1098
     72 H5        -11.5960    1.6503   25.5778 H         1 LYS         0.0346
     73 H6        -11.9918    2.2270   23.9232 H         1 LYS         0.0346
     74 H7        -10.6777    4.1310   24.1231 H         1 LYS         0.0270
     75 H8         -9.6111    3.4017   25.3709 H         1 LYS         0.0270
     76 H9        -11.0030    5.0453   26.4831 H         1 LYS         0.0317
     77 H10       -11.6019    3.4203   26.9600 H         1 LYS         0.0317
     78 H11       -13.1505    3.9505   24.7220 H         1 LYS         0.0813
     79 H12       -12.9488    5.5942   25.4179 H         1 LYS         0.0813
     80 H13       -14.9379    4.4890   26.2867 H         1 LYS         0.1994
     81 H14       -13.8689    4.7379   27.5134 H         1 LYS         0.1994
     82 H15       -14.0538    3.2317   26.8757 H         1 LYS         0.1994
     83 H16       -10.2801   -1.3045   24.9396 H         1 ARG         0.1884
     84 H17       -11.3746   -2.3599   22.3874 H         1 ARG         0.0800
     85 H18       -10.8179   -4.5465   23.4401 H         1 ARG         0.0313
     86 H19       -10.2924   -3.6681   24.9163 H         1 ARG         0.0313
     87 H20        -8.5938   -2.4940   23.5185 H         1 ARG         0.0301
     88 H21        -9.0525   -3.5722   22.1570 H         1 ARG         0.0301
     89 H22        -7.9437   -4.3733   24.8736 H         1 ARG         0.0689
     90 H23        -7.1308   -4.5025   23.2770 H         1 ARG         0.0689
     91 H24        -9.0323   -6.3608   24.4675 H         1 ARG         0.2642
     92 H25        -8.2358   -6.5799   20.4751 H         1 ARG         0.2615
     93 H26        -7.8087   -5.0964   21.3692 H         1 ARG         0.2615
     94 H27        -9.5886   -8.2389   23.3374 H         1 ARG         0.2615
     95 H28        -9.2745   -8.3517   21.5849 H         1 ARG         0.2615
     96 H29       -13.3257   -3.5188   22.2529 H         1 HIS         0.1885
     97 H30       -14.8753   -3.7895   24.8020 H         1 HIS         0.0817
     98 H31       -16.0583   -2.7250   22.8477 H         1 HIS         0.0420
     99 H32       -16.8444   -4.2216   23.4549 H         1 HIS         0.0420
    100 H33       -15.1379   -2.8837   20.1789 H         1 HIS         0.0729
    101 H34       -16.4657   -6.8822   19.4855 H         1 HIS         0.1199
    102 H35       -15.4765   -4.7867   18.3989 H         1 HIS         0.2361
    103 H36       -16.1997   -5.9194   24.8104 H         1 ARG         0.1883
    104 H37       -14.5901   -8.0992   23.5307 H         1 ARG         0.0800
    105 H38       -14.0487   -8.0893   25.9191 H         1 ARG         0.0313
    106 H39       -14.9493   -9.5711   25.4503 H         1 ARG         0.0313
    107 H40       -16.9838   -8.5794   26.2707 H         1 ARG         0.0301
    108 H41       -16.0615   -7.1200   26.7669 H         1 ARG         0.0301
    109 H42       -14.6028   -8.5245   28.1430 H         1 ARG         0.0689
    110 H43       -15.5577   -9.9691   27.6654 H         1 ARG         0.0689
    111 H44       -17.0942   -7.7686   28.8848 H         1 ARG         0.2642
    112 H45       -16.1453  -11.2546   30.7909 H         1 ARG         0.2615
    113 H46       -15.4023  -10.8792   29.2130 H         1 ARG         0.2615
    114 H47       -18.0332   -8.2527   30.9005 H         1 ARG         0.2615
    115 H48       -17.6848   -9.8100   31.6980 H         1 ARG         0.2615
    116 H49       -16.0238  -10.2586   23.9043 H         1 MLZ         0.1883
    117 H50       -18.9254   -9.7474   23.4089 H         1 MLZ         0.0800
    118 H51       -19.0311  -11.9240   22.2299 H         1 MLZ         0.0312
    119 H52       -17.2580  -12.1290   22.4311 H         1 MLZ         0.0312
    120 H53       -16.9876   -9.8657   21.2230 H         1 MLZ         0.0269
    121 H54       -18.7344   -9.9733   20.8185 H         1 MLZ         0.0269
    122 H55       -18.3983  -12.0374   19.5401 H         1 MLZ         0.0317
    123 H56       -16.7194  -12.2180   20.1528 H         1 MLZ         0.0317
    124 H57       -16.1633   -9.9901   19.0839 H         1 MLZ         0.0814
    125 H58       -17.8057   -9.9826   18.3564 H         1 MLZ         0.0814
    126 H59       -17.2424  -11.8491   17.1068 H         1 MLZ         0.2011
    127 H60       -15.7979  -12.0474   17.8709 H         1 MLZ         0.2011
    128 H61       -15.4783  -11.1693   15.7215 H         1 MLZ         0.0777
    129 H62       -14.9772  -10.0198   17.0076 H         1 MLZ         0.0777
    130 H63       -16.5535   -9.8033   16.1739 H         1 MLZ         0.0777
    131 H64       -20.2846  -10.8792   24.7134 H         1 VAL         0.1883
    132 H65       -19.0539  -12.7205   26.7348 H         1 VAL         0.0802
    133 H66       -21.1945  -10.7253   27.5542 H         1 VAL         0.0343
    134 H67       -20.3115  -11.3004   29.8141 H         1 VAL         0.0234
    135 H68       -19.1086  -12.3913   29.0462 H         1 VAL         0.0234
    136 H69       -20.8638  -12.7437   28.8984 H         1 VAL         0.0234
    137 H70       -19.3466   -9.3619   26.7501 H         1 VAL         0.0234
    138 H71       -18.2181  -10.2555   27.8247 H         1 VAL         0.0234
    139 H72       -19.5373   -9.2636   28.5335 H         1 VAL         0.0234
    140 H73       -20.3297  -14.5128   27.0039 H         1 LEU         0.1875
    141 H74       -22.9199  -14.6166   25.6628 H         1 LEU         0.0726
    142 H75       -21.6593  -16.6563   27.5683 H         1 LEU         0.0308
    143 H76       -21.3737  -16.5840   25.7963 H         1 LEU         0.0308
    144 H77       -24.0786  -17.1148   27.0842 H         1 LEU         0.0297
    145 H78       -24.6760  -17.8982   24.8329 H         1 LEU         0.0232
    146 H79       -23.0492  -17.4176   24.2422 H         1 LEU         0.0232
    147 H80       -24.1905  -16.1689   24.8462 H         1 LEU         0.0232
    148 H81       -22.4582  -18.9220   27.6436 H         1 LEU         0.0232
    149 H82       -22.0825  -19.1183   25.8981 H         1 LEU         0.0232
    150 H83       -23.7298  -19.4912   26.5098 H         1 LEU         0.0232
@<TRIPOS>BOND
     1    1    2 1  
     2    2    3 1  
     3    2    5 1  
     4    3    4 2  
     5    3   10 am 
     6    5    6 1  
     7    6    7 1  
     8    7    8 1  
     9    8    9 1  
    10   10   11 1  
    11   11   12 1  
    12   11   14 1  
    13   12   13 2  
    14   12   21 am 
    15   14   15 1  
    16   15   16 1  
    17   16   17 1  
    18   17   18 ar 
    19   18   19 ar 
    20   18   20 ar 
    21   21   22 1  
    22   22   23 1  
    23   22   25 1  
    24   23   24 2  
    25   23   31 am 
    26   25   26 1  
    27   26   27 1  
    28   26   28 2  
    29   27   29 2  
    30   28   30 1  
    31   29   30 1  
    32   31   32 1  
    33   32   33 1  
    34   32   35 1  
    35   33   34 2  
    36   33   42 am 
    37   35   36 1  
    38   36   37 1  
    39   37   38 1  
    40   38   39 ar 
    41   39   40 ar 
    42   39   41 ar 
    43   42   43 1  
    44   43   44 1  
    45   43   50 1  
    46   44   45 1  
    47   45   46 1  
    48   46   47 1  
    49   47   48 1  
    50   48   49 1  
    51   50   51 2  
    52   50   52 am 
    53   52   53 1  
    54   53   54 1  
    55   53   56 1  
    56   54   55 2  
    57   54   59 am 
    58   56   57 1  
    59   56   58 1  
    60   59   60 1  
    61   60   61 1  
    62   60   63 1  
    63   61   62 ar 
    64   63   64 1  
    65   64   65 1  
    66   64   66 1  
    67   61   67 ar 
    68    1   68 1  
    69    1   69 1  
    70    1   70 1  
    71    2   71 1  
    72    5   72 1  
    73    5   73 1  
    74    6   74 1  
    75    6   75 1  
    76    7   76 1  
    77    7   77 1  
    78    8   78 1  
    79    8   79 1  
    80    9   80 1  
    81    9   81 1  
    82    9   82 1  
    83   10   83 1  
    84   11   84 1  
    85   14   85 1  
    86   14   86 1  
    87   15   87 1  
    88   15   88 1  
    89   16   89 1  
    90   16   90 1  
    91   17   91 1  
    92   19   92 1  
    93   19   93 1  
    94   20   94 1  
    95   20   95 1  
    96   21   96 1  
    97   22   97 1  
    98   25   98 1  
    99   25   99 1  
   100   28  100 1  
   101   29  101 1  
   102   30  102 1  
   103   31  103 1  
   104   32  104 1  
   105   35  105 1  
   106   35  106 1  
   107   36  107 1  
   108   36  108 1  
   109   37  109 1  
   110   37  110 1  
   111   38  111 1  
   112   40  112 1  
   113   40  113 1  
   114   41  114 1  
   115   41  115 1  
   116   42  116 1  
   117   43  117 1  
   118   44  118 1  
   119   44  119 1  
   120   45  120 1  
   121   45  121 1  
   122   46  122 1  
   123   46  123 1  
   124   47  124 1  
   125   47  125 1  
   126   48  126 1  
   127   48  127 1  
   128   49  128 1  
   129   49  129 1  
   130   49  130 1  
   131   52  131 1  
   132   53  132 1  
   133   56  133 1  
   134   57  134 1  
   135   57  135 1  
   136   57  136 1  
   137   58  137 1  
   138   58  138 1  
   139   58  139 1  
   140   59  140 1  
   141   60  141 1  
   142   63  142 1  
   143   63  143 1  
   144   64  144 1  
   145   65  145 1  
   146   65  146 1  
   147   65  147 1  
   148   66  148 1  
   149   66  149 1  
   150   66  150 1  
@<TRIPOS>SUBSTRUCTURE
     1 LYS         1

