3f9y_ligand
  -I-interpret- 

148148  0  0  0  0  0  0  0  0999 V2000
   -9.3680    1.7100   22.9700 N   0  3  0  0  0
  -10.1850    1.0960   24.0720 C   0  0  0  0  0
  -10.9690   -0.0940   23.4850 C   0  0  0  0  0
  -11.7290    0.0530   22.5270 O   0  0  0  0  0
  -11.1850    2.0940   24.6590 C   0  0  0  0  0
  -10.6490    3.4920   25.0180 C   0  0  0  0  0
  -11.5090    4.1350   26.1290 C   0  0  0  0  0
  -12.9350    4.5170   25.6400 C   0  0  0  0  0
  -14.0450    4.2180   26.6680 N   0  3  0  0  0
  -10.7840   -1.2590   24.0770 N   0  0  0  0  0
  -11.3110   -2.4800   23.4790 C   0  0  0  0  0
  -12.6850   -2.7990   24.0360 C   0  0  0  0  0
  -12.9620   -2.4920   25.2010 O   0  0  0  0  0
  -10.3780   -3.6130   23.8210 C   0  0  0  0  0
   -9.0020   -3.4800   23.2520 C   0  0  0  0  0
   -8.0970   -4.5570   23.8000 C   0  0  0  0  0
   -8.6430   -5.9030   23.6310 N   0  0  0  0  0
   -8.6810   -6.5910   22.4860 C   0  0  0  0  0
   -8.2050   -6.0470   21.3560 N   0  0  0  0  0
   -9.2240   -7.8240   22.4680 N   0  0  0  0  0
  -13.5180   -3.4700   23.2330 N   0  0  0  0  0
  -14.7110   -4.1360   23.7710 C   0  0  0  0  0
  -14.4940   -5.6410   23.7740 C   0  0  0  0  0
  -13.5280   -6.1450   23.2530 O   0  0  0  0  0
  -15.9660   -3.8180   22.9300 C   0  0  0  0  0
  -15.9400   -4.3960   21.5390 C   0  0  0  0  0
  -16.3470   -5.7060   21.2770 N   0  0  0  0  0
  -15.5300   -3.8850   20.3510 C   0  0  0  0  0
  -16.2080   -5.9500   19.9860 C   0  0  0  0  0
  -15.7030   -4.8730   19.4000 N   0  0  0  0  0
  -15.4430   -6.3650   24.3320 N   0  0  0  0  0
  -15.3830   -7.8380   24.2470 C   0  0  0  0  0
  -16.7170   -8.3930   23.7010 C   0  0  0  0  0
  -17.5270   -7.6640   23.1670 O   0  0  0  0  0
  -15.0210   -8.4820   25.5870 C   0  0  0  0  0
  -16.0020   -8.2050   26.5960 C   0  0  0  0  0
  -15.5990   -8.8850   27.8470 C   0  0  0  0  0
  -16.5260   -8.6270   28.9200 N   0  0  0  0  0
  -16.6800   -9.4540   29.9590 C   0  0  0  0  0
  -16.0260  -10.6180   29.9900 N   0  0  0  0  0
  -17.5280   -9.1500   30.9230 N   0  0  0  0  0
  -16.8500   -9.7220   23.7330 N   0  0  0  0  0
  -18.1010  -10.4640   23.5390 C   0  0  0  0  0
  -18.0700  -11.3960   22.3160 C   0  0  0  0  0
  -17.8290  -10.5530   21.0510 C   0  0  0  0  0
  -17.4940  -11.4960   19.8550 C   0  0  0  0  0
  -16.9780  -10.6210   18.6990 C   0  0  0  0  0
  -16.4690  -11.3710   17.5420 N   0  3  0  0  0
  -15.8320  -10.5420   16.5530 C   0  0  0  0  0
  -18.3240  -11.2700   24.7830 C   0  0  0  0  0
  -17.4030  -11.7450   25.4010 O   0  0  0  0  0
  -19.5540  -11.3270   25.2290 N   0  0  0  0  0
  -19.8820  -12.0420   26.4820 C   0  0  0  0  0
  -21.1660  -12.8120   26.2860 C   0  0  0  0  0
  -22.1370  -12.2760   25.7740 O   0  0  0  0  0
  -20.1690  -11.1080   27.6630 C   0  0  0  0  0
  -20.1090  -11.9450   28.9460 C   0  0  0  0  0
  -19.2570   -9.9180   27.6950 C   0  0  0  0  0
  -21.1710  -14.0860   26.6720 N   0  0  0  0  0
  -22.4160  -14.8630   26.6090 C   0  0  0  0  0
  -23.3840  -14.4650   27.7790 C   0  0  0  0  0
  -23.0190  -14.5050   28.9843 O   0  0  0  0  0
  -22.1070  -16.4030   26.5960 C   0  0  0  0  0
  -23.2840  -17.3680   26.3670 C   0  0  0  0  0
  -23.8370  -17.2020   24.9790 C   0  0  0  0  0
  -22.8580  -18.8300   26.6230 C   0  0  0  0  0
  -24.5572  -14.0957   27.5055 O   0  0  0  0  0
   -8.7153    1.0162   22.6053 H   0  0  0  0  0
   -9.9877    2.0217   22.2222 H   0  0  0  0  0
   -8.8485    2.5073   23.3373 H   0  0  0  0  0
   -9.5105    0.7812   24.8683 H   0  0  0  0  0
  -11.5262    1.6563   25.5971 H   0  0  0  0  0
  -11.9357    2.2530   23.8849 H   0  0  0  0  0
  -10.6880    4.1239   24.1307 H   0  0  0  0  0
   -9.6238    3.3962   25.3757 H   0  0  0  0  0
  -11.0100    5.0489   26.4513 H   0  0  0  0  0
  -11.6152    3.4069   26.9332 H   0  0  0  0  0
  -13.1450    3.9212   24.7517 H   0  0  0  0  0
  -12.9400    5.5919   25.4590 H   0  0  0  0  0
  -14.9480    4.4926   26.2811 H   0  0  0  0  0
  -14.0529    3.2198   26.8774 H   0  0  0  0  0
  -13.8658    4.7446   27.5230 H   0  0  0  0  0
  -10.2700   -1.3054   24.9568 H   0  0  0  0  0
  -11.3910   -2.3460   22.4002 H   0  0  0  0  0
  -10.8106   -4.5198   23.3983 H   0  0  0  0  0
  -10.2739   -3.6227   24.9060 H   0  0  0  0  0
   -8.5983   -2.5051   23.5255 H   0  0  0  0  0
   -9.0558   -3.5803   22.1680 H   0  0  0  0  0
   -7.9782   -4.3787   24.8687 H   0  0  0  0  0
   -7.1555   -4.5096   23.2529 H   0  0  0  0  0
   -9.0285   -6.3563   24.4594 H   0  0  0  0  0
   -7.8126   -5.1056   21.3691 H   0  0  0  0  0
   -9.2740   -8.3465   21.5934 H   0  0  0  0  0
   -9.5851   -8.2349   23.3289 H   0  0  0  0  0
  -13.3219   -3.5198   22.2333 H   0  0  0  0  0
  -14.8696   -3.7678   24.7846 H   0  0  0  0  0
  -16.0179   -2.7341   22.8270 H   0  0  0  0  0
  -16.8190   -4.2592   23.4457 H   0  0  0  0  0
  -15.1376   -2.8828   20.1787 H   0  0  0  0  0
  -16.4660   -6.8831   19.4850 H   0  0  0  0  0
  -16.2148   -5.9105   24.8200 H   0  0  0  0  0
  -14.5837   -8.0981   23.5530 H   0  0  0  0  0
  -14.0665   -8.0716   25.9166 H   0  0  0  0  0
  -14.9721   -9.5616   25.4452 H   0  0  0  0  0
  -16.9778   -8.5687   26.2741 H   0  0  0  0  0
  -16.0685   -7.1300   26.7632 H   0  0  0  0  0
  -14.6201   -8.5070   28.1420 H   0  0  0  0  0
  -15.5799   -9.9590   27.6620 H   0  0  0  0  0
  -17.0887   -7.7770   28.8851 H   0  0  0  0  0
  -16.1824  -11.2706   30.7582 H   0  0  0  0  0
  -15.3701  -10.8545   29.2455 H   0  0  0  0  0
  -18.0656   -8.2845   30.8752 H   0  0  0  0  0
  -16.0072  -10.2694   23.9078 H   0  0  0  0  0
  -18.9068   -9.7538   23.3532 H   0  0  0  0  0
  -19.0201  -11.9235   22.2312 H   0  0  0  0  0
  -17.2686  -12.1260   22.4299 H   0  0  0  0  0
  -16.9954   -9.8717   21.2214 H   0  0  0  0  0
  -18.7260   -9.9782   20.8207 H   0  0  0  0  0
  -18.3824  -12.0469   19.5462 H   0  0  0  0  0
  -16.7370  -12.2240   20.1466 H   0  0  0  0  0
  -16.1450  -10.0369   19.0902 H   0  0  0  0  0
  -17.8230  -10.0292   18.3470 H   0  0  0  0  0
  -17.2671  -11.8222   17.0948 H   0  0  0  0  0
  -15.7692  -12.0279   17.8872 H   0  0  0  0  0
  -16.5479   -9.8105   16.1782 H   0  0  0  0  0
  -14.9853  -10.0251   17.0047 H   0  0  0  0  0
  -15.4820  -11.1647   15.7297 H   0  0  0  0  0
  -20.2992  -10.8703   24.7031 H   0  0  0  0  0
  -19.0132  -12.6625   26.7016 H   0  0  0  0  0
  -21.1644  -10.6765   27.5583 H   0  0  0  0  0
  -20.8573  -12.7361   28.8975 H   0  0  0  0  0
  -19.1173  -12.3867   29.0441 H   0  0  0  0  0
  -20.3098  -11.3053   29.8054 H   0  0  0  0  0
  -18.2240  -10.2557   27.7790 H   0  0  0  0  0
  -19.3792   -9.3434   26.7769 H   0  0  0  0  0
  -19.5072   -9.2930   28.5523 H   0  0  0  0  0
  -20.3129  -14.5213   27.0105 H   0  0  0  0  0
  -22.9276  -14.6262   25.6761 H   0  0  0  0  0
  -21.7313  -16.6332   27.5930 H   0  0  0  0  0
  -21.4347  -16.5581   25.7522 H   0  0  0  0  0
  -24.0715  -17.1229   27.0796 H   0  0  0  0  0
  -24.1869  -16.1779   24.8487 H   0  0  0  0  0
  -23.0554  -17.4158   24.2499 H   0  0  0  0  0
  -24.6682  -17.8923   24.8355 H   0  0  0  0  0
  -22.0493  -19.0960   25.9423 H   0  0  0  0  0
  -22.5162  -18.9325   27.6529 H   0  0  0  0  0
  -23.7089  -19.4899   26.4539 H   0  0  0  0  0
  -24.6847  -14.1172   26.5542 H   0  0  0  0  0
  1  2  1  0  0  0
  2  3  1  0  0  0
  2  5  1  0  0  0
  3  4  2  0  0  0
  3 10  1  0  0  0
  5  6  1  0  0  0
  6  7  1  0  0  0
  7  8  1  0  0  0
  8  9  1  0  0  0
 10 11  1  0  0  0
 11 12  1  0  0  0
 11 14  1  0  0  0
 12 13  2  0  0  0
 12 21  1  0  0  0
 14 15  1  0  0  0
 15 16  1  0  0  0
 16 17  1  0  0  0
 17 18  1  0  0  0
 18 19  2  0  0  0
 18 20  1  0  0  0
 21 22  1  0  0  0
 22 23  1  0  0  0
 22 25  1  0  0  0
 23 24  2  0  0  0
 23 31  1  0  0  0
 25 26  1  0  0  0
 26 27  4  0  0  0
 26 28  4  0  0  0
 27 29  4  0  0  0
 28 30  4  0  0  0
 29 30  4  0  0  0
 31 32  1  0  0  0
 32 33  1  0  0  0
 32 35  1  0  0  0
 33 34  2  0  0  0
 33 42  1  0  0  0
 35 36  1  0  0  0
 36 37  1  0  0  0
 37 38  1  0  0  0
 38 39  1  0  0  0
 39 40  1  0  0  0
 39 41  2  0  0  0
 42 43  1  0  0  0
 43 44  1  0  0  0
 43 50  1  0  0  0
 44 45  1  0  0  0
 45 46  1  0  0  0
 46 47  1  0  0  0
 47 48  1  0  0  0
 48 49  1  0  0  0
 50 51  2  0  0  0
 50 52  1  0  0  0
 52 53  1  0  0  0
 53 54  1  0  0  0
 53 56  1  0  0  0
 54 55  2  0  0  0
 54 59  1  0  0  0
 56 57  1  0  0  0
 56 58  1  0  0  0
 59 60  1  0  0  0
 60 61  1  0  0  0
 60 63  1  0  0  0
 61 62  2  0  0  0
 63 64  1  0  0  0
 64 65  1  0  0  0
 64 66  1  0  0  0
 61 67  1  0  0  0
  1 68  1  0  0  0
  1 69  1  0  0  0
  1 70  1  0  0  0
  2 71  1  0  0  0
  5 72  1  0  0  0
  5 73  1  0  0  0
  6 74  1  0  0  0
  6 75  1  0  0  0
  7 76  1  0  0  0
  7 77  1  0  0  0
  8 78  1  0  0  0
  8 79  1  0  0  0
  9 80  1  0  0  0
  9 81  1  0  0  0
  9 82  1  0  0  0
 10 83  1  0  0  0
 11 84  1  0  0  0
 14 85  1  0  0  0
 14 86  1  0  0  0
 15 87  1  0  0  0
 15 88  1  0  0  0
 16 89  1  0  0  0
 16 90  1  0  0  0
 17 91  1  0  0  0
 19 92  1  0  0  0
 20 93  1  0  0  0
 20 94  1  0  0  0
 21 95  1  0  0  0
 22 96  1  0  0  0
 25 97  1  0  0  0
 25 98  1  0  0  0
 28 99  1  0  0  0
 29100  1  0  0  0
 31101  1  0  0  0
 32102  1  0  0  0
 35103  1  0  0  0
 35104  1  0  0  0
 36105  1  0  0  0
 36106  1  0  0  0
 37107  1  0  0  0
 37108  1  0  0  0
 38109  1  0  0  0
 40110  1  0  0  0
 40111  1  0  0  0
 41112  1  0  0  0
 42113  1  0  0  0
 43114  1  0  0  0
 44115  1  0  0  0
 44116  1  0  0  0
 45117  1  0  0  0
 45118  1  0  0  0
 46119  1  0  0  0
 46120  1  0  0  0
 47121  1  0  0  0
 47122  1  0  0  0
 48123  1  0  0  0
 48124  1  0  0  0
 49125  1  0  0  0
 49126  1  0  0  0
 49127  1  0  0  0
 52128  1  0  0  0
 53129  1  0  0  0
 56130  1  0  0  0
 57131  1  0  0  0
 57132  1  0  0  0
 57133  1  0  0  0
 58134  1  0  0  0
 58135  1  0  0  0
 58136  1  0  0  0
 59137  1  0  0  0
 60138  1  0  0  0
 63139  1  0  0  0
 63140  1  0  0  0
 64141  1  0  0  0
 65142  1  0  0  0
 65143  1  0  0  0
 65144  1  0  0  0
 66145  1  0  0  0
 66146  1  0  0  0
 66147  1  0  0  0
 67148  1  0  0  0
M  END
$$$$
