5dry_ligand
  -I-interpret- 

 54 58  0  0  0  0  0  0  0  0999 V2000
   39.1710   -6.4360   14.7720 C   0  0  0  0  0
   39.9470   -7.2690   13.7930 C   0  0  0  0  0
   39.2920   -6.5680   15.9840 O   0  0  0  0  0
   37.0900   -5.8590   12.2190 C   0  0  0  0  0
   35.8140   -6.0110   10.1010 C   0  0  0  0  0
   35.2910   -7.3110   10.1600 C   0  0  0  0  0
   34.1940   -7.5920    9.3060 C   0  0  0  0  0
   33.6690   -6.6170    8.4710 C   0  0  0  0  0
   34.1800   -5.3220    8.4020 C   0  0  0  0  0
   35.2500   -5.0410    9.2520 C   0  0  0  0  0
   32.5610   -7.3230    7.7460 C   0  0  0  0  0
   32.5480   -8.5700    8.2100 C   0  0  0  0  0
   33.6460   -9.9220    9.7890 C   0  0  0  0  0
   38.4760   -9.7470   15.0160 C   0  0  0  0  0
   37.9560   -9.7140   16.3300 C   0  0  0  0  0
   36.5780   -9.8900   16.5730 C   0  0  0  0  0
   35.6910  -10.0900   15.4990 C   0  0  0  0  0
   36.1780  -10.1270   14.1810 C   0  0  0  0  0
   37.5590   -9.9470   13.9410 C   0  0  0  0  0
   40.5480   -8.4060   14.4540 N   0  0  0  0  0
   41.8850   -8.5510   14.6230 N   0  0  0  0  0
   42.0730   -9.7470   15.2140 N   0  0  0  0  0
   40.7920  -10.3470   15.4080 N   0  0  0  0  0
   39.9770   -9.5090   14.8930 C   0  0  0  0  0
   38.3420   -5.5070   14.3030 N   0  0  0  0  0
   38.1060   -5.2800   12.8940 N   0  0  0  0  0
   36.4000   -6.6830   12.8220 O   0  0  0  0  0
   36.8790   -5.5490   10.9120 N   0  0  0  0  0
   33.5050   -8.7450    9.1010 N   0  0  0  0  0
   38.0480  -10.0090   12.2650 Cl  0  0  0  0  0
   34.7770  -10.7710    9.7810 C   0  0  0  0  0
   34.8610  -11.9520   10.5140 C   0  0  0  0  0
   33.7770  -12.2620   11.3110 C   0  0  0  0  0
   32.6390  -11.4340   11.3600 C   0  0  0  0  0
   32.5630  -10.2610   10.6180 C   0  0  0  0  0
   36.1640  -10.4500    8.8210 Cl  0  0  0  0  0
   40.7364   -6.6568   13.3570 H   0  0  0  0  0
   39.2679   -7.6289   13.0201 H   0  0  0  0  0
   35.7060   -8.0662   10.8275 H   0  0  0  0  0
   33.7683   -4.5738    7.7246 H   0  0  0  0  0
   35.6644   -4.0328    9.2587 H   0  0  0  0  0
   31.8993   -6.8992    6.9906 H   0  0  0  0  0
   31.8437   -9.3408    7.8970 H   0  0  0  0  0
   38.6314   -9.5498   17.1696 H   0  0  0  0  0
   36.1992   -9.8711   17.5949 H   0  0  0  0  0
   34.6252  -10.2164   15.6894 H   0  0  0  0  0
   35.4943  -10.2936   13.3486 H   0  0  0  0  0
   37.8450   -4.9220   14.9747 H   0  0  0  0  0
   38.7343   -4.6555   12.3885 H   0  0  0  0  0
   37.5536   -4.9226   10.4729 H   0  0  0  0  0
   35.7372  -12.5983   10.4613 H   0  0  0  0  0
   33.8027  -13.1683   11.9161 H   0  0  0  0  0
   31.7992  -11.7192   11.9937 H   0  0  0  0  0
   31.6840   -9.6192   10.6777 H   0  0  0  0  0
  1  2  1  0  0  0
  1  3  2  0  0  0
 25  1  1  0  0  0
  2 20  1  0  0  0
 26  4  1  0  0  0
  4 27  2  0  0  0
  4 28  1  0  0  0
  5  6  4  0  0  0
  5 10  4  0  0  0
 28  5  1  0  0  0
  6  7  4  0  0  0
  7  8  4  0  0  0
  7 29  4  0  0  0
  9  8  4  0  0  0
  8 11  4  0  0  0
 10  9  4  0  0  0
 11 12  4  0  0  0
 29 12  4  0  0  0
 29 13  1  0  0  0
 13 31  4  0  0  0
 13 35  4  0  0  0
 14 15  4  0  0  0
 14 19  4  0  0  0
 24 14  1  0  0  0
 15 16  4  0  0  0
 16 17  4  0  0  0
 18 17  4  0  0  0
 19 18  4  0  0  0
 19 30  1  0  0  0
 20 21  4  0  0  0
 20 24  4  0  0  0
 21 22  4  0  0  0
 23 22  4  0  0  0
 24 23  4  0  0  0
 25 26  1  0  0  0
 31 32  4  0  0  0
 31 36  1  0  0  0
 32 33  4  0  0  0
 33 34  4  0  0  0
 34 35  4  0  0  0
  2 37  1  0  0  0
  2 38  1  0  0  0
  6 39  1  0  0  0
  9 40  1  0  0  0
 10 41  1  0  0  0
 11 42  1  0  0  0
 12 43  1  0  0  0
 15 44  1  0  0  0
 16 45  1  0  0  0
 17 46  1  0  0  0
 18 47  1  0  0  0
 25 48  1  0  0  0
 26 49  1  0  0  0
 28 50  1  0  0  0
 32 51  1  0  0  0
 33 52  1  0  0  0
 34 53  1  0  0  0
 35 54  1  0  0  0
M  END
$$$$
