### 
### Created by X-TOOL on Mon Sep 10 21:13:07 2018
### 

@<TRIPOS>MOLECULE
3are_ligand
  157   157     1     0     0
SMALL
GAST_HUCK


@<TRIPOS>ATOM
      1 C1         -9.9700  -44.7830  -62.8540 C.3       1 4GH         0.0761
      2 C2        -10.3960  -45.3970  -64.1950 C.3       1 4GH         0.0911
      3 N2        -11.8590  -45.4400  -64.2830 N.am      1 4GH        -0.2792
      4 C3         -9.9180  -46.8410  -64.3680 C.3       1 4GH         0.0802
      5 O3         -8.5070  -46.9000  -64.1400 O.3       1 4GH        -0.3894
      6 C4        -10.1950  -47.3450  -65.7830 C.3       1 4GH        -0.0246
      7 C5         -9.8970  -48.8310  -65.9500 C.3       1 4GH        -0.0506
      8 C6        -11.1310  -49.5780  -66.4430 C.3       1 4GH        -0.0530
      9 C7        -10.9980  -50.0040  -67.9000 C.3       1 4GH        -0.0531
     10 C8        -10.3850  -51.3960  -68.0180 C.3       1 4GH        -0.0531
     11 C9        -11.0040  -52.1750  -69.1730 C.3       1 4GH        -0.0531
     12 C10        -9.9910  -53.1450  -69.7630 C.3       1 4GH        -0.0531
     13 C11       -10.6140  -54.5160  -70.0080 C.3       1 4GH        -0.0531
     14 C12        -9.6060  -55.6300  -69.7470 C.3       1 4GH        -0.0531
     15 C13        -8.8340  -56.0020  -71.0090 C.3       1 4GH        -0.0531
     16 C14        -7.7010  -56.9680  -70.6830 C.3       1 4GH        -0.0531
     17 C15        -6.3430  -56.3230  -70.9350 C.3       1 4GH        -0.0531
     18 C16        -5.4310  -56.4500  -69.7180 C.3       1 4GH        -0.0533
     19 C17        -4.2930  -57.4300  -69.9790 C.3       1 4GH        -0.0559
     20 C18        -2.9630  -56.7180  -70.0980 C.3       1 4GH        -0.0653
     21 C1A       -10.5360  -44.3780  -60.5940 C.3       1 4GH         0.1878
     22 O1A       -10.7920  -45.1780  -61.7570 O.3       1 4GH        -0.3463
     23 C2A       -11.0410  -45.0970  -59.3480 C.3       1 4GH         0.1317
     24 O2A       -10.5400  -46.4340  -59.3520 O.3       1 4GH        -0.3842
     25 C3A       -12.5660  -45.1320  -59.2860 C.3       1 4GH         0.0882
     26 O3A       -12.9540  -45.6030  -57.9930 O.3       1 4GH        -0.3890
     27 C4A       -13.1810  -43.7550  -59.5240 C.3       1 4GH         0.0044
     28 O5A       -12.4470  -40.7630  -60.0350 O.3       1 4GH        -0.3925
     29 C5M       -12.5780  -43.0900  -60.7610 C.3       1 4GH         0.0872
     30 C6A       -13.1240  -41.6700  -60.9140 C.3       1 4GH         0.0706
     31 O6A       -11.1450  -43.0790  -60.6760 O.3       1 4GH        -0.3431
     32 CAA       -12.6200  -44.3710  -64.5330 C.2       1 4GH         0.1764
     33 OAA       -12.1810  -43.2390  -64.6890 O.2       1 4GH        -0.3971
     34 CAB       -14.1070  -44.6210  -64.6120 C.3       1 4GH         0.0372
     35 CAC       -14.5680  -44.3110  -66.0330 C.3       1 4GH        -0.0361
     36 CAD       -15.3970  -45.4460  -66.6260 C.3       1 4GH        -0.0510
     37 CAE       -14.7720  -46.0030  -67.9030 C.3       1 4GH        -0.0529
     38 CAF       -15.4890  -45.5110  -69.1560 C.3       1 4GH        -0.0531
     39 CAG       -15.2340  -46.4450  -70.3370 C.3       1 4GH        -0.0531
     40 CAH       -15.9430  -45.9610  -71.6000 C.3       1 4GH        -0.0531
     41 CAI       -14.9310  -45.5010  -72.6430 C.3       1 4GH        -0.0531
     42 CAJ       -15.5870  -45.0950  -73.9600 C.3       1 4GH        -0.0531
     43 CAK       -14.5620  -44.5060  -74.9300 C.3       1 4GH        -0.0531
     44 CAL       -14.4770  -42.9830  -74.8120 C.3       1 4GH        -0.0531
     45 CAM       -15.1710  -42.3090  -75.9910 C.3       1 4GH        -0.0531
     46 CAN       -14.8440  -40.8240  -76.0680 C.3       1 4GH        -0.0531
     47 CAO       -15.9740  -39.9900  -75.4730 C.3       1 4GH        -0.0531
     48 CAP       -16.7800  -39.2830  -76.5570 C.3       1 4GH        -0.0531
     49 CAQ       -17.9520  -38.5030  -75.9670 C.3       1 4GH        -0.0531
     50 CAR       -19.2470  -39.3070  -76.0060 C.3       1 4GH        -0.0531
     51 CAS       -20.0570  -39.0660  -74.7380 C.3       1 4GH        -0.0531
     52 CAT       -21.1850  -40.0800  -74.5870 C.3       1 4GH        -0.0531
     53 CAU       -20.8690  -41.1150  -73.5130 C.3       1 4GH        -0.0531
     54 CAV       -22.0610  -42.0360  -73.2870 C.3       1 4GH        -0.0531
     55 CAW       -21.7890  -43.4330  -73.8340 C.3       1 4GH        -0.0531
     56 CAX       -21.7100  -44.4420  -72.6940 C.3       1 4GH        -0.0533
     57 CAY       -20.9340  -45.6910  -73.0930 C.3       1 4GH        -0.0559
     58 CAZ       -19.5160  -45.6480  -72.5720 C.3       1 4GH        -0.0653
     59 H         -10.0519  -43.7003  -62.9500 H         1 4GH         0.0585
     60 H          -8.9576  -45.1279  -62.6440 H         1 4GH         0.0585
     61 H          -9.9479  -44.7681  -64.9643 H         1 4GH         0.0604
     62 H         -12.3224  -46.3381  -64.1454 H         1 4GH         0.1856
     63 H         -10.4557  -47.4652  -63.6543 H         1 4GH         0.0617
     64 H          -8.2041  -47.8046  -64.2478 H         1 4GH         0.2099
     65 H          -9.5467  -46.7958  -66.4658 H         1 4GH         0.0291
     66 H         -11.2540  -47.1916  -65.9906 H         1 4GH         0.0291
     67 H          -9.6002  -49.2408  -64.9845 H         1 4GH         0.0266
     68 H          -9.0984  -48.9494  -66.6823 H         1 4GH         0.0266
     69 H         -11.9886  -48.9102  -66.3606 H         1 4GH         0.0265
     70 H         -11.2509  -50.4752  -65.8357 H         1 4GH         0.0265
     71 H         -10.3471  -49.2943  -68.4105 H         1 4GH         0.0265
     72 H         -11.9918  -50.0239  -68.3473 H         1 4GH         0.0265
     73 H         -10.5735  -51.9388  -67.0917 H         1 4GH         0.0265
     74 H          -9.3159  -51.2908  -68.2027 H         1 4GH         0.0265
     75 H         -11.3160  -51.4737  -69.9469 H         1 4GH         0.0265
     76 H         -11.8603  -52.7384  -68.8022 H         1 4GH         0.0265
     77 H          -9.1679  -53.2589  -69.0575 H         1 4GH         0.0265
     78 H          -9.6433  -52.7465  -70.7161 H         1 4GH         0.0265
     79 H         -10.9358  -54.5727  -71.0479 H         1 4GH         0.0265
     80 H         -11.4578  -54.6425  -69.3297 H         1 4GH         0.0265
     81 H         -10.1495  -56.5109  -69.4055 H         1 4GH         0.0265
     82 H          -8.8936  -55.2796  -69.0002 H         1 4GH         0.0265
     83 H          -8.4106  -55.0961  -71.4427 H         1 4GH         0.0265
     84 H          -9.5160  -56.4829  -71.7102 H         1 4GH         0.0265
     85 H          -7.7951  -57.8457  -71.3225 H         1 4GH         0.0265
     86 H          -7.7677  -57.2424  -69.6302 H         1 4GH         0.0265
     87 H          -6.4963  -55.2641  -71.1433 H         1 4GH         0.0265
     88 H          -5.8700  -56.8299  -71.7761 H         1 4GH         0.0265
     89 H          -6.0211  -56.8188  -68.8790 H         1 4GH         0.0265
     90 H          -5.0033  -55.4712  -69.5011 H         1 4GH         0.0265
     91 H          -4.4921  -57.9479  -70.9172 H         1 4GH         0.0263
     92 H          -4.2381  -58.1257  -69.1417 H         1 4GH         0.0263
     93 H          -3.0046  -56.0090  -70.9249 H         1 4GH         0.0230
     94 H          -2.7536  -56.1847  -69.1707 H         1 4GH         0.0230
     95 H          -2.1763  -57.4492  -70.2838 H         1 4GH         0.0230
     96 H          -9.4572  -44.2332  -60.5357 H         1 4GH         0.0937
     97 H         -10.6859  -44.5503  -58.4744 H         1 4GH         0.0670
     98 H         -10.8506  -46.8886  -60.1384 H         1 4GH         0.2101
     99 H         -12.9271  -45.7940  -60.0730 H         1 4GH         0.0621
    100 H         -12.5987  -46.4840  -57.8547 H         1 4GH         0.2099
    101 H         -12.9778  -43.1273  -58.6563 H         1 4GH         0.0317
    102 H         -14.2533  -43.8738  -59.6794 H         1 4GH         0.0317
    103 H         -11.5097  -40.7574  -60.2427 H         1 4GH         0.2095
    104 H         -12.8609  -43.6651  -61.6427 H         1 4GH         0.0621
    105 H         -12.9673  -41.3436  -61.9421 H         1 4GH         0.0583
    106 H         -14.1848  -41.6740  -60.6635 H         1 4GH         0.0583
    107 H         -14.6323  -43.9840  -63.9004 H         1 4GH         0.0502
    108 H         -14.3258  -45.6600  -64.3655 H         1 4GH         0.0502
    109 H         -13.6839  -44.1737  -66.6556 H         1 4GH         0.0290
    110 H         -15.1891  -43.4158  -66.0019 H         1 4GH         0.0290
    111 H         -16.3843  -45.0549  -66.8719 H         1 4GH         0.0267
    112 H         -15.4482  -46.2504  -65.8923 H         1 4GH         0.0267
    113 H         -14.8488  -47.0899  -67.8725 H         1 4GH         0.0265
    114 H         -13.7367  -45.6654  -67.9496 H         1 4GH         0.0265
    115 H         -15.1120  -44.5196  -69.4073 H         1 4GH         0.0265
    116 H         -16.5604  -45.4841  -68.9572 H         1 4GH         0.0265
    117 H         -15.6181  -47.4331  -70.0837 H         1 4GH         0.0265
    118 H         -14.1618  -46.4690  -70.5318 H         1 4GH         0.0265
    119 H         -16.5892  -45.1220  -71.3419 H         1 4GH         0.0265
    120 H         -16.5265  -46.7835  -72.0138 H         1 4GH         0.0265
    121 H         -14.2579  -46.3338  -72.8468 H         1 4GH         0.0265
    122 H         -14.4120  -44.6292  -72.2445 H         1 4GH         0.0265
    123 H         -16.3444  -44.3390  -73.7528 H         1 4GH         0.0265
    124 H         -16.0287  -45.9809  -74.4163 H         1 4GH         0.0265
    125 H         -14.8699  -44.7541  -75.9458 H         1 4GH         0.0265
    126 H         -13.5841  -44.9232  -74.6897 H         1 4GH         0.0265
    127 H         -13.4274  -42.6889  -74.8070 H         1 4GH         0.0265
    128 H         -14.9700  -42.6738  -73.8903 H         1 4GH         0.0265
    129 H         -16.2479  -42.4158  -75.8606 H         1 4GH         0.0265
    130 H         -14.8242  -42.7836  -76.9089 H         1 4GH         0.0265
    131 H         -14.7147  -40.5460  -77.1140 H         1 4GH         0.0265
    132 H         -13.9317  -40.6349  -75.5023 H         1 4GH         0.0265
    133 H         -15.5374  -39.2342  -74.8201 H         1 4GH         0.0265
    134 H         -16.6419  -40.6552  -74.9257 H         1 4GH         0.0265
    135 H         -17.1757  -40.0361  -77.2384 H         1 4GH         0.0265
    136 H         -16.1237  -38.5814  -77.0719 H         1 4GH         0.0265
    137 H         -18.0932  -37.5986  -76.5587 H         1 4GH         0.0265
    138 H         -17.7220  -38.2757  -74.9261 H         1 4GH         0.0265
    139 H         -19.0056  -40.3675  -76.0781 H         1 4GH         0.0265
    140 H         -19.8347  -38.9936  -76.8688 H         1 4GH         0.0265
    141 H         -20.4964  -38.0702  -74.7957 H         1 4GH         0.0265
    142 H         -19.3904  -39.1643  -73.8812 H         1 4GH         0.0265
    143 H         -21.3121  -40.5979  -75.5376 H         1 4GH         0.0265
    144 H         -22.0904  -39.5473  -74.2962 H         1 4GH         0.0265
    145 H         -20.6411  -40.5979  -72.5809 H         1 4GH         0.0265
    146 H         -20.0180  -41.7130  -73.8390 H         1 4GH         0.0265
    147 H         -22.9250  -41.6210  -73.8060 H         1 4GH         0.0265
    148 H         -22.2445  -42.1114  -72.2152 H         1 4GH         0.0265
    149 H         -20.8398  -43.4266  -74.3697 H         1 4GH         0.0265
    150 H         -22.6003  -43.7166  -74.5044 H         1 4GH         0.0265
    151 H         -22.7248  -44.7399  -72.4305 H         1 4GH         0.0265
    152 H         -21.1938  -43.9720  -71.8569 H         1 4GH         0.0265
    153 H         -20.9018  -45.7460  -74.1811 H         1 4GH         0.0263
    154 H         -21.4338  -46.5605  -72.6661 H         1 4GH         0.0263
    155 H         -19.0057  -44.7767  -72.9825 H         1 4GH         0.0230
    156 H         -19.5318  -45.5823  -71.4841 H         1 4GH         0.0230
    157 H         -18.9913  -46.5541  -72.8749 H         1 4GH         0.0230
@<TRIPOS>BOND
     1    1    2 1  
     2   22    1 1  
     3    2    3 1  
     4    2    4 1  
     5    3   32 am 
     6    4    5 1  
     7    4    6 1  
     8    6    7 1  
     9    7    8 1  
    10    8    9 1  
    11    9   10 1  
    12   10   11 1  
    13   11   12 1  
    14   12   13 1  
    15   13   14 1  
    16   14   15 1  
    17   15   16 1  
    18   16   17 1  
    19   17   18 1  
    20   18   19 1  
    21   19   20 1  
    22   21   22 1  
    23   23   21 1  
    24   21   31 1  
    25   23   24 1  
    26   25   23 1  
    27   25   26 1  
    28   27   25 1  
    29   29   27 1  
    30   30   28 1  
    31   29   30 1  
    32   29   31 1  
    33   32   33 2  
    34   32   34 1  
    35   34   35 1  
    36   35   36 1  
    37   36   37 1  
    38   37   38 1  
    39   38   39 1  
    40   39   40 1  
    41   40   41 1  
    42   41   42 1  
    43   42   43 1  
    44   43   44 1  
    45   44   45 1  
    46   45   46 1  
    47   46   47 1  
    48   47   48 1  
    49   48   49 1  
    50   49   50 1  
    51   50   51 1  
    52   51   52 1  
    53   52   53 1  
    54   53   54 1  
    55   54   55 1  
    56   55   56 1  
    57   56   57 1  
    58   57   58 1  
    59    1   59 1  
    60    1   60 1  
    61    2   61 1  
    62    3   62 1  
    63    4   63 1  
    64    5   64 1  
    65    6   65 1  
    66    6   66 1  
    67    7   67 1  
    68    7   68 1  
    69    8   69 1  
    70    8   70 1  
    71    9   71 1  
    72    9   72 1  
    73   10   73 1  
    74   10   74 1  
    75   11   75 1  
    76   11   76 1  
    77   12   77 1  
    78   12   78 1  
    79   13   79 1  
    80   13   80 1  
    81   14   81 1  
    82   14   82 1  
    83   15   83 1  
    84   15   84 1  
    85   16   85 1  
    86   16   86 1  
    87   17   87 1  
    88   17   88 1  
    89   18   89 1  
    90   18   90 1  
    91   19   91 1  
    92   19   92 1  
    93   20   93 1  
    94   20   94 1  
    95   20   95 1  
    96   21   96 1  
    97   23   97 1  
    98   24   98 1  
    99   25   99 1  
   100   26  100 1  
   101   27  101 1  
   102   27  102 1  
   103   28  103 1  
   104   29  104 1  
   105   30  105 1  
   106   30  106 1  
   107   34  107 1  
   108   34  108 1  
   109   35  109 1  
   110   35  110 1  
   111   36  111 1  
   112   36  112 1  
   113   37  113 1  
   114   37  114 1  
   115   38  115 1  
   116   38  116 1  
   117   39  117 1  
   118   39  118 1  
   119   40  119 1  
   120   40  120 1  
   121   41  121 1  
   122   41  122 1  
   123   42  123 1  
   124   42  124 1  
   125   43  125 1  
   126   43  126 1  
   127   44  127 1  
   128   44  128 1  
   129   45  129 1  
   130   45  130 1  
   131   46  131 1  
   132   46  132 1  
   133   47  133 1  
   134   47  134 1  
   135   48  135 1  
   136   48  136 1  
   137   49  137 1  
   138   49  138 1  
   139   50  139 1  
   140   50  140 1  
   141   51  141 1  
   142   51  142 1  
   143   52  143 1  
   144   52  144 1  
   145   53  145 1  
   146   53  146 1  
   147   54  147 1  
   148   54  148 1  
   149   55  149 1  
   150   55  150 1  
   151   56  151 1  
   152   56  152 1  
   153   57  153 1  
   154   57  154 1  
   155   58  155 1  
   156   58  156 1  
   157   58  157 1  
@<TRIPOS>SUBSTRUCTURE
     1 4GH         1

