3are_ligand
  -I-interpret- 

157157  0  0  0  0  0  0  0  0999 V2000
   -9.9700  -44.7830  -62.8540 C   0  0  0  0  0
  -10.3960  -45.3970  -64.1950 C   0  0  0  0  0
  -11.8590  -45.4400  -64.2830 N   0  0  0  0  0
   -9.9180  -46.8410  -64.3680 C   0  0  0  0  0
   -8.5070  -46.9000  -64.1400 O   0  0  0  0  0
  -10.1950  -47.3450  -65.7830 C   0  0  0  0  0
   -9.8970  -48.8310  -65.9500 C   0  0  0  0  0
  -11.1310  -49.5780  -66.4430 C   0  0  0  0  0
  -10.9980  -50.0040  -67.9000 C   0  0  0  0  0
  -10.3850  -51.3960  -68.0180 C   0  0  0  0  0
  -11.0040  -52.1750  -69.1730 C   0  0  0  0  0
   -9.9910  -53.1450  -69.7630 C   0  0  0  0  0
  -10.6140  -54.5160  -70.0080 C   0  0  0  0  0
   -9.6060  -55.6300  -69.7470 C   0  0  0  0  0
   -8.8340  -56.0020  -71.0090 C   0  0  0  0  0
   -7.7010  -56.9680  -70.6830 C   0  0  0  0  0
   -6.3430  -56.3230  -70.9350 C   0  0  0  0  0
   -5.4310  -56.4500  -69.7180 C   0  0  0  0  0
   -4.2930  -57.4300  -69.9790 C   0  0  0  0  0
   -2.9630  -56.7180  -70.0980 C   0  0  0  0  0
  -10.5360  -44.3780  -60.5940 C   0  0  0  0  0
  -10.7920  -45.1780  -61.7570 O   0  0  0  0  0
  -11.0410  -45.0970  -59.3480 C   0  0  0  0  0
  -10.5400  -46.4340  -59.3520 O   0  0  0  0  0
  -12.5660  -45.1320  -59.2860 C   0  0  0  0  0
  -12.9540  -45.6030  -57.9930 O   0  0  0  0  0
  -13.1810  -43.7550  -59.5240 C   0  0  0  0  0
  -12.4470  -40.7630  -60.0350 O   0  0  0  0  0
  -12.5780  -43.0900  -60.7610 C   0  0  0  0  0
  -13.1240  -41.6700  -60.9140 C   0  0  0  0  0
  -11.1450  -43.0790  -60.6760 O   0  0  0  0  0
  -12.6200  -44.3710  -64.5330 C   0  0  0  0  0
  -12.1810  -43.2390  -64.6890 O   0  0  0  0  0
  -14.1070  -44.6210  -64.6120 C   0  0  0  0  0
  -14.5680  -44.3110  -66.0330 C   0  0  0  0  0
  -15.3970  -45.4460  -66.6260 C   0  0  0  0  0
  -14.7720  -46.0030  -67.9030 C   0  0  0  0  0
  -15.4890  -45.5110  -69.1560 C   0  0  0  0  0
  -15.2340  -46.4450  -70.3370 C   0  0  0  0  0
  -15.9430  -45.9610  -71.6000 C   0  0  0  0  0
  -14.9310  -45.5010  -72.6430 C   0  0  0  0  0
  -15.5870  -45.0950  -73.9600 C   0  0  0  0  0
  -14.5620  -44.5060  -74.9300 C   0  0  0  0  0
  -14.4770  -42.9830  -74.8120 C   0  0  0  0  0
  -15.1710  -42.3090  -75.9910 C   0  0  0  0  0
  -14.8440  -40.8240  -76.0680 C   0  0  0  0  0
  -15.9740  -39.9900  -75.4730 C   0  0  0  0  0
  -16.7800  -39.2830  -76.5570 C   0  0  0  0  0
  -17.9520  -38.5030  -75.9670 C   0  0  0  0  0
  -19.2470  -39.3070  -76.0060 C   0  0  0  0  0
  -20.0570  -39.0660  -74.7380 C   0  0  0  0  0
  -21.1850  -40.0800  -74.5870 C   0  0  0  0  0
  -20.8690  -41.1150  -73.5130 C   0  0  0  0  0
  -22.0610  -42.0360  -73.2870 C   0  0  0  0  0
  -21.7890  -43.4330  -73.8340 C   0  0  0  0  0
  -21.7100  -44.4420  -72.6940 C   0  0  0  0  0
  -20.9340  -45.6910  -73.0930 C   0  0  0  0  0
  -19.5160  -45.6480  -72.5720 C   0  0  0  0  0
  -10.0519  -43.7003  -62.9500 H   0  0  0  0  0
   -8.9576  -45.1279  -62.6440 H   0  0  0  0  0
   -9.9479  -44.7681  -64.9643 H   0  0  0  0  0
  -12.3224  -46.3381  -64.1454 H   0  0  0  0  0
  -10.4557  -47.4652  -63.6543 H   0  0  0  0  0
   -8.3138  -46.5863  -63.2535 H   0  0  0  0  0
   -9.5467  -46.7958  -66.4658 H   0  0  0  0  0
  -11.2540  -47.1916  -65.9906 H   0  0  0  0  0
   -9.6002  -49.2408  -64.9845 H   0  0  0  0  0
   -9.0984  -48.9494  -66.6823 H   0  0  0  0  0
  -11.9886  -48.9102  -66.3606 H   0  0  0  0  0
  -11.2509  -50.4752  -65.8357 H   0  0  0  0  0
  -10.3471  -49.2943  -68.4105 H   0  0  0  0  0
  -11.9918  -50.0239  -68.3473 H   0  0  0  0  0
  -10.5735  -51.9388  -67.0917 H   0  0  0  0  0
   -9.3159  -51.2908  -68.2027 H   0  0  0  0  0
  -11.3160  -51.4737  -69.9469 H   0  0  0  0  0
  -11.8603  -52.7384  -68.8022 H   0  0  0  0  0
   -9.1679  -53.2589  -69.0575 H   0  0  0  0  0
   -9.6433  -52.7465  -70.7161 H   0  0  0  0  0
  -10.9358  -54.5727  -71.0479 H   0  0  0  0  0
  -11.4578  -54.6425  -69.3297 H   0  0  0  0  0
  -10.1495  -56.5109  -69.4055 H   0  0  0  0  0
   -8.8936  -55.2796  -69.0002 H   0  0  0  0  0
   -8.4106  -55.0961  -71.4427 H   0  0  0  0  0
   -9.5160  -56.4829  -71.7102 H   0  0  0  0  0
   -7.7951  -57.8457  -71.3225 H   0  0  0  0  0
   -7.7677  -57.2424  -69.6302 H   0  0  0  0  0
   -6.4963  -55.2641  -71.1433 H   0  0  0  0  0
   -5.8700  -56.8299  -71.7761 H   0  0  0  0  0
   -6.0211  -56.8188  -68.8790 H   0  0  0  0  0
   -5.0033  -55.4712  -69.5011 H   0  0  0  0  0
   -4.4921  -57.9479  -70.9172 H   0  0  0  0  0
   -4.2381  -58.1257  -69.1417 H   0  0  0  0  0
   -3.0046  -56.0090  -70.9249 H   0  0  0  0  0
   -2.7536  -56.1847  -69.1707 H   0  0  0  0  0
   -2.1763  -57.4492  -70.2838 H   0  0  0  0  0
   -9.4572  -44.2332  -60.5357 H   0  0  0  0  0
  -10.6859  -44.5503  -58.4744 H   0  0  0  0  0
  -10.8535  -46.8943  -58.5701 H   0  0  0  0  0
  -12.9271  -45.7940  -60.0730 H   0  0  0  0  0
  -13.9120  -45.6308  -57.9380 H   0  0  0  0  0
  -12.9778  -43.1273  -58.6563 H   0  0  0  0  0
  -14.2533  -43.8738  -59.6794 H   0  0  0  0  0
  -12.8065  -39.8802  -60.1492 H   0  0  0  0  0
  -12.8609  -43.6651  -61.6427 H   0  0  0  0  0
  -12.9673  -41.3436  -61.9421 H   0  0  0  0  0
  -14.1848  -41.6740  -60.6635 H   0  0  0  0  0
  -14.6323  -43.9840  -63.9004 H   0  0  0  0  0
  -14.3258  -45.6600  -64.3655 H   0  0  0  0  0
  -13.6839  -44.1737  -66.6556 H   0  0  0  0  0
  -15.1891  -43.4158  -66.0019 H   0  0  0  0  0
  -16.3843  -45.0549  -66.8719 H   0  0  0  0  0
  -15.4482  -46.2504  -65.8923 H   0  0  0  0  0
  -14.8488  -47.0899  -67.8725 H   0  0  0  0  0
  -13.7367  -45.6654  -67.9496 H   0  0  0  0  0
  -15.1120  -44.5196  -69.4073 H   0  0  0  0  0
  -16.5604  -45.4841  -68.9572 H   0  0  0  0  0
  -15.6181  -47.4331  -70.0837 H   0  0  0  0  0
  -14.1618  -46.4690  -70.5318 H   0  0  0  0  0
  -16.5892  -45.1220  -71.3419 H   0  0  0  0  0
  -16.5265  -46.7835  -72.0138 H   0  0  0  0  0
  -14.2579  -46.3338  -72.8468 H   0  0  0  0  0
  -14.4120  -44.6292  -72.2445 H   0  0  0  0  0
  -16.3444  -44.3390  -73.7528 H   0  0  0  0  0
  -16.0287  -45.9809  -74.4163 H   0  0  0  0  0
  -14.8699  -44.7541  -75.9458 H   0  0  0  0  0
  -13.5841  -44.9232  -74.6897 H   0  0  0  0  0
  -13.4274  -42.6889  -74.8070 H   0  0  0  0  0
  -14.9700  -42.6738  -73.8903 H   0  0  0  0  0
  -16.2479  -42.4158  -75.8606 H   0  0  0  0  0
  -14.8242  -42.7836  -76.9089 H   0  0  0  0  0
  -14.7147  -40.5460  -77.1140 H   0  0  0  0  0
  -13.9317  -40.6349  -75.5023 H   0  0  0  0  0
  -15.5374  -39.2342  -74.8201 H   0  0  0  0  0
  -16.6419  -40.6552  -74.9257 H   0  0  0  0  0
  -17.1757  -40.0361  -77.2384 H   0  0  0  0  0
  -16.1237  -38.5814  -77.0719 H   0  0  0  0  0
  -18.0932  -37.5986  -76.5587 H   0  0  0  0  0
  -17.7220  -38.2757  -74.9261 H   0  0  0  0  0
  -19.0056  -40.3675  -76.0781 H   0  0  0  0  0
  -19.8347  -38.9936  -76.8688 H   0  0  0  0  0
  -20.4964  -38.0702  -74.7957 H   0  0  0  0  0
  -19.3904  -39.1643  -73.8812 H   0  0  0  0  0
  -21.3121  -40.5979  -75.5376 H   0  0  0  0  0
  -22.0904  -39.5473  -74.2962 H   0  0  0  0  0
  -20.6411  -40.5979  -72.5809 H   0  0  0  0  0
  -20.0180  -41.7130  -73.8390 H   0  0  0  0  0
  -22.9250  -41.6210  -73.8060 H   0  0  0  0  0
  -22.2445  -42.1114  -72.2152 H   0  0  0  0  0
  -20.8398  -43.4266  -74.3697 H   0  0  0  0  0
  -22.6003  -43.7166  -74.5044 H   0  0  0  0  0
  -22.7248  -44.7399  -72.4305 H   0  0  0  0  0
  -21.1938  -43.9720  -71.8569 H   0  0  0  0  0
  -20.9018  -45.7460  -74.1811 H   0  0  0  0  0
  -21.4338  -46.5605  -72.6661 H   0  0  0  0  0
  -19.0057  -44.7767  -72.9825 H   0  0  0  0  0
  -19.5318  -45.5823  -71.4841 H   0  0  0  0  0
  -18.9913  -46.5541  -72.8749 H   0  0  0  0  0
  1  2  1  0  0  0
 22  1  1  0  0  0
  2  3  1  0  0  0
  2  4  1  0  0  0
  3 32  1  0  0  0
  4  5  1  0  0  0
  4  6  1  0  0  0
  6  7  1  0  0  0
  7  8  1  0  0  0
  8  9  1  0  0  0
  9 10  1  0  0  0
 10 11  1  0  0  0
 11 12  1  0  0  0
 12 13  1  0  0  0
 13 14  1  0  0  0
 14 15  1  0  0  0
 15 16  1  0  0  0
 16 17  1  0  0  0
 17 18  1  0  0  0
 18 19  1  0  0  0
 19 20  1  0  0  0
 21 22  1  0  0  0
 23 21  1  0  0  0
 21 31  1  0  0  0
 23 24  1  0  0  0
 25 23  1  0  0  0
 25 26  1  0  0  0
 27 25  1  0  0  0
 29 27  1  0  0  0
 30 28  1  0  0  0
 29 30  1  0  0  0
 29 31  1  0  0  0
 32 33  2  0  0  0
 32 34  1  0  0  0
 34 35  1  0  0  0
 35 36  1  0  0  0
 36 37  1  0  0  0
 37 38  1  0  0  0
 38 39  1  0  0  0
 39 40  1  0  0  0
 40 41  1  0  0  0
 41 42  1  0  0  0
 42 43  1  0  0  0
 43 44  1  0  0  0
 44 45  1  0  0  0
 45 46  1  0  0  0
 46 47  1  0  0  0
 47 48  1  0  0  0
 48 49  1  0  0  0
 49 50  1  0  0  0
 50 51  1  0  0  0
 51 52  1  0  0  0
 52 53  1  0  0  0
 53 54  1  0  0  0
 54 55  1  0  0  0
 55 56  1  0  0  0
 56 57  1  0  0  0
 57 58  1  0  0  0
  1 59  1  0  0  0
  1 60  1  0  0  0
  2 61  1  0  0  0
  3 62  1  0  0  0
  4 63  1  0  0  0
  5 64  1  0  0  0
  6 65  1  0  0  0
  6 66  1  0  0  0
  7 67  1  0  0  0
  7 68  1  0  0  0
  8 69  1  0  0  0
  8 70  1  0  0  0
  9 71  1  0  0  0
  9 72  1  0  0  0
 10 73  1  0  0  0
 10 74  1  0  0  0
 11 75  1  0  0  0
 11 76  1  0  0  0
 12 77  1  0  0  0
 12 78  1  0  0  0
 13 79  1  0  0  0
 13 80  1  0  0  0
 14 81  1  0  0  0
 14 82  1  0  0  0
 15 83  1  0  0  0
 15 84  1  0  0  0
 16 85  1  0  0  0
 16 86  1  0  0  0
 17 87  1  0  0  0
 17 88  1  0  0  0
 18 89  1  0  0  0
 18 90  1  0  0  0
 19 91  1  0  0  0
 19 92  1  0  0  0
 20 93  1  0  0  0
 20 94  1  0  0  0
 20 95  1  0  0  0
 21 96  1  0  0  0
 23 97  1  0  0  0
 24 98  1  0  0  0
 25 99  1  0  0  0
 26100  1  0  0  0
 27101  1  0  0  0
 27102  1  0  0  0
 28103  1  0  0  0
 29104  1  0  0  0
 30105  1  0  0  0
 30106  1  0  0  0
 34107  1  0  0  0
 34108  1  0  0  0
 35109  1  0  0  0
 35110  1  0  0  0
 36111  1  0  0  0
 36112  1  0  0  0
 37113  1  0  0  0
 37114  1  0  0  0
 38115  1  0  0  0
 38116  1  0  0  0
 39117  1  0  0  0
 39118  1  0  0  0
 40119  1  0  0  0
 40120  1  0  0  0
 41121  1  0  0  0
 41122  1  0  0  0
 42123  1  0  0  0
 42124  1  0  0  0
 43125  1  0  0  0
 43126  1  0  0  0
 44127  1  0  0  0
 44128  1  0  0  0
 45129  1  0  0  0
 45130  1  0  0  0
 46131  1  0  0  0
 46132  1  0  0  0
 47133  1  0  0  0
 47134  1  0  0  0
 48135  1  0  0  0
 48136  1  0  0  0
 49137  1  0  0  0
 49138  1  0  0  0
 50139  1  0  0  0
 50140  1  0  0  0
 51141  1  0  0  0
 51142  1  0  0  0
 52143  1  0  0  0
 52144  1  0  0  0
 53145  1  0  0  0
 53146  1  0  0  0
 54147  1  0  0  0
 54148  1  0  0  0
 55149  1  0  0  0
 55150  1  0  0  0
 56151  1  0  0  0
 56152  1  0  0  0
 57153  1  0  0  0
 57154  1  0  0  0
 58155  1  0  0  0
 58156  1  0  0  0
 58157  1  0  0  0
M  END
$$$$
