4r93_ligand
  -I-interpret- 

 72 75  0  0  0  0  0  0  0  0999 V2000
   21.2960   11.9190   23.1090 C   0  0  0  0  0
   20.8880   10.7990   22.1680 C   0  0  0  0  0
   21.4340    9.6260   22.8430 N   0  0  0  0  0
   22.0730    9.9810   24.0060 C   0  0  0  0  0
   21.9820   11.3410   24.1490 N   0  0  0  0  0
   21.0130   13.1010   22.9650 O   0  0  0  0  0
   19.3650   10.6810   22.0970 C   0  0  0  0  0
   22.9630   11.0730   20.6140 C   0  0  0  0  0
   18.6530   10.5960   23.4560 C   0  0  0  0  0
   17.1800   10.1890   23.3820 C   0  0  0  0  0
   23.3710   11.9700   19.4450 C   0  0  0  0  0
   24.8930   12.0280   19.2760 C   0  0  0  0  0
   25.5270   10.6380   19.2010 C   0  0  0  0  0
   25.0820    9.7560   20.3640 C   0  0  0  0  0
   23.5580    9.6700   20.4590 C   0  0  0  0  0
   16.6700    9.9420   24.7950 C   0  0  0  0  0
   15.2100    9.4870   24.8320 C   0  0  0  0  0
   14.3140   10.4650   24.0960 C   0  0  0  0  0
   14.8350   10.7860   22.6990 C   0  0  0  0  0
   16.2980   11.2260   22.6910 C   0  0  0  0  0
   22.6790    9.1980   24.8380 N   0  0  0  0  0
   25.2920   12.8110   18.1220 N   0  0  0  0  0
   25.8300   14.0770   18.2970 C   0  0  0  0  0
   21.4440   11.0000   20.7510 C   0  0  0  0  0
   22.5630   12.1160   25.2360 C   0  0  0  0  0
   25.8470   14.6520   19.3810 O   0  0  0  0  0
   26.3020   14.5980   17.1170 N   0  0  0  0  0
   26.7720   15.9160   16.8940 C   0  0  0  0  0
   27.2080   16.2230   15.6190 C   0  0  0  0  0
   27.6780   17.4950   15.3320 C   0  0  0  0  0
   27.6960   18.4670   16.3160 C   0  0  0  0  0
   27.2590   18.1710   17.5910 C   0  0  0  0  0
   26.8060   16.8950   17.8810 C   0  0  0  0  0
   21.3521    8.6699   22.4973 H   0  0  0  0  0
   19.1467    9.7522   21.5700 H   0  0  0  0  0
   19.0028   11.5860   21.6093 H   0  0  0  0  0
   23.3622   11.5162   21.5263 H   0  0  0  0  0
   18.6848   11.5938   23.8936 H   0  0  0  0  0
   19.1656    9.8279   24.0351 H   0  0  0  0  0
   17.1222    9.2843   22.7767 H   0  0  0  0  0
   23.0099   12.9788   19.6451 H   0  0  0  0  0
   22.9404   11.5594   18.5317 H   0  0  0  0  0
   25.2637   12.5247   20.1726 H   0  0  0  0  0
   26.6102   10.7499   19.2477 H   0  0  0  0  0
   25.2134   10.1656   18.2701 H   0  0  0  0  0
   25.4594   10.1918   21.2891 H   0  0  0  0  0
   25.4729    8.7515   20.2020 H   0  0  0  0  0
   23.1672    9.2131   19.5499 H   0  0  0  0  0
   23.2861    9.0673   21.3256 H   0  0  0  0  0
   16.7389   10.8822   25.3422 H   0  0  0  0  0
   17.2763    9.1492   25.2332 H   0  0  0  0  0
   14.8877    9.4335   25.8719 H   0  0  0  0  0
   15.1358    8.5135   24.3473 H   0  0  0  0  0
   14.2834   11.3926   24.6676 H   0  0  0  0  0
   13.3284   10.0108   23.9939 H   0  0  0  0  0
   14.2395   11.6094   22.3047 H   0  0  0  0  0
   14.7591    9.8781   22.1006 H   0  0  0  0  0
   16.6268   11.3342   21.6574 H   0  0  0  0  0
   16.3833   12.1721   23.2255 H   0  0  0  0  0
   23.1302    9.5854   25.6667 H   0  0  0  0  0
   25.1769   12.4307   17.1826 H   0  0  0  0  0
   21.0656   11.9651   20.4142 H   0  0  0  0  0
   21.1328   10.1255   20.1796 H   0  0  0  0  0
   22.1465   11.7777   26.1848 H   0  0  0  0  0
   23.6441   11.9770   25.2422 H   0  0  0  0  0
   22.3319   13.1714   25.0920 H   0  0  0  0  0
   26.3156   13.9682   16.3148 H   0  0  0  0  0
   27.1822   15.4634   14.8376 H   0  0  0  0  0
   28.0341   17.7298   14.3289 H   0  0  0  0  0
   28.0562   19.4692   16.0837 H   0  0  0  0  0
   27.2703   18.9376   18.3658 H   0  0  0  0  0
   26.4734   16.6560   18.8911 H   0  0  0  0  0
  2  1  1  0  0  0
  1  5  1  0  0  0
  1  6  2  0  0  0
  2  3  1  0  0  0
  2  7  1  0  0  0
 24  2  1  0  0  0
  3  4  1  0  0  0
  4  5  4  0  0  0
  4 21  2  0  0  0
  5 25  1  0  0  0
  7  9  1  0  0  0
  8 11  1  0  0  0
  8 15  1  0  0  0
  8 24  1  0  0  0
  9 10  1  0  0  0
 10 16  1  0  0  0
 10 20  1  0  0  0
 11 12  1  0  0  0
 12 13  1  0  0  0
 12 22  1  0  0  0
 13 14  1  0  0  0
 14 15  1  0  0  0
 16 17  1  0  0  0
 17 18  1  0  0  0
 18 19  1  0  0  0
 19 20  1  0  0  0
 22 23  1  0  0  0
 23 26  2  0  0  0
 23 27  1  0  0  0
 27 28  1  0  0  0
 28 29  4  0  0  0
 28 33  4  0  0  0
 29 30  4  0  0  0
 30 31  4  0  0  0
 31 32  4  0  0  0
 32 33  4  0  0  0
  3 34  1  0  0  0
  7 35  1  0  0  0
  7 36  1  0  0  0
  8 37  1  0  0  0
  9 38  1  0  0  0
  9 39  1  0  0  0
 10 40  1  0  0  0
 11 41  1  0  0  0
 11 42  1  0  0  0
 12 43  1  0  0  0
 13 44  1  0  0  0
 13 45  1  0  0  0
 14 46  1  0  0  0
 14 47  1  0  0  0
 15 48  1  0  0  0
 15 49  1  0  0  0
 16 50  1  0  0  0
 16 51  1  0  0  0
 17 52  1  0  0  0
 17 53  1  0  0  0
 18 54  1  0  0  0
 18 55  1  0  0  0
 19 56  1  0  0  0
 19 57  1  0  0  0
 20 58  1  0  0  0
 20 59  1  0  0  0
 21 60  1  0  0  0
 22 61  1  0  0  0
 24 62  1  0  0  0
 24 63  1  0  0  0
 25 64  1  0  0  0
 25 65  1  0  0  0
 25 66  1  0  0  0
 27 67  1  0  0  0
 29 68  1  0  0  0
 30 69  1  0  0  0
 31 70  1  0  0  0
 32 71  1  0  0  0
 33 72  1  0  0  0
M  END
$$$$
