2o2u_ligand
  -I-interpret- 

 34 36  0  0  0  0  0  0  0  0999 V2000
   19.5450   10.4260   35.7940 F   0  0  0  0  0
   18.9070   11.4910   35.2970 C   0  0  0  0  0
   17.8990   12.0620   36.0520 C   0  0  0  0  0
   17.1920   13.1530   35.5790 C   0  0  0  0  0
   17.5010   13.7030   34.3460 C   0  0  0  0  0
   18.5170   13.1420   33.5790 C   0  0  0  0  0
   19.2230   12.0280   34.0450 C   0  0  0  0  0
   20.2900   11.4670   33.1840 C   0  0  0  0  0
   21.0490   12.2260   32.6270 O   0  0  0  0  0
   20.3780   10.0820   33.0270 N   0  0  0  0  0
   21.3100    9.3220   32.2600 C   0  0  0  0  0
   21.2720    7.9450   32.0530 C   0  0  0  0  0
   20.2620    7.0910   32.5840 C   0  0  0  0  0
   19.4030    6.4420   33.0200 N   0  0  0  0  0
   22.6080    9.9140   31.4980 S   0  0  0  0  0
   23.1570    8.5540   30.8670 C   0  0  0  0  0
   24.3820    8.4150   30.0050 C   0  0  0  0  0
   24.3780    7.0570   29.2760 C   0  0  0  0  0
   24.0030    5.8950   30.2200 C   0  0  0  0  0
   22.5860    6.0700   30.8260 C   0  0  0  0  0
   22.3300    7.5060   31.2560 C   0  0  0  0  0
   17.6587   11.6477   37.0311 H   0  0  0  0  0
   16.3889   13.5813   36.1788 H   0  0  0  0  0
   16.9516   14.5699   33.9789 H   0  0  0  0  0
   18.7644   13.5732   32.6090 H   0  0  0  0  0
   19.6779    9.5379   33.5313 H   0  0  0  0  0
   25.2682    8.4751   30.6368 H   0  0  0  0  0
   24.3862    9.2145   29.2642 H   0  0  0  0  0
   25.3814    6.8736   28.8916 H   0  0  0  0  0
   23.6367    7.1007   28.4781 H   0  0  0  0  0
   24.7228    5.8758   31.0383 H   0  0  0  0  0
   24.0141    4.9706   29.6425 H   0  0  0  0  0
   22.5073    5.4297   31.7046 H   0  0  0  0  0
   21.8524    5.8039   30.0650 H   0  0  0  0  0
  1  2  1  0  0  0
  2  3  4  0  0  0
  2  7  4  0  0  0
  3  4  4  0  0  0
  4  5  4  0  0  0
  5  6  4  0  0  0
  6  7  4  0  0  0
  7  8  1  0  0  0
  8  9  2  0  0  0
  8 10  1  0  0  0
 10 11  1  0  0  0
 11 12  4  0  0  0
 11 15  4  0  0  0
 12 13  1  0  0  0
 12 21  4  0  0  0
 13 14  3  0  0  0
 15 16  4  0  0  0
 16 17  1  0  0  0
 16 21  4  0  0  0
 17 18  1  0  0  0
 18 19  1  0  0  0
 19 20  1  0  0  0
 20 21  1  0  0  0
  3 22  1  0  0  0
  4 23  1  0  0  0
  5 24  1  0  0  0
  6 25  1  0  0  0
 10 26  1  0  0  0
 17 27  1  0  0  0
 17 28  1  0  0  0
 18 29  1  0  0  0
 18 30  1  0  0  0
 19 31  1  0  0  0
 19 32  1  0  0  0
 20 33  1  0  0  0
 20 34  1  0  0  0
M  END
$$$$
