1fkw_ligand
  -I-interpret- 

 30 32  0  0  0  0  0  0  0  0999 V2000
    1.4170   20.5820   39.0430 N   0  0  0  0  0
    2.4140   20.2810   39.8730 C   0  0  0  0  0
    3.5980   19.8370   39.4450 N   0  0  0  0  0
    3.8150   19.6690   38.1140 C   0  0  0  0  0
    2.8430   19.9510   37.2150 C   0  0  0  0  0
    1.5720   20.4330   37.6710 C   0  0  0  0  0
    3.3330   19.6990   35.9880 N   0  0  0  0  0
    4.5840   19.2630   36.1240 C   0  0  0  0  0
    4.8960   19.2380   37.4140 N   0  0  0  0  0
    6.1190   18.7400   37.9560 C   0  0  0  0  0
    6.5240   17.5220   37.1330 C   0  0  0  0  0
    6.7250   16.4000   37.9960 O   0  0  0  0  0
    7.7910   17.8350   36.2810 C   0  0  0  0  0
    8.7170   16.7430   36.3000 O   0  0  0  0  0
    8.2370   19.0170   37.2670 C   0  0  0  0  0
    7.1410   19.6880   37.7680 O   0  0  0  0  0
    9.2070   20.0290   36.5950 C   0  0  0  0  0
    8.6900   20.5750   35.3590 O   0  0  0  0  0
    2.2570   20.4020   40.9448 H   0  0  0  0  0
    0.7673   20.6707   36.9753 H   0  0  0  0  0
    5.2453   18.9733   35.3074 H   0  0  0  0  0
    5.9830   18.5150   39.0138 H   0  0  0  0  0
    5.7226   17.2717   36.4378 H   0  0  0  0  0
    6.9796   15.6366   37.4725 H   0  0  0  0  0
    7.6894   18.0399   35.2153 H   0  0  0  0  0
    9.4842   16.9662   35.7678 H   0  0  0  0  0
    8.7742   18.5385   38.0859 H   0  0  0  0  0
   10.1303   19.4985   36.3623 H   0  0  0  0  0
    9.3533   20.8577   37.2877 H   0  0  0  0  0
    9.3281   21.1905   34.9907 H   0  0  0  0  0
  1  6  4  0  0  0
  1  2  4  0  0  0
  2  3  4  0  0  0
  3  4  4  0  0  0
  4  9  4  0  0  0
  4  5  4  0  0  0
  5  7  4  0  0  0
  5  6  4  0  0  0
  7  8  4  0  0  0
  8  9  4  0  0  0
  9 10  1  0  0  0
 10 16  1  0  0  0
 10 11  1  0  0  0
 11 13  1  0  0  0
 11 12  1  0  0  0
 13 15  1  0  0  0
 13 14  1  0  0  0
 15 17  1  0  0  0
 15 16  1  0  0  0
 17 18  1  0  0  0
  2 19  1  0  0  0
  6 20  1  0  0  0
  8 21  1  0  0  0
 10 22  1  0  0  0
 11 23  1  0  0  0
 12 24  1  0  0  0
 13 25  1  0  0  0
 14 26  1  0  0  0
 15 27  1  0  0  0
 17 28  1  0  0  0
 17 29  1  0  0  0
 18 30  1  0  0  0
M  END
$$$$
