5fdd_ligand
  -I-interpret- 

 30 31  0  0  0  0  0  0  0  0999 V2000
    0.3000  -25.1190  -17.1610 O   0  0  0  0  0
    0.7500  -25.6670  -16.1550 C   0  0  0  0  0
    0.2420  -26.8850  -15.7130 C   0  0  0  0  0
    0.7740  -27.5110  -14.5840 C   0  0  0  0  0
   -0.7980  -27.5090  -16.3930 C   0  0  0  0  0
   -1.3250  -26.9160  -17.5030 O   0  0  0  0  0
   -1.2940  -28.7370  -15.9820 C   0  0  0  0  0
   -2.3020  -29.2570  -16.6810 N   0  0  0  0  0
   -2.9420  -28.4340  -17.7920 O   0  0  0  0  0
   -2.8030  -30.4880  -16.2760 O   0  0  0  0  0
   -0.7730  -29.3510  -14.8440 C   0  0  0  0  0
    0.2740  -28.7430  -14.1460 C   0  0  0  0  0
    0.8220  -29.3500  -13.0030 C   0  0  0  0  0
    1.4010  -30.5920  -13.2970 C   0  0  0  0  0
    2.6960  -30.6680  -13.8050 C   0  0  0  0  0
    3.6300  -29.2250  -14.0940 Cl  0  0  0  0  0
    3.2540  -31.9120  -14.0900 C   0  0  0  0  0
    2.5360  -33.0830  -13.8700 C   0  0  0  0  0
    1.2460  -33.0130  -13.3590 C   0  0  0  0  0
    0.6880  -31.7700  -13.0730 C   0  0  0  0  0
    1.5593  -25.1908  -15.6014 H   0  0  0  0  0
    1.5880  -27.0349  -14.0374 H   0  0  0  0  0
   -2.0285  -27.4663  -17.8550 H   0  0  0  0  0
   -1.1807  -30.3016  -14.5000 H   0  0  0  0  0
    0.0195  -29.5091  -12.2827 H   0  0  0  0  0
    1.5992  -28.6957  -12.6081 H   0  0  0  0  0
    4.2662  -31.9687  -14.4905 H   0  0  0  0  0
    2.9833  -34.0506  -14.0974 H   0  0  0  0  0
    0.6749  -33.9246  -13.1833 H   0  0  0  0  0
   -0.3223  -31.7163  -12.6675 H   0  0  0  0  0
  1  2  2  0  0  0
  2  3  1  0  0  0
  3  4  4  0  0  0
  3  5  4  0  0  0
  4 12  4  0  0  0
  5  6  1  0  0  0
  5  7  4  0  0  0
  7  8  1  0  0  0
  7 11  4  0  0  0
  8  9  2  0  0  0
  8 10  2  0  0  0
 11 12  4  0  0  0
 12 13  1  0  0  0
 13 14  1  0  0  0
 14 15  4  0  0  0
 14 20  4  0  0  0
 15 16  1  0  0  0
 15 17  4  0  0  0
 17 18  4  0  0  0
 18 19  4  0  0  0
 19 20  4  0  0  0
  2 21  1  0  0  0
  4 22  1  0  0  0
  6 23  1  0  0  0
 11 24  1  0  0  0
 13 25  1  0  0  0
 13 26  1  0  0  0
 17 27  1  0  0  0
 18 28  1  0  0  0
 19 29  1  0  0  0
 20 30  1  0  0  0
M  END
$$$$
