1bhf_ligand
  -I-interpret- 

 85 85  0  0  0  0  0  0  0  0999 V2000
   27.6390   -3.7340   -1.7180 C   0  0  0  0  0
   28.2180   -4.1110   -0.6940 O   0  0  0  0  0
   27.6430   -4.6120   -2.9520 C   0  0  0  0  0
   26.9090   -2.6180   -1.7950 N   0  0  0  0  0
   26.8160   -1.6200   -0.7320 C   0  0  0  0  0
   27.3020   -0.2740   -1.2730 C   0  0  0  0  0
   28.7740   -0.2820   -1.5270 C   0  0  0  0  0
   29.6750   -0.2880   -0.4600 C   0  0  0  0  0
   31.0600   -0.3520   -0.6900 C   0  0  0  0  0
   29.2780   -0.3380   -2.8210 C   0  0  0  0  0
   30.6650   -0.4050   -3.0430 C   0  0  0  0  0
   31.5700   -0.4150   -1.9850 C   0  0  0  0  0
   33.0620   -0.5450   -2.2370 C   0  0  0  0  0
   33.8610   -0.9830   -1.0180 C   0  0  0  0  0
   33.5870   -2.0610   -0.4540 O   0  0  0  0  0
   34.7620   -0.2370   -0.5980 O   0  0  0  0  0
   25.4310   -1.4430   -0.1020 C   0  0  0  0  0
   24.4480   -1.1160   -0.7770 O   0  0  0  0  0
   25.3810   -1.6540    1.2010 N   0  0  0  0  0
   24.1590   -1.5130    1.9680 C   0  0  0  0  0
   23.8810   -0.0050    2.0920 C   0  0  0  0  0
   24.8030    0.8160    2.0170 O   0  0  0  0  0
   24.3850   -2.1560    3.3330 C   0  0  0  0  0
   23.1690   -2.3880    4.1900 C   0  0  0  0  0
   22.2020   -3.4460    3.6450 C   0  0  0  0  0
   22.4490   -4.0610    2.5940 O   0  0  0  0  0
   21.1720   -3.6520    4.2990 O   0  0  0  0  0
   22.6140    0.3660    2.2340 N   0  0  0  0  0
   22.2640    1.7710    2.3640 C   0  0  0  0  0
   21.3300    1.9310    3.5540 C   0  0  0  0  0
   20.7540    0.9580    4.0570 O   0  0  0  0  0
   21.5260    2.2980    1.1140 C   0  0  0  0  0
   22.2080    2.1130   -0.2250 C   0  0  0  0  0
   23.4140    3.0300   -0.4660 C   0  0  0  0  0
   23.7180    3.9120    0.3580 O   0  0  0  0  0
   24.0630    2.8480   -1.5050 O   0  0  0  0  0
   21.2330    3.1670    4.0250 N   0  0  0  0  0
   20.3300    3.5070    5.1040 C   0  0  0  0  0
   18.9680    3.7500    4.3940 C   0  0  0  0  0
   18.9640    4.3350    3.2920 O   0  0  0  0  0
   20.8310    4.7620    5.8580 C   0  0  0  0  0
   21.9400    4.3630    6.8260 C   0  0  0  0  0
   19.6850    5.4810    6.5640 C   0  0  0  0  0
   22.5100    5.5200    7.6340 C   0  0  0  0  0
   17.9340    3.2380    4.8710 O   0  0  0  0  0
   28.6708   -4.7794   -3.2739 H   0  0  0  0  0
   27.1741   -5.5677   -2.7179 H   0  0  0  0  0
   27.0870   -4.1186   -3.7492 H   0  0  0  0  0
   26.3819   -2.4516   -2.6522 H   0  0  0  0  0
   27.4455   -1.9960    0.0745 H   0  0  0  0  0
   27.0850    0.4940   -0.5306 H   0  0  0  0  0
   26.7911   -0.0772   -2.2155 H   0  0  0  0  0
   29.2999   -0.2425    0.5624 H   0  0  0  0  0
   31.7455   -0.3524    0.1575 H   0  0  0  0  0
   28.5937   -0.3299   -3.6694 H   0  0  0  0  0
   31.0397   -0.4501   -4.0656 H   0  0  0  0  0
   33.4278    0.4403   -2.5259 H   0  0  0  0  0
   33.1948   -1.3099   -3.0021 H   0  0  0  0  0
   32.8683   -2.4922   -0.9222 H   0  0  0  0  0
   26.2356   -1.9268    1.6864 H   0  0  0  0  0
   23.3046   -1.9996    1.4976 H   0  0  0  0  0
   25.0124   -1.4596    3.8894 H   0  0  0  0  0
   24.7994   -3.1438    3.1313 H   0  0  0  0  0
   22.6222   -1.4459    4.2310 H   0  0  0  0  0
   23.5228   -2.7460    5.1568 H   0  0  0  0  0
   23.2888   -3.7608    2.2387 H   0  0  0  0  0
   21.8794   -0.3414    2.2520 H   0  0  0  0  0
   23.1878    2.3355    2.4905 H   0  0  0  0  0
   21.4399    3.3754    1.2547 H   0  0  0  0  0
   20.6002    1.7257    1.0550 H   0  0  0  0  0
   21.4706    2.3527   -0.9911 H   0  0  0  0  0
   22.5795    1.0886   -0.2517 H   0  0  0  0  0
   23.0969    3.8924    1.0898 H   0  0  0  0  0
   21.8119    3.8998    3.6147 H   0  0  0  0  0
   20.2538    2.7288    5.8634 H   0  0  0  0  0
   21.2408    5.4711    5.1387 H   0  0  0  0  0
   22.7559    3.9550    6.2294 H   0  0  0  0  0
   21.5085    3.6572    7.5358 H   0  0  0  0  0
   18.9441    5.7917    5.8274 H   0  0  0  0  0
   19.2226    4.8056    7.2838 H   0  0  0  0  0
   20.0727    6.3574    7.0833 H   0  0  0  0  0
   22.9290    6.2634    6.9559 H   0  0  0  0  0
   21.7156    5.9737    8.2266 H   0  0  0  0  0
   23.2921    5.1485    8.2961 H   0  0  0  0  0
   18.1384    2.8379    5.7194 H   0  0  0  0  0
  1  2  2  0  0  0
  1  3  1  0  0  0
  5  4  1  0  0  0
 17  5  1  0  0  0
  5  6  1  0  0  0
  6  7  1  0  0  0
  7 10  4  0  0  0
  7  8  4  0  0  0
  8  9  4  0  0  0
  9 12  4  0  0  0
 12 13  1  0  0  0
 11 12  4  0  0  0
 10 11  4  0  0  0
 13 14  1  0  0  0
 14 16  2  0  0  0
 14 15  1  0  0  0
 17 18  2  0  0  0
 20 21  1  0  0  0
 20 23  1  0  0  0
 19 20  1  0  0  0
 23 24  1  0  0  0
 24 25  1  0  0  0
 25 26  1  0  0  0
 25 27  2  0  0  0
 21 22  2  0  0  0
 29 30  1  0  0  0
 29 32  1  0  0  0
 28 29  1  0  0  0
 32 33  1  0  0  0
 33 34  1  0  0  0
 34 35  1  0  0  0
 34 36  2  0  0  0
 30 31  2  0  0  0
 38 39  1  0  0  0
 38 41  1  0  0  0
 37 38  1  0  0  0
 41 42  1  0  0  0
 41 43  1  0  0  0
 42 44  1  0  0  0
 39 45  1  0  0  0
 39 40  2  0  0  0
 21 28  1  0  0  0
 30 37  1  0  0  0
  4  1  1  0  0  0
 17 19  1  0  0  0
  3 46  1  0  0  0
  3 47  1  0  0  0
  3 48  1  0  0  0
  4 49  1  0  0  0
  5 50  1  0  0  0
  6 51  1  0  0  0
  6 52  1  0  0  0
  8 53  1  0  0  0
  9 54  1  0  0  0
 10 55  1  0  0  0
 11 56  1  0  0  0
 13 57  1  0  0  0
 13 58  1  0  0  0
 15 59  1  0  0  0
 19 60  1  0  0  0
 20 61  1  0  0  0
 23 62  1  0  0  0
 23 63  1  0  0  0
 24 64  1  0  0  0
 24 65  1  0  0  0
 26 66  1  0  0  0
 28 67  1  0  0  0
 29 68  1  0  0  0
 32 69  1  0  0  0
 32 70  1  0  0  0
 33 71  1  0  0  0
 33 72  1  0  0  0
 35 73  1  0  0  0
 37 74  1  0  0  0
 38 75  1  0  0  0
 41 76  1  0  0  0
 42 77  1  0  0  0
 42 78  1  0  0  0
 43 79  1  0  0  0
 43 80  1  0  0  0
 43 81  1  0  0  0
 44 82  1  0  0  0
 44 83  1  0  0  0
 44 84  1  0  0  0
 45 85  1  0  0  0
M  END
$$$$
