6n4e_ligand
  -I-interpret- 

 51 53  0  0  0  0  0  0  0  0999 V2000
   14.4590   32.1080  -18.1520 C   0  0  0  0  0
   15.9640   30.2060  -17.6390 C   0  0  0  0  0
   13.6160   30.1520  -16.6870 C   0  0  0  0  0
   12.7340   28.2790  -15.2140 C   0  0  0  0  0
   11.1740   30.0990  -16.0060 C   0  0  0  0  0
   12.3800   30.9860  -16.3120 C   0  0  0  0  0
    9.4790   28.3670  -13.6080 C   0  0  0  0  0
    8.3440   27.4080  -13.5030 C   0  0  0  0  0
    7.9470   26.9890  -12.2410 C   0  0  0  0  0
    6.2770   25.6220  -13.0890 C   0  0  0  0  0
    5.2370   24.7420  -12.8710 C   0  0  0  0  0
    4.4890   24.1900  -13.9260 C   0  0  0  0  0
    4.1200   22.2700  -12.7930 C   0  0  0  0  0
    4.7980   24.5120  -15.2420 C   0  0  0  0  0
    5.8450   25.4140  -15.4940 C   0  0  0  0  0
    6.5860   25.9760  -14.4260 C   0  0  0  0  0
    7.6510   26.8840  -14.6070 C   0  0  0  0  0
   14.8070   31.0470  -17.0960 C   0  0  0  0  0
   15.2690   31.7390  -15.9370 O   0  0  0  0  0
   13.9200   29.2060  -15.5100 C   0  0  0  0  0
   11.4800   29.0930  -14.9030 C   0  0  0  0  0
   10.3320   28.2340  -14.6990 N   0  0  0  0  0
    9.6350   29.2010  -12.7130 O   0  0  0  0  0
    6.9350   26.1150  -12.0280 N   0  0  0  0  0
    3.5190   23.2740  -13.6320 O   0  0  0  0  0
    3.3200   22.1510  -11.7130 F   0  0  0  0  0
    4.3500   21.1290  -13.4750 F   0  0  0  0  0
   13.6816   32.7652  -17.7624 H   0  0  0  0  0
   15.3487   32.6933  -18.3840 H   0  0  0  0  0
   14.1007   31.6153  -19.0559 H   0  0  0  0  0
   16.7966   30.8600  -17.8980 H   0  0  0  0  0
   16.2827   29.4941  -16.8776 H   0  0  0  0  0
   15.6341   29.6668  -18.5270 H   0  0  0  0  0
   13.4202   29.5473  -17.5725 H   0  0  0  0  0
   12.9765   27.6601  -14.3501 H   0  0  0  0  0
   12.5439   27.6582  -16.0895 H   0  0  0  0  0
   10.9140   29.5488  -16.9103 H   0  0  0  0  0
   10.3549   30.7360  -15.6724 H   0  0  0  0  0
   12.1293   31.6286  -17.1560 H   0  0  0  0  0
   12.6147   31.5674  -15.4204 H   0  0  0  0  0
    8.4781   27.3845  -11.3752 H   0  0  0  0  0
    4.9868   24.4654  -11.8468 H   0  0  0  0  0
    5.1163   22.5508  -12.4515 H   0  0  0  0  0
    4.2367   24.0715  -16.0660 H   0  0  0  0  0
    6.0894   25.6839  -16.5214 H   0  0  0  0  0
    7.9392   27.1822  -15.6150 H   0  0  0  0  0
   16.0104   32.3004  -16.1752 H   0  0  0  0  0
   14.1167   29.8093  -14.6237 H   0  0  0  0  0
   14.7811   28.5920  -15.7737 H   0  0  0  0  0
   11.6818   29.6390  -13.9815 H   0  0  0  0  0
   10.1411   27.5018  -15.3830 H   0  0  0  0  0
 18  1  1  0  0  0
 18  2  1  0  0  0
  6  3  1  0  0  0
  3 18  1  0  0  0
 20  3  1  0  0  0
  4 20  1  0  0  0
 21  4  1  0  0  0
  5  6  1  0  0  0
 21  5  1  0  0  0
  7  8  1  0  0  0
 22  7  1  0  0  0
  7 23  2  0  0  0
  8  9  4  0  0  0
  8 17  4  0  0  0
  9 24  4  0  0  0
 10 11  4  0  0  0
 16 10  4  0  0  0
 24 10  4  0  0  0
 11 12  4  0  0  0
 14 12  4  0  0  0
 12 25  1  0  0  0
 25 13  1  0  0  0
 13 26  1  0  0  0
 13 27  1  0  0  0
 15 14  4  0  0  0
 16 15  4  0  0  0
 17 16  4  0  0  0
 18 19  1  0  0  0
 21 22  1  0  0  0
  1 28  1  0  0  0
  1 29  1  0  0  0
  1 30  1  0  0  0
  2 31  1  0  0  0
  2 32  1  0  0  0
  2 33  1  0  0  0
  3 34  1  0  0  0
  4 35  1  0  0  0
  4 36  1  0  0  0
  5 37  1  0  0  0
  5 38  1  0  0  0
  6 39  1  0  0  0
  6 40  1  0  0  0
  9 41  1  0  0  0
 11 42  1  0  0  0
 13 43  1  0  0  0
 14 44  1  0  0  0
 15 45  1  0  0  0
 17 46  1  0  0  0
 19 47  1  0  0  0
 20 48  1  0  0  0
 20 49  1  0  0  0
 21 50  1  0  0  0
 22 51  1  0  0  0
M  END
$$$$
