4n99_ligand
  -I-interpret- 

 24 26  0  0  0  0  0  0  0  0999 V2000
  -20.9160    1.0330  -23.7810 Cl  0  0  0  0  0
  -22.6740    0.8280  -24.0760 C   0  0  0  0  0
  -23.4770    0.2370  -23.1020 C   0  0  0  0  0
  -24.8330    0.0970  -23.3720 C   0  0  0  0  0
  -25.9420   -0.4710  -22.5800 C   0  0  0  0  0
  -25.9580   -1.0870  -21.2020 C   0  0  0  0  0
  -27.4150   -1.1330  -20.7290 C   0  0  0  0  0
  -28.4110   -1.6350  -21.7850 C   0  0  0  0  0
  -28.5170   -0.7580  -23.0380 C   0  0  0  0  0
  -27.1340   -0.3120  -23.4490 C   0  0  0  0  0
  -26.7710    0.2770  -24.6100 N   0  0  0  0  0
  -25.4480    0.5480  -24.6490 C   0  0  0  0  0
  -24.6350    1.1360  -25.6160 C   0  0  0  0  0
  -23.2700    1.2890  -25.3670 C   0  0  0  0  0
  -22.3960    1.9200  -26.4090 C   0  0  0  0  0
  -21.8380    2.9820  -26.1960 O   0  0  0  0  0
  -22.2190    1.3210  -27.5830 O   0  0  0  0  0
  -23.0543   -0.1050  -22.1573 H   0  0  0  0  0
  -25.0894   -1.4363  -20.6437 H   0  0  0  0  0
  -27.7193   -0.8341  -19.7259 H   0  0  0  0  0
  -28.9972   -2.5445  -21.6537 H   0  0  0  0  0
  -29.4431   -0.4978  -23.5506 H   0  0  0  0  0
  -25.0619    1.4741  -26.5602 H   0  0  0  0  0
  -22.7181    0.5011  -27.6011 H   0  0  0  0  0
  1  2  1  0  0  0
  2  3  4  0  0  0
  2 14  4  0  0  0
  3  4  4  0  0  0
  4  5  4  0  0  0
  4 12  4  0  0  0
  5  6  4  0  0  0
  5 10  4  0  0  0
  6  7  4  0  0  0
  7  8  4  0  0  0
  8  9  4  0  0  0
  9 10  4  0  0  0
 10 11  4  0  0  0
 11 12  4  0  0  0
 12 13  4  0  0  0
 13 14  4  0  0  0
 14 15  1  0  0  0
 15 16  2  0  0  0
 15 17  1  0  0  0
  3 18  1  0  0  0
  6 19  1  0  0  0
  7 20  1  0  0  0
  8 21  1  0  0  0
  9 22  1  0  0  0
 13 23  1  0  0  0
 17 24  1  0  0  0
M  END
$$$$
