### 
### Created by X-TOOL on Mon Sep 10 21:13:12 2018
### 

@<TRIPOS>MOLECULE
2ltz_ligand
  239   245     1     0     0
SMALL
GAST_HUCK


@<TRIPOS>ATOM
      1 N           3.6300   -8.9880   -6.2230 N.4       1 GLU         0.2380
      2 CA          2.9130   -9.1540   -4.9390 C.3       1 GLU         0.0665
      3 C           2.3610  -10.5690   -4.8360 C.2       1 GLU         0.2268
      4 O           1.6570  -11.0310   -5.7320 O.2       1 GLU        -0.3907
      5 CB          1.7680   -8.1320   -4.8120 C.3       1 GLU         0.0194
      6 CG          2.2270   -6.6790   -4.7130 C.3       1 GLU         0.0075
      7 CD          2.9170   -6.1840   -5.9690 C.2       1 GLU         0.0351
      8 OE1         4.1370   -6.4020   -6.1040 O.co2     1 GLU        -0.5690
      9 OE2         2.2430   -5.5940   -6.8330 O.co2     1 GLU        -0.5690
     10 N           2.6910  -11.2560   -3.7450 N.am      1 LEU        -0.2610
     11 CA          2.2060  -12.6150   -3.5120 C.3       1 LEU         0.1313
     12 C           0.7020  -12.6160   -3.2500 C.2       1 LEU         0.2039
     13 O           0.0290  -13.6380   -3.3850 O.2       1 LEU        -0.3944
     14 CB          2.9450  -13.2520   -2.3320 C.3       1 LEU        -0.0101
     15 CG          2.6170  -14.7250   -2.0700 C.3       1 LEU        -0.0425
     16 CD1         3.0780  -15.5930   -3.2320 C.3       1 LEU        -0.0625
     17 CD2         3.2500  -15.1880   -0.7680 C.3       1 LEU        -0.0625
     18 N           0.1880  -11.4650   -2.8590 N.am      1 GLU        -0.2636
     19 CA         -1.2350  -11.2950   -2.6490 C.3       1 GLU         0.1325
     20 C          -1.8950  -10.9170   -3.9750 C.2       1 GLU         0.2041
     21 O          -1.2070  -10.5460   -4.9270 O.2       1 GLU        -0.3944
     22 CB         -1.4640  -10.2150   -1.5790 C.3       1 GLU        -0.0008
     23 CG         -2.9220   -9.9830   -1.2040 C.3       1 GLU         0.0044
     24 CD         -3.6520  -11.2630   -0.8500 C.2       1 GLU         0.0350
     25 OE1        -3.5250  -11.7380    0.2980 O.co2     1 GLU        -0.5690
     26 OE2        -4.3560  -11.8040   -1.7300 O.co2     1 GLU        -0.5690
     27 N          -3.2120  -11.0460   -4.0330 N.am      1 SER        -0.2616
     28 CA         -3.9980  -10.6520   -5.1940 C.3       1 SER         0.1541
     29 C          -3.6520   -9.2560   -5.6800 C.2       1 SER         0.2087
     30 O          -3.2220   -8.3890   -4.9220 O.2       1 SER        -0.3941
     31 CB         -5.4770  -10.7460   -4.8630 C.3       1 SER         0.0843
     32 OG         -5.7390  -10.3850   -3.5120 O.3       1 SER        -0.3903
     33 N          -3.8890   -9.0640   -6.9700 N.am      1 PRO        -0.2498
     34 CA         -3.6090   -7.8230   -7.6890 C.3       1 PRO         0.1340
     35 C          -4.1510   -6.5990   -6.9450 C.2       1 PRO         0.2066
     36 O          -5.3550   -6.5010   -6.6910 O.2       1 PRO        -0.3942
     37 CB         -4.3710   -8.0100   -9.0060 C.3       1 PRO        -0.0104
     38 CG         -4.5270   -9.4860   -9.1880 C.3       1 PRO        -0.0281
     39 CD         -4.4100  -10.1210   -7.8270 C.3       1 PRO         0.0369
     40 N          -3.2660   -5.6540   -6.5700 N.am      1 PRO        -0.2498
     41 CA         -3.6370   -4.5170   -5.7340 C.3       1 PRO         0.1340
     42 C          -4.2980   -3.3690   -6.5010 C.2       1 PRO         0.2066
     43 O          -4.2570   -3.3160   -7.7340 O.2       1 PRO        -0.3942
     44 CB         -2.3020   -4.0510   -5.1270 C.3       1 PRO        -0.0104
     45 CG         -1.2320   -4.9070   -5.7290 C.3       1 PRO        -0.0281
     46 CD         -1.8380   -5.6180   -6.9050 C.3       1 PRO         0.0369
     47 N          -4.9170   -2.4390   -5.7450 N.am      1 PRO        -0.2498
     48 CA         -5.5450   -1.2270   -6.2880 C.3       1 PRO         0.1340
     49 C          -4.6320   -0.4680   -7.2570 C.2       1 PRO         0.2066
     50 O          -3.4490   -0.2670   -6.9740 O.2       1 PRO        -0.3942
     51 CB         -5.7920   -0.3560   -5.0470 C.3       1 PRO        -0.0104
     52 CG         -5.6970   -1.2480   -3.8590 C.3       1 PRO        -0.0281
     53 CD         -5.0720   -2.5430   -4.2860 C.3       1 PRO         0.0369
     54 N          -5.1780   -0.0360   -8.4100 N.am      1 PRO        -0.2498
     55 CA         -4.4450    0.7830   -9.3880 C.3       1 PRO         0.1338
     56 C          -3.8550    2.0280   -8.7340 C.2       1 PRO         0.2042
     57 O          -4.4870    2.6300   -7.8600 O.2       1 PRO        -0.3944
     58 CB         -5.5210    1.1740  -10.4040 C.3       1 PRO        -0.0104
     59 CG         -6.5550    0.1100  -10.2890 C.3       1 PRO        -0.0281
     60 CD         -6.5560   -0.3120   -8.8470 C.3       1 PRO         0.0369
     61 N          -2.6590    2.4250   -9.1630 N.am      1 TYR        -0.2621
     62 CA         -1.9330    3.4940   -8.4900 C.3       1 TYR         0.1390
     63 C          -2.6360    4.8460   -8.5870 C.2       1 TYR         0.2058
     64 O          -2.5310    5.5660   -9.5820 O.2       1 TYR        -0.3942
     65 CB         -0.5000    3.6220   -8.9990 C.3       1 TYR         0.0163
     66 CG          0.3420    4.5570   -8.1530 C.ar      1 TYR        -0.0493
     67 CD1         0.6580    4.2220   -6.8440 C.ar      1 TYR        -0.0685
     68 CD2         0.8250    5.7640   -8.6530 C.ar      1 TYR        -0.0685
     69 CE1         1.4270    5.0530   -6.0590 C.ar      1 TYR        -0.0398
     70 CE2         1.5970    6.6040   -7.8630 C.ar      1 TYR        -0.0398
     71 CZ          1.8930    6.2380   -6.5690 C.ar      1 TYR         0.0805
     72 OH          2.6700    7.0530   -5.7810 O.3       1 TYR        -0.3376
     73 N          -3.3980    5.1340   -7.5600 N.am      1 SER        -0.2614
     74 CA         -3.8600    6.4660   -7.2640 C.3       1 SER         0.1539
     75 C          -3.2090    6.8490   -5.9490 C.2       1 SER         0.2062
     76 O          -2.9210    5.9590   -5.1450 O.2       1 SER        -0.3943
     77 CB         -5.3890    6.5010   -7.1790 C.3       1 SER         0.0843
     78 OG         -5.8930    5.4250   -6.4050 O.3       1 SER        -0.3903
     79 N          -2.9500    8.1320   -5.7150 N.am      1 ARG        -0.2637
     80 CA         -2.1650    8.5110   -4.5470 C.3       1 ARG         0.1311
     81 C          -2.8730    8.0250   -3.2980 C.2       1 ARG         0.2040
     82 O          -2.2810    7.3620   -2.4500 O.2       1 ARG        -0.3944
     83 CB         -2.0040   10.0310   -4.4190 C.3       1 ARG        -0.0092
     84 CG         -1.4810   10.7460   -5.6400 C.3       1 ARG        -0.0156
     85 CD         -1.2610   12.2300   -5.3740 C.3       1 ARG         0.0627
     86 NE         -0.7230   12.4760   -4.0360 N.pl3     1 ARG        -0.2723
     87 CZ          0.4390   13.0740   -3.7820 C.cat     1 ARG         0.2882
     88 NH1         1.2000   13.5120   -4.7740 N.pl3     1 ARG        -0.2849
     89 NH2         0.8230   13.2500   -2.5230 N.pl3     1 ARG        -0.2849
     90 N          -4.1280    8.4120   -3.1740 N.am      1 TYR        -0.2621
     91 CA         -4.9500    7.9920   -2.0620 C.3       1 TYR         0.1392
     92 C          -6.1640    7.2410   -2.5820 C.2       1 TYR         0.2082
     93 O          -7.1810    7.8400   -2.9300 O.2       1 TYR        -0.3940
     94 CB         -5.3190    9.2120   -1.2050 C.3       1 TYR         0.0164
     95 CG         -4.0970   10.0600   -0.9150 C.ar      1 TYR        -0.0493
     96 CD1        -3.5610   10.8830   -1.8990 C.ar      1 TYR        -0.0685
     97 CD2        -3.4320    9.9810    0.2990 C.ar      1 TYR        -0.0685
     98 CE1        -2.4070   11.5970   -1.6900 C.ar      1 TYR        -0.0398
     99 CE2        -2.2780   10.7090    0.5230 C.ar      1 TYR        -0.0398
    100 CZ         -1.7660   11.5100   -0.4760 C.ar      1 TYR         0.0805
    101 OH         -0.5950   12.2020   -0.2630 O.3       1 TYR        -0.3376
    102 N          -6.0320    5.9180   -2.6980 N.am      1 PRO        -0.2497
    103 CA         -7.0720    5.0600   -3.2430 C.3       1 PRO         0.1338
    104 C          -8.1510    4.7910   -2.2070 C.2       1 PRO         0.2041
    105 O          -7.8600    4.3220   -1.1100 O.2       1 PRO        -0.3944
    106 CB         -6.3310    3.7690   -3.6220 C.3       1 PRO        -0.0104
    107 CG         -4.9440    3.8750   -3.0500 C.3       1 PRO        -0.0281
    108 CD         -4.8530    5.1580   -2.2780 C.3       1 PRO         0.0369
    109 N          -9.3950    5.0940   -2.5450 N.am      1 MET        -0.2637
    110 CA        -10.4670    5.0110   -1.5670 C.3       1 MET         0.1317
    111 C         -11.0450    3.6040   -1.4810 C.2       1 MET         0.2035
    112 O         -11.8000    3.1670   -2.3540 O.2       1 MET        -0.3944
    113 CB        -11.5760    6.0230   -1.8610 C.3       1 MET        -0.0034
    114 CG        -12.6190    6.0910   -0.7570 C.3       1 MET        -0.0024
    115 SD        -13.8810    7.3450   -1.0520 S.3       1 MET        -0.1639
    116 CE        -14.8420    7.2090    0.4550 C.3       1 MET        -0.0181
    117 N         -10.6450    2.9020   -0.4360 N.am      1 ASP        -0.2679
    118 CA        -11.1970    1.5980   -0.0950 C.3       1 ASP         0.1057
    119 C         -10.8700    1.3100    1.3550 C.2       1 ASP         0.0618
    120 O          -9.6690    1.1760    1.6560 O.co2     1 ASP        -0.5665
    121 CB        -10.6200    0.4870   -0.9730 C.3       1 ASP         0.0351
    122 CG        -11.3760   -0.8200   -0.8060 C.2       1 ASP         0.0387
    123 OD1       -12.3990   -1.0050   -1.5040 O.co2     1 ASP        -0.5688
    124 OD2       -10.9570   -1.6700    0.0040 O.co2     1 ASP        -0.5688
    125 OXT       -11.7940    1.2650    2.1870 O.co2     1 ASP        -0.5665
    126 H           4.3817   -9.6749   -6.2826 H         1 GLU         0.2015
    127 H           2.9785   -9.1274   -6.9953 H         1 GLU         0.2015
    128 H           4.0222   -8.0478   -6.2729 H         1 GLU         0.2015
    129 H           3.6176   -8.9798   -4.1258 H         1 GLU         0.1099
    130 H           1.2346   -8.3624   -3.8897 H         1 GLU         0.0363
    131 H           1.1633   -8.2155   -5.7150 H         1 GLU         0.0363
    132 H           2.9441   -6.6141   -3.8946 H         1 GLU         0.0434
    133 H           1.3415   -6.0626   -4.5577 H         1 GLU         0.0434
    134 H           3.2999  -10.8217   -3.0515 H         1 LEU         0.1884
    135 H           2.4015  -13.2028   -4.4089 H         1 LEU         0.0800
    136 H           2.6416  -12.7022   -1.4411 H         1 LEU         0.0315
    137 H           4.0079  -13.2071   -2.5693 H         1 LEU         0.0315
    138 H           1.5354  -14.8255   -1.9797 H         1 LEU         0.0298
    139 H           2.5725  -15.2754   -4.1440 H         1 LEU         0.0232
    140 H           4.1557  -15.4880   -3.3571 H         1 LEU         0.0232
    141 H           2.8348  -16.6350   -3.0243 H         1 LEU         0.0232
    142 H           4.3320  -15.0711   -0.8298 H         1 LEU         0.0232
    143 H           2.8648  -14.5869    0.0557 H         1 LEU         0.0232
    144 H           3.0056  -16.2368   -0.5995 H         1 LEU         0.0232
    145 H           0.8105  -10.6727   -2.7002 H         1 GLU         0.1883
    146 H          -1.6832  -12.2237   -2.2959 H         1 GLU         0.0801
    147 H          -1.0913   -9.2776   -1.9919 H         1 GLU         0.0330
    148 H          -0.9557  -10.5527   -0.6758 H         1 GLU         0.0330
    149 H          -3.4214   -9.5433   -2.0673 H         1 GLU         0.0433
    150 H          -2.9408   -9.3361   -0.3270 H         1 GLU         0.0433
    151 H          -3.6982  -11.4395   -3.2273 H         1 SER         0.1884
    152 H          -3.7569  -11.3379   -6.0061 H         1 SER         0.0823
    153 H          -5.7966  -11.7776   -5.0105 H         1 SER         0.0606
    154 H          -6.0183  -10.0585   -5.5129 H         1 SER         0.0606
    155 H          -5.2599  -10.9751   -2.9256 H         1 SER         0.2097
    156 H          -2.5403   -7.6467   -7.8107 H         1 PRO         0.0802
    157 H          -3.8299   -7.5649   -9.8410 H         1 PRO         0.0313
    158 H          -5.3401   -7.5121   -8.9747 H         1 PRO         0.0313
    159 H          -3.7586   -9.8722   -9.8577 H         1 PRO         0.0287
    160 H          -5.4938   -9.7162   -9.6357 H         1 PRO         0.0287
    161 H          -5.3683  -10.4987   -7.4704 H         1 PRO         0.0524
    162 H          -3.7568  -10.9935   -7.8398 H         1 PRO         0.0524
    163 H          -4.3844   -4.8134   -4.9980 H         1 PRO         0.0802
    164 H          -2.3136   -4.1507   -4.0416 H         1 PRO         0.0313
    165 H          -2.1240   -2.9978   -5.3440 H         1 PRO         0.0313
    166 H          -0.8591   -5.6246   -4.9981 H         1 PRO         0.0287
    167 H          -0.3858   -4.2968   -6.0448 H         1 PRO         0.0287
    168 H          -1.6390   -5.1145   -7.8510 H         1 PRO         0.0524
    169 H          -1.4160   -6.6108   -7.0613 H         1 PRO         0.0524
    170 H          -6.4424   -1.4739   -6.8553 H         1 PRO         0.0802
    171 H          -6.7740    0.1145   -5.0969 H         1 PRO         0.0313
    172 H          -5.0549    0.4447   -4.9864 H         1 PRO         0.0313
    173 H          -6.6908   -1.4310   -3.4503 H         1 PRO         0.0287
    174 H          -5.0878   -0.7771   -3.0875 H         1 PRO         0.0287
    175 H          -4.1142   -2.7074   -3.7923 H         1 PRO         0.0524
    176 H          -5.6904   -3.3967   -4.0088 H         1 PRO         0.0524
    177 H          -3.6037    0.2508   -9.8320 H         1 PRO         0.0802
    178 H          -5.1194    1.2427  -11.4150 H         1 PRO         0.0313
    179 H          -5.9315    2.1631  -10.2008 H         1 PRO         0.0313
    180 H          -6.3316   -0.7304  -10.9462 H         1 PRO         0.0287
    181 H          -7.5350    0.4772  -10.5937 H         1 PRO         0.0287
    182 H          -7.2982    0.2231   -8.2546 H         1 PRO         0.0524
    183 H          -6.8351   -1.3576   -8.7169 H         1 PRO         0.0524
    184 H          -2.2434    1.9728   -9.9774 H         1 TYR         0.1885
    185 H          -1.9089    3.2058   -7.4391 H         1 TYR         0.0821
    186 H          -0.5395    4.0298  -10.0091 H         1 TYR         0.0453
    187 H          -0.0423    2.6335   -8.9607 H         1 TYR         0.0453
    188 H           0.2908    3.2834   -6.4289 H         1 TYR         0.0530
    189 H           0.5935    6.0525   -9.6783 H         1 TYR         0.0530
    190 H           1.6648    4.7691   -5.0338 H         1 TYR         0.0525
    191 H           1.9667    7.5476   -8.2643 H         1 TYR         0.0525
    192 H           2.2428    7.9076   -5.6874 H         1 TYR         0.2458
    193 H          -3.6784    4.3756   -6.9382 H         1 SER         0.1884
    194 H          -3.5891    7.1746   -8.0467 H         1 SER         0.0823
    195 H          -5.7922    6.4180   -8.1883 H         1 SER         0.0606
    196 H          -5.6864    7.4360   -6.7042 H         1 SER         0.0606
    197 H          -5.6300    4.5933   -6.8058 H         1 SER         0.2097
    198 H          -3.2996    8.8487   -6.3510 H         1 ARG         0.1883
    199 H          -1.1787    8.0618   -4.6631 H         1 ARG         0.0800
    200 H          -1.2700   10.1956   -3.6302 H         1 ARG         0.0313
    201 H          -3.0015   10.4299   -4.2346 H         1 ARG         0.0313
    202 H          -2.2169   10.6458   -6.4378 H         1 ARG         0.0301
    203 H          -0.5246   10.3012   -5.9147 H         1 ARG         0.0301
    204 H          -2.2236   12.7354   -5.4514 H         1 ARG         0.0689
    205 H          -0.5418   12.6029   -6.1032 H         1 ARG         0.0689
    206 H          -1.2792   12.1665   -3.2390 H         1 ARG         0.2642
    207 H           0.8969   13.3921   -5.7405 H         1 ARG         0.2615
    208 H           2.0890   13.9692   -4.5713 H         1 ARG         0.2615
    209 H           0.2291   12.9279   -1.7589 H         1 ARG         0.2615
    210 H           1.7119   13.7073   -2.3201 H         1 ARG         0.2615
    211 H          -4.5297    9.0252   -3.8832 H         1 TYR         0.1885
    212 H          -4.4023    7.3045   -1.4174 H         1 TYR         0.0821
    213 H          -5.7353    8.8631   -0.2600 H         1 TYR         0.0453
    214 H          -6.0435    9.8168   -1.7504 H         1 TYR         0.0453
    215 H          -4.0693   10.9634   -2.8599 H         1 TYR         0.0530
    216 H          -3.8237    9.3371    1.0865 H         1 TYR         0.0530
    217 H          -2.0016   12.2284   -2.4806 H         1 TYR         0.0525
    218 H          -1.7738   10.6499    1.4876 H         1 TYR         0.0525
    219 H           0.1123   11.5812   -0.0736 H         1 TYR         0.2458
    220 H          -7.5844    5.5092   -4.0938 H         1 PRO         0.0802
    221 H          -6.2939    3.6490   -4.7047 H         1 PRO         0.0313
    222 H          -6.8475    2.8961   -3.2227 H         1 PRO         0.0313
    223 H          -4.2060    3.8668   -3.8521 H         1 PRO         0.0287
    224 H          -4.7430    3.0278   -2.3943 H         1 PRO         0.0287
    225 H          -4.8364    4.9885   -1.2014 H         1 PRO         0.0524
    226 H          -3.9258    5.6939   -2.4810 H         1 PRO         0.0524
    227 H          -9.6026    5.3880   -3.4994 H         1 MET         0.1883
    228 H         -10.0283    5.2561   -0.5998 H         1 MET         0.0800
    229 H         -12.0787    5.7110   -2.7765 H         1 MET         0.0320
    230 H         -11.1157    7.0073   -1.9465 H         1 MET         0.0320
    231 H         -12.1050    6.3499    0.1687 H         1 MET         0.0378
    232 H         -13.1180    5.1230   -0.7128 H         1 MET         0.0378
    233 H         -15.2403    6.1980    0.5404 H         1 MET         0.0340
    234 H         -14.2035    7.4229    1.3121 H         1 MET         0.0340
    235 H         -15.6645    7.9237    0.4256 H         1 MET         0.0340
    236 H          -9.9150    3.2916    0.1604 H         1 ASP         0.1876
    237 H         -12.2741    1.6218   -0.2605 H         1 ASP         0.0745
    238 H          -9.5840    0.3219   -0.6772 H         1 ASP         0.0471
    239 H         -10.7023    0.7979   -2.0145 H         1 ASP         0.0471
@<TRIPOS>BOND
     1    1    2 1  
     2    2    3 1  
     3    2    5 1  
     4    3    4 2  
     5    3   10 am 
     6    5    6 1  
     7    6    7 1  
     8    7    8 ar 
     9    7    9 ar 
    10   10   11 1  
    11   11   12 1  
    12   11   14 1  
    13   12   13 2  
    14   12   18 am 
    15   14   15 1  
    16   15   16 1  
    17   15   17 1  
    18   18   19 1  
    19   19   20 1  
    20   19   22 1  
    21   20   21 2  
    22   20   27 am 
    23   22   23 1  
    24   23   24 1  
    25   24   25 ar 
    26   24   26 ar 
    27   27   28 1  
    28   28   29 1  
    29   28   31 1  
    30   29   30 2  
    31   29   33 am 
    32   31   32 1  
    33   33   34 1  
    34   33   39 1  
    35   34   35 1  
    36   34   37 1  
    37   35   36 2  
    38   35   40 am 
    39   37   38 1  
    40   38   39 1  
    41   40   41 1  
    42   40   46 1  
    43   41   42 1  
    44   41   44 1  
    45   42   43 2  
    46   42   47 am 
    47   44   45 1  
    48   45   46 1  
    49   47   48 1  
    50   47   53 1  
    51   48   49 1  
    52   48   51 1  
    53   49   50 2  
    54   49   54 am 
    55   51   52 1  
    56   52   53 1  
    57   54   55 1  
    58   54   60 1  
    59   55   56 1  
    60   55   58 1  
    61   56   57 2  
    62   56   61 am 
    63   58   59 1  
    64   59   60 1  
    65   61   62 1  
    66   62   63 1  
    67   62   65 1  
    68   63   64 2  
    69   63   73 am 
    70   65   66 1  
    71   66   67 ar 
    72   66   68 ar 
    73   67   69 ar 
    74   68   70 ar 
    75   69   71 ar 
    76   70   71 ar 
    77   71   72 1  
    78   73   74 1  
    79   74   75 1  
    80   74   77 1  
    81   75   76 2  
    82   75   79 am 
    83   77   78 1  
    84   79   80 1  
    85   80   81 1  
    86   80   83 1  
    87   81   82 2  
    88   81   90 am 
    89   83   84 1  
    90   84   85 1  
    91   85   86 1  
    92   86   87 ar 
    93   87   88 ar 
    94   87   89 ar 
    95   90   91 1  
    96   91   92 1  
    97   91   94 1  
    98   92   93 2  
    99   92  102 am 
   100   94   95 1  
   101   95   96 ar 
   102   95   97 ar 
   103   96   98 ar 
   104   97   99 ar 
   105   98  100 ar 
   106   99  100 ar 
   107  100  101 1  
   108  102  103 1  
   109  102  108 1  
   110  103  104 1  
   111  103  106 1  
   112  104  105 2  
   113  104  109 am 
   114  106  107 1  
   115  107  108 1  
   116  109  110 1  
   117  110  111 1  
   118  110  113 1  
   119  111  112 2  
   120  111  117 am 
   121  113  114 1  
   122  114  115 1  
   123  115  116 1  
   124  117  118 1  
   125  118  119 1  
   126  118  121 1  
   127  119  120 ar 
   128  119  125 ar 
   129  121  122 1  
   130  122  123 ar 
   131  122  124 ar 
   132    1  126 1  
   133    1  127 1  
   134    1  128 1  
   135    2  129 1  
   136    5  130 1  
   137    5  131 1  
   138    6  132 1  
   139    6  133 1  
   140   10  134 1  
   141   11  135 1  
   142   14  136 1  
   143   14  137 1  
   144   15  138 1  
   145   16  139 1  
   146   16  140 1  
   147   16  141 1  
   148   17  142 1  
   149   17  143 1  
   150   17  144 1  
   151   18  145 1  
   152   19  146 1  
   153   22  147 1  
   154   22  148 1  
   155   23  149 1  
   156   23  150 1  
   157   27  151 1  
   158   28  152 1  
   159   31  153 1  
   160   31  154 1  
   161   32  155 1  
   162   34  156 1  
   163   37  157 1  
   164   37  158 1  
   165   38  159 1  
   166   38  160 1  
   167   39  161 1  
   168   39  162 1  
   169   41  163 1  
   170   44  164 1  
   171   44  165 1  
   172   45  166 1  
   173   45  167 1  
   174   46  168 1  
   175   46  169 1  
   176   48  170 1  
   177   51  171 1  
   178   51  172 1  
   179   52  173 1  
   180   52  174 1  
   181   53  175 1  
   182   53  176 1  
   183   55  177 1  
   184   58  178 1  
   185   58  179 1  
   186   59  180 1  
   187   59  181 1  
   188   60  182 1  
   189   60  183 1  
   190   61  184 1  
   191   62  185 1  
   192   65  186 1  
   193   65  187 1  
   194   67  188 1  
   195   68  189 1  
   196   69  190 1  
   197   70  191 1  
   198   72  192 1  
   199   73  193 1  
   200   74  194 1  
   201   77  195 1  
   202   77  196 1  
   203   78  197 1  
   204   79  198 1  
   205   80  199 1  
   206   83  200 1  
   207   83  201 1  
   208   84  202 1  
   209   84  203 1  
   210   85  204 1  
   211   85  205 1  
   212   86  206 1  
   213   88  207 1  
   214   88  208 1  
   215   89  209 1  
   216   89  210 1  
   217   90  211 1  
   218   91  212 1  
   219   94  213 1  
   220   94  214 1  
   221   96  215 1  
   222   97  216 1  
   223   98  217 1  
   224   99  218 1  
   225  101  219 1  
   226  103  220 1  
   227  106  221 1  
   228  106  222 1  
   229  107  223 1  
   230  107  224 1  
   231  108  225 1  
   232  108  226 1  
   233  109  227 1  
   234  110  228 1  
   235  113  229 1  
   236  113  230 1  
   237  114  231 1  
   238  114  232 1  
   239  116  233 1  
   240  116  234 1  
   241  116  235 1  
   242  117  236 1  
   243  118  237 1  
   244  121  238 1  
   245  121  239 1  
@<TRIPOS>SUBSTRUCTURE
     1 GLU         1

