2ltz_ligand
  -I-interpret- 

242248  0  0  0  0  0  0  0  0999 V2000
    3.6300   -8.9880   -6.2230 N   0  3  0  0  0
    2.9130   -9.1540   -4.9390 C   0  0  0  0  0
    2.3610  -10.5690   -4.8360 C   0  0  0  0  0
    1.6570  -11.0310   -5.7320 O   0  0  0  0  0
    1.7680   -8.1320   -4.8120 C   0  0  0  0  0
    2.2270   -6.6790   -4.7130 C   0  0  0  0  0
    2.9170   -6.1840   -5.9690 C   0  0  0  0  0
    4.1370   -6.4020   -6.1040 O   0  0  0  0  0
    2.2430   -5.5940   -6.8330 O   0  0  0  0  0
    2.6910  -11.2560   -3.7450 N   0  0  0  0  0
    2.2060  -12.6150   -3.5120 C   0  0  0  0  0
    0.7020  -12.6160   -3.2500 C   0  0  0  0  0
    0.0290  -13.6380   -3.3850 O   0  0  0  0  0
    2.9450  -13.2520   -2.3320 C   0  0  0  0  0
    2.6170  -14.7250   -2.0700 C   0  0  0  0  0
    3.0780  -15.5930   -3.2320 C   0  0  0  0  0
    3.2500  -15.1880   -0.7680 C   0  0  0  0  0
    0.1880  -11.4650   -2.8590 N   0  0  0  0  0
   -1.2350  -11.2950   -2.6490 C   0  0  0  0  0
   -1.8950  -10.9170   -3.9750 C   0  0  0  0  0
   -1.2070  -10.5460   -4.9270 O   0  0  0  0  0
   -1.4640  -10.2150   -1.5790 C   0  0  0  0  0
   -2.9220   -9.9830   -1.2040 C   0  0  0  0  0
   -3.6520  -11.2630   -0.8500 C   0  0  0  0  0
   -3.5250  -11.7380    0.2980 O   0  0  0  0  0
   -4.3560  -11.8040   -1.7300 O   0  0  0  0  0
   -3.2120  -11.0460   -4.0330 N   0  0  0  0  0
   -3.9980  -10.6520   -5.1940 C   0  0  0  0  0
   -3.6520   -9.2560   -5.6800 C   0  0  0  0  0
   -3.2220   -8.3890   -4.9220 O   0  0  0  0  0
   -5.4770  -10.7460   -4.8630 C   0  0  0  0  0
   -5.7390  -10.3850   -3.5120 O   0  0  0  0  0
   -3.8890   -9.0640   -6.9700 N   0  0  0  0  0
   -3.6090   -7.8230   -7.6890 C   0  0  0  0  0
   -4.1510   -6.5990   -6.9450 C   0  0  0  0  0
   -5.3550   -6.5010   -6.6910 O   0  0  0  0  0
   -4.3710   -8.0100   -9.0060 C   0  0  0  0  0
   -4.5270   -9.4860   -9.1880 C   0  0  0  0  0
   -4.4100  -10.1210   -7.8270 C   0  0  0  0  0
   -3.2660   -5.6540   -6.5700 N   0  0  0  0  0
   -3.6370   -4.5170   -5.7340 C   0  0  0  0  0
   -4.2980   -3.3690   -6.5010 C   0  0  0  0  0
   -4.2570   -3.3160   -7.7340 O   0  0  0  0  0
   -2.3020   -4.0510   -5.1270 C   0  0  0  0  0
   -1.2320   -4.9070   -5.7290 C   0  0  0  0  0
   -1.8380   -5.6180   -6.9050 C   0  0  0  0  0
   -4.9170   -2.4390   -5.7450 N   0  0  0  0  0
   -5.5450   -1.2270   -6.2880 C   0  0  0  0  0
   -4.6320   -0.4680   -7.2570 C   0  0  0  0  0
   -3.4490   -0.2670   -6.9740 O   0  0  0  0  0
   -5.7920   -0.3560   -5.0470 C   0  0  0  0  0
   -5.6970   -1.2480   -3.8590 C   0  0  0  0  0
   -5.0720   -2.5430   -4.2860 C   0  0  0  0  0
   -5.1780   -0.0360   -8.4100 N   0  0  0  0  0
   -4.4450    0.7830   -9.3880 C   0  0  0  0  0
   -3.8550    2.0280   -8.7340 C   0  0  0  0  0
   -4.4870    2.6300   -7.8600 O   0  0  0  0  0
   -5.5210    1.1740  -10.4040 C   0  0  0  0  0
   -6.5550    0.1100  -10.2890 C   0  0  0  0  0
   -6.5560   -0.3120   -8.8470 C   0  0  0  0  0
   -2.6590    2.4250   -9.1630 N   0  0  0  0  0
   -1.9330    3.4940   -8.4900 C   0  0  0  0  0
   -2.6360    4.8460   -8.5870 C   0  0  0  0  0
   -2.5310    5.5660   -9.5820 O   0  0  0  0  0
   -0.5000    3.6220   -8.9990 C   0  0  0  0  0
    0.3420    4.5570   -8.1530 C   0  0  0  0  0
    0.6580    4.2220   -6.8440 C   0  0  0  0  0
    0.8250    5.7640   -8.6530 C   0  0  0  0  0
    1.4270    5.0530   -6.0590 C   0  0  0  0  0
    1.5970    6.6040   -7.8630 C   0  0  0  0  0
    1.8930    6.2380   -6.5690 C   0  0  0  0  0
    2.6700    7.0530   -5.7810 O   0  0  0  0  0
   -3.3980    5.1340   -7.5600 N   0  0  0  0  0
   -3.8600    6.4660   -7.2640 C   0  0  0  0  0
   -3.2090    6.8490   -5.9490 C   0  0  0  0  0
   -2.9210    5.9590   -5.1450 O   0  0  0  0  0
   -5.3890    6.5010   -7.1790 C   0  0  0  0  0
   -5.8930    5.4250   -6.4050 O   0  0  0  0  0
   -2.9500    8.1320   -5.7150 N   0  0  0  0  0
   -2.1650    8.5110   -4.5470 C   0  0  0  0  0
   -2.8730    8.0250   -3.2980 C   0  0  0  0  0
   -2.2810    7.3620   -2.4500 O   0  0  0  0  0
   -2.0040   10.0310   -4.4190 C   0  0  0  0  0
   -1.4810   10.7460   -5.6400 C   0  0  0  0  0
   -1.2610   12.2300   -5.3740 C   0  0  0  0  0
   -0.7230   12.4760   -4.0360 N   0  0  0  0  0
    0.4390   13.0740   -3.7820 C   0  0  0  0  0
    1.2000   13.5120   -4.7740 N   0  0  0  0  0
    0.8230   13.2500   -2.5230 N   0  0  0  0  0
   -4.1280    8.4120   -3.1740 N   0  0  0  0  0
   -4.9500    7.9920   -2.0620 C   0  0  0  0  0
   -6.1640    7.2410   -2.5820 C   0  0  0  0  0
   -7.1810    7.8400   -2.9300 O   0  0  0  0  0
   -5.3190    9.2120   -1.2050 C   0  0  0  0  0
   -4.0970   10.0600   -0.9150 C   0  0  0  0  0
   -3.5610   10.8830   -1.8990 C   0  0  0  0  0
   -3.4320    9.9810    0.2990 C   0  0  0  0  0
   -2.4070   11.5970   -1.6900 C   0  0  0  0  0
   -2.2780   10.7090    0.5230 C   0  0  0  0  0
   -1.7660   11.5100   -0.4760 C   0  0  0  0  0
   -0.5950   12.2020   -0.2630 O   0  0  0  0  0
   -6.0320    5.9180   -2.6980 N   0  0  0  0  0
   -7.0720    5.0600   -3.2430 C   0  0  0  0  0
   -8.1510    4.7910   -2.2070 C   0  0  0  0  0
   -7.8600    4.3220   -1.1100 O   0  0  0  0  0
   -6.3310    3.7690   -3.6220 C   0  0  0  0  0
   -4.9440    3.8750   -3.0500 C   0  0  0  0  0
   -4.8530    5.1580   -2.2780 C   0  0  0  0  0
   -9.3950    5.0940   -2.5450 N   0  0  0  0  0
  -10.4670    5.0110   -1.5670 C   0  0  0  0  0
  -11.0450    3.6040   -1.4810 C   0  0  0  0  0
  -11.8000    3.1670   -2.3540 O   0  0  0  0  0
  -11.5760    6.0230   -1.8610 C   0  0  0  0  0
  -12.6190    6.0910   -0.7570 C   0  0  0  0  0
  -13.8810    7.3450   -1.0520 S   0  0  0  0  0
  -14.8420    7.2090    0.4550 C   0  0  0  0  0
  -10.6450    2.9020   -0.4360 N   0  0  0  0  0
  -11.1970    1.5980   -0.0950 C   0  0  0  0  0
  -10.8700    1.3100    1.3550 C   0  0  0  0  0
   -9.6690    1.1760    1.6560 O   0  0  0  0  0
  -10.6200    0.4870   -0.9730 C   0  0  0  0  0
  -11.3760   -0.8200   -0.8060 C   0  0  0  0  0
  -12.3990   -1.0050   -1.5040 O   0  0  0  0  0
  -10.9570   -1.6700    0.0040 O   0  0  0  0  0
  -11.7940    1.2650    2.1870 O   0  0  0  0  0
    4.3817   -9.6749   -6.2826 H   0  0  0  0  0
    2.9785   -9.1274   -6.9953 H   0  0  0  0  0
    4.0222   -8.0478   -6.2729 H   0  0  0  0  0
    3.6176   -8.9798   -4.1258 H   0  0  0  0  0
    1.2346   -8.3624   -3.8897 H   0  0  0  0  0
    1.1633   -8.2155   -5.7150 H   0  0  0  0  0
    2.9441   -6.6141   -3.8946 H   0  0  0  0  0
    1.3415   -6.0626   -4.5577 H   0  0  0  0  0
    4.4655   -6.8659   -5.3304 H   0  0  0  0  0
    3.2999  -10.8217   -3.0515 H   0  0  0  0  0
    2.4015  -13.2028   -4.4089 H   0  0  0  0  0
    2.6416  -12.7022   -1.4411 H   0  0  0  0  0
    4.0079  -13.2071   -2.5693 H   0  0  0  0  0
    1.5354  -14.8255   -1.9797 H   0  0  0  0  0
    2.5725  -15.2754   -4.1440 H   0  0  0  0  0
    4.1557  -15.4880   -3.3571 H   0  0  0  0  0
    2.8348  -16.6350   -3.0243 H   0  0  0  0  0
    4.3320  -15.0711   -0.8298 H   0  0  0  0  0
    2.8648  -14.5869    0.0557 H   0  0  0  0  0
    3.0056  -16.2368   -0.5995 H   0  0  0  0  0
    0.8105  -10.6727   -2.7002 H   0  0  0  0  0
   -1.6832  -12.2237   -2.2959 H   0  0  0  0  0
   -1.0913   -9.2776   -1.9919 H   0  0  0  0  0
   -0.9557  -10.5527   -0.6758 H   0  0  0  0  0
   -3.4214   -9.5433   -2.0673 H   0  0  0  0  0
   -2.9408   -9.3361   -0.3270 H   0  0  0  0  0
   -4.3180  -11.2816   -2.5345 H   0  0  0  0  0
   -3.6982  -11.4395   -3.2273 H   0  0  0  0  0
   -3.7569  -11.3379   -6.0061 H   0  0  0  0  0
   -5.7966  -11.7776   -5.0105 H   0  0  0  0  0
   -6.0183  -10.0585   -5.5129 H   0  0  0  0  0
   -6.6808  -10.4561   -3.3398 H   0  0  0  0  0
   -2.5403   -7.6467   -7.8107 H   0  0  0  0  0
   -3.8299   -7.5649   -9.8410 H   0  0  0  0  0
   -5.3401   -7.5121   -8.9747 H   0  0  0  0  0
   -3.7586   -9.8722   -9.8577 H   0  0  0  0  0
   -5.4938   -9.7162   -9.6357 H   0  0  0  0  0
   -5.3683  -10.4987   -7.4704 H   0  0  0  0  0
   -3.7568  -10.9935   -7.8398 H   0  0  0  0  0
   -4.3844   -4.8134   -4.9980 H   0  0  0  0  0
   -2.3136   -4.1507   -4.0416 H   0  0  0  0  0
   -2.1240   -2.9978   -5.3440 H   0  0  0  0  0
   -0.8591   -5.6246   -4.9981 H   0  0  0  0  0
   -0.3858   -4.2968   -6.0448 H   0  0  0  0  0
   -1.6390   -5.1145   -7.8510 H   0  0  0  0  0
   -1.4160   -6.6108   -7.0613 H   0  0  0  0  0
   -6.4424   -1.4739   -6.8553 H   0  0  0  0  0
   -6.7740    0.1145   -5.0969 H   0  0  0  0  0
   -5.0549    0.4447   -4.9864 H   0  0  0  0  0
   -6.6908   -1.4310   -3.4503 H   0  0  0  0  0
   -5.0878   -0.7771   -3.0875 H   0  0  0  0  0
   -4.1142   -2.7074   -3.7923 H   0  0  0  0  0
   -5.6904   -3.3967   -4.0088 H   0  0  0  0  0
   -3.6037    0.2508   -9.8320 H   0  0  0  0  0
   -5.1194    1.2427  -11.4150 H   0  0  0  0  0
   -5.9315    2.1631  -10.2008 H   0  0  0  0  0
   -6.3316   -0.7304  -10.9462 H   0  0  0  0  0
   -7.5350    0.4772  -10.5937 H   0  0  0  0  0
   -7.2982    0.2231   -8.2546 H   0  0  0  0  0
   -6.8351   -1.3576   -8.7169 H   0  0  0  0  0
   -2.2434    1.9728   -9.9774 H   0  0  0  0  0
   -1.9089    3.2058   -7.4391 H   0  0  0  0  0
   -0.5395    4.0298  -10.0091 H   0  0  0  0  0
   -0.0423    2.6335   -8.9607 H   0  0  0  0  0
    0.2908    3.2834   -6.4289 H   0  0  0  0  0
    0.5935    6.0525   -9.6783 H   0  0  0  0  0
    1.6648    4.7691   -5.0338 H   0  0  0  0  0
    1.9667    7.5476   -8.2643 H   0  0  0  0  0
    2.9148    7.8374   -6.2774 H   0  0  0  0  0
   -3.6784    4.3756   -6.9382 H   0  0  0  0  0
   -3.5891    7.1746   -8.0467 H   0  0  0  0  0
   -5.7922    6.4180   -8.1883 H   0  0  0  0  0
   -5.6864    7.4360   -6.7042 H   0  0  0  0  0
   -6.8510    5.4770   -6.3724 H   0  0  0  0  0
   -3.2996    8.8487   -6.3510 H   0  0  0  0  0
   -1.1787    8.0618   -4.6631 H   0  0  0  0  0
   -1.2700   10.1956   -3.6302 H   0  0  0  0  0
   -3.0015   10.4299   -4.2346 H   0  0  0  0  0
   -2.2169   10.6458   -6.4378 H   0  0  0  0  0
   -0.5246   10.3012   -5.9147 H   0  0  0  0  0
   -2.2236   12.7354   -5.4514 H   0  0  0  0  0
   -0.5418   12.6029   -6.1032 H   0  0  0  0  0
   -1.2792   12.1665   -3.2390 H   0  0  0  0  0
    0.8969   13.3921   -5.7405 H   0  0  0  0  0
    1.7039   13.7224   -2.3198 H   0  0  0  0  0
    0.2371   12.9128   -1.7592 H   0  0  0  0  0
   -4.5297    9.0252   -3.8832 H   0  0  0  0  0
   -4.4023    7.3045   -1.4174 H   0  0  0  0  0
   -5.7353    8.8631   -0.2600 H   0  0  0  0  0
   -6.0435    9.8168   -1.7504 H   0  0  0  0  0
   -4.0693   10.9634   -2.8599 H   0  0  0  0  0
   -3.8237    9.3371    1.0865 H   0  0  0  0  0
   -2.0016   12.2284   -2.4806 H   0  0  0  0  0
   -1.7738   10.6499    1.4876 H   0  0  0  0  0
   -0.2822   12.0326    0.6286 H   0  0  0  0  0
   -7.5844    5.5092   -4.0938 H   0  0  0  0  0
   -6.2939    3.6490   -4.7047 H   0  0  0  0  0
   -6.8475    2.8961   -3.2227 H   0  0  0  0  0
   -4.2060    3.8668   -3.8521 H   0  0  0  0  0
   -4.7430    3.0278   -2.3943 H   0  0  0  0  0
   -4.8364    4.9885   -1.2014 H   0  0  0  0  0
   -3.9258    5.6939   -2.4810 H   0  0  0  0  0
   -9.6026    5.3880   -3.4994 H   0  0  0  0  0
  -10.0283    5.2561   -0.5998 H   0  0  0  0  0
  -12.0787    5.7110   -2.7765 H   0  0  0  0  0
  -11.1157    7.0073   -1.9465 H   0  0  0  0  0
  -12.1050    6.3499    0.1687 H   0  0  0  0  0
  -13.1180    5.1230   -0.7128 H   0  0  0  0  0
  -15.2403    6.1980    0.5404 H   0  0  0  0  0
  -14.2035    7.4229    1.3121 H   0  0  0  0  0
  -15.6645    7.9237    0.4256 H   0  0  0  0  0
   -9.9150    3.2916    0.1604 H   0  0  0  0  0
  -12.2741    1.6218   -0.2605 H   0  0  0  0  0
   -9.1320    1.2452    0.8633 H   0  0  0  0  0
   -9.5840    0.3219   -0.6772 H   0  0  0  0  0
  -10.7023    0.7979   -2.0145 H   0  0  0  0  0
  -12.5503   -0.2358   -2.0582 H   0  0  0  0  0
  1  2  1  0  0  0
  2  3  1  0  0  0
  2  5  1  0  0  0
  3  4  2  0  0  0
  3 10  1  0  0  0
  5  6  1  0  0  0
  6  7  1  0  0  0
  7  8  1  0  0  0
  7  9  2  0  0  0
 10 11  1  0  0  0
 11 12  1  0  0  0
 11 14  1  0  0  0
 12 13  2  0  0  0
 12 18  1  0  0  0
 14 15  1  0  0  0
 15 16  1  0  0  0
 15 17  1  0  0  0
 18 19  1  0  0  0
 19 20  1  0  0  0
 19 22  1  0  0  0
 20 21  2  0  0  0
 20 27  1  0  0  0
 22 23  1  0  0  0
 23 24  1  0  0  0
 24 25  2  0  0  0
 24 26  1  0  0  0
 27 28  1  0  0  0
 28 29  1  0  0  0
 28 31  1  0  0  0
 29 30  2  0  0  0
 29 33  1  0  0  0
 31 32  1  0  0  0
 33 34  1  0  0  0
 33 39  1  0  0  0
 34 35  1  0  0  0
 34 37  1  0  0  0
 35 36  2  0  0  0
 35 40  1  0  0  0
 37 38  1  0  0  0
 38 39  1  0  0  0
 40 41  1  0  0  0
 40 46  1  0  0  0
 41 42  1  0  0  0
 41 44  1  0  0  0
 42 43  2  0  0  0
 42 47  1  0  0  0
 44 45  1  0  0  0
 45 46  1  0  0  0
 47 48  1  0  0  0
 47 53  1  0  0  0
 48 49  1  0  0  0
 48 51  1  0  0  0
 49 50  2  0  0  0
 49 54  1  0  0  0
 51 52  1  0  0  0
 52 53  1  0  0  0
 54 55  1  0  0  0
 54 60  1  0  0  0
 55 56  1  0  0  0
 55 58  1  0  0  0
 56 57  2  0  0  0
 56 61  1  0  0  0
 58 59  1  0  0  0
 59 60  1  0  0  0
 61 62  1  0  0  0
 62 63  1  0  0  0
 62 65  1  0  0  0
 63 64  2  0  0  0
 63 73  1  0  0  0
 65 66  1  0  0  0
 66 67  4  0  0  0
 66 68  4  0  0  0
 67 69  4  0  0  0
 68 70  4  0  0  0
 69 71  4  0  0  0
 70 71  4  0  0  0
 71 72  1  0  0  0
 73 74  1  0  0  0
 74 75  1  0  0  0
 74 77  1  0  0  0
 75 76  2  0  0  0
 75 79  1  0  0  0
 77 78  1  0  0  0
 79 80  1  0  0  0
 80 81  1  0  0  0
 80 83  1  0  0  0
 81 82  2  0  0  0
 81 90  1  0  0  0
 83 84  1  0  0  0
 84 85  1  0  0  0
 85 86  1  0  0  0
 86 87  1  0  0  0
 87 88  2  0  0  0
 87 89  1  0  0  0
 90 91  1  0  0  0
 91 92  1  0  0  0
 91 94  1  0  0  0
 92 93  2  0  0  0
 92102  1  0  0  0
 94 95  1  0  0  0
 95 96  4  0  0  0
 95 97  4  0  0  0
 96 98  4  0  0  0
 97 99  4  0  0  0
 98100  4  0  0  0
 99100  4  0  0  0
100101  1  0  0  0
102103  1  0  0  0
102108  1  0  0  0
103104  1  0  0  0
103106  1  0  0  0
104105  2  0  0  0
104109  1  0  0  0
106107  1  0  0  0
107108  1  0  0  0
109110  1  0  0  0
110111  1  0  0  0
110113  1  0  0  0
111112  2  0  0  0
111117  1  0  0  0
113114  1  0  0  0
114115  1  0  0  0
115116  1  0  0  0
117118  1  0  0  0
118119  1  0  0  0
118121  1  0  0  0
119120  1  0  0  0
119125  2  0  0  0
121122  1  0  0  0
122123  1  0  0  0
122124  2  0  0  0
  1126  1  0  0  0
  1127  1  0  0  0
  1128  1  0  0  0
  2129  1  0  0  0
  5130  1  0  0  0
  5131  1  0  0  0
  6132  1  0  0  0
  6133  1  0  0  0
  8134  1  0  0  0
 10135  1  0  0  0
 11136  1  0  0  0
 14137  1  0  0  0
 14138  1  0  0  0
 15139  1  0  0  0
 16140  1  0  0  0
 16141  1  0  0  0
 16142  1  0  0  0
 17143  1  0  0  0
 17144  1  0  0  0
 17145  1  0  0  0
 18146  1  0  0  0
 19147  1  0  0  0
 22148  1  0  0  0
 22149  1  0  0  0
 23150  1  0  0  0
 23151  1  0  0  0
 26152  1  0  0  0
 27153  1  0  0  0
 28154  1  0  0  0
 31155  1  0  0  0
 31156  1  0  0  0
 32157  1  0  0  0
 34158  1  0  0  0
 37159  1  0  0  0
 37160  1  0  0  0
 38161  1  0  0  0
 38162  1  0  0  0
 39163  1  0  0  0
 39164  1  0  0  0
 41165  1  0  0  0
 44166  1  0  0  0
 44167  1  0  0  0
 45168  1  0  0  0
 45169  1  0  0  0
 46170  1  0  0  0
 46171  1  0  0  0
 48172  1  0  0  0
 51173  1  0  0  0
 51174  1  0  0  0
 52175  1  0  0  0
 52176  1  0  0  0
 53177  1  0  0  0
 53178  1  0  0  0
 55179  1  0  0  0
 58180  1  0  0  0
 58181  1  0  0  0
 59182  1  0  0  0
 59183  1  0  0  0
 60184  1  0  0  0
 60185  1  0  0  0
 61186  1  0  0  0
 62187  1  0  0  0
 65188  1  0  0  0
 65189  1  0  0  0
 67190  1  0  0  0
 68191  1  0  0  0
 69192  1  0  0  0
 70193  1  0  0  0
 72194  1  0  0  0
 73195  1  0  0  0
 74196  1  0  0  0
 77197  1  0  0  0
 77198  1  0  0  0
 78199  1  0  0  0
 79200  1  0  0  0
 80201  1  0  0  0
 83202  1  0  0  0
 83203  1  0  0  0
 84204  1  0  0  0
 84205  1  0  0  0
 85206  1  0  0  0
 85207  1  0  0  0
 86208  1  0  0  0
 88209  1  0  0  0
 89210  1  0  0  0
 89211  1  0  0  0
 90212  1  0  0  0
 91213  1  0  0  0
 94214  1  0  0  0
 94215  1  0  0  0
 96216  1  0  0  0
 97217  1  0  0  0
 98218  1  0  0  0
 99219  1  0  0  0
101220  1  0  0  0
103221  1  0  0  0
106222  1  0  0  0
106223  1  0  0  0
107224  1  0  0  0
107225  1  0  0  0
108226  1  0  0  0
108227  1  0  0  0
109228  1  0  0  0
110229  1  0  0  0
113230  1  0  0  0
113231  1  0  0  0
114232  1  0  0  0
114233  1  0  0  0
116234  1  0  0  0
116235  1  0  0  0
116236  1  0  0  0
117237  1  0  0  0
118238  1  0  0  0
120239  1  0  0  0
121240  1  0  0  0
121241  1  0  0  0
123242  1  0  0  0
M  END
$$$$
