3th8_ligand
  -I-interpret- 

 54 54  0  0  0  0  0  0  0  0999 V2000
  -13.0810   -4.1000   -0.2720 C   0  0  0  0  0
   -3.6140    9.2780   -2.0070 O   0  0  0  0  0
   -6.6200    6.6110    0.6770 O   0  0  0  0  0
   -2.9090   10.1880   -0.1470 O   0  0  0  0  0
   -4.7130    8.5600    1.2270 O   0  0  0  0  0
   -5.4040    7.6160   -1.0690 C   0  0  0  0  0
  -10.8670    2.4850   -3.9440 C   0  0  0  0  0
   -9.5090    2.6680   -3.6940 C   0  0  0  0  0
  -11.6690    1.9080   -2.9680 C   0  0  0  0  0
   -9.7260    1.7200   -1.4990 C   0  0  0  0  0
  -13.9140   -3.0390    0.4790 C   0  0  0  0  0
  -13.4890   -1.6040    0.1180 C   0  0  0  0  0
  -12.1840   -1.1710    0.8130 C   0  0  0  0  0
  -12.3450    0.2330    1.4530 C   0  0  0  0  0
   -7.2220    3.5680   -1.1820 C   0  0  0  0  0
   -8.0260    4.9030   -1.2260 C   0  0  0  0  0
  -11.6990    1.3080    0.5650 C   0  0  0  0  0
   -7.5550    2.5280   -2.3030 C   0  0  0  0  0
   -7.0630    5.9830   -1.4660 N   0  0  0  0  0
  -11.9400    0.9720   -0.8130 O   0  0  0  0  0
   -3.6460    9.3780   -0.7900 C   0  0  0  0  0
   -6.4510    6.6980   -0.5240 C   0  0  0  0  0
   -4.5970    8.4970   -0.1180 C   0  0  0  0  0
   -8.9320    2.3060   -2.4880 C   0  0  0  0  0
  -11.1000    1.5320   -1.7430 C   0  0  0  0  0
  -13.2102   -3.9679   -1.3462 H   0  0  0  0  0
  -12.0284   -3.9829   -0.0143 H   0  0  0  0  0
  -13.4183   -5.0956    0.0161 H   0  0  0  0  0
   -3.0906   10.1076    0.7922 H   0  0  0  0  0
   -5.3719    7.9264    1.5203 H   0  0  0  0  0
   -5.9546    8.3195   -1.6935 H   0  0  0  0  0
   -4.6662    6.9528   -1.5206 H   0  0  0  0  0
  -11.2966    2.7921   -4.8976 H   0  0  0  0  0
   -8.8825    3.1086   -4.4695 H   0  0  0  0  0
  -12.7314    1.7489   -3.1527 H   0  0  0  0  0
   -9.2871    1.4121   -0.5500 H   0  0  0  0  0
  -13.7581   -3.1800    1.5485 H   0  0  0  0  0
  -14.9589   -3.1649    0.1953 H   0  0  0  0  0
  -14.2802   -0.9303    0.4469 H   0  0  0  0  0
  -13.3202   -1.5681   -0.9583 H   0  0  0  0  0
  -11.3858   -1.1315    0.0718 H   0  0  0  0  0
  -11.9458   -1.8906    1.5963 H   0  0  0  0  0
  -11.8542    0.2364    2.4262 H   0  0  0  0  0
  -13.4072    0.4535    1.5593 H   0  0  0  0  0
   -7.4755    3.0895   -0.2360 H   0  0  0  0  0
   -6.1744    3.8375   -1.3164 H   0  0  0  0  0
   -8.5552    5.0630   -0.2866 H   0  0  0  0  0
   -8.7745    4.8738   -2.0178 H   0  0  0  0  0
  -10.6264    1.3498    0.7543 H   0  0  0  0  0
  -12.1308    2.2832    0.7898 H   0  0  0  0  0
   -7.1119    1.5780   -2.0042 H   0  0  0  0  0
   -7.1633    2.9256   -3.2392 H   0  0  0  0  0
   -6.8435    6.2052   -2.4370 H   0  0  0  0  0
   -4.9328    7.8338    0.6792 H   0  0  0  0  0
 11  1  1  0  0  0
 21  2  2  0  0  0
 22  3  2  0  0  0
 21  4  1  0  0  0
 23  5  1  0  0  0
  6 22  1  0  0  0
 23  6  1  0  0  0
  8  7  4  0  0  0
  7  9  4  0  0  0
 24  8  4  0  0  0
 25  9  4  0  0  0
 24 10  4  0  0  0
 10 25  4  0  0  0
 12 11  1  0  0  0
 13 12  1  0  0  0
 14 13  1  0  0  0
 17 14  1  0  0  0
 16 15  1  0  0  0
 15 18  1  0  0  0
 19 16  1  0  0  0
 20 17  1  0  0  0
 18 24  1  0  0  0
 22 19  1  0  0  0
 25 20  1  0  0  0
 21 23  1  0  0  0
  1 26  1  0  0  0
  1 27  1  0  0  0
  1 28  1  0  0  0
  4 29  1  0  0  0
  5 30  1  0  0  0
  6 31  1  0  0  0
  6 32  1  0  0  0
  7 33  1  0  0  0
  8 34  1  0  0  0
  9 35  1  0  0  0
 10 36  1  0  0  0
 11 37  1  0  0  0
 11 38  1  0  0  0
 12 39  1  0  0  0
 12 40  1  0  0  0
 13 41  1  0  0  0
 13 42  1  0  0  0
 14 43  1  0  0  0
 14 44  1  0  0  0
 15 45  1  0  0  0
 15 46  1  0  0  0
 16 47  1  0  0  0
 16 48  1  0  0  0
 17 49  1  0  0  0
 17 50  1  0  0  0
 18 51  1  0  0  0
 18 52  1  0  0  0
 19 53  1  0  0  0
 23 54  1  0  0  0
M  END
$$$$
