1qkb_ligand
  -I-interpret- 

 64 63  0  0  0  0  0  0  0  0999 V2000
    6.9540   16.5470   15.1220 N   0  3  0  0  0
    6.4560   17.8430   14.5550 C   0  0  0  0  0
    5.2380   18.3380   15.3310 C   0  0  0  0  0
    4.4820   17.5120   15.8490 O   0  0  0  0  0
    6.1980   17.7410   13.0490 C   0  0  0  0  0
    5.2540   16.6210   12.6200 C   0  0  0  0  0
    5.1780   16.5400   11.0930 C   0  0  0  0  0
    6.4350   15.8900   10.4940 C   0  0  0  0  0
    6.5840   14.4590   10.9350 N   0  3  0  0  0
    5.0710   19.6460   15.4290 N   0  0  0  0  0
    3.9410   20.2190   16.1820 C   0  0  0  0  0
    2.6510   20.1800   15.3760 C   0  0  0  0  0
    2.6630   20.4870   14.1830 O   0  0  0  0  0
    4.2440   21.6680   16.5990 C   0  0  0  0  0
    3.1460   22.2740   17.4450 C   0  0  0  0  0
    5.5760   21.7060   17.3710 C   0  0  0  0  0
    1.5590   19.8180   16.0730 N   0  0  0  0  0
    0.2770   19.7990   15.3790 C   0  0  0  0  0
   -0.7350   20.6380   16.1740 C   0  0  0  0  0
   -1.6780   21.1460   15.5200 O   0  0  0  0  0
   -0.2820   18.3680   15.2540 C   0  0  0  0  0
   -1.4010   18.4250   14.1870 C   0  0  0  0  0
   -2.1110   17.0860   14.1500 C   0  0  0  0  0
   -3.4420   17.2520   13.4300 C   0  0  0  0  0
   -3.1130   17.0310   11.9760 N   0  3  0  0  0
   -0.5830   20.7290   17.4140 O   0  0  0  0  0
    7.7664   16.2344   14.5902 H   0  0  0  0  0
    7.2169   16.6830   16.0981 H   0  0  0  0  0
    6.2163   15.8452   15.0620 H   0  0  0  0  0
    7.2390   18.5918   14.6748 H   0  0  0  0  0
    7.1606   17.5323   12.5821 H   0  0  0  0  0
    5.7260   18.6770   12.7503 H   0  0  0  0  0
    4.2586   16.8262   13.0139 H   0  0  0  0  0
    5.6293   15.6736   13.0068 H   0  0  0  0  0
    5.0949   17.5531   10.6994 H   0  0  0  0  0
    4.3153   15.9303   10.8243 H   0  0  0  0  0
    7.3068   16.4478   10.8360 H   0  0  0  0  0
    6.3469   15.9077    9.4077 H   0  0  0  0  0
    7.4265   14.0622   10.5188 H   0  0  0  0  0
    6.6565   14.4236   11.9518 H   0  0  0  0  0
    5.7697   13.9246   10.6322 H   0  0  0  0  0
    5.7372   20.2706   14.9746 H   0  0  0  0  0
    3.8066   19.6072   17.0740 H   0  0  0  0  0
    4.3108   22.2640   15.6888 H   0  0  0  0  0
    2.2136   22.2765   16.8805 H   0  0  0  0  0
    3.0210   21.6839   18.3529 H   0  0  0  0  0
    3.4151   23.2967   17.7090 H   0  0  0  0  0
    5.4980   21.0784   18.2587 H   0  0  0  0  0
    6.3762   21.3344   16.7309 H   0  0  0  0  0
    5.7933   22.7320   17.6678 H   0  0  0  0  0
    1.6259   19.5641   17.0586 H   0  0  0  0  0
    0.4327   20.2037   14.3790 H   0  0  0  0  0
   -1.5707   20.9351   14.5896 H   0  0  0  0  0
   -0.6714   18.0163   16.2094 H   0  0  0  0  0
    0.5004   17.6676   14.9619 H   0  0  0  0  0
   -0.9685   18.6404   13.2099 H   0  0  0  0  0
   -2.1113   19.2124   14.4390 H   0  0  0  0  0
   -2.2840   16.7329   15.1666 H   0  0  0  0  0
   -1.4955   16.3575   13.6223 H   0  0  0  0  0
   -3.8822   18.2337   13.6052 H   0  0  0  0  0
   -4.1928   16.5490   13.7909 H   0  0  0  0  0
   -3.9618   17.1260   11.4183 H   0  0  0  0  0
   -2.4275   17.7236   11.6747 H   0  0  0  0  0
   -2.7279   16.0944   11.8543 H   0  0  0  0  0
  2  1  1  0  0  0
  2  5  1  0  0  0
  3  2  1  0  0  0
  3  4  2  0  0  0
  5  6  1  0  0  0
  6  7  1  0  0  0
  7  8  1  0  0  0
  8  9  1  0  0  0
 11 10  1  0  0  0
 11 14  1  0  0  0
 12 11  1  0  0  0
 12 13  2  0  0  0
 14 16  1  0  0  0
 14 15  1  0  0  0
 10  3  1  0  0  0
 17 18  1  0  0  0
 18 21  1  0  0  0
 18 19  1  0  0  0
 19 20  1  0  0  0
 19 26  2  0  0  0
 21 22  1  0  0  0
 22 23  1  0  0  0
 23 24  1  0  0  0
 24 25  1  0  0  0
 12 17  1  0  0  0
  1 27  1  0  0  0
  1 28  1  0  0  0
  1 29  1  0  0  0
  2 30  1  0  0  0
  5 31  1  0  0  0
  5 32  1  0  0  0
  6 33  1  0  0  0
  6 34  1  0  0  0
  7 35  1  0  0  0
  7 36  1  0  0  0
  8 37  1  0  0  0
  8 38  1  0  0  0
  9 39  1  0  0  0
  9 40  1  0  0  0
  9 41  1  0  0  0
 10 42  1  0  0  0
 11 43  1  0  0  0
 14 44  1  0  0  0
 15 45  1  0  0  0
 15 46  1  0  0  0
 15 47  1  0  0  0
 16 48  1  0  0  0
 16 49  1  0  0  0
 16 50  1  0  0  0
 17 51  1  0  0  0
 18 52  1  0  0  0
 20 53  1  0  0  0
 21 54  1  0  0  0
 21 55  1  0  0  0
 22 56  1  0  0  0
 22 57  1  0  0  0
 23 58  1  0  0  0
 23 59  1  0  0  0
 24 60  1  0  0  0
 24 61  1  0  0  0
 25 62  1  0  0  0
 25 63  1  0  0  0
 25 64  1  0  0  0
M  END
$$$$
