4ayq_ligand
  -I-interpret- 

 26 27  0  0  0  0  0  0  0  0999 V2000
    2.8400  -31.8050  -19.8990 C   0  0  0  0  0
    4.1660  -31.9290  -19.7440 N   0  0  0  0  0
    2.7330  -30.0420  -18.2030 C   0  0  0  0  0
    4.2090  -29.7600  -18.5240 C   0  0  0  0  0
    5.0020  -30.9950  -18.9290 C   0  0  0  0  0
    5.5160  -31.7260  -17.6830 C   0  0  0  0  0
    3.4990  -33.6170  -20.9670 C   0  0  0  0  0
    4.5820  -33.0430  -20.4070 C   0  0  0  0  0
    2.4410  -32.8390  -20.6410 N   0  0  0  0  0
    2.6140  -30.9240  -17.0920 O   0  0  0  0  0
    0.7300  -31.0920  -18.9740 O   0  0  0  0  0
    4.2840  -28.8170  -19.5920 O   0  0  0  0  0
    2.0270  -30.6760  -19.3810 C   0  0  0  0  0
    6.2480  -32.9080  -18.0070 O   0  0  0  0  0
    2.2724  -29.0819  -17.9704 H   0  0  0  0  0
    4.6513  -29.3788  -17.6036 H   0  0  0  0  0
    5.8467  -30.6658  -19.5341 H   0  0  0  0  0
    4.6534  -32.0178  -17.0840 H   0  0  0  0  0
    6.1851  -31.0514  -17.1489 H   0  0  0  0  0
    3.4792  -34.5283  -21.5647 H   0  0  0  0  0
    5.6077  -33.4058  -20.4730 H   0  0  0  0  0
    3.0563  -30.5402  -16.3313 H   0  0  0  0  0
    0.2765  -31.4955  -19.7177 H   0  0  0  0  0
    3.7893  -28.0287  -19.3567 H   0  0  0  0  0
    1.9114  -29.9576  -20.1925 H   0  0  0  0  0
    6.5480  -33.3291  -17.1981 H   0  0  0  0  0
  1  2  4  0  0  0
  1  9  4  0  0  0
 13  1  1  0  0  0
  2  5  1  0  0  0
  2  8  4  0  0  0
  3  4  1  0  0  0
  3 10  1  0  0  0
  3 13  1  0  0  0
  4  5  1  0  0  0
  4 12  1  0  0  0
  5  6  1  0  0  0
  6 14  1  0  0  0
  8  7  4  0  0  0
  7  9  4  0  0  0
 13 11  1  0  0  0
  3 15  1  0  0  0
  4 16  1  0  0  0
  5 17  1  0  0  0
  6 18  1  0  0  0
  6 19  1  0  0  0
  7 20  1  0  0  0
  8 21  1  0  0  0
 10 22  1  0  0  0
 11 23  1  0  0  0
 12 24  1  0  0  0
 13 25  1  0  0  0
 14 26  1  0  0  0
M  END
$$$$
