1fpy_ligand
  -I-interpret- 

 24 23  0  0  0  0  0  0  0  0999 V2000
  -85.0290   13.5780  -69.1520 N   0  3  0  0  0
  -86.4020   14.0170  -68.9550 C   0  0  0  0  0
  -86.8950   14.6630  -70.2360 C   0  0  0  0  0
  -85.9400   15.7050  -70.8030 C   0  0  0  0  0
  -86.0740   16.8540  -72.1520 P   0  0  0  0  0
  -87.4140   16.7310  -73.2650 C   0  0  0  0  0
  -84.8220   16.7920  -72.9030 O   0  0  0  0  0
  -86.1560   18.2900  -71.5720 O   0  0  0  0  0
  -87.2820   12.8230  -68.5270 C   0  0  0  0  0
  -88.3250   12.5610  -69.1330 O   0  0  0  0  0
  -86.9770   12.2510  -67.4730 O   0  0  0  0  0
  -84.4562   14.3734  -69.4343 H   0  0  0  0  0
  -84.6688   13.1905  -68.2799 H   0  0  0  0  0
  -85.0028   12.8634  -69.8794 H   0  0  0  0  0
  -86.4574   14.7559  -68.1556 H   0  0  0  0  0
  -87.8317   15.1705  -70.0055 H   0  0  0  0  0
  -86.9961   13.8738  -70.9811 H   0  0  0  0  0
  -85.1788   15.0411  -71.2127 H   0  0  0  0  0
  -85.9355   16.4099  -69.9717 H   0  0  0  0  0
  -87.3709   17.5559  -73.9762 H   0  0  0  0  0
  -87.3536   15.7839  -73.8011 H   0  0  0  0  0
  -88.3510   16.7767  -72.7100 H   0  0  0  0  0
  -86.9664   18.3837  -71.0660 H   0  0  0  0  0
  -86.1362   12.5904  -67.1578 H   0  0  0  0  0
  1  2  1  0  0  0
  2  3  1  0  0  0
  2  9  1  0  0  0
  3  4  1  0  0  0
  4  5  1  0  0  0
  5  6  1  0  0  0
  5  7  2  0  0  0
  5  8  1  0  0  0
  9 10  2  0  0  0
  9 11  1  0  0  0
  1 12  1  0  0  0
  1 13  1  0  0  0
  1 14  1  0  0  0
  2 15  1  0  0  0
  3 16  1  0  0  0
  3 17  1  0  0  0
  4 18  1  0  0  0
  4 19  1  0  0  0
  6 20  1  0  0  0
  6 21  1  0  0  0
  6 22  1  0  0  0
  8 23  1  0  0  0
 11 24  1  0  0  0
M  END
$$$$
