### 
### Created by X-TOOL on Mon Sep 10 21:12:48 2018
### 

@<TRIPOS>MOLECULE
1fpy_ligand
   22    21     1     0     0
SMALL
GAST_HUCK


@<TRIPOS>ATOM
      1 NP        -85.0290   13.5780  -69.1520 N.4       1 PPQ         0.2327
      2 CAP       -86.4020   14.0170  -68.9550 C.3       1 PPQ         0.0298
      3 CBP       -86.8950   14.6630  -70.2360 C.3       1 PPQ         0.0182
      4 CGP       -85.9400   15.7050  -70.8030 C.3       1 PPQ         0.0199
      5 PDP       -86.0740   16.8540  -72.1520 P.3       1 PPQ        -0.0188
      6 CEP       -87.4140   16.7310  -73.2650 C.3       1 PPQ         0.0020
      7 OEA       -84.8220   16.7920  -72.9030 O.co2     1 PPQ        -0.6192
      8 OEB       -86.1560   18.2900  -71.5720 O.co2     1 PPQ        -0.6192
      9 CP        -87.2820   12.8230  -68.5270 C.2       1 PPQ         0.0845
     10 OP        -88.3250   12.5610  -69.1330 O.co2     1 PPQ        -0.5643
     11 OTP       -86.9770   12.2510  -67.4730 O.co2     1 PPQ        -0.5643
     12 H1        -84.4620   14.3633  -69.4310 H         1 PPQ         0.2010
     13 H2        -85.0019   12.8718  -69.8707 H         1 PPQ         0.2010
     14 H3        -84.6719   13.1949  -68.2908 H         1 PPQ         0.2010
     15 H4        -86.4259   14.7687  -68.1523 H         1 PPQ         0.1025
     16 H5        -87.8590   15.1511  -70.0301 H         1 PPQ         0.0354
     17 H6        -87.0366   13.8749  -70.9902 H         1 PPQ         0.0354
     18 H7        -85.0439   15.1191  -71.0553 H         1 PPQ         0.0468
     19 H8        -85.7247   16.3506  -69.9388 H         1 PPQ         0.0468
     20 H9        -87.3306   17.5192  -74.0277 H         1 PPQ         0.0429
     21 H10       -88.3593   16.8510  -72.7155 H         1 PPQ         0.0429
     22 H11       -87.3961   15.7453  -73.7530 H         1 PPQ         0.0429
@<TRIPOS>BOND
     1    1    2 1  
     2    2    3 1  
     3    2    9 1  
     4    3    4 1  
     5    4    5 1  
     6    5    6 1  
     7    5    7 ar 
     8    5    8 ar 
     9    9   10 ar 
    10    9   11 ar 
    11    1   12 1  
    12    1   13 1  
    13    1   14 1  
    14    2   15 1  
    15    3   16 1  
    16    3   17 1  
    17    4   18 1  
    18    4   19 1  
    19    6   20 1  
    20    6   21 1  
    21    6   22 1  
@<TRIPOS>SUBSTRUCTURE
     1 PPQ         1

