6rvl_ligand

Created by X-TOOL on Mon Aug  2 16:17:20 2021
 39 40  0  0  0  0  0  0  0  0999 V2000
   -6.7730    3.5930   16.2560  C 0  0  0  2  0  3
   -6.1220    4.5850   15.5460  C 0  0  0  2  0  3
   -4.9810    4.2820   14.8160  C 0  0  0  1  0  3
   -4.5100    2.9670   14.8020  C 0  0  0  2  0  3
   -5.1520    1.9420   15.5210  C 0  0  0  2  0  4
   -6.2930    2.2860   16.2490  C 0  0  0  1  0  3
   -6.7980    1.0900   16.9910  C 0  0  0  3  0  4
   -3.6070    0.1980   16.6290  O 0  0  0  3  0  3
   -0.3530    8.1050   12.8700  C 0  0  0  2  0  3
   -1.5300    7.5680   12.3740  C 0  0  0  2  0  3
   -0.2550    8.4700   14.1990  C 0  0  0  2  0  3
   -1.3340    8.2950   15.0420  C 0  0  0  2  0  3
   -2.5130    7.7560   14.5570  C 0  0  0  2  0  3
   -2.6210    7.3970   13.2170  C 0  0  0  1  0  3
   -6.2640    5.8920   12.4540  S 0  0  0  1  0  1
   -4.2980    5.3300   14.1490  N 0  0  0  2  0  3
   -3.8810    7.0240   12.6970  N 0  0  0  2  0  3
   -4.7320    6.0670   13.1090  C 0  0  0  1  0  3
   -4.8000    0.3830   15.7960  B 0  0  0  1  0  3
   -6.0070   -0.0100   16.5660  O 0  0  0  2  0  2
   -4.7330   -0.5030   14.6320  O 0  0  0  3  0  3
   -7.6647    3.8349   16.8229  H 0  0  0  1  0  1
   -6.5029    5.5998   15.5595  H 0  0  0  1  0  1
   -3.6259    2.7298   14.2214  H 0  0  0  1  0  1
   -4.7758    0.9254   15.5103  H 0  0  0  1  0  1
   -7.8566    0.9124   16.7507  H 0  0  0  1  0  1
   -6.6884    1.2408   18.0751  H 0  0  0  1  0  1
   -3.5637   -0.7045   16.9221  H 0  0  0  1  0  1
   -3.5637   -0.7046   16.9222  H 0  0  0  1  0  1
    0.4969    8.2397   12.2108  H 0  0  0  1  0  1
   -1.5994    7.2820   11.3307  H 0  0  0  1  0  1
    0.6678    8.8931   14.5791  H 0  0  0  1  0  1
   -1.2579    8.5800   16.0851  H 0  0  0  1  0  1
   -3.3556    7.6130   15.2238  H 0  0  0  1  0  1
   -3.3843    5.5481   14.4920  H 0  0  0  1  0  1
   -4.1859    7.5506   11.9034  H 0  0  0  1  0  1
   -5.0951    0.1586   16.7724  H 0  0  0  1  0  1
   -5.5076   -0.3792   14.0962  H 0  0  0  1  0  1
   -5.5077   -0.3792   14.0962  H 0  0  0  1  0  1
  2  1  4  0  0  1
  1  6  4  0  0  1
  3  2  4  0  0  1
  3  4  4  0  0  1
 16  3  1  0  0  2
  4  5  4  0  0  1
  5  6  4  0  0  1
  5 19  1  0  0  2
  6  7  1  0  0  2
  7 20  1  0  0  2
 19  8  1  0  0  2
 10  9  4  0  0  1
  9 11  4  0  0  1
 14 10  4  0  0  1
 12 11  4  0  0  1
 13 12  4  0  0  1
 14 13  4  0  0  1
 17 14  1  0  0  2
 18 15  2  0  0  2
 18 16  1  0  0  2
 17 18  1  0  0  2
 19 21  1  0  0  2
  1 22  1  0  0  2
  2 23  1  0  0  2
  4 24  1  0  0  2
  5 25  1  0  0  2
  7 26  1  0  0  2
  7 27  1  0  0  2
  8 28  1  0  0  2
  8 29  1  0  0  2
  9 30  1  0  0  2
 10 31  1  0  0  2
 11 32  1  0  0  2
 12 33  1  0  0  2
 13 34  1  0  0  2
 16 35  1  0  0  2
 17 36  1  0  0  2
 20 37  1  0  0  2
 21 38  1  0  0  2
 21 39  1  0  0  2
M  END
> <MOLECULAR_FORMULA>
C14H18N2O3SB

> <MOLECULAR_WEIGHT>
305.0

> <NUM_HB_ATOMS>
5  

> <NUM_ROTOR>
2  

> <XLOGP2>
1.04 

$$$$
