#	Name:			6rvl_ligand
#	Creating user name:	wangrx
#	Creation time:		Thu Aug  5 18:10:36 2021

#	Modifying user name:	wangrx
#	Modification time:	Thu Aug  5 18:11:06 2021

@<TRIPOS>MOLECULE
6rvl_ligand
   37    39     1     0     0
SMALL
GAST_HUCK


@<TRIPOS>ATOM
      1 C5         -6.7730    3.5930   16.2560 C.ar      1 KKE        -0.1301 
      2 C4         -6.1220    4.5850   15.5460 C.ar      1 KKE        -0.1024 
      3 C3         -4.9810    4.2820   14.8160 C.ar      1 KKE         0.0173 
      4 C2         -4.5100    2.9670   14.8020 C.ar      1 KKE        -0.1009 
      5 C1         -5.1520    1.9420   15.5210 C.ar      1 KKE        -0.1187 
      6 C6         -6.2930    2.2860   16.2490 C.ar      1 KKE        -0.1208 
      7 C7         -6.7980    1.0900   16.9910 C.3       1 KKE        -0.1195 
      8 O3         -3.6070    0.1980   16.6290 O.3       1 KKE        -0.4105 
      9 C11        -0.3530    8.1050   12.8700 C.ar      1 KKE        -0.1310 
     10 C10        -1.5300    7.5680   12.3740 C.ar      1 KKE        -0.0963 
     11 C12        -0.2550    8.4700   14.1990 C.ar      1 KKE        -0.1264 
     12 C13        -1.3340    8.2950   15.0420 C.ar      1 KKE        -0.1310 
     13 C14        -2.5130    7.7560   14.5570 C.ar      1 KKE        -0.0963 
     14 C9         -2.6210    7.3970   13.2170 C.ar      1 KKE         0.0236 
     15 S1         -6.2640    5.8920   12.4540 S.2       1 KKE        -0.2829 
     16 N1         -4.2980    5.3300   14.1490 N.am      1 KKE        -0.2410 
     17 N2         -3.8810    7.0240   12.6970 N.am      1 KKE        -0.2376 
     18 C8         -4.7320    6.0670   13.1090 C.2       1 KKE         0.1861 
     19 B1         -4.8000    0.3830   15.7960 B         1 KKE         3.0000 
     20 O1         -6.0070   -0.0100   16.5660 O.3       1 KKE        -0.8469 
     21 O2         -4.7330   -0.5030   14.6320 O.3       1 KKE        -0.4105 
     22 H1         -7.6647    3.8349   16.8229 H         1 KKE         0.0147 
     23 H2         -6.5029    5.5998   15.5595 H         1 KKE         0.0122 
     24 H3         -3.6259    2.7298   14.2214 H         1 KKE         0.0123 
     25 H5         -7.8566    0.9124   16.7507 H         1 KKE         0.0206 
     26 H6         -6.6884    1.2408   18.0751 H         1 KKE         0.0206 
     27 H7         -3.5637   -0.7045   16.9221 H         1 KKE         0.2052 
     28 H8         -3.5637   -0.7046   16.9222 H         1 KKE         0.2052 
     29 H9          0.4969    8.2397   12.2108 H         1 KKE         0.0204 
     30 H10        -1.5994    7.2820   11.3307 H         1 KKE         0.0136 
     31 H11         0.6678    8.8931   14.5791 H         1 KKE         0.0379 
     32 H12        -1.2579    8.5800   16.0851 H         1 KKE         0.0204 
     33 H13        -3.3556    7.6130   15.2238 H         1 KKE         0.0136 
     34 H14        -3.3843    5.5481   14.4920 H         1 KKE         0.2333 
     35 H15        -4.1859    7.5506   11.9034 H         1 KKE         0.2353 
     36 H17        -5.5076   -0.3792   14.0962 H         1 KKE         0.2052 
     37 H18        -5.5077   -0.3792   14.0962 H         1 KKE         0.2052 
@<TRIPOS>BOND
     1    2    1 ar   
     2    1    6 ar   
     3    3    2 ar   
     4    3    4 ar   
     5   16    3 1    
     6    4    5 ar   
     7    5    6 ar   
     8    5   19 1    
     9    6    7 1    
    10    7   20 1    
    11   19    8 1    
    12   10    9 ar   
    13    9   11 ar   
    14   14   10 ar   
    15   12   11 ar   
    16   13   12 ar   
    17   14   13 ar   
    18   17   14 1    
    19   18   15 2    
    20   18   16 am   
    21   17   18 am   
    22   19   21 1    
    23    1   22 1    
    24    2   23 1    
    25    4   24 1    
    26   19   20 1    
    27    7   25 1    
    28    7   26 1    
    29    8   27 1    
    30    8   28 1    
    31    9   29 1    
    32   10   30 1    
    33   11   31 1    
    34   12   32 1    
    35   13   33 1    
    36   16   34 1    
    37   17   35 1    
    38   21   36 1    
    39   21   37 1    
@<TRIPOS>SUBSTRUCTURE
     1 KKE         1 PERM              0 ****  ****    0 ROOT 
