6pvz_ligand
  -I-interpret- 

 34 36  0  0  0  0  0  0  0  0999 V2000
   19.0730  -12.9980    5.7510 C   0  0  0  0  0
   16.5850  -15.9470    5.3300 C   0  0  0  0  0
   18.5430  -16.3790    3.9340 C   0  0  0  0  0
   18.4810  -11.7150    3.5760 C   0  0  0  0  0
   19.1260   -7.6840    0.4900 C   0  0  0  0  0
   20.2930   -8.6930    0.2340 C   0  0  0  0  0
   20.7900   -9.3590    1.4210 C   0  0  0  0  0
   22.1250   -9.2140    1.9760 C   0  0  0  0  0
   21.0800  -10.6130    3.4130 C   0  0  0  0  0
   20.7390  -11.4860    4.4840 C   0  0  0  0  0
   19.4490  -12.0390    4.5860 C   0  0  0  0  0
   18.4390  -14.3240    5.2920 C   0  0  0  0  0
   17.1690  -14.7240    5.7610 C   0  0  0  0  0
   17.2730  -16.7760    4.4150 C   0  0  0  0  0
   19.1150  -15.1580    4.3710 C   0  0  0  0  0
   18.8200  -10.8370    2.4940 C   0  0  0  0  0
   20.1340  -10.2820    2.4160 C   0  0  0  0  0
   19.3810   -6.5010    0.9470 O   0  0  0  0  0
   22.2130   -9.9660    3.1040 O   0  0  0  0  0
   17.9010   -8.0230    0.2870 O   0  0  0  0  0
   18.3357  -12.4838    6.3675 H   0  0  0  0  0
   19.9956  -13.2457    6.2760 H   0  0  0  0  0
   15.6062  -16.2453    5.7055 H   0  0  0  0  0
   19.0810  -17.0116    3.2280 H   0  0  0  0  0
   17.4790  -12.1405    3.6323 H   0  0  0  0  0
   21.1230   -8.1195   -0.1787 H   0  0  0  0  0
   19.9025   -9.4687   -0.4247 H   0  0  0  0  0
   22.9240   -8.6027    1.5565 H   0  0  0  0  0
   21.4885  -11.7300    5.2368 H   0  0  0  0  0
   16.6293  -14.0875    6.4622 H   0  0  0  0  0
   16.8285  -17.7141    4.0824 H   0  0  0  0  0
   20.0914  -14.8569    3.9913 H   0  0  0  0  0
   18.0777  -10.5940    1.7338 H   0  0  0  0  0
   20.3300   -6.3951    1.0458 H   0  0  0  0  0
  1 11  1  0  0  0
 12  1  1  0  0  0
 13  2  4  0  0  0
  2 14  4  0  0  0
 14  3  4  0  0  0
  3 15  4  0  0  0
 11  4  4  0  0  0
  4 16  4  0  0  0
  6  5  1  0  0  0
  5 18  1  0  0  0
  5 20  2  0  0  0
  7  6  1  0  0  0
  8  7  4  0  0  0
 17  7  4  0  0  0
 19  8  4  0  0  0
 10  9  4  0  0  0
  9 17  4  0  0  0
  9 19  4  0  0  0
 11 10  4  0  0  0
 12 13  4  0  0  0
 12 15  4  0  0  0
 16 17  4  0  0  0
  1 21  1  0  0  0
  1 22  1  0  0  0
  2 23  1  0  0  0
  3 24  1  0  0  0
  4 25  1  0  0  0
  6 26  1  0  0  0
  6 27  1  0  0  0
  8 28  1  0  0  0
 10 29  1  0  0  0
 13 30  1  0  0  0
 14 31  1  0  0  0
 15 32  1  0  0  0
 16 33  1  0  0  0
 18 34  1  0  0  0
M  END
$$$$
