4acg_ligand
  -I-interpret- 

 73 77  0  0  0  0  0  0  0  0999 V2000
   18.0170   26.3730    9.6230 C   0  0  0  0  0
   18.0370   24.9360    9.9380 N   0  3  0  0  0
   18.2580   24.1300    8.7230 C   0  0  0  0  0
   17.9700   22.6500    9.0380 C   0  0  0  0  0
   18.5340   22.2130   10.3470 N   0  0  0  0  0
   18.8580   23.1510   11.4500 C   0  0  0  0  0
   19.0350   24.6060   10.9760 C   0  0  0  0  0
   18.8000   20.5950   10.5720 S   0  0  0  0  0
   18.8070   20.3240   11.9610 O   0  0  0  0  0
   18.0070   19.8580    9.6480 O   0  0  0  0  0
   20.4370   20.3170    9.9770 C   0  0  0  0  0
   20.6420   20.0930    8.6170 C   0  0  0  0  0
   21.9250   19.8850    8.1600 C   0  0  0  0  0
   23.0130   19.9570    9.0500 C   0  0  0  0  0
   22.7940   20.1860   10.4140 C   0  0  0  0  0
   21.5080   20.3660   10.8700 C   0  0  0  0  0
   24.3810   19.6790    8.5350 C   0  0  0  0  0
   25.2990   18.9070    9.2750 C   0  0  0  0  0
   26.5570   18.6360    8.7010 C   0  0  0  0  0
   26.8170   19.1460    7.3940 C   0  0  0  0  0
   25.9340   19.8850    6.7580 N   0  0  0  0  0
   24.7470   20.1490    7.2660 C   0  0  0  0  0
   27.9750   18.9120    6.7080 N   0  0  0  0  0
   27.4870   17.7400    9.4220 C   0  0  0  0  0
   28.5950   17.4930    8.9630 O   0  0  0  0  0
   27.0240   17.1380   10.5450 N   0  0  0  0  0
   27.6770   16.2560   11.4130 C   0  0  0  0  0
   29.0370   16.3810   11.7130 C   0  0  0  0  0
   29.6380   15.5260   12.5330 N   0  0  0  0  0
   28.9570   14.5820   13.1800 C   0  0  0  0  0
   27.6010   14.3920   12.9370 C   0  0  0  0  0
   26.9450   15.2390   12.0450 C   0  0  0  0  0
   25.4640   15.0320   11.8270 C   0  0  0  0  0
   24.6890   16.2880   11.8030 N   0  3  0  0  0
   24.8990   17.2200   12.9580 C   0  0  0  0  0
   23.4910   17.7960   13.2030 C   0  0  0  0  0
   22.6040   16.5380   12.9120 C   0  0  0  0  0
   23.2540   16.0050   11.6270 C   0  0  0  0  0
   17.7703   26.9374   10.5223 H   0  0  0  0  0
   18.9983   26.6776    9.2591 H   0  0  0  0  0
   17.2676   26.5649    8.8551 H   0  0  0  0  0
   17.1194   24.7023   10.3171 H   0  0  0  0  0
   19.2914   24.2397    8.3941 H   0  0  0  0  0
   17.5918   24.4719    7.9309 H   0  0  0  0  0
   18.4356   22.0476    8.2580 H   0  0  0  0  0
   16.8882   22.5245    9.0839 H   0  0  0  0  0
   19.8018   22.8298   11.8906 H   0  0  0  0  0
   18.0270   23.1318   12.1551 H   0  0  0  0  0
   18.8972   25.2748   11.8256 H   0  0  0  0  0
   20.0344   24.7232   10.5569 H   0  0  0  0  0
   19.7999   20.0825    7.9251 H   0  0  0  0  0
   22.0979   19.6642    7.1067 H   0  0  0  0  0
   23.6339   20.2214   11.1079 H   0  0  0  0  0
   21.3260   20.5469   11.9294 H   0  0  0  0  0
   25.0427   18.5296   10.2649 H   0  0  0  0  0
   24.0377   20.7429    6.6896 H   0  0  0  0  0
   28.7113   18.3452    7.1286 H   0  0  0  0  0
   28.1033   19.3041    5.7752 H   0  0  0  0  0
   26.0599   17.3602   10.7931 H   0  0  0  0  0
   29.6127   17.1922   11.2673 H   0  0  0  0  0
   29.4679   13.9516   13.9078 H   0  0  0  0  0
   27.0577   13.5907   13.4378 H   0  0  0  0  0
   25.0917   14.4341   12.6588 H   0  0  0  0  0
   25.3404   14.5531   10.8557 H   0  0  0  0  0
   25.0608   16.7950   10.9998 H   0  0  0  0  0
   25.6392   17.9919   12.7473 H   0  0  0  0  0
   25.3075   16.7184   13.8353 H   0  0  0  0  0
   23.2518   18.6595   12.5824 H   0  0  0  0  0
   23.3514   18.2152   14.1994 H   0  0  0  0  0
   21.5430   16.7640   12.8061 H   0  0  0  0  0
   22.5865   15.8151   13.7276 H   0  0  0  0  0
   23.0597   14.9429   11.4780 H   0  0  0  0  0
   22.8480   16.4794   10.7336 H   0  0  0  0  0
  1  2  1  0  0  0
  2  3  1  0  0  0
  2  7  1  0  0  0
  3  4  1  0  0  0
  4  5  1  0  0  0
  5  6  1  0  0  0
  5  8  1  0  0  0
  6  7  1  0  0  0
  8  9  2  0  0  0
  8 10  2  0  0  0
  8 11  1  0  0  0
 11 12  4  0  0  0
 11 16  4  0  0  0
 12 13  4  0  0  0
 13 14  4  0  0  0
 14 15  4  0  0  0
 14 17  1  0  0  0
 15 16  4  0  0  0
 17 18  4  0  0  0
 17 22  4  0  0  0
 18 19  4  0  0  0
 19 20  4  0  0  0
 19 24  1  0  0  0
 20 21  4  0  0  0
 20 23  1  0  0  0
 21 22  4  0  0  0
 24 25  2  0  0  0
 24 26  1  0  0  0
 26 27  1  0  0  0
 27 28  4  0  0  0
 27 32  4  0  0  0
 28 29  4  0  0  0
 29 30  4  0  0  0
 30 31  4  0  0  0
 31 32  4  0  0  0
 32 33  1  0  0  0
 33 34  1  0  0  0
 34 35  1  0  0  0
 34 38  1  0  0  0
 35 36  1  0  0  0
 36 37  1  0  0  0
 37 38  1  0  0  0
  1 39  1  0  0  0
  1 40  1  0  0  0
  1 41  1  0  0  0
  2 42  1  0  0  0
  3 43  1  0  0  0
  3 44  1  0  0  0
  4 45  1  0  0  0
  4 46  1  0  0  0
  6 47  1  0  0  0
  6 48  1  0  0  0
  7 49  1  0  0  0
  7 50  1  0  0  0
 12 51  1  0  0  0
 13 52  1  0  0  0
 15 53  1  0  0  0
 16 54  1  0  0  0
 18 55  1  0  0  0
 22 56  1  0  0  0
 23 57  1  0  0  0
 23 58  1  0  0  0
 26 59  1  0  0  0
 28 60  1  0  0  0
 30 61  1  0  0  0
 31 62  1  0  0  0
 33 63  1  0  0  0
 33 64  1  0  0  0
 34 65  1  0  0  0
 35 66  1  0  0  0
 35 67  1  0  0  0
 36 68  1  0  0  0
 36 69  1  0  0  0
 37 70  1  0  0  0
 37 71  1  0  0  0
 38 72  1  0  0  0
 38 73  1  0  0  0
M  END
$$$$
