### 
### Created by X-TOOL on Mon Sep 10 21:13:09 2018
### 

@<TRIPOS>MOLECULE
4acg_ligand
   71    75     1     0     0
SMALL
GAST_HUCK


@<TRIPOS>ATOM
      1 C1         18.0170   26.3730    9.6230 C.3       1 6LQ        -0.1255
      2 N2         18.0370   24.9360    9.9380 N.4       1 6LQ         0.4029
      3 C3         18.2580   24.1300    8.7230 C.3       1 6LQ        -0.0959
      4 C4         17.9700   22.6500    9.0380 C.3       1 6LQ         0.0110
      5 N5         18.5340   22.2130   10.3470 N.am      1 6LQ        -0.2381
      6 C6         18.8580   23.1510   11.4500 C.3       1 6LQ         0.0110
      7 C7         19.0350   24.6060   10.9760 C.3       1 6LQ        -0.0959
      8 S8         18.8000   20.5950   10.5720 S.o2      1 6LQ         0.0700
      9 O9         18.8070   20.3240   11.9610 O.2       1 6LQ        -0.1502
     10 O10        18.0070   19.8580    9.6480 O.2       1 6LQ        -0.1502
     11 C11        20.4370   20.3170    9.9770 C.ar      1 6LQ         0.1074
     12 C12        20.6420   20.0930    8.6170 C.ar      1 6LQ        -0.0357
     13 C13        21.9250   19.8850    8.1600 C.ar      1 6LQ        -0.0536
     14 C14        23.0130   19.9570    9.0500 C.ar      1 6LQ        -0.0178
     15 C15        22.7940   20.1860   10.4140 C.ar      1 6LQ        -0.0536
     16 C16        21.5080   20.3660   10.8700 C.ar      1 6LQ        -0.0357
     17 C17        24.3810   19.6790    8.5350 C.ar      1 6LQ         0.0020
     18 C18        25.2990   18.9070    9.2750 C.ar      1 6LQ        -0.0254
     19 C19        26.5570   18.6360    8.7010 C.ar      1 6LQ         0.1020
     20 C20        26.8170   19.1460    7.3940 C.ar      1 6LQ         0.1317
     21 N21        25.9340   19.8850    6.7580 N.ar      1 6LQ        -0.2769
     22 C22        24.7470   20.1490    7.2660 C.ar      1 6LQ         0.0092
     23 N23        27.9750   18.9120    6.7080 N.pl3     1 6LQ        -0.3172
     24 C24        27.4870   17.7400    9.4220 C.2       1 6LQ         0.2327
     25 O25        28.5950   17.4930    8.9630 O.2       1 6LQ        -0.3771
     26 N26        27.0240   17.1380   10.5450 N.am      1 6LQ        -0.2304
     27 C27        27.6770   16.2560   11.4130 C.ar      1 6LQ         0.0941
     28 C28        29.0370   16.3810   11.7130 C.ar      1 6LQ         0.0229
     29 N29        29.6380   15.5260   12.5330 N.ar      1 6LQ        -0.3231
     30 C30        28.9570   14.5820   13.1800 C.ar      1 6LQ        -0.0134
     31 C31        27.6010   14.3920   12.9370 C.ar      1 6LQ        -0.0480
     32 C32        26.9450   15.2390   12.0450 C.ar      1 6LQ        -0.0214
     33 C33        25.4640   15.0320   11.8270 C.3       1 6LQ        -0.0729
     34 N34        24.6890   16.2880   11.8030 N.4       1 6LQ         0.4078
     35 C35        24.8990   17.2200   12.9580 C.3       1 6LQ        -0.1104
     36 C36        23.4910   17.7960   13.2030 C.3       1 6LQ        -0.0733
     37 C37        22.6040   16.5380   12.9120 C.3       1 6LQ        -0.0733
     38 C38        23.2540   16.0050   11.6270 C.3       1 6LQ        -0.1104
     39 H          17.7703   26.9374   10.5223 H         1 6LQ        -0.0019
     40 H          18.9983   26.6776    9.2591 H         1 6LQ        -0.0019
     41 H          17.2676   26.5649    8.8551 H         1 6LQ        -0.0019
     42 H          19.2914   24.2397    8.3941 H         1 6LQ         0.0033
     43 H          17.5918   24.4719    7.9309 H         1 6LQ         0.0033
     44 H          18.4356   22.0476    8.2580 H         1 6LQ         0.0458
     45 H          16.8882   22.5245    9.0839 H         1 6LQ         0.0458
     46 H          19.8018   22.8298   11.8906 H         1 6LQ         0.0458
     47 H          18.0270   23.1318   12.1551 H         1 6LQ         0.0458
     48 H          18.8972   25.2748   11.8256 H         1 6LQ         0.0033
     49 H          20.0344   24.7232   10.5569 H         1 6LQ         0.0033
     50 H          19.7999   20.0825    7.9251 H         1 6LQ         0.0634
     51 H          22.0979   19.6642    7.1067 H         1 6LQ         0.0615
     52 H          23.6339   20.2214   11.1079 H         1 6LQ         0.0615
     53 H          21.3260   20.5469   11.9294 H         1 6LQ         0.0634
     54 H          25.0427   18.5296   10.2649 H         1 6LQ         0.0759
     55 H          24.0377   20.7429    6.6896 H         1 6LQ         0.0827
     56 H          28.7113   18.3452    7.1286 H         1 6LQ         0.1798
     57 H          28.1033   19.3041    5.7752 H         1 6LQ         0.1798
     58 H          26.0599   17.3602   10.7931 H         1 6LQ         0.2254
     59 H          29.6127   17.1922   11.2673 H         1 6LQ         0.0678
     60 H          29.4679   13.9516   13.9078 H         1 6LQ         0.0671
     61 H          27.0577   13.5907   13.4378 H         1 6LQ         0.0600
     62 H          25.0917   14.4341   12.6588 H         1 6LQ         0.0180
     63 H          25.3404   14.5531   10.8557 H         1 6LQ         0.0180
     64 H          25.6392   17.9919   12.7473 H         1 6LQ         0.0020
     65 H          25.3075   16.7184   13.8353 H         1 6LQ         0.0020
     66 H          23.2518   18.6595   12.5824 H         1 6LQ         0.0245
     67 H          23.3514   18.2152   14.1994 H         1 6LQ         0.0245
     68 H          21.5430   16.7640   12.8061 H         1 6LQ         0.0245
     69 H          22.5865   15.8151   13.7276 H         1 6LQ         0.0245
     70 H          23.0597   14.9429   11.4780 H         1 6LQ         0.0020
     71 H          22.8480   16.4794   10.7336 H         1 6LQ         0.0020
@<TRIPOS>BOND
     1    1    2 1  
     2    2    3 1  
     3    2    7 1  
     4    3    4 1  
     5    4    5 1  
     6    5    6 1  
     7    5    8 am 
     8    6    7 1  
     9    8    9 2  
    10    8   10 2  
    11    8   11 1  
    12   11   12 ar 
    13   11   16 ar 
    14   12   13 ar 
    15   13   14 ar 
    16   14   15 ar 
    17   14   17 1  
    18   15   16 ar 
    19   17   18 ar 
    20   17   22 ar 
    21   18   19 ar 
    22   19   20 ar 
    23   19   24 1  
    24   20   21 ar 
    25   20   23 1  
    26   21   22 ar 
    27   24   25 2  
    28   24   26 am 
    29   26   27 1  
    30   27   28 ar 
    31   27   32 ar 
    32   28   29 ar 
    33   29   30 ar 
    34   30   31 ar 
    35   31   32 ar 
    36   32   33 1  
    37   33   34 1  
    38   34   35 1  
    39   34   38 1  
    40   35   36 1  
    41   36   37 1  
    42   37   38 1  
    43    1   39 1  
    44    1   40 1  
    45    1   41 1  
    46    3   42 1  
    47    3   43 1  
    48    4   44 1  
    49    4   45 1  
    50    6   46 1  
    51    6   47 1  
    52    7   48 1  
    53    7   49 1  
    54   12   50 1  
    55   13   51 1  
    56   15   52 1  
    57   16   53 1  
    58   18   54 1  
    59   22   55 1  
    60   23   56 1  
    61   23   57 1  
    62   26   58 1  
    63   28   59 1  
    64   30   60 1  
    65   31   61 1  
    66   33   62 1  
    67   33   63 1  
    68   35   64 1  
    69   35   65 1  
    70   36   66 1  
    71   36   67 1  
    72   37   68 1  
    73   37   69 1  
    74   38   70 1  
    75   38   71 1  
@<TRIPOS>SUBSTRUCTURE
     1 6LQ         1

