4bh4_ligand
  -I-interpret- 

 88 90  0  0  0  0  0  0  0  0999 V2000
   28.3080    2.4600  -13.1450 C   0  0  0  0  0
   28.2450    2.2250  -11.6420 C   0  0  0  0  0
   28.9550    3.3400  -10.8720 C   0  0  0  0  0
   28.1780    4.6430  -10.8990 C   0  0  0  0  0
   26.7530    4.4100  -10.4160 C   0  0  0  0  0
   26.0920    3.3110  -11.2550 C   0  0  0  0  0
   24.6430    3.0170  -10.8450 C   0  0  0  0  0
   24.0100    1.8160  -11.5690 C   0  0  0  0  0
   22.4880    1.8700  -11.4540 C   0  0  0  0  0
   25.1040    6.1460   -9.8520 C   0  0  0  0  0
   24.4600    7.4210  -10.3020 C   0  0  0  0  0
   26.0300    5.6500  -10.6730 N   0  0  0  0  0
   29.4130    2.7470  -13.6480 O   0  0  0  0  0
   27.2680    2.3530  -13.8420 O   0  0  0  0  0
   28.8490    5.6070  -10.0840 O   0  0  0  0  0
   26.8860    2.1120  -11.1830 O   0  0  0  0  0
   24.6000    2.7860   -9.4340 O   0  0  0  0  0
   24.3510    1.7810  -12.9640 O   0  0  0  0  0
   21.8800    0.7140  -12.0480 O   0  0  0  0  0
   24.7690    5.6060   -8.8120 O   0  0  0  0  0
   27.9950   -2.5350  -11.3000 C   0  0  0  0  0
   28.2660   -1.1450  -10.7420 C   0  0  0  0  0
   28.5590   -0.1800  -11.8800 C   0  0  0  0  0
   29.6540   -0.7160  -12.7980 C   0  0  0  0  0
   29.3550   -2.1490  -13.2200 C   0  0  0  0  0
   30.4970   -2.7460  -14.0310 C   0  0  0  0  0
   27.1390   -0.6710  -10.0000 O   0  0  0  0  0
   28.9890    1.0530  -11.3130 O   0  0  0  0  0
   30.9160   -0.6790  -12.1220 O   0  0  0  0  0
   29.1260   -2.9560  -12.0650 O   0  0  0  0  0
   30.0220   -3.9190  -14.7000 O   0  0  0  0  0
   27.2870   -7.4560   -9.5720 C   0  0  0  0  0
   28.2930   -7.1450  -10.6720 C   0  0  0  0  0
   28.5960   -5.6530  -10.7820 C   0  0  0  0  0
   27.3620   -4.7540  -10.6310 C   0  0  0  0  0
   26.3580   -5.2670   -9.5980 C   0  0  0  0  0
   25.0320   -4.5170   -9.7090 C   0  0  0  0  0
   30.0550   -8.9260  -10.7250 C   0  0  0  0  0
   29.2940   -9.6990  -11.7690 C   0  0  0  0  0
   29.5490   -7.7740  -10.2660 N   0  0  0  0  0
   26.9350   -8.8410   -9.6220 O   0  0  0  0  0
   29.1940   -5.4270  -12.0660 O   0  0  0  0  0
   27.7720   -3.4430  -10.2230 O   0  0  0  0  0
   26.1180   -6.6640   -9.7730 O   0  0  0  0  0
   24.2110   -4.8120   -8.5730 O   0  0  0  0  0
   31.1240   -9.3380  -10.3000 O   0  0  0  0  0
   29.9226    3.5133  -11.3430 H   0  0  0  0  0
   29.0515    3.0251   -9.8329 H   0  0  0  0  0
   28.1267    5.0234  -11.9192 H   0  0  0  0  0
   26.7441    4.1210   -9.3651 H   0  0  0  0  0
   26.0465    3.6756  -12.2812 H   0  0  0  0  0
   24.0580    3.8900  -11.1342 H   0  0  0  0  0
   24.4034    0.9205  -11.0879 H   0  0  0  0  0
   22.1314    2.7574  -11.9769 H   0  0  0  0  0
   22.2203    1.8993  -10.3978 H   0  0  0  0  0
   23.3900    7.2596  -10.4329 H   0  0  0  0  0
   24.6230    8.1937   -9.5507 H   0  0  0  0  0
   24.9000    7.7344  -11.2487 H   0  0  0  0  0
   26.2442    6.1655  -11.5267 H   0  0  0  0  0
   26.5262    2.1284  -13.2755 H   0  0  0  0  0
   29.7428    5.7338  -10.4105 H   0  0  0  0  0
   24.9938    3.5325   -8.9765 H   0  0  0  0  0
   23.9364    1.0187  -13.3746 H   0  0  0  0  0
   20.9259    0.7753  -11.9610 H   0  0  0  0  0
   27.1110   -2.5153  -11.9374 H   0  0  0  0  0
   29.1280   -1.2039  -10.0775 H   0  0  0  0  0
   27.6556   -0.0492  -12.4756 H   0  0  0  0  0
   29.6904   -0.0868  -13.6873 H   0  0  0  0  0
   28.4640   -2.1299  -13.8475 H   0  0  0  0  0
   31.3235   -3.0064  -13.3698 H   0  0  0  0  0
   30.8497   -2.0198  -14.7633 H   0  0  0  0  0
   27.3288    0.2052   -9.6568 H   0  0  0  0  0
   31.5999   -1.0173  -12.7046 H   0  0  0  0  0
   30.7353   -4.3034  -15.2147 H   0  0  0  0  0
   27.7254   -7.2298   -8.6000 H   0  0  0  0  0
   27.8872   -7.4958  -11.6209 H   0  0  0  0  0
   29.2607   -5.3876   -9.9599 H   0  0  0  0  0
   26.8719   -4.7466  -11.6046 H   0  0  0  0  0
   26.7881   -5.0952   -8.6113 H   0  0  0  0  0
   24.5163   -4.8293  -10.6171 H   0  0  0  0  0
   25.2262   -3.4450   -9.7446 H   0  0  0  0  0
   29.9067   -9.7970  -12.6652 H   0  0  0  0  0
   29.0528  -10.6891  -11.3822 H   0  0  0  0  0
   28.3735   -9.1686  -12.0128 H   0  0  0  0  0
   30.0973   -7.2841   -9.5591 H   0  0  0  0  0
   26.3009   -9.0341   -8.9276 H   0  0  0  0  0
   29.3962   -4.4936  -12.1638 H   0  0  0  0  0
   23.3796   -4.3379   -8.6487 H   0  0  0  0  0
  2  1  1  0  0  0
  1 13  2  0  0  0
  1 14  1  0  0  0
  2  3  1  0  0  0
  2 16  1  0  0  0
 28  2  1  0  0  0
  3  4  1  0  0  0
  4  5  1  0  0  0
  4 15  1  0  0  0
  6  5  1  0  0  0
  5 12  1  0  0  0
  6  7  1  0  0  0
 16  6  1  0  0  0
  7  8  1  0  0  0
  7 17  1  0  0  0
  8  9  1  0  0  0
  8 18  1  0  0  0
  9 19  1  0  0  0
 10 11  1  0  0  0
 12 10  1  0  0  0
 10 20  2  0  0  0
 21 22  1  0  0  0
 21 30  1  0  0  0
 43 21  1  0  0  0
 22 23  1  0  0  0
 22 27  1  0  0  0
 23 24  1  0  0  0
 23 28  1  0  0  0
 25 24  1  0  0  0
 24 29  1  0  0  0
 25 26  1  0  0  0
 30 25  1  0  0  0
 26 31  1  0  0  0
 33 32  1  0  0  0
 32 41  1  0  0  0
 32 44  1  0  0  0
 33 34  1  0  0  0
 40 33  1  0  0  0
 34 35  1  0  0  0
 34 42  1  0  0  0
 35 36  1  0  0  0
 35 43  1  0  0  0
 36 37  1  0  0  0
 44 36  1  0  0  0
 37 45  1  0  0  0
 38 39  1  0  0  0
 38 40  1  0  0  0
 38 46  2  0  0  0
  3 47  1  0  0  0
  3 48  1  0  0  0
  4 49  1  0  0  0
  5 50  1  0  0  0
  6 51  1  0  0  0
  7 52  1  0  0  0
  8 53  1  0  0  0
  9 54  1  0  0  0
  9 55  1  0  0  0
 11 56  1  0  0  0
 11 57  1  0  0  0
 11 58  1  0  0  0
 12 59  1  0  0  0
 14 60  1  0  0  0
 15 61  1  0  0  0
 17 62  1  0  0  0
 18 63  1  0  0  0
 19 64  1  0  0  0
 21 65  1  0  0  0
 22 66  1  0  0  0
 23 67  1  0  0  0
 24 68  1  0  0  0
 25 69  1  0  0  0
 26 70  1  0  0  0
 26 71  1  0  0  0
 27 72  1  0  0  0
 29 73  1  0  0  0
 31 74  1  0  0  0
 32 75  1  0  0  0
 33 76  1  0  0  0
 34 77  1  0  0  0
 35 78  1  0  0  0
 36 79  1  0  0  0
 37 80  1  0  0  0
 37 81  1  0  0  0
 39 82  1  0  0  0
 39 83  1  0  0  0
 39 84  1  0  0  0
 40 85  1  0  0  0
 41 86  1  0  0  0
 42 87  1  0  0  0
 45 88  1  0  0  0
M  END
$$$$
