2vgc_ligand
  -I-interpret- 

 27 27  0  0  0  0  0  0  0  0999 V2000
   27.4960    2.9610   39.9210 C   0  0  0  0  0
   27.9050    2.3540   41.1090 C   0  0  0  0  0
   27.6380    2.9430   42.3410 C   0  0  0  0  0
   26.9580    4.1490   42.3770 C   0  0  0  0  0
   26.5560    4.7720   41.2110 C   0  0  0  0  0
   26.8250    4.1790   39.9980 C   0  0  0  0  0
   27.7010    2.2850   38.5910 C   0  0  0  0  0
   29.0930    2.4580   37.9830 C   0  0  0  0  0
   32.3350    0.4890   38.1780 C   0  0  0  0  0
   31.3960    1.6830   38.2660 C   0  0  0  0  0
   30.0900    1.4540   38.3230 N   0  0  0  0  0
   31.8630    2.8300   38.3330 O   0  0  0  0  0
   28.8750    1.0330   35.9220 O   0  0  0  0  0
   28.8960    2.4400   36.3550 B   0  0  0  0  0
   26.5290    4.9630   43.8510 Cl  0  0  0  0  0
   28.4409    1.4056   41.0714 H   0  0  0  0  0
   27.9595    2.4620   43.2648 H   0  0  0  0  0
   26.0299    5.7258   41.2513 H   0  0  0  0  0
   26.5065    4.6725   39.0798 H   0  0  0  0  0
   26.9961    2.7406   37.8956 H   0  0  0  0  0
   27.5618    1.2168   38.7573 H   0  0  0  0  0
   29.4872    3.3868   38.3953 H   0  0  0  0  0
   32.9515    0.5784   37.2835 H   0  0  0  0  0
   32.9743    0.4653   39.0605 H   0  0  0  0  0
   31.7496   -0.4290   38.1271 H   0  0  0  0  0
   29.7703    0.5317   38.6188 H   0  0  0  0  0
   28.7604    0.9941   34.9697 H   0  0  0  0  0
  1  2  4  0  0  0
  1  6  4  0  0  0
  7  1  1  0  0  0
  2  3  4  0  0  0
  3  4  4  0  0  0
  5  4  4  0  0  0
  4 15  1  0  0  0
  6  5  4  0  0  0
  8  7  1  0  0  0
 11  8  1  0  0  0
  8 14  1  0  0  0
 10  9  1  0  0  0
 10 11  1  0  0  0
 10 12  2  0  0  0
 14 13  1  0  0  0
  2 16  1  0  0  0
  3 17  1  0  0  0
  5 18  1  0  0  0
  6 19  1  0  0  0
  7 20  1  0  0  0
  7 21  1  0  0  0
  8 22  1  0  0  0
  9 23  1  0  0  0
  9 24  1  0  0  0
  9 25  1  0  0  0
 11 26  1  0  0  0
 13 27  1  0  0  0
M  END
$$$$
