### 
### Created by X-TOOL on Mon Sep 10 21:12:46 2018
### 

@<TRIPOS>MOLECULE
2vgc_ligand
   28    28     1     0     0
SMALL
GAST_HUCK


@<TRIPOS>ATOM
      1 C1         27.4960    2.9610   39.9210 C.ar      1 V35        -0.0419
      2 C2         27.9050    2.3540   41.1090 C.ar      1 V35        -0.0597
      3 C3         27.6380    2.9430   42.3410 C.ar      1 V35        -0.0546
      4 C4         26.9580    4.1490   42.3770 C.ar      1 V35         0.0330
      5 C5         26.5560    4.7720   41.2110 C.ar      1 V35        -0.0546
      6 C6         26.8250    4.1790   39.9980 C.ar      1 V35        -0.0597
      7 C7         27.7010    2.2850   38.5910 C.3       1 V35        -0.0076
      8 C8         29.0930    2.4580   37.9830 C.3       1 V35         0.0300
      9 C9         32.3350    0.4890   38.1780 C.3       1 V35         0.0256
     10 C          31.3960    1.6830   38.2660 C.2       1 V35         0.1721
     11 N          30.0900    1.4540   38.3230 N.am      1 V35        -0.2949
     12 O          31.8630    2.8300   38.3330 O.2       1 V35        -0.3974
     13 O1B        28.8750    1.0330   35.9220 O.3       1 V35        -0.5230
     14 B          28.8960    2.4400   36.3550 B         1 V35         0.4901
     15 CL4        26.5290    4.9630   43.8510 Cl        1 V35        -0.0771
     16 H1         28.4380    1.4108   41.0716 H         1 V35         0.0557
     17 H2         27.9577    2.4647   43.2597 H         1 V35         0.0606
     18 H3         26.0328    5.7205   41.2511 H         1 V35         0.0606
     19 H4         26.5083    4.6698   39.0848 H         1 V35         0.0557
     20 H5         26.9665    2.6962   37.8829 H         1 V35         0.0436
     21 H6         27.5189    1.2084   38.7243 H         1 V35         0.0436
     22 H7         29.4823    3.4366   38.3004 H         1 V35         0.0424
     23 H8         33.3757    0.8431   38.1385 H         1 V35         0.0467
     24 H9         32.1096   -0.0886   37.2694 H         1 V35         0.0467
     25 H10        32.1987   -0.1507   39.0624 H         1 V35         0.0467
     26 H11        29.7766    0.5497   38.6130 H         1 V35         0.1840
     27 H12        28.1548    0.5826   36.3474 H         1 V35         0.1648
     28 H13        28.8055    3.2472   35.7581 H         1 V35        -0.0311
@<TRIPOS>BOND
     1    1    2 ar 
     2    1    6 ar 
     3    7    1 1  
     4    2    3 ar 
     5    3    4 ar 
     6    5    4 ar 
     7    4   15 1  
     8    6    5 ar 
     9    8    7 1  
    10   11    8 1  
    11    8   14 1  
    12   10    9 1  
    13   10   11 am 
    14   10   12 2  
    15   14   13 1  
    16    2   16 1  
    17    3   17 1  
    18    5   18 1  
    19    6   19 1  
    20    7   20 1  
    21    7   21 1  
    22    8   22 1  
    23    9   23 1  
    24    9   24 1  
    25    9   25 1  
    26   11   26 1  
    27   13   27 1  
    28   14   28 1  
@<TRIPOS>SUBSTRUCTURE
     1 V35         1

