6iou_ligand
  -I-interpret- 

 15 14  0  0  0  0  0  0  0  0999 V2000
    9.0140    3.2690   15.8700 N   0  3  0  0  0
    9.5440    2.8860   17.1810 C   0  0  0  0  0
    9.7430    1.3860   17.3250 C   0  0  0  0  0
    9.2560    0.5970   16.5150 O   0  0  0  0  0
    8.6380    3.3950   18.3030 C   0  0  0  0  0
    7.3190    2.9170   18.1730 O   0  0  0  0  0
   10.4310    0.9380   18.2420 O   0  0  0  0  0
    9.6334    2.9195   15.1389 H   0  0  0  0  0
    8.0840    2.8675   15.7501 H   0  0  0  0  0
    8.9569    4.2857   15.8115 H   0  0  0  0  0
   10.5253    3.3539   17.2602 H   0  0  0  0  0
    8.7485    1.0837   15.8614 H   0  0  0  0  0
    8.6128    4.4836   18.2538 H   0  0  0  0  0
    9.0379    3.0390   19.2524 H   0  0  0  0  0
    6.7839    3.2577   18.8936 H   0  0  0  0  0
  1  2  1  0  0  0
  2  3  1  0  0  0
  2  5  1  0  0  0
  3  4  1  0  0  0
  3  7  2  0  0  0
  5  6  1  0  0  0
  1  8  1  0  0  0
  1  9  1  0  0  0
  1 10  1  0  0  0
  2 11  1  0  0  0
  4 12  1  0  0  0
  5 13  1  0  0  0
  5 14  1  0  0  0
  6 15  1  0  0  0
M  END
$$$$
