1rbp_ligand
  -I-interpret- 

 51 51  0  0  0  0  0  0  0  0999 V2000
   29.6110   21.3730   45.3130 C   0  0  0  0  0
   29.3530   21.3820   43.7990 C   0  0  0  0  0
   30.4050   20.8400   42.9870 C   0  0  0  0  0
   30.6780   19.3750   43.2780 C   0  0  0  0  0
   30.8700   19.1360   44.7590 C   0  0  0  0  0
   30.3910   20.0230   45.7170 C   0  0  0  0  0
   30.4140   19.7480   47.1870 C   0  0  0  0  0
   31.5340   19.5570   47.9200 C   0  0  0  0  0
   31.6150   19.2890   49.3280 C   0  0  0  0  0
   32.8690   19.1060   49.8290 C   0  0  0  0  0
   33.2410   18.8890   51.2130 C   0  0  0  0  0
   34.5270   18.6650   51.5950 C   0  0  0  0  0
   34.9590   18.4900   52.9750 C   0  0  0  0  0
   36.2680   18.2380   53.2300 C   0  0  0  0  0
   36.7580   18.0420   54.5870 C   0  0  0  0  0
   28.2410   21.4810   46.0260 C   0  0  0  0  0
   30.4560   22.5970   45.6860 C   0  0  0  0  0
   31.7370   17.8970   45.0050 C   0  0  0  0  0
   30.2950   19.1560   50.1160 C   0  0  0  0  0
   33.8890   18.6090   54.1090 C   0  0  0  0  0
   38.1220   17.7880   54.8970 O   0  0  0  0  0
   29.2462   22.4274   43.5096 H   0  0  0  0  0
   28.4777   20.7546   43.6306 H   0  0  0  0  0
   31.3155   21.3986   43.2040 H   0  0  0  0  0
   30.0975   20.9215   41.9445 H   0  0  0  0  0
   31.5900   19.0818   42.7579 H   0  0  0  0  0
   29.8237   18.7888   42.9396 H   0  0  0  0  0
   29.4568   19.6978   47.7059 H   0  0  0  0  0
   32.4804   19.6127   47.3822 H   0  0  0  0  0
   33.6852   19.1250   49.1068 H   0  0  0  0  0
   32.4620   18.9059   51.9752 H   0  0  0  0  0
   35.2865   18.6129   50.8149 H   0  0  0  0  0
   36.9700   18.1809   52.3981 H   0  0  0  0  0
   36.2609   17.1227   54.8968 H   0  0  0  0  0
   36.5761   19.0093   55.0554 H   0  0  0  0  0
   28.3955   21.5107   47.1046 H   0  0  0  0  0
   27.7365   22.3922   45.7047 H   0  0  0  0  0
   27.6298   20.6159   45.7689 H   0  0  0  0  0
   29.9415   23.5032   45.3662 H   0  0  0  0  0
   30.6006   22.6216   46.7661 H   0  0  0  0  0
   31.4244   22.5332   45.1899 H   0  0  0  0  0
   32.6728   18.1977   45.4760 H   0  0  0  0  0
   31.2047   17.2068   45.6595 H   0  0  0  0  0
   31.9481   17.4082   44.0539 H   0  0  0  0  0
   30.2099   18.1439   50.5115 H   0  0  0  0  0
   30.2911   19.8706   50.9390 H   0  0  0  0  0
   29.4549   19.3599   49.4521 H   0  0  0  0  0
   33.8476   17.6738   54.6673 H   0  0  0  0  0
   34.1622   19.4228   54.7807 H   0  0  0  0  0
   32.9139   18.8131   53.6667 H   0  0  0  0  0
   38.2205   17.6916   55.8471 H   0  0  0  0  0
  1  2  1  0  0  0
  1  6  1  0  0  0
  1 16  1  0  0  0
  1 17  1  0  0  0
  2  3  1  0  0  0
  3  4  1  0  0  0
  4  5  1  0  0  0
  5  6  2  0  0  0
  5 18  1  0  0  0
  6  7  1  0  0  0
  7  8  2  0  0  0
  8  9  1  0  0  0
  9 10  2  0  0  0
  9 19  1  0  0  0
 10 11  1  0  0  0
 11 12  2  0  0  0
 12 13  1  0  0  0
 13 14  2  0  0  0
 13 20  1  0  0  0
 14 15  1  0  0  0
 15 21  1  0  0  0
  2 22  1  0  0  0
  2 23  1  0  0  0
  3 24  1  0  0  0
  3 25  1  0  0  0
  4 26  1  0  0  0
  4 27  1  0  0  0
  7 28  1  0  0  0
  8 29  1  0  0  0
 10 30  1  0  0  0
 11 31  1  0  0  0
 12 32  1  0  0  0
 14 33  1  0  0  0
 15 34  1  0  0  0
 15 35  1  0  0  0
 16 36  1  0  0  0
 16 37  1  0  0  0
 16 38  1  0  0  0
 17 39  1  0  0  0
 17 40  1  0  0  0
 17 41  1  0  0  0
 18 42  1  0  0  0
 18 43  1  0  0  0
 18 44  1  0  0  0
 19 45  1  0  0  0
 19 46  1  0  0  0
 19 47  1  0  0  0
 20 48  1  0  0  0
 20 49  1  0  0  0
 20 50  1  0  0  0
 21 51  1  0  0  0
M  END
$$$$
