5o9y_ligand
  -I-interpret- 

 91 95  0  0  0  0  0  0  0  0999 V2000
   -9.0710   13.3050   21.7740 C   0  0  0  0  0
   -9.5370   11.8680   22.0320 C   0  0  0  0  0
   -8.5510   11.1280   22.9410 C   0  0  0  0  0
  -10.1460   14.0690   21.0060 C   0  0  0  0  0
  -22.7860    6.6970   17.0190 C   0  0  0  0  0
  -23.0420    6.4160   15.6810 C   0  0  0  0  0
  -22.2130    6.9390   14.6930 C   0  0  0  0  0
  -21.1240    7.7420   15.0370 C   0  0  0  0  0
  -20.8540    8.0330   16.3760 C   0  0  0  0  0
  -21.6940    7.5040   17.3900 N   0  0  0  0  0
  -21.5010    7.7520   18.8480 C   0  0  0  0  0
  -20.1500    8.3420   19.1940 C   0  0  0  0  0
  -20.0010    8.0530   20.6710 C   0  0  0  0  0
  -18.7990    8.8780   21.1580 C   0  0  0  0  0
  -17.6070    8.4440   21.5260 C   0  0  0  0  0
  -18.8060   10.1960   21.2890 N   0  0  0  0  0
  -17.7210   10.5390   21.6980 N   0  0  0  0  0
  -16.9520    9.5580   21.8510 N   0  0  0  0  0
  -15.5720    9.6490   22.3620 C   0  0  0  0  0
  -14.8390   10.9480   21.9850 C   0  0  0  0  0
  -14.4600   10.8980   20.5970 O   0  0  0  0  0
  -15.8020    9.6020   23.7770 O   0  0  0  0  0
  -14.5890    9.6450   24.5480 C   0  0  0  0  0
  -14.8860    9.3680   26.0310 C   0  0  0  0  0
  -16.1860    9.8430   26.3560 O   0  0  0  0  0
  -13.9420   11.0000   24.3360 C   0  0  0  0  0
  -12.7400   11.1270   25.1170 O   0  0  0  0  0
  -13.5930   11.1320   22.8590 C   0  0  0  0  0
  -13.0720   12.4510   22.6660 O   0  0  0  0  0
  -11.8360   12.5110   21.9480 C   0  0  0  0  0
  -11.4830   13.9730   21.7350 C   0  0  0  0  0
  -12.5260   14.6020   20.9700 O   0  0  0  0  0
  -10.8010   11.8840   22.7130 O   0  0  0  0  0
   -8.4570   11.7990   24.2000 O   0  0  0  0  0
   -7.8540   13.2880   21.0110 O   0  0  0  0  0
   -9.7530   15.4470   20.9240 O   0  0  0  0  0
   -9.9870   16.0610   19.6470 C   0  0  0  0  0
   -9.2100   15.3910   18.6480 O   0  0  0  0  0
   -9.4690   15.9010   17.3310 C   0  0  0  0  0
   -8.7220   15.0090   16.3310 C   0  0  0  0  0
   -7.3700   14.8190   16.7590 O   0  0  0  0  0
   -9.0070   17.3550   17.2580 C   0  0  0  0  0
   -9.3560   17.9040   15.9770 O   0  0  0  0  0
   -9.7000   18.1770   18.3520 C   0  0  0  0  0
   -9.1190   19.4800   18.4100 O   0  0  0  0  0
   -9.5470   17.5160   19.7200 C   0  0  0  0  0
  -10.3310   18.2360   20.6820 O   0  0  0  0  0
   -8.8932   13.7999   22.7288 H   0  0  0  0  0
   -9.6095   11.3679   21.0662 H   0  0  0  0  0
   -7.5691   11.1090   22.4682 H   0  0  0  0  0
   -8.9029   10.1088   23.1008 H   0  0  0  0  0
  -10.2560   13.6413   20.0095 H   0  0  0  0  0
  -23.4390    6.2873   17.7896 H   0  0  0  0  0
  -23.8896    5.7879   15.4070 H   0  0  0  0  0
  -22.4152    6.7204   13.6445 H   0  0  0  0  0
  -20.4800    8.1446   14.2551 H   0  0  0  0  0
  -20.9741    9.1136   16.4536 H   0  0  0  0  0
  -19.8780    7.5859   16.5646 H   0  0  0  0  0
  -21.5745    6.7894   19.3540 H   0  0  0  0  0
  -22.2589    8.4712   19.1585 H   0  0  0  0  0
  -20.0916    9.4072   18.9705 H   0  0  0  0  0
  -19.3433    7.9097   18.6020 H   0  0  0  0  0
  -19.8409    6.9892   20.8463 H   0  0  0  0  0
  -20.9061    8.3235   21.2148 H   0  0  0  0  0
  -17.2445    7.4165   21.5566 H   0  0  0  0  0
  -14.9285    8.8706   21.9521 H   0  0  0  0  0
  -15.5067   11.7934   22.1509 H   0  0  0  0  0
  -14.0026   11.7087   20.3619 H   0  0  0  0  0
  -13.8967    8.8694   24.2206 H   0  0  0  0  0
  -14.1489    9.8807   26.6491 H   0  0  0  0  0
  -14.8369    8.2948   26.2151 H   0  0  0  0  0
  -16.3671    9.6680   27.2824 H   0  0  0  0  0
  -14.6352   11.7812   24.6480 H   0  0  0  0  0
  -12.3509   11.9914   24.9652 H   0  0  0  0  0
  -12.8687   10.3681   22.5763 H   0  0  0  0  0
  -11.9335   11.9962   20.9922 H   0  0  0  0  0
  -11.3933   14.4829   22.6942 H   0  0  0  0  0
  -12.3074   15.5266   20.8327 H   0  0  0  0  0
   -7.8380   11.3311   24.7653 H   0  0  0  0  0
   -7.1799   12.8069   21.4965 H   0  0  0  0  0
  -11.0448   15.9965   19.3922 H   0  0  0  0  0
  -10.5324   15.8842   17.0924 H   0  0  0  0  0
   -8.7241   15.4883   15.3520 H   0  0  0  0  0
   -9.2192   14.0407   16.2734 H   0  0  0  0  0
   -6.9112   14.2601   16.1275 H   0  0  0  0  0
   -7.9268   17.3918   17.3995 H   0  0  0  0  0
   -9.0653   18.8178   15.9318 H   0  0  0  0  0
  -10.7599   18.2391   18.1052 H   0  0  0  0  0
   -9.5539   19.9929   19.0951 H   0  0  0  0  0
   -8.5010   17.5399   20.0255 H   0  0  0  0  0
  -10.0381   19.1497   20.7125 H   0  0  0  0  0
  1  2  1  0  0  0
  4  1  1  0  0  0
  1 35  1  0  0  0
  2  3  1  0  0  0
  2 33  1  0  0  0
  3 34  1  0  0  0
 31  4  1  0  0  0
  4 36  1  0  0  0
  5  6  2  0  0  0
 10  5  1  0  0  0
  6  7  1  0  0  0
  8  7  2  0  0  0
  9  8  1  0  0  0
 10  9  1  0  0  0
 11 10  1  0  0  0
 12 11  1  0  0  0
 13 12  1  0  0  0
 14 13  1  0  0  0
 15 14  4  0  0  0
 16 14  4  0  0  0
 18 15  4  0  0  0
 17 16  4  0  0  0
 18 17  4  0  0  0
 19 18  1  0  0  0
 20 19  1  0  0  0
 19 22  1  0  0  0
 20 21  1  0  0  0
 28 20  1  0  0  0
 23 22  1  0  0  0
 23 24  1  0  0  0
 26 23  1  0  0  0
 24 25  1  0  0  0
 26 27  1  0  0  0
 28 26  1  0  0  0
 29 28  1  0  0  0
 30 29  1  0  0  0
 30 31  1  0  0  0
 30 33  1  0  0  0
 31 32  1  0  0  0
 36 37  1  0  0  0
 37 38  1  0  0  0
 37 46  1  0  0  0
 38 39  1  0  0  0
 39 40  1  0  0  0
 39 42  1  0  0  0
 40 41  1  0  0  0
 42 43  1  0  0  0
 42 44  1  0  0  0
 44 45  1  0  0  0
 44 46  1  0  0  0
 46 47  1  0  0  0
  1 48  1  0  0  0
  2 49  1  0  0  0
  3 50  1  0  0  0
  3 51  1  0  0  0
  4 52  1  0  0  0
  5 53  1  0  0  0
  6 54  1  0  0  0
  7 55  1  0  0  0
  8 56  1  0  0  0
  9 57  1  0  0  0
  9 58  1  0  0  0
 11 59  1  0  0  0
 11 60  1  0  0  0
 12 61  1  0  0  0
 12 62  1  0  0  0
 13 63  1  0  0  0
 13 64  1  0  0  0
 15 65  1  0  0  0
 19 66  1  0  0  0
 20 67  1  0  0  0
 21 68  1  0  0  0
 23 69  1  0  0  0
 24 70  1  0  0  0
 24 71  1  0  0  0
 25 72  1  0  0  0
 26 73  1  0  0  0
 27 74  1  0  0  0
 28 75  1  0  0  0
 30 76  1  0  0  0
 31 77  1  0  0  0
 32 78  1  0  0  0
 34 79  1  0  0  0
 35 80  1  0  0  0
 37 81  1  0  0  0
 39 82  1  0  0  0
 40 83  1  0  0  0
 40 84  1  0  0  0
 41 85  1  0  0  0
 42 86  1  0  0  0
 43 87  1  0  0  0
 44 88  1  0  0  0
 45 89  1  0  0  0
 46 90  1  0  0  0
 47 91  1  0  0  0
M  END
$$$$
