4bis_ligand
  -I-interpret- 

 21 22  0  0  0  0  0  0  0  0999 V2000
   24.3040  -22.8030   -3.0310 O   0  0  0  0  0
   23.3010  -22.0400   -4.7910 O   0  0  0  0  0
   28.4320  -19.9740   -7.8870 O   0  0  0  0  0
   26.5980  -23.1480   -4.5890 C   0  0  0  0  0
   27.8160  -23.0070   -5.2420 C   0  0  0  0  0
   26.2040  -19.1240   -7.5580 C   0  0  0  0  0
   24.9800  -19.2520   -6.9120 C   0  0  0  0  0
   25.5790  -22.2400   -4.8450 C   0  0  0  0  0
   28.0050  -21.9560   -6.1480 N   0  0  0  0  0
   27.2120  -20.0420   -7.2900 C   0  0  0  0  0
   24.7750  -20.2910   -6.0090 C   0  0  0  0  0
   24.3530  -22.3650   -4.2000 C   0  0  0  0  0
   25.7900  -21.2050   -5.7480 C   0  0  0  0  0
   27.0170  -21.0820   -6.3910 C   0  0  0  0  0
   23.5145  -21.7265   -5.6729 H   0  0  0  0  0
   28.9826  -20.6937   -7.5701 H   0  0  0  0  0
   26.4436  -23.9635   -3.8825 H   0  0  0  0  0
   28.6235  -23.7134   -5.0495 H   0  0  0  0  0
   26.3712  -18.3129   -8.2666 H   0  0  0  0  0
   24.1807  -18.5386   -7.1126 H   0  0  0  0  0
   23.8141  -20.3888   -5.5039 H   0  0  0  0  0
 12  1  2  0  0  0
 12  2  1  0  0  0
 10  3  1  0  0  0
  5  4  4  0  0  0
  4  8  4  0  0  0
  9  5  4  0  0  0
  6  7  4  0  0  0
 10  6  4  0  0  0
  7 11  4  0  0  0
  8 12  1  0  0  0
  8 13  4  0  0  0
 14  9  4  0  0  0
 10 14  4  0  0  0
 11 13  4  0  0  0
 13 14  4  0  0  0
  2 15  1  0  0  0
  3 16  1  0  0  0
  4 17  1  0  0  0
  5 18  1  0  0  0
  6 19  1  0  0  0
  7 20  1  0  0  0
 11 21  1  0  0  0
M  END
$$$$
