5mys_ligand
  -I-interpret- 

 35 37  0  0  0  0  0  0  0  0999 V2000
  -28.0370  -13.2980   -1.4960 C   0  0  0  0  0
  -26.8090   -7.6470   -3.6880 C   0  0  0  0  0
  -26.3910   -5.6240   -4.8890 C   0  0  0  0  0
  -27.6450   -9.5940   -4.8430 C   0  0  0  0  0
  -31.5690  -17.5020   -2.0640 C   0  0  0  0  0
  -30.5900  -16.7120   -2.6230 C   0  0  0  0  0
  -29.6330  -16.1380   -1.8190 C   0  0  0  0  0
  -29.6540  -16.3650   -0.4500 C   0  0  0  0  0
  -30.6430  -17.1630    0.1040 C   0  0  0  0  0
  -31.6010  -17.7340   -0.7040 C   0  0  0  0  0
  -30.6940  -17.4030    1.4440 F   0  0  0  0  0
  -28.6540  -15.3480   -2.4300 O   0  0  0  0  0
  -28.9250  -13.9790   -2.5290 C   0  0  0  0  0
  -27.4010  -11.9900   -1.6370 N   0  0  0  0  0
  -27.4500  -11.0290   -2.7330 C   0  0  0  0  0
  -27.0810   -9.7610   -2.6270 N   0  0  0  0  0
  -27.1660   -8.9880   -3.6980 C   0  0  0  0  0
  -26.7390   -6.9670   -4.8900 C   0  0  0  0  0
  -26.1160   -5.0130   -3.6790 C   0  0  0  0  0
  -26.2000   -5.7570   -2.5170 C   0  0  0  0  0
  -26.5390   -7.0380   -2.5490 N   0  0  0  0  0
  -27.9540  -11.2260   -4.3770 S   0  0  0  0  0
  -27.8450  -13.8920   -0.4930 O   0  0  0  0  0
  -26.3355   -5.0625   -5.8216 H   0  0  0  0  0
  -27.7946   -9.1416   -5.8233 H   0  0  0  0  0
  -32.3290  -17.9502   -2.7040 H   0  0  0  0  0
  -30.5733  -16.5419   -3.6995 H   0  0  0  0  0
  -28.8935  -15.9162    0.1891 H   0  0  0  0  0
  -32.3786  -18.3644   -0.2726 H   0  0  0  0  0
  -28.7182  -13.6077   -3.5327 H   0  0  0  0  0
  -29.9785  -13.7711   -2.3417 H   0  0  0  0  0
  -26.8313  -11.7030   -0.8411 H   0  0  0  0  0
  -26.9547   -7.4801   -5.8272 H   0  0  0  0  0
  -25.8370   -3.9599   -3.6422 H   0  0  0  0  0
  -25.9841   -5.2829   -1.5596 H   0  0  0  0  0
  1 13  1  0  0  0
 14  1  1  0  0  0
  1 23  2  0  0  0
 17  2  1  0  0  0
  2 18  4  0  0  0
  2 21  4  0  0  0
 18  3  4  0  0  0
  3 19  4  0  0  0
  4 17  4  0  0  0
 22  4  4  0  0  0
  6  5  4  0  0  0
  5 10  4  0  0  0
  7  6  4  0  0  0
  7  8  4  0  0  0
 12  7  1  0  0  0
  8  9  4  0  0  0
  9 10  4  0  0  0
  9 11  1  0  0  0
 13 12  1  0  0  0
 15 14  1  0  0  0
 15 16  4  0  0  0
 15 22  4  0  0  0
 16 17  4  0  0  0
 19 20  4  0  0  0
 20 21  4  0  0  0
  3 24  1  0  0  0
  4 25  1  0  0  0
  5 26  1  0  0  0
  6 27  1  0  0  0
  8 28  1  0  0  0
 10 29  1  0  0  0
 13 30  1  0  0  0
 13 31  1  0  0  0
 14 32  1  0  0  0
 18 33  1  0  0  0
 19 34  1  0  0  0
 20 35  1  0  0  0
M  END
$$$$
