### 
### Created by X-TOOL on Mon Sep 10 21:13:05 2018
### 

@<TRIPOS>MOLECULE
2yjc_ligand
   60    64     1     0     0
SMALL
GAST_HUCK


@<TRIPOS>ATOM
      1 S1          8.4290   32.9700   19.4430 S.o2      1 424         0.0023
      2 N2          8.5100   36.3610   19.5850 N.am      1 424        -0.2566
      3 CL2        11.0140   31.3330   18.3710 Cl        1 424        -0.0687
      4 C3          8.0660   37.8340   17.6890 C.3       1 424         0.0409
      5 CL3        13.5670   40.1270   17.1090 Cl        1 424        -0.0415
      6 C4          9.6380   34.2780   19.7540 C.3       1 424         0.1066
      7 C5          7.8100   37.3830   19.0890 C.2       1 424         0.1702
      8 C6          8.2870   35.8810   20.9370 C.3       1 424         0.1342
      9 C7          8.6850   32.4980   17.7470 C.ar      1 424         0.1025
     10 C8          9.4880   35.5340   18.8550 C.3       1 424         0.0587
     11 C9          9.3690   34.8110   21.1830 C.3       1 424         0.0125
     12 C10         8.4580   36.9300   21.9960 C.2       1 424         0.1971
     13 C11         7.4280   37.0230   16.5610 C.3       1 424        -0.0708
     14 C12         6.8840   38.4120   16.9210 C.3       1 424        -0.0708
     15 C13         7.4100   37.9140   23.9920 C.3       1 424         0.0783
     16 N14         7.4130   37.0330   22.8380 N.am      1 424        -0.2955
     17 C15         7.9010   37.2620   25.2250 C.2       1 424         0.0437
     18 N16         7.8680   37.8280   26.3960 N.2       1 424        -0.2686
     19 C17         9.4430   38.4020   17.4930 C.ar      1 424        -0.0393
     20 O18         8.7830   31.8780   20.3040 O.2       1 424        -0.1690
     21 O19         7.1130   33.5310   19.4330 O.2       1 424        -0.1690
     22 C20         7.6410   39.4080   23.7770 C.3       1 424        -0.0407
     23 C21         6.2260   38.8860   24.0880 C.3       1 424        -0.0407
     24 O22         7.0100   37.9600   19.7990 O.2       1 424        -0.3658
     25 C23         9.7910   31.8210   17.2970 C.ar      1 424         0.0651
     26 O24         9.4960   37.5960   22.1360 O.2       1 424        -0.3951
     27 C25        10.3550   37.7690   16.6610 C.ar      1 424        -0.0392
     28 C26         9.7980   39.5450   18.1940 C.ar      1 424        -0.0392
     29 C27        11.9800   39.4360   17.2400 C.ar      1 424         0.0718
     30 C29         7.7330   32.8680   16.8310 C.ar      1 424        -0.0364
     31 C30        11.6260   38.3030   16.5150 C.ar      1 424        -0.0180
     32 C31        11.0630   40.0680   18.0680 C.ar      1 424        -0.0180
     33 C33         9.9450   31.4670   15.9640 C.ar      1 424        -0.0460
     34 C34         7.8810   32.5290   15.5010 C.ar      1 424        -0.0598
     35 C35         8.9830   31.8360   15.0470 C.ar      1 424        -0.0612
     36 H          10.6156   33.8302   19.5756 H         1 424         0.0563
     37 H           7.2591   35.5252   21.0067 H         1 424         0.0804
     38 H          10.4349   36.0493   18.6937 H         1 424         0.0544
     39 H           9.1589   35.2894   17.8451 H         1 424         0.0544
     40 H          10.2613   35.2073   21.6677 H         1 424         0.0332
     41 H           9.0525   34.0333   21.8780 H         1 424         0.0332
     42 H           7.0524   36.0148   16.3865 H         1 424         0.0158
     43 H           7.7351   36.4664   15.6756 H         1 424         0.0158
     44 H           6.6111   39.3391   16.4168 H         1 424         0.0158
     45 H           5.9248   38.8851   17.1314 H         1 424         0.0158
     46 H           6.5848   36.4658   22.6570 H         1 424         0.1774
     47 H           8.3118   36.2552   25.1489 H         1 424         0.1090
     48 H           7.4890   38.7696   26.4968 H         1 424         0.2165
     49 H           8.1299   40.0638   23.0565 H         1 424         0.0220
     50 H           8.3186   40.1882   24.1239 H         1 424         0.0220
     51 H           5.3984   39.1081   24.7617 H         1 424         0.0220
     52 H           5.2112   38.9847   23.7026 H         1 424         0.0220
     53 H          10.0750   36.8608   16.1274 H         1 424         0.0846
     54 H           9.0719   40.0298   18.8466 H         1 424         0.0846
     55 H           6.8575   33.4311   17.1542 H         1 424         0.0636
     56 H          12.3423   37.8386   15.8373 H         1 424         0.0704
     57 H          11.3429   40.9697   18.6127 H         1 424         0.0704
     58 H          10.8200   30.9013   15.6439 H         1 424         0.0624
     59 H           7.1059   32.8169   14.7908 H         1 424         0.0620
     60 H           9.0912   31.5864   13.9915 H         1 424         0.0618
@<TRIPOS>BOND
     1    6    1 1  
     2    1    9 1  
     3    1   20 2  
     4    1   21 2  
     5    7    2 am 
     6    2    8 1  
     7    2   10 1  
     8   25    3 1  
     9    4    7 1  
    10    4   13 1  
    11    4   14 1  
    12   19    4 1  
    13   29    5 1  
    14   10    6 1  
    15    6   11 1  
    16    7   24 2  
    17    8   11 1  
    18    8   12 1  
    19    9   25 ar 
    20    9   30 ar 
    21   12   16 am 
    22   12   26 2  
    23   14   13 1  
    24   16   15 1  
    25   15   17 1  
    26   15   22 1  
    27   15   23 1  
    28   17   18 2  
    29   27   19 ar 
    30   19   28 ar 
    31   23   22 1  
    32   25   33 ar 
    33   31   27 ar 
    34   28   32 ar 
    35   29   31 ar 
    36   29   32 ar 
    37   30   34 ar 
    38   33   35 ar 
    39   34   35 ar 
    40    6   36 1  
    41    8   37 1  
    42   10   38 1  
    43   10   39 1  
    44   11   40 1  
    45   11   41 1  
    46   13   42 1  
    47   13   43 1  
    48   14   44 1  
    49   14   45 1  
    50   16   46 1  
    51   17   47 1  
    52   18   48 1  
    53   22   49 1  
    54   22   50 1  
    55   23   51 1  
    56   23   52 1  
    57   27   53 1  
    58   28   54 1  
    59   30   55 1  
    60   31   56 1  
    61   32   57 1  
    62   33   58 1  
    63   34   59 1  
    64   35   60 1  
@<TRIPOS>SUBSTRUCTURE
     1 424         1

