2yjc_ligand
  -I-interpret- 

 60 64  0  0  0  0  0  0  0  0999 V2000
    8.4290   32.9700   19.4430 S   0  0  0  0  0
    8.5100   36.3610   19.5850 N   0  0  0  0  0
   11.0140   31.3330   18.3710 Cl  0  0  0  0  0
    8.0660   37.8340   17.6890 C   0  0  0  0  0
   13.5670   40.1270   17.1090 Cl  0  0  0  0  0
    9.6380   34.2780   19.7540 C   0  0  0  0  0
    7.8100   37.3830   19.0890 C   0  0  0  0  0
    8.2870   35.8810   20.9370 C   0  0  0  0  0
    8.6850   32.4980   17.7470 C   0  0  0  0  0
    9.4880   35.5340   18.8550 C   0  0  0  0  0
    9.3690   34.8110   21.1830 C   0  0  0  0  0
    8.4580   36.9300   21.9960 C   0  0  0  0  0
    7.4280   37.0230   16.5610 C   0  0  0  0  0
    6.8840   38.4120   16.9210 C   0  0  0  0  0
    7.4100   37.9140   23.9920 C   0  0  0  0  0
    7.4130   37.0330   22.8380 N   0  0  0  0  0
    7.9010   37.2620   25.2250 C   0  0  0  0  0
    7.8680   37.8280   26.3960 N   0  0  0  0  0
    9.4430   38.4020   17.4930 C   0  0  0  0  0
    8.7830   31.8780   20.3040 O   0  0  0  0  0
    7.1130   33.5310   19.4330 O   0  0  0  0  0
    7.6410   39.4080   23.7770 C   0  0  0  0  0
    6.2260   38.8860   24.0880 C   0  0  0  0  0
    7.0100   37.9600   19.7990 O   0  0  0  0  0
    9.7910   31.8210   17.2970 C   0  0  0  0  0
    9.4960   37.5960   22.1360 O   0  0  0  0  0
   10.3550   37.7690   16.6610 C   0  0  0  0  0
    9.7980   39.5450   18.1940 C   0  0  0  0  0
   11.9800   39.4360   17.2400 C   0  0  0  0  0
    7.7330   32.8680   16.8310 C   0  0  0  0  0
   11.6260   38.3030   16.5150 C   0  0  0  0  0
   11.0630   40.0680   18.0680 C   0  0  0  0  0
    9.9450   31.4670   15.9640 C   0  0  0  0  0
    7.8810   32.5290   15.5010 C   0  0  0  0  0
    8.9830   31.8360   15.0470 C   0  0  0  0  0
   10.6156   33.8302   19.5756 H   0  0  0  0  0
    7.2591   35.5252   21.0067 H   0  0  0  0  0
   10.4349   36.0493   18.6937 H   0  0  0  0  0
    9.1589   35.2894   17.8451 H   0  0  0  0  0
   10.2613   35.2073   21.6677 H   0  0  0  0  0
    9.0525   34.0333   21.8780 H   0  0  0  0  0
    7.0524   36.0148   16.3865 H   0  0  0  0  0
    7.7351   36.4664   15.6756 H   0  0  0  0  0
    6.6111   39.3391   16.4168 H   0  0  0  0  0
    5.9248   38.8851   17.1314 H   0  0  0  0  0
    6.5848   36.4658   22.6570 H   0  0  0  0  0
    8.3118   36.2552   25.1489 H   0  0  0  0  0
    7.4890   38.7696   26.4968 H   0  0  0  0  0
    8.1299   40.0638   23.0565 H   0  0  0  0  0
    8.3186   40.1882   24.1239 H   0  0  0  0  0
    5.3984   39.1081   24.7617 H   0  0  0  0  0
    5.2112   38.9847   23.7026 H   0  0  0  0  0
   10.0750   36.8608   16.1274 H   0  0  0  0  0
    9.0719   40.0298   18.8466 H   0  0  0  0  0
    6.8575   33.4311   17.1542 H   0  0  0  0  0
   12.3423   37.8386   15.8373 H   0  0  0  0  0
   11.3429   40.9697   18.6127 H   0  0  0  0  0
   10.8200   30.9013   15.6439 H   0  0  0  0  0
    7.1059   32.8169   14.7908 H   0  0  0  0  0
    9.0912   31.5864   13.9915 H   0  0  0  0  0
  6  1  1  0  0  0
  1  9  1  0  0  0
  1 20  2  0  0  0
  1 21  2  0  0  0
  7  2  1  0  0  0
  2  8  1  0  0  0
  2 10  1  0  0  0
 25  3  1  0  0  0
  4  7  1  0  0  0
  4 13  1  0  0  0
  4 14  1  0  0  0
 19  4  1  0  0  0
 29  5  1  0  0  0
 10  6  1  0  0  0
  6 11  1  0  0  0
  7 24  2  0  0  0
  8 11  1  0  0  0
  8 12  1  0  0  0
  9 25  4  0  0  0
  9 30  4  0  0  0
 12 16  1  0  0  0
 12 26  2  0  0  0
 14 13  1  0  0  0
 16 15  1  0  0  0
 15 17  1  0  0  0
 15 22  1  0  0  0
 15 23  1  0  0  0
 17 18  2  0  0  0
 27 19  4  0  0  0
 19 28  4  0  0  0
 23 22  1  0  0  0
 25 33  4  0  0  0
 31 27  4  0  0  0
 28 32  4  0  0  0
 29 31  4  0  0  0
 29 32  4  0  0  0
 30 34  4  0  0  0
 33 35  4  0  0  0
 34 35  4  0  0  0
  6 36  1  0  0  0
  8 37  1  0  0  0
 10 38  1  0  0  0
 10 39  1  0  0  0
 11 40  1  0  0  0
 11 41  1  0  0  0
 13 42  1  0  0  0
 13 43  1  0  0  0
 14 44  1  0  0  0
 14 45  1  0  0  0
 16 46  1  0  0  0
 17 47  1  0  0  0
 18 48  1  0  0  0
 22 49  1  0  0  0
 22 50  1  0  0  0
 23 51  1  0  0  0
 23 52  1  0  0  0
 27 53  1  0  0  0
 28 54  1  0  0  0
 30 55  1  0  0  0
 31 56  1  0  0  0
 32 57  1  0  0  0
 33 58  1  0  0  0
 34 59  1  0  0  0
 35 60  1  0  0  0
M  END
$$$$
