3ooz_ligand
  -I-interpret- 

 50 52  0  0  0  0  0  0  0  0999 V2000
   15.9290   -4.1890   17.8560 C   0  0  0  0  0
   17.9220  -14.2740   16.7700 F   0  0  0  0  0
   15.4130   -5.3580   17.1410 N   0  0  0  0  0
   14.4670   -6.4710   18.9600 O   0  0  0  0  0
   14.7540   -6.3850   17.7700 C   0  0  0  0  0
   16.1050  -14.0330   15.5840 F   0  0  0  0  0
   14.9450   -6.7540   15.4550 N   0  0  0  0  0
   16.4020  -12.7320   17.3670 O   0  0  0  0  0
   14.3690   -7.3970   16.6730 C   0  0  0  0  0
   10.4870   -2.2670   12.8620 F   0  0  0  0  0
   16.1290   -4.8280   14.9070 N   0  0  0  0  0
   15.5010   -5.6370   15.8100 C   0  0  0  0  0
    8.6900   -7.4760   16.6500 F   0  0  0  0  0
   14.9330   -8.8190   16.8930 C   0  0  0  0  0
   15.3700   -9.3200   18.1340 C   0  0  0  0  0
   15.8530  -10.6310   18.2420 C   0  0  0  0  0
   15.9110  -11.4680   17.1280 C   0  0  0  0  0
   15.4820  -10.9800   15.8890 C   0  0  0  0  0
   15.0040   -9.6670   15.7760 C   0  0  0  0  0
   17.0590  -13.3640   16.2820 C   0  0  0  0  0
   12.8390   -7.4460   16.6410 C   0  0  0  0  0
   12.1120   -8.4730   17.2900 C   0  0  0  0  0
   10.7140   -8.4860   17.2900 C   0  0  0  0  0
   10.0320   -7.4600   16.6440 C   0  0  0  0  0
   10.7270   -6.4200   16.0030 C   0  0  0  0  0
   12.1200   -6.4080   16.0010 C   0  0  0  0  0
   10.0130   -5.3800   15.3460 C   0  0  0  0  0
    9.3920   -4.5170   14.7960 C   0  0  0  0  0
    8.6400   -3.4480   14.1320 C   0  0  0  0  0
    9.0380   -2.0710   14.6770 C   0  0  0  0  0
   10.3510   -1.6130   14.0590 C   0  0  0  0  0
   17.0106   -4.1368   17.7316 H   0  0  0  0  0
   15.4715   -3.2861   17.4515 H   0  0  0  0  0
   15.6877   -4.2769   18.9153 H   0  0  0  0  0
   14.9078   -7.1285   14.5070 H   0  0  0  0  0
   16.5656   -3.9599   15.2172 H   0  0  0  0  0
   15.3323   -8.6831   19.0178 H   0  0  0  0  0
   16.1882  -11.0019   19.2106 H   0  0  0  0  0
   15.5195  -11.6224   15.0092 H   0  0  0  0  0
   14.6813   -9.2973   14.8027 H   0  0  0  0  0
   17.5866  -12.6372   15.6643 H   0  0  0  0  0
   12.6533   -9.2698   17.8001 H   0  0  0  0  0
   10.1674   -9.2869   17.7880 H   0  0  0  0  0
   12.6568   -5.5986   15.5062 H   0  0  0  0  0
    7.5771   -3.6024   14.3179 H   0  0  0  0  0
    8.8609   -3.4776   13.0650 H   0  0  0  0  0
    9.1600   -2.1395   15.7580 H   0  0  0  0  0
    8.2584   -1.3518   14.4261 H   0  0  0  0  0
   10.3476   -0.5335   13.9078 H   0  0  0  0  0
   11.1868   -1.8444   14.7193 H   0  0  0  0  0
  3  1  1  0  0  0
 20  2  1  0  0  0
  5  3  1  0  0  0
 12  3  4  0  0  0
  5  4  2  0  0  0
  9  5  1  0  0  0
 20  6  1  0  0  0
  9  7  1  0  0  0
  7 12  1  0  0  0
 17  8  1  0  0  0
  8 20  1  0  0  0
  9 14  1  0  0  0
 21  9  1  0  0  0
 31 10  1  0  0  0
 12 11  2  0  0  0
 24 13  1  0  0  0
 14 15  4  0  0  0
 14 19  4  0  0  0
 15 16  4  0  0  0
 16 17  4  0  0  0
 18 17  4  0  0  0
 19 18  4  0  0  0
 21 22  4  0  0  0
 26 21  4  0  0  0
 23 22  4  0  0  0
 24 23  4  0  0  0
 25 24  4  0  0  0
 25 26  4  0  0  0
 27 25  1  0  0  0
 28 27  3  0  0  0
 29 28  1  0  0  0
 30 29  1  0  0  0
 30 31  1  0  0  0
  1 32  1  0  0  0
  1 33  1  0  0  0
  1 34  1  0  0  0
  7 35  1  0  0  0
 11 36  1  0  0  0
 15 37  1  0  0  0
 16 38  1  0  0  0
 18 39  1  0  0  0
 19 40  1  0  0  0
 20 41  1  0  0  0
 22 42  1  0  0  0
 23 43  1  0  0  0
 26 44  1  0  0  0
 29 45  1  0  0  0
 29 46  1  0  0  0
 30 47  1  0  0  0
 30 48  1  0  0  0
 31 49  1  0  0  0
 31 50  1  0  0  0
M  END
$$$$
