4wq3_ligand
  -I-interpret- 

 48 51  0  0  0  0  0  0  0  0999 V2000
   15.7850  -15.0410   24.0770 O   0  0  0  0  0
   14.5930  -14.9160   24.3950 C   0  0  0  0  0
   13.7250  -15.6580   23.8930 O   0  0  0  0  0
   14.2310  -13.8540   25.4060 C   0  0  0  0  0
   12.5050  -13.6890   25.9630 S   0  0  0  0  0
   15.4360  -13.0880   26.0100 C   0  0  0  0  0
   15.3200  -12.0540   26.8350 C   0  0  0  0  0
   16.2600  -11.1060   26.9250 C   0  0  0  0  0
   17.4350  -10.9640   26.3250 C   0  0  0  0  0
   18.2100   -9.8500   26.5990 C   0  0  0  0  0
   17.7840   -8.8810   27.5060 C   0  0  0  0  0
   18.8820   -7.2990   27.9150 Br  0  0  0  0  0
   16.5460   -9.0980   28.1140 C   0  0  0  0  0
   15.8140  -10.1870   27.7910 C   0  0  0  0  0
   14.6030  -10.6010   28.2160 N   0  0  0  0  0
   14.2940  -11.7630   27.6210 C   0  0  0  0  0
   10.6240  -11.1430   26.7060 O   0  0  0  0  0
   11.0210  -10.5320   25.6930 C   0  0  0  0  0
   11.0980   -9.3030   25.7330 O   0  0  0  0  0
   11.3550  -11.2650   24.3780 C   0  0  0  0  0
   11.3200  -13.1790   24.3390 S   0  0  0  0  0
   11.7030  -10.4240   23.1180 C   0  0  0  0  0
   12.0680  -11.0330   21.9900 C   0  0  0  0  0
   13.0570  -10.6190   21.1940 C   0  0  0  0  0
   13.9080   -9.6210   21.3380 C   0  0  0  0  0
   14.8860   -9.3980   20.4090 C   0  0  0  0  0
   15.0090  -10.2650   19.3340 C   0  0  0  0  0
   16.3900   -9.9590   18.1320 Br  0  0  0  0  0
   14.1190  -11.3210   19.2320 C   0  0  0  0  0
   13.1660  -11.4800   20.1680 C   0  0  0  0  0
   12.1890  -12.3830   20.3170 N   0  0  0  0  0
   11.5120  -12.1280   21.4590 C   0  0  0  0  0
   12.8635  -15.4261   24.2475 H   0  0  0  0  0
   13.6911  -12.9292   25.2028 H   0  0  0  0  0
   15.9030  -12.6432   25.1313 H   0  0  0  0  0
   15.9114  -13.8430   26.6362 H   0  0  0  0  0
   17.7873  -11.7186   25.6218 H   0  0  0  0  0
   19.1698   -9.7286   26.0969 H   0  0  0  0  0
   16.1694   -8.3880   28.8503 H   0  0  0  0  0
   13.3845  -12.3482   27.7566 H   0  0  0  0  0
   10.6164  -12.0861   26.5270 H   0  0  0  0  0
   11.7598  -11.8831   23.5767 H   0  0  0  0  0
   12.5787   -9.8447   23.4105 H   0  0  0  0  0
   10.7728   -9.9155   22.8644 H   0  0  0  0  0
   13.8305   -8.9674   22.2068 H   0  0  0  0  0
   15.5611   -8.5485   20.5123 H   0  0  0  0  0
   14.1902  -12.0193   18.3981 H   0  0  0  0  0
   10.6788  -12.7007   21.8663 H   0  0  0  0  0
  2  1  2  0  0  0
  2  3  1  0  0  0
  4  2  1  0  0  0
  5  4  1  0  0  0
  4  6  1  0  0  0
 21  5  1  0  0  0
  6  7  1  0  0  0
  7  8  4  0  0  0
  7 16  4  0  0  0
  8  9  4  0  0  0
  8 14  4  0  0  0
  9 10  4  0  0  0
 10 11  4  0  0  0
 11 12  1  0  0  0
 13 11  4  0  0  0
 14 13  4  0  0  0
 15 14  4  0  0  0
 16 15  4  0  0  0
 18 17  1  0  0  0
 18 19  2  0  0  0
 20 18  1  0  0  0
 20 21  1  0  0  0
 20 22  1  0  0  0
 22 23  1  0  0  0
 23 24  4  0  0  0
 23 32  4  0  0  0
 24 25  4  0  0  0
 24 30  4  0  0  0
 25 26  4  0  0  0
 26 27  4  0  0  0
 27 28  1  0  0  0
 27 29  4  0  0  0
 29 30  4  0  0  0
 30 31  4  0  0  0
 31 32  4  0  0  0
  3 33  1  0  0  0
  4 34  1  0  0  0
  6 35  1  0  0  0
  6 36  1  0  0  0
  9 37  1  0  0  0
 10 38  1  0  0  0
 13 39  1  0  0  0
 16 40  1  0  0  0
 17 41  1  0  0  0
 20 42  1  0  0  0
 22 43  1  0  0  0
 22 44  1  0  0  0
 25 45  1  0  0  0
 26 46  1  0  0  0
 29 47  1  0  0  0
 32 48  1  0  0  0
M  END
$$$$
