6mo8_ligand
  -I-interpret- 

 41 44  0  0  0  0  0  0  0  0999 V2000
   78.0810   11.3180  -10.4430 C   0  0  0  0  0
   76.2040    9.8580   -9.9550 C   0  0  0  0  0
   75.3280   10.7040  -10.6350 C   0  0  0  0  0
   75.8350   11.8780  -11.2310 C   0  0  0  0  0
   77.2190   12.1800  -11.1350 C   0  0  0  0  0
   77.5740   10.1650   -9.8580 C   0  0  0  0  0
   78.4620    9.2700   -9.1530 C   0  0  0  0  0
   79.5650    8.6760   -9.7220 C   0  0  0  0  0
   80.1740    7.8840   -8.8000 O   0  0  0  0  0
   79.4730    7.9530   -7.6070 N   0  0  0  0  0
   78.4440    8.7870   -7.8280 C   0  0  0  0  0
   77.4730    9.0840   -6.7530 C   0  0  0  0  0
   80.1840    8.7270  -11.0540 C   0  0  0  0  0
   74.0270   10.3640  -10.6940 N   0  0  0  0  0
   73.1780   11.1810  -11.3620 C   0  0  0  0  0
   73.5610   12.3490  -11.9830 C   0  0  0  0  0
   74.9020   12.6980  -11.9150 C   0  0  0  0  0
   77.7790   13.3820  -11.7250 C   0  0  0  0  0
   78.5960   13.4230  -12.8340 C   0  0  0  0  0
   78.9260   14.7190  -13.0950 O   0  0  0  0  0
   78.3310   15.5520  -12.1560 N   0  0  0  0  0
   77.6410   14.7440  -11.3400 C   0  0  0  0  0
   76.8740   15.3020  -10.1980 C   0  0  0  0  0
   79.1530   12.4060  -13.7480 C   0  0  0  0  0
   79.1429   11.5513  -10.3645 H   0  0  0  0  0
   75.8226    8.9475   -9.4928 H   0  0  0  0  0
   77.4730   10.1551   -6.5509 H   0  0  0  0  0
   76.4772    8.7725   -7.0684 H   0  0  0  0  0
   77.7555    8.5426   -5.8502 H   0  0  0  0  0
   79.4682    8.3803  -11.7994 H   0  0  0  0  0
   80.4761    9.7529  -11.2785 H   0  0  0  0  0
   81.0651    8.0855  -11.0686 H   0  0  0  0  0
   72.1269   10.8965  -11.4111 H   0  0  0  0  0
   72.8388   12.9748  -12.5074 H   0  0  0  0  0
   75.2433   13.6156  -12.3942 H   0  0  0  0  0
   75.8220   15.0375  -10.3047 H   0  0  0  0  0
   77.2609   14.8897   -9.2661 H   0  0  0  0  0
   76.9780   16.3870  -10.1877 H   0  0  0  0  0
   79.7682   11.7076  -13.1808 H   0  0  0  0  0
   78.3374   11.8660  -14.2290 H   0  0  0  0  0
   79.7631   12.8963  -14.5066 H   0  0  0  0  0
  1  5  4  0  0  0
  6  1  4  0  0  0
  2  3  4  0  0  0
  2  6  4  0  0  0
  3  4  4  0  0  0
  3 14  4  0  0  0
  4  5  4  0  0  0
  4 17  4  0  0  0
  5 18  1  0  0  0
  6  7  1  0  0  0
  7  8  4  0  0  0
  7 11  4  0  0  0
  8  9  4  0  0  0
  8 13  1  0  0  0
  9 10  4  0  0  0
 10 11  4  0  0  0
 11 12  1  0  0  0
 14 15  4  0  0  0
 15 16  4  0  0  0
 16 17  4  0  0  0
 18 19  4  0  0  0
 18 22  4  0  0  0
 19 20  4  0  0  0
 19 24  1  0  0  0
 20 21  4  0  0  0
 21 22  4  0  0  0
 22 23  1  0  0  0
  1 25  1  0  0  0
  2 26  1  0  0  0
 12 27  1  0  0  0
 12 28  1  0  0  0
 12 29  1  0  0  0
 13 30  1  0  0  0
 13 31  1  0  0  0
 13 32  1  0  0  0
 15 33  1  0  0  0
 16 34  1  0  0  0
 17 35  1  0  0  0
 23 36  1  0  0  0
 23 37  1  0  0  0
 23 38  1  0  0  0
 24 39  1  0  0  0
 24 40  1  0  0  0
 24 41  1  0  0  0
M  END
$$$$
