4inb_ligand
  -I-interpret- 

 50 52  0  0  0  0  0  0  0  0999 V2000
   26.8060   14.0140   38.1320 C   0  0  0  0  0
   27.3780   12.7460   38.3380 C   0  0  0  0  0
   26.7010   11.6610   39.0060 C   0  0  0  0  0
   25.3740   11.8860   39.4860 C   0  0  0  0  0
   24.7830   13.1970   39.2660 C   0  0  0  0  0
   25.4850   14.2360   38.6050 C   0  0  0  0  0
   27.4290   10.4100   39.1510 N   0  0  0  0  0
   26.9080    9.1150   38.8630 C   0  0  0  0  0
   25.4210    8.8820   38.8640 C   0  0  0  0  0
   24.5240    9.5030   39.8900 C   0  0  0  0  0
   24.5920   10.8900   40.1780 N   0  0  0  0  0
   24.8240    8.0770   37.9780 C   0  0  0  0  0
   25.3450    7.3410   36.9420 N   0  0  0  0  0
   24.5920    6.3920   36.1270 C   0  0  0  0  0
   24.0210    7.0630   34.8710 C   0  0  0  0  0
   23.4390    8.3510   35.1900 O   0  0  0  0  0
   23.4790    9.2280   34.0630 C   0  0  0  0  0
   28.8340   10.5270   39.5880 C   0  0  0  0  0
   29.1630   10.9160   40.9340 C   0  0  0  0  0
   30.5150   11.0390   41.3430 C   0  0  0  0  0
   31.5640   10.7780   40.4200 C   0  0  0  0  0
   31.2690   10.3910   39.0900 C   0  0  0  0  0
   29.9220   10.2670   38.6750 C   0  0  0  0  0
   23.7680   11.3480   41.3250 C   0  0  0  0  0
   27.6120   15.0870   37.4330 C   0  0  0  0  0
   28.9620   14.8520   37.4540 F   0  0  0  0  0
   27.4590   16.3160   38.0070 F   0  0  0  0  0
   27.2920   15.2330   36.1240 F   0  0  0  0  0
   27.6210    8.1460   38.5710 O   0  0  0  0  0
   23.6990    8.7590   40.4460 O   0  0  0  0  0
   28.3902   12.5730   37.9723 H   0  0  0  0  0
   23.7696   13.3860   39.6202 H   0  0  0  0  0
   25.0106   15.2065   38.4595 H   0  0  0  0  0
   23.7441    7.9908   38.0983 H   0  0  0  0  0
   26.3337    7.4670   36.7254 H   0  0  0  0  0
   23.7632    6.0068   36.7210 H   0  0  0  0  0
   25.2643    5.5920   35.8170 H   0  0  0  0  0
   23.2444    6.4218   34.4541 H   0  0  0  0  0
   24.8297    7.2120   34.1556 H   0  0  0  0  0
   24.5146    9.3790   33.7583 H   0  0  0  0  0
   22.9176    8.7858   33.2400 H   0  0  0  0  0
   23.0352   10.1860   34.3338 H   0  0  0  0  0
   28.3638   11.1183   41.6470 H   0  0  0  0  0
   30.7501   11.3338   42.3657 H   0  0  0  0  0
   32.6020   10.8763   40.7378 H   0  0  0  0  0
   32.0778   10.1891   38.3877 H   0  0  0  0  0
   29.7021    9.9704   37.6494 H   0  0  0  0  0
   22.7190   11.1260   41.1287 H   0  0  0  0  0
   24.0871   10.8304   42.2296 H   0  0  0  0  0
   23.8950   12.4226   41.4558 H   0  0  0  0  0
  1  2  4  0  0  0
  1  6  4  0  0  0
  1 25  1  0  0  0
  2  3  4  0  0  0
  3  4  4  0  0  0
  3  7  1  0  0  0
  4  5  4  0  0  0
  4 11  1  0  0  0
  5  6  4  0  0  0
  7  8  1  0  0  0
  7 18  1  0  0  0
  8  9  1  0  0  0
  8 29  2  0  0  0
  9 10  1  0  0  0
  9 12  2  0  0  0
 10 11  1  0  0  0
 10 30  2  0  0  0
 11 24  1  0  0  0
 12 13  1  0  0  0
 13 14  1  0  0  0
 14 15  1  0  0  0
 15 16  1  0  0  0
 16 17  1  0  0  0
 18 19  4  0  0  0
 18 23  4  0  0  0
 19 20  4  0  0  0
 20 21  4  0  0  0
 21 22  4  0  0  0
 22 23  4  0  0  0
 25 26  1  0  0  0
 25 27  1  0  0  0
 25 28  1  0  0  0
  2 31  1  0  0  0
  5 32  1  0  0  0
  6 33  1  0  0  0
 12 34  1  0  0  0
 13 35  1  0  0  0
 14 36  1  0  0  0
 14 37  1  0  0  0
 15 38  1  0  0  0
 15 39  1  0  0  0
 17 40  1  0  0  0
 17 41  1  0  0  0
 17 42  1  0  0  0
 19 43  1  0  0  0
 20 44  1  0  0  0
 21 45  1  0  0  0
 22 46  1  0  0  0
 23 47  1  0  0  0
 24 48  1  0  0  0
 24 49  1  0  0  0
 24 50  1  0  0  0
M  END
$$$$
