6hys_ligand
  -I-interpret- 

 42 44  0  0  0  0  0  0  0  0999 V2000
   21.6930   17.3500  125.7880 P   0  0  0  0  0
   23.0290   17.6400  125.2730 O   0  0  0  0  0
   20.6940   18.5000  125.7420 O   0  0  0  0  0
   21.7370   16.8820  127.2440 O   0  0  0  0  0
   20.1500   14.9200  125.1510 P   0  0  0  0  0
   21.0440   13.8080  125.5560 O   0  0  0  0  0
   19.0690   15.2510  126.1900 O   0  0  0  0  0
   21.0610   16.2000  124.8820 O   0  0  0  0  0
   19.3520   14.6590  123.8130 O   0  0  0  0  0
   19.8250   13.8200  122.7450 C   0  0  0  0  0
   18.6430   13.2920  121.9730 C   0  0  0  0  0
   17.9860   12.2370  122.7030 O   0  0  0  0  0
   17.5140   14.2730  121.7010 C   0  0  0  0  0
   17.8530   15.2460  120.7240 O   0  0  0  0  0
   16.3820   13.3280  121.3020 C   0  0  0  0  0
   16.4340   12.9500  119.9270 O   0  0  0  0  0
   16.6600   12.1130  122.2090 C   0  0  0  0  0
   15.7270   11.9680  123.3270 N   0  0  0  0  0
   15.9000   12.3650  124.6280 C   0  0  0  0  0
   14.9220   12.0130  125.4280 N   0  0  0  0  0
   14.0360   11.3470  124.5930 C   0  0  0  0  0
   12.7890   10.7230  124.8260 C   0  0  0  0  0
   12.3070   10.4480  126.0420 N   0  0  0  0  0
   12.1210   10.2370  123.7530 N   0  0  0  0  0
   12.6890   10.3230  122.5450 C   0  0  0  0  0
   13.8770   10.8360  122.2160 N   0  0  0  0  0
   14.5080   11.3350  123.2910 C   0  0  0  0  0
   19.8534   18.2067  126.1010 H   0  0  0  0  0
   20.8445   16.7013  127.5480 H   0  0  0  0  0
   18.5279   15.9754  125.8675 H   0  0  0  0  0
   20.3953   12.9877  123.1574 H   0  0  0  0  0
   20.4680   14.3983  122.0814 H   0  0  0  0  0
   19.1072   12.9965  121.0321 H   0  0  0  0  0
   17.2501   14.9082  122.5466 H   0  0  0  0  0
   17.1085   15.8373  120.5911 H   0  0  0  0  0
   15.3951   13.7757  121.4195 H   0  0  0  0  0
   15.7035   12.3588  119.7310 H   0  0  0  0  0
   16.5265   11.2160  121.6043 H   0  0  0  0  0
   16.7725   12.9234  124.9672 H   0  0  0  0  0
   12.8480   10.6908  126.8719 H   0  0  0  0  0
   11.3982    9.9954  126.1400 H   0  0  0  0  0
   12.1035    9.9203  121.7184 H   0  0  0  0  0
  1  2  2  0  0  0
  1  3  1  0  0  0
  1  4  1  0  0  0
  8  1  1  0  0  0
  5  6  2  0  0  0
  5  7  1  0  0  0
  5  8  1  0  0  0
  5  9  1  0  0  0
  9 10  1  0  0  0
 10 11  1  0  0  0
 11 12  1  0  0  0
 11 13  1  0  0  0
 12 17  1  0  0  0
 13 14  1  0  0  0
 13 15  1  0  0  0
 15 16  1  0  0  0
 15 17  1  0  0  0
 17 18  1  0  0  0
 18 19  4  0  0  0
 18 27  4  0  0  0
 19 20  4  0  0  0
 20 21  4  0  0  0
 21 22  4  0  0  0
 21 27  4  0  0  0
 22 23  1  0  0  0
 22 24  4  0  0  0
 24 25  4  0  0  0
 25 26  4  0  0  0
 26 27  4  0  0  0
  3 28  1  0  0  0
  4 29  1  0  0  0
  7 30  1  0  0  0
 10 31  1  0  0  0
 10 32  1  0  0  0
 11 33  1  0  0  0
 13 34  1  0  0  0
 14 35  1  0  0  0
 15 36  1  0  0  0
 16 37  1  0  0  0
 17 38  1  0  0  0
 19 39  1  0  0  0
 23 40  1  0  0  0
 23 41  1  0  0  0
 25 42  1  0  0  0
M  END
$$$$
