### 
### Created by X-TOOL on Mon Aug  2 16:14:01 2021
### 

@<TRIPOS>MOLECULE
6hys_ligand
   39    41     1     0     0
SMALL
GAST_HUCK


@<TRIPOS>ATOM
      1 PB         21.6930   17.3500  125.7880 P.3       1 ADP         0.2069
      2 O1B        23.0290   17.6400  125.2730 O.co2     1 ADP        -0.5891
      3 O2B        20.6940   18.5000  125.7420 O.co2     1 ADP        -0.5891
      4 O3B        21.7370   16.8820  127.2440 O.co2     1 ADP        -0.5891
      5 PA         20.1500   14.9200  125.1510 P.3       1 ADP         0.3276
      6 O1A        21.0440   13.8080  125.5560 O.co2     1 ADP        -0.5556
      7 O2A        19.0690   15.2510  126.1900 O.co2     1 ADP        -0.5556
      8 O3A        21.0610   16.2000  124.8820 O.3       1 ADP        -0.1548
      9 O5'        19.3520   14.6590  123.8130 O.3       1 ADP        -0.2436
     10 C5'        19.8250   13.8200  122.7450 C.3       1 ADP         0.1132
     11 C4'        18.6430   13.2920  121.9730 C.3       1 ADP         0.1189
     12 O4'        17.9860   12.2370  122.7030 O.3       1 ADP        -0.3364
     13 C3'        17.5140   14.2730  121.7010 C.3       1 ADP         0.1149
     14 O3'        17.8530   15.2460  120.7240 O.3       1 ADP        -0.3864
     15 C2'        16.3820   13.3280  121.3020 C.3       1 ADP         0.1385
     16 O2'        16.4340   12.9500  119.9270 O.3       1 ADP        -0.3836
     17 C1'        16.6600   12.1130  122.2090 C.3       1 ADP         0.2010
     18 N9         15.7270   11.9680  123.3270 N.pl3     1 ADP        -0.1919
     19 C8         15.9000   12.3650  124.6280 C.2       1 ADP         0.1123
     20 N7         14.9220   12.0130  125.4280 N.2       1 ADP        -0.2958
     21 C5         14.0360   11.3470  124.5930 C.ar      1 ADP         0.1045
     22 C6         12.7890   10.7230  124.8260 C.ar      1 ADP         0.1298
     23 N6         12.3070   10.4480  126.0420 N.pl3     1 ADP        -0.3152
     24 N1         12.1210   10.2370  123.7530 N.ar      1 ADP        -0.2698
     25 C2         12.6890   10.3230  122.5450 C.ar      1 ADP         0.0533
     26 N3         13.8770   10.8360  122.2160 N.ar      1 ADP        -0.2714
     27 C4         14.5080   11.3350  123.2910 C.ar      1 ADP         0.1613
     28 H1         20.3974   12.9789  123.1631 H         1 ADP         0.0648
     29 H2         20.4709   14.4059  122.0746 H         1 ADP         0.0648
     30 H3         19.0210   12.9094  121.0135 H         1 ADP         0.0651
     31 H4         17.2446   14.8080  122.6236 H         1 ADP         0.0648
     32 H5         18.0638   14.8116  119.9058 H         1 ADP         0.2100
     33 H6         15.4006   13.7754  121.5179 H         1 ADP         0.0676
     34 H7         15.7112   12.3650  119.7330 H         1 ADP         0.2101
     35 H8         16.5895   11.2037  121.5940 H         1 ADP         0.0996
     36 H9         16.7717   12.9228  124.9669 H         1 ADP         0.1349
     37 H10        11.3893    9.9909  126.1410 H         1 ADP         0.1820
     38 H11        12.8533   10.6931  126.8801 H         1 ADP         0.1820
     39 H12        12.1068    9.9225  121.7230 H         1 ADP         0.0996
@<TRIPOS>BOND
     1    1    2 ar 
     2    1    3 ar 
     3    1    4 ar 
     4    8    1 1  
     5    5    6 ar 
     6    5    7 ar 
     7    5    8 1  
     8    5    9 1  
     9    9   10 1  
    10   10   11 1  
    11   11   12 1  
    12   11   13 1  
    13   12   17 1  
    14   13   14 1  
    15   13   15 1  
    16   15   16 1  
    17   15   17 1  
    18   17   18 1  
    19   18   19 1  
    20   18   27 1  
    21   19   20 2  
    22   20   21 1  
    23   21   22 ar 
    24   21   27 ar 
    25   22   23 1  
    26   22   24 ar 
    27   24   25 ar 
    28   25   26 ar 
    29   26   27 ar 
    30   10   28 1  
    31   10   29 1  
    32   11   30 1  
    33   13   31 1  
    34   14   32 1  
    35   15   33 1  
    36   16   34 1  
    37   17   35 1  
    38   19   36 1  
    39   23   37 1  
    40   23   38 1  
    41   25   39 1  
@<TRIPOS>SUBSTRUCTURE
     1 ADP         1

