1ppm_ligand
  -I-interpret- 

 82 83  0  0  0  0  0  0  0  0999 V2000
   16.9610    5.0560   18.8390 C   0  0  0  0  0
   16.7860    4.7930   20.0630 O   0  0  0  0  0
   15.8380    4.9040   17.9920 O   0  0  0  0  0
   14.5710    4.8710   18.7050 C   0  0  0  0  0
   13.9910    3.4940   18.5040 C   0  0  0  0  0
   13.3750    2.8280   19.5820 C   0  0  0  0  0
   14.0800    2.9530   17.2440 C   0  0  0  0  0
   12.8490    1.5710   19.3880 C   0  0  0  0  0
   13.5460    1.6690   17.0360 C   0  0  0  0  0
   12.9150    1.0010   18.1120 C   0  0  0  0  0
   18.0710    5.5250   18.3860 N   0  0  0  0  0
   19.2050    5.7540   19.2480 C   0  0  0  0  0
   19.0300    7.1030   20.0120 C   0  0  0  0  0
   18.1610    7.9500   19.6020 O   0  0  0  0  0
   20.3620    5.9450   18.2560 C   0  0  0  0  0
   19.8180    7.2450   21.0460 N   0  0  0  0  0
   19.7870    8.4860   21.8200 C   0  0  0  0  0
   21.2480    8.8500   22.0540 C   0  0  0  0  0
   21.8100    8.4710   23.0590 O   0  0  0  0  0
   18.9120    8.3850   23.0900 C   0  0  0  0  0
   23.2710    9.9450   21.1250 C   0  0  0  0  0
   24.0340    9.3730   19.8660 C   0  0  0  0  0
   23.7680    7.8770   19.5290 C   0  0  0  0  0
   24.4990    7.6050   18.2160 C   0  0  0  0  0
   24.2550    6.9510   20.6750 C   0  0  0  0  0
   21.8890    9.5680   21.0820 N   0  0  0  0  0
   23.4550   11.7720   21.2390 P   0  0  0  0  0
   22.5280   12.3220   20.3070 O   0  0  0  0  0
   24.8350   12.0870   21.2500 O   0  0  0  0  0
   23.5110   13.0420   23.5140 C   0  0  0  0  0
   22.3440   13.9090   24.0380 C   0  0  0  0  0
   21.3350   13.1520   24.8640 C   0  0  0  0  0
   21.4040   13.3650   26.2640 C   0  0  0  0  0
   20.3830   12.2980   24.3600 C   0  0  0  0  0
   20.5450   12.7340   27.1390 C   0  0  0  0  0
   19.5110   11.6810   25.2220 C   0  0  0  0  0
   19.6040   11.8740   26.5980 C   0  0  0  0  0
   24.2320   12.4970   24.7390 C   0  0  0  0  0
   25.7140   12.9990   26.6300 C   0  0  0  0  0
   22.9550   11.9420   22.7180 O   0  0  0  0  0
   24.7390   13.3130   25.7410 O   0  0  0  0  0
   24.4070   11.3200   24.9200 O   0  0  0  0  0
   13.8933    5.6353   18.3247 H   0  0  0  0  0
   14.7184    5.0775   19.7651 H   0  0  0  0  0
   13.3155    3.3039   20.5608 H   0  0  0  0  0
   14.5509    3.5033   16.4294 H   0  0  0  0  0
   12.3890    1.0290   20.2142 H   0  0  0  0  0
   13.6173    1.1939   16.0576 H   0  0  0  0  0
   12.4703    0.0203   17.9430 H   0  0  0  0  0
   18.1508    5.7402   17.3922 H   0  0  0  0  0
   19.3447    4.9536   19.9746 H   0  0  0  0  0
   20.4714    5.0457   17.6498 H   0  0  0  0  0
   20.1481    6.7964   17.6099 H   0  0  0  0  0
   21.2847    6.1279   18.8068 H   0  0  0  0  0
   20.4527    6.4922   21.3122 H   0  0  0  0  0
   19.2905    9.2954   21.2848 H   0  0  0  0  0
   17.8872    8.1462   22.8056 H   0  0  0  0  0
   19.3030    7.6002   23.7376 H   0  0  0  0  0
   18.9309    9.3376   23.6194 H   0  0  0  0  0
   23.7175    9.5142   22.0212 H   0  0  0  0  0
   25.0977    9.4518   20.0907 H   0  0  0  0  0
   23.6832    9.9471   19.0084 H   0  0  0  0  0
   22.7028    7.6710   19.4236 H   0  0  0  0  0
   24.1045    8.2604   17.4395 H   0  0  0  0  0
   25.5639    7.7962   18.3482 H   0  0  0  0  0
   24.3484    6.5650   17.9265 H   0  0  0  0  0
   25.3259    7.0906   20.8230 H   0  0  0  0  0
   23.7243    7.2018   21.5934 H   0  0  0  0  0
   24.0558    5.9125   20.4107 H   0  0  0  0  0
   21.3446    9.8555   20.2687 H   0  0  0  0  0
   21.6521   11.9709   20.4835 H   0  0  0  0  0
   24.1985   13.6110   22.8882 H   0  0  0  0  0
   21.8182   14.3011   23.1674 H   0  0  0  0  0
   22.7761   14.6757   24.6810 H   0  0  0  0  0
   22.1570   14.0465   26.6597 H   0  0  0  0  0
   20.3213   12.1128   23.2876 H   0  0  0  0  0
   20.6043   12.9054   28.2138 H   0  0  0  0  0
   18.7334   11.0296   24.8231 H   0  0  0  0  0
   18.9242   11.3387   27.2609 H   0  0  0  0  0
   25.4019   12.1375   27.2203 H   0  0  0  0  0
   26.6311   12.7594   26.0919 H   0  0  0  0  0
   25.8897   13.8487   27.2897 H   0  0  0  0  0
 12 11  1  0  0  0
 12 15  1  0  0  0
 13 12  1  0  0  0
 13 14  2  0  0  0
 17 16  1  0  0  0
 17 20  1  0  0  0
 18 17  1  0  0  0
 18 19  2  0  0  0
 16 13  1  0  0  0
  1  2  2  0  0  0
  1  3  1  0  0  0
 11  1  1  0  0  0
  3  4  1  0  0  0
  4  5  1  0  0  0
  5  6  4  0  0  0
  5  7  4  0  0  0
  6  8  4  0  0  0
  7  9  4  0  0  0
  8 10  4  0  0  0
  9 10  4  0  0  0
 21 22  1  0  0  0
 21 26  1  0  0  0
 27 21  1  0  0  0
 22 23  1  0  0  0
 23 24  1  0  0  0
 23 25  1  0  0  0
 26 18  1  0  0  0
 27 28  1  0  0  0
 27 29  2  0  0  0
 30 31  1  0  0  0
 30 38  1  0  0  0
 40 30  1  0  0  0
 31 32  1  0  0  0
 32 33  4  0  0  0
 32 34  4  0  0  0
 33 35  4  0  0  0
 34 36  4  0  0  0
 35 37  4  0  0  0
 36 37  4  0  0  0
 38 41  1  0  0  0
 38 42  2  0  0  0
 40 27  1  0  0  0
 41 39  1  0  0  0
  4 43  1  0  0  0
  4 44  1  0  0  0
  6 45  1  0  0  0
  7 46  1  0  0  0
  8 47  1  0  0  0
  9 48  1  0  0  0
 10 49  1  0  0  0
 11 50  1  0  0  0
 12 51  1  0  0  0
 15 52  1  0  0  0
 15 53  1  0  0  0
 15 54  1  0  0  0
 16 55  1  0  0  0
 17 56  1  0  0  0
 20 57  1  0  0  0
 20 58  1  0  0  0
 20 59  1  0  0  0
 21 60  1  0  0  0
 22 61  1  0  0  0
 22 62  1  0  0  0
 23 63  1  0  0  0
 24 64  1  0  0  0
 24 65  1  0  0  0
 24 66  1  0  0  0
 25 67  1  0  0  0
 25 68  1  0  0  0
 25 69  1  0  0  0
 26 70  1  0  0  0
 28 71  1  0  0  0
 30 72  1  0  0  0
 31 73  1  0  0  0
 31 74  1  0  0  0
 33 75  1  0  0  0
 34 76  1  0  0  0
 35 77  1  0  0  0
 36 78  1  0  0  0
 37 79  1  0  0  0
 39 80  1  0  0  0
 39 81  1  0  0  0
 39 82  1  0  0  0
M  END
$$$$
