1n1v_ligand
  -I-interpret- 

 37 37  0  0  0  0  0  0  0  0999 V2000
   26.8420   -3.8040    9.4340 C   0  0  0  0  0
   25.6400   -3.2280    9.0500 C   0  0  0  0  0
   25.5100   -1.7360    9.2070 C   0  0  0  0  0
   24.1940   -1.1850    8.6640 C   0  0  0  0  0
   23.1210   -2.2640    8.6610 C   0  0  0  0  0
   23.6610   -3.4530    7.8730 C   0  0  0  0  0
   22.6000   -4.5430    7.6040 C   0  0  0  0  0
   23.1910   -5.8390    7.0610 C   0  0  0  0  0
   22.1020   -6.9120    6.9920 C   0  0  0  0  0
   20.7050   -2.0340    8.3240 C   0  0  0  0  0
   19.6530   -1.2250    7.6260 C   0  0  0  0  0
   21.9510   -1.6990    8.0310 N   0  0  0  0  0
   27.7030   -3.2040   10.3770 O   0  0  0  0  0
   27.1830   -4.9300    8.8970 O   0  0  0  0  0
   23.7650   -0.1170    9.4720 O   0  0  0  0  0
   24.7470   -4.0050    8.5960 O   0  0  0  0  0
   21.9250   -4.9030    8.7970 O   0  0  0  0  0
   23.6990   -5.6350    5.7710 O   0  0  0  0  0
   21.2780   -6.6720    5.8640 O   0  0  0  0  0
   20.3880   -3.0800    9.2060 O   0  0  0  0  0
   26.2787   -1.1119    9.6628 H   0  0  0  0  0
   24.3571   -0.8431    7.6419 H   0  0  0  0  0
   22.8586   -2.6022    9.6634 H   0  0  0  0  0
   23.9757   -3.0907    6.8943 H   0  0  0  0  0
   21.9317   -4.0977    6.8670 H   0  0  0  0  0
   23.9937   -6.1600    7.7249 H   0  0  0  0  0
   21.4981   -6.8775    7.8987 H   0  0  0  0  0
   22.5640   -7.8953    6.9036 H   0  0  0  0  0
   19.0410   -1.8825    7.0085 H   0  0  0  0  0
   19.0244   -0.7317    8.3674 H   0  0  0  0  0
   20.1315   -0.4748    6.9965 H   0  0  0  0  0
   22.0951   -0.9923    7.3098 H   0  0  0  0  0
   27.3162   -2.3804   10.6832 H   0  0  0  0  0
   24.4375    0.5680    9.4786 H   0  0  0  0  0
   21.5289   -4.1207    9.1878 H   0  0  0  0  0
   24.0680   -6.4571    5.4399 H   0  0  0  0  0
   20.5944   -7.3445    5.8196 H   0  0  0  0  0
  2  1  1  0  0  0
  1 13  1  0  0  0
  1 14  2  0  0  0
  3  2  2  0  0  0
 16  2  1  0  0  0
  4  3  1  0  0  0
  5  4  1  0  0  0
  4 15  1  0  0  0
  5  6  1  0  0  0
 12  5  1  0  0  0
  6  7  1  0  0  0
  6 16  1  0  0  0
  7  8  1  0  0  0
  7 17  1  0  0  0
  8  9  1  0  0  0
  8 18  1  0  0  0
  9 19  1  0  0  0
 10 11  1  0  0  0
 12 10  1  0  0  0
 10 20  2  0  0  0
  3 21  1  0  0  0
  4 22  1  0  0  0
  5 23  1  0  0  0
  6 24  1  0  0  0
  7 25  1  0  0  0
  8 26  1  0  0  0
  9 27  1  0  0  0
  9 28  1  0  0  0
 11 29  1  0  0  0
 11 30  1  0  0  0
 11 31  1  0  0  0
 12 32  1  0  0  0
 13 33  1  0  0  0
 15 34  1  0  0  0
 17 35  1  0  0  0
 18 36  1  0  0  0
 19 37  1  0  0  0
M  END
$$$$
