4mjp_ligand
  -I-interpret- 

 43 45  0  0  0  0  0  0  0  0999 V2000
  -19.1220  -18.2370   45.9690 C   0  0  0  0  0
  -18.2320  -17.2160   45.5920 C   0  0  0  0  0
  -17.5350  -17.2100   44.3700 C   0  0  0  0  0
  -16.5740  -16.1170   43.9830 C   0  0  0  0  0
  -15.1450  -16.6420   44.1730 C   0  0  0  0  0
  -14.3530  -14.1360   44.0980 C   0  0  0  0  0
  -17.7510  -18.3660   43.4410 C   0  0  0  0  0
  -17.3320  -19.5590   41.3730 C   0  0  0  0  0
  -18.8780  -20.5340   42.9580 C   0  0  0  0  0
  -22.0920  -21.1160   44.0950 O   0  0  0  0  0
  -21.7020  -20.3170   44.9420 C   0  0  0  0  0
  -22.5380  -19.3500   45.3000 O   0  0  0  0  0
  -20.3330  -20.4470   45.5770 C   0  0  0  0  0
  -20.4940  -20.5190   47.0950 C   0  0  0  0  0
  -19.3850  -19.3600   45.1560 C   0  0  0  0  0
  -18.6790  -19.4630   43.8380 C   0  0  0  0  0
  -18.2130  -20.5750   41.7340 C   0  0  0  0  0
  -17.1010  -18.4690   42.2120 C   0  0  0  0  0
  -16.7190  -14.8380   44.7940 C   0  0  0  0  0
  -15.8210  -13.7390   44.2490 C   0  0  0  0  0
  -14.0290  -15.6090   44.3610 C   0  0  0  0  0
  -19.6304  -18.1578   46.9299 H   0  0  0  0  0
  -18.0740  -16.3868   46.2817 H   0  0  0  0  0
  -16.7983  -15.8596   42.9479 H   0  0  0  0  0
  -14.9023  -17.1706   43.2511 H   0  0  0  0  0
  -15.1663  -17.2212   45.0961 H   0  0  0  0  0
  -13.8014  -13.5624   44.8428 H   0  0  0  0  0
  -14.0882  -13.9441   43.0582 H   0  0  0  0  0
  -16.8129  -19.6166   40.4163 H   0  0  0  0  0
  -19.5575  -21.3409   43.2322 H   0  0  0  0  0
  -22.1195  -18.7959   45.9629 H   0  0  0  0  0
  -19.8750  -21.3699   45.2211 H   0  0  0  0  0
  -20.9804  -19.6108   47.4510 H   0  0  0  0  0
  -21.1038  -21.3846   47.3538 H   0  0  0  0  0
  -19.5122  -20.6127   47.5592 H   0  0  0  0  0
  -18.3839  -21.4093   41.0537 H   0  0  0  0  0
  -16.4047  -17.6892   41.9034 H   0  0  0  0  0
  -16.4311  -15.0443   45.8248 H   0  0  0  0  0
  -17.7547  -14.5033   44.7350 H   0  0  0  0  0
  -16.1884  -13.4917   43.2531 H   0  0  0  0  0
  -15.8568  -12.9152   44.9619 H   0  0  0  0  0
  -13.2683  -15.8713   43.6257 H   0  0  0  0  0
  -13.7651  -15.6606   45.4173 H   0  0  0  0  0
  1  2  4  0  0  0
 15  1  4  0  0  0
  2  3  4  0  0  0
  3  4  1  0  0  0
  3  7  4  0  0  0
  4  5  1  0  0  0
  4 19  1  0  0  0
  5 21  1  0  0  0
  6 20  1  0  0  0
 21  6  1  0  0  0
  7 16  4  0  0  0
  7 18  4  0  0  0
  8 17  4  0  0  0
 18  8  4  0  0  0
 16  9  4  0  0  0
  9 17  4  0  0  0
 11 10  2  0  0  0
 11 12  1  0  0  0
 13 11  1  0  0  0
 13 14  1  0  0  0
 13 15  1  0  0  0
 15 16  4  0  0  0
 19 20  1  0  0  0
  1 22  1  0  0  0
  2 23  1  0  0  0
  4 24  1  0  0  0
  5 25  1  0  0  0
  5 26  1  0  0  0
  6 27  1  0  0  0
  6 28  1  0  0  0
  8 29  1  0  0  0
  9 30  1  0  0  0
 12 31  1  0  0  0
 13 32  1  0  0  0
 14 33  1  0  0  0
 14 34  1  0  0  0
 14 35  1  0  0  0
 17 36  1  0  0  0
 18 37  1  0  0  0
 19 38  1  0  0  0
 19 39  1  0  0  0
 20 40  1  0  0  0
 20 41  1  0  0  0
 21 42  1  0  0  0
 21 43  1  0  0  0
M  END
$$$$
