3kmx_ligand
  -I-interpret- 

 34 34  0  0  0  0  0  0  0  0999 V2000
   24.4870   11.2810   20.2330 C   0  0  0  0  0
   22.4530    8.8070   24.6810 N   0  0  0  0  0
   25.6050   11.8530   19.6080 O   0  0  0  0  0
   20.4300   10.5390   23.6510 S   0  0  0  0  0
   23.1830   13.4880   19.3380 Cl  0  0  0  0  0
   24.5610   10.0300   20.9290 C   0  0  0  0  0
   21.8010   10.8630   25.7860 N   0  0  0  0  0
   23.4070    9.4880   21.5660 C   0  0  0  0  0
   22.1650   10.1840   21.5110 C   0  0  0  0  0
   22.0840   11.4300   20.8220 C   0  0  0  0  0
   23.2400   11.9680   20.1880 C   0  0  0  0  0
   26.7140   10.9650   19.4430 C   0  0  0  0  0
   27.8650   11.4180   20.3380 C   0  0  0  0  0
   28.6880   10.2350   20.8140 C   0  0  0  0  0
   29.5140   10.5600   22.0620 C   0  0  0  0  0
   20.9360    9.5880   22.1700 C   0  0  0  0  0
   21.6760    9.9830   24.7750 C   0  0  0  0  0
   23.1455    8.5945   25.3991 H   0  0  0  0  0
   22.3216    8.1704   23.8950 H   0  0  0  0  0
   25.5066    9.4894   20.9714 H   0  0  0  0  0
   21.2164   11.6985   25.8101 H   0  0  0  0  0
   23.4748    8.5384   22.0967 H   0  0  0  0  0
   21.1381   11.9700   20.7807 H   0  0  0  0  0
   27.0368   10.9758   18.4020 H   0  0  0  0  0
   26.4146    9.9540   19.7193 H   0  0  0  0  0
   27.4499   11.9260   21.2085 H   0  0  0  0  0
   28.5108   12.0831   19.7646 H   0  0  0  0  0
   29.3780    9.9621   20.0155 H   0  0  0  0  0
   28.0012    9.4270   21.0661 H   0  0  0  0  0
   30.1987   11.3786   21.8400 H   0  0  0  0  0
   28.8461   10.8529   22.8721 H   0  0  0  0  0
   30.0831    9.6791   22.3591 H   0  0  0  0  0
   20.1167    9.6111   21.4515 H   0  0  0  0  0
   21.1732    8.5705   22.4807 H   0  0  0  0  0
  1  3  1  0  0  0
  6  1  4  0  0  0
  1 11  4  0  0  0
 17  2  1  0  0  0
  3 12  1  0  0  0
 16  4  1  0  0  0
  4 17  1  0  0  0
 11  5  1  0  0  0
  8  6  4  0  0  0
 17  7  2  0  0  0
  9  8  4  0  0  0
  9 10  4  0  0  0
  9 16  1  0  0  0
 10 11  4  0  0  0
 12 13  1  0  0  0
 13 14  1  0  0  0
 14 15  1  0  0  0
  2 18  1  0  0  0
  2 19  1  0  0  0
  6 20  1  0  0  0
  7 21  1  0  0  0
  8 22  1  0  0  0
 10 23  1  0  0  0
 12 24  1  0  0  0
 12 25  1  0  0  0
 13 26  1  0  0  0
 13 27  1  0  0  0
 14 28  1  0  0  0
 14 29  1  0  0  0
 15 30  1  0  0  0
 15 31  1  0  0  0
 15 32  1  0  0  0
 16 33  1  0  0  0
 16 34  1  0  0  0
M  END
$$$$
