5a4c_ligand
  -I-interpret- 

 77 79  0  0  0  0  0  0  0  0999 V2000
   86.0320    1.9350    2.4060 C   0  0  0  0  0
   83.9840    0.9240    3.4680 N   0  3  0  0  0
   86.5190    5.8110   14.0580 O   0  0  0  0  0
   85.1410    0.7350    2.5630 C   0  0  0  0  0
   86.5840    0.0890    7.6370 N   0  0  0  0  0
   88.5870    0.0970   17.7770 O   0  0  0  0  0
   83.0190   -0.1950    3.5120 C   0  0  0  0  0
   88.0270   -0.7640    9.2080 N   0  0  0  0  0
   91.9740    3.3320   16.3820 O   0  0  0  0  0
   81.5820    0.2370    3.7010 C   0  0  0  0  0
   87.2210    2.5790   11.5060 N   0  0  0  0  0
   84.3660    1.4020    4.8140 C   0  0  0  0  0
   86.9140    1.3850    9.5340 N   0  0  0  0  0
   85.3430    0.5230    5.5860 C   0  0  0  0  0
   87.2740    3.7270   13.5340 N   0  0  0  0  0
   85.6680    1.0140    6.9920 C   0  0  0  0  0
   86.1580    4.9800   11.9620 N   0  0  0  0  0
   87.1990    0.2440    8.8280 C   0  0  0  0  0
   88.5960   -0.6200   10.3820 C   0  0  0  0  0
   88.4530    0.5110   11.1830 C   0  0  0  0  0
   89.0190    0.6440   12.4650 C   0  0  0  0  0
   88.6700    1.7020   13.2650 C   0  0  0  0  0
   87.7350    2.6610   12.7290 C   0  0  0  0  0
   87.5580    1.5010   10.7360 C   0  0  0  0  0
   86.6420    4.9090   13.2290 C   0  0  0  0  0
   85.2180    5.9950   11.4320 C   0  0  0  0  0
   84.9470    5.6800    9.9660 C   0  0  0  0  0
   85.8570    7.3730   11.5440 C   0  0  0  0  0
   83.9080    5.9540   12.2200 C   0  0  0  0  0
   89.2190    1.7590   14.6510 C   0  0  0  0  0
   90.3300    2.5490   14.9550 C   0  0  0  0  0
   90.8630    2.5430   16.2350 C   0  0  0  0  0
   90.2960    1.7690   17.2380 C   0  0  0  0  0
   89.1920    0.9900   16.9350 C   0  0  0  0  0
   88.6450    0.9910   15.6600 C   0  0  0  0  0
   89.3140   -0.3710   18.9110 C   0  0  0  0  0
   92.7140    3.2440   17.6010 C   0  0  0  0  0
   85.4530    2.7654    2.0020 H   0  0  0  0  0
   86.4392    2.2133    3.3780 H   0  0  0  0  0
   86.8477    1.6936    1.7245 H   0  0  0  0  0
   83.4628    1.6804    3.0246 H   0  0  0  0  0
   85.7532   -0.0550    2.9979 H   0  0  0  0  0
   84.7341    0.5156    1.5759 H   0  0  0  0  0
   86.7848   -0.7747    7.1329 H   0  0  0  0  0
   83.2843   -0.8166    4.3672 H   0  0  0  0  0
   83.0778   -0.7098    2.5531 H   0  0  0  0  0
   81.4879    0.7802    4.6413 H   0  0  0  0  0
   81.2869    0.8841    2.8750 H   0  0  0  0  0
   80.9392   -0.6430    3.7224 H   0  0  0  0  0
   83.4479    1.4262    5.4011 H   0  0  0  0  0
   84.8670    2.3588    4.6671 H   0  0  0  0  0
   86.2784    0.5214    5.0265 H   0  0  0  0  0
   84.8738   -0.4551    5.6922 H   0  0  0  0  0
   87.4422    3.5941   14.5312 H   0  0  0  0  0
   86.1328    1.9981    6.9316 H   0  0  0  0  0
   84.7484    1.0750    7.5739 H   0  0  0  0  0
   86.4735    4.2622   11.3096 H   0  0  0  0  0
   89.2181   -1.4346   10.7528 H   0  0  0  0  0
   89.7359   -0.0951   12.8225 H   0  0  0  0  0
   85.8838    5.7118    9.4097 H   0  0  0  0  0
   84.5081    4.6856    9.8845 H   0  0  0  0  0
   84.2559    6.4181    9.5588 H   0  0  0  0  0
   86.0763    7.5864   12.5902 H   0  0  0  0  0
   86.7813    7.3915   10.9665 H   0  0  0  0  0
   85.1691    8.1238   11.1552 H   0  0  0  0  0
   83.4599    4.9648   12.1263 H   0  0  0  0  0
   84.1104    6.1645   13.2701 H   0  0  0  0  0
   83.2232    6.7035   11.8233 H   0  0  0  0  0
   90.7799    3.1729   14.1827 H   0  0  0  0  0
   90.7120    1.7743   18.2455 H   0  0  0  0  0
   87.7622    0.3879   15.4476 H   0  0  0  0  0
   90.2214   -0.8741   18.5769 H   0  0  0  0  0
   89.5786    0.4747   19.5457 H   0  0  0  0  0
   88.6957   -1.0701   19.4742 H   0  0  0  0  0
   92.0679    3.5120   18.4369 H   0  0  0  0  0
   93.0757    2.2242   17.7321 H   0  0  0  0  0
   93.5610    3.9289   17.5606 H   0  0  0  0  0
  4  1  1  0  0  0
  2  4  1  0  0  0
  2  7  1  0  0  0
 12  2  1  0  0  0
 25  3  2  0  0  0
  5 16  1  0  0  0
 18  5  1  0  0  0
 34  6  1  0  0  0
  6 36  1  0  0  0
  7 10  1  0  0  0
  8 18  4  0  0  0
 19  8  4  0  0  0
 32  9  1  0  0  0
  9 37  1  0  0  0
 23 11  4  0  0  0
 11 24  4  0  0  0
 14 12  1  0  0  0
 13 18  4  0  0  0
 24 13  4  0  0  0
 16 14  1  0  0  0
 23 15  1  0  0  0
 15 25  1  0  0  0
 25 17  1  0  0  0
 17 26  1  0  0  0
 20 19  4  0  0  0
 21 20  4  0  0  0
 20 24  4  0  0  0
 22 21  4  0  0  0
 22 23  4  0  0  0
 30 22  1  0  0  0
 26 27  1  0  0  0
 26 28  1  0  0  0
 26 29  1  0  0  0
 31 30  4  0  0  0
 30 35  4  0  0  0
 32 31  4  0  0  0
 33 32  4  0  0  0
 33 34  4  0  0  0
 34 35  4  0  0  0
  1 38  1  0  0  0
  1 39  1  0  0  0
  1 40  1  0  0  0
  2 41  1  0  0  0
  4 42  1  0  0  0
  4 43  1  0  0  0
  5 44  1  0  0  0
  7 45  1  0  0  0
  7 46  1  0  0  0
 10 47  1  0  0  0
 10 48  1  0  0  0
 10 49  1  0  0  0
 12 50  1  0  0  0
 12 51  1  0  0  0
 14 52  1  0  0  0
 14 53  1  0  0  0
 15 54  1  0  0  0
 16 55  1  0  0  0
 16 56  1  0  0  0
 17 57  1  0  0  0
 19 58  1  0  0  0
 21 59  1  0  0  0
 27 60  1  0  0  0
 27 61  1  0  0  0
 27 62  1  0  0  0
 28 63  1  0  0  0
 28 64  1  0  0  0
 28 65  1  0  0  0
 29 66  1  0  0  0
 29 67  1  0  0  0
 29 68  1  0  0  0
 31 69  1  0  0  0
 33 70  1  0  0  0
 35 71  1  0  0  0
 36 72  1  0  0  0
 36 73  1  0  0  0
 36 74  1  0  0  0
 37 75  1  0  0  0
 37 76  1  0  0  0
 37 77  1  0  0  0
M  END
$$$$
