4q4o_ligand
  -I-interpret- 

 44 47  0  0  0  0  0  0  0  0999 V2000
  108.3850   18.3520   24.1940 O   0  0  0  0  0
  107.3190   17.9750   23.7150 C   0  0  0  0  0
  106.2200   17.6520   24.4990 N   0  0  0  0  0
  107.1090   17.8460   22.2710 C   0  0  0  0  0
  105.8470   17.4260   21.7980 C   0  0  0  0  0
  104.8480   17.0920   22.7080 N   0  0  0  0  0
  105.0350   17.2140   24.0360 C   0  0  0  0  0
  104.0700   16.8860   24.8740 N   0  0  0  0  0
  105.5760   17.4410   20.4230 C   0  0  0  0  0
  106.5520   17.8870   19.5310 C   0  0  0  0  0
  107.8020   18.2780   20.0130 C   0  0  0  0  0
  108.0780   18.2580   21.3630 C   0  0  0  0  0
  106.5000   18.0790   18.1510 N   0  0  0  0  0
  107.6880   18.5650   17.8400 C   0  0  0  0  0
  108.5180   18.6870   18.9020 N   0  0  0  0  0
  108.0870   18.9510   16.6280 N   0  0  0  0  0
  107.2250   18.8700   15.4590 C   0  0  0  0  0
  107.9780   19.0830   14.1640 C   0  0  0  0  0
  107.0810   19.1080   12.9630 N   0  3  0  0  0
  107.8210   18.7130   11.7270 C   0  0  0  0  0
  106.8910   18.6580   10.5390 C   0  0  0  0  0
  106.1980   19.9880   10.3230 C   0  0  0  0  0
  105.5040   20.4450   11.5940 C   0  0  0  0  0
  106.4510   20.4510   12.7740 C   0  0  0  0  0
  103.9532   16.7467   22.3607 H   0  0  0  0  0
  104.2198   16.9637   25.8799 H   0  0  0  0  0
  104.6074   17.1058   20.0521 H   0  0  0  0  0
  109.0604   18.5666   21.7206 H   0  0  0  0  0
  109.0325   19.3170   16.5161 H   0  0  0  0  0
  106.4728   19.6545   15.5422 H   0  0  0  0  0
  106.7889   17.8714   15.4327 H   0  0  0  0  0
  108.6725   18.2517   14.0428 H   0  0  0  0  0
  108.4781   20.0496   14.2255 H   0  0  0  0  0
  106.3397   18.4279   13.1314 H   0  0  0  0  0
  108.2559   17.7251   11.8786 H   0  0  0  0  0
  108.5976   19.4524   11.5312 H   0  0  0  0  0
  106.1331   17.8972   10.7256 H   0  0  0  0  0
  107.4760   18.4223    9.6500 H   0  0  0  0  0
  105.4522   19.8728    9.5365 H   0  0  0  0  0
  106.9434   20.7319   10.0418 H   0  0  0  0  0
  104.6895   19.7535   11.8095 H   0  0  0  0  0
  105.1381   21.4603   11.4408 H   0  0  0  0  0
  107.2371   21.1827   12.5876 H   0  0  0  0  0
  105.8879   20.7025   13.6728 H   0  0  0  0  0
  1  2  2  0  0  0
  2  3  1  0  0  0
  2  4  1  0  0  0
  3  7  4  0  0  0
  4  5  4  0  0  0
  4 12  4  0  0  0
  5  6  1  0  0  0
  5  9  4  0  0  0
  6  7  1  0  0  0
  7  8  2  0  0  0
  9 10  4  0  0  0
 10 11  4  0  0  0
 10 13  4  0  0  0
 11 12  4  0  0  0
 11 15  4  0  0  0
 13 14  4  0  0  0
 14 15  4  0  0  0
 14 16  1  0  0  0
 16 17  1  0  0  0
 17 18  1  0  0  0
 18 19  1  0  0  0
 19 20  1  0  0  0
 19 24  1  0  0  0
 20 21  1  0  0  0
 21 22  1  0  0  0
 22 23  1  0  0  0
 23 24  1  0  0  0
  6 25  1  0  0  0
  8 26  1  0  0  0
  9 27  1  0  0  0
 12 28  1  0  0  0
 16 29  1  0  0  0
 17 30  1  0  0  0
 17 31  1  0  0  0
 18 32  1  0  0  0
 18 33  1  0  0  0
 19 34  1  0  0  0
 20 35  1  0  0  0
 20 36  1  0  0  0
 21 37  1  0  0  0
 21 38  1  0  0  0
 22 39  1  0  0  0
 22 40  1  0  0  0
 23 41  1  0  0  0
 23 42  1  0  0  0
 24 43  1  0  0  0
 24 44  1  0  0  0
M  END
$$$$
