2g19_ligand
  -I-interpret- 

 28 29  0  0  0  0  0  0  0  0999 V2000
    6.4020   47.7320   23.9480 C   0  0  0  0  0
    5.6050   48.9260   24.1480 C   0  0  0  0  0
    4.3480   48.7720   24.8660 C   0  0  0  0  0
    5.8940   46.4670   24.4650 C   0  0  0  0  0
    4.6200   46.3470   25.1780 C   0  0  0  0  0
    3.8010   47.5370   25.4050 C   0  0  0  0  0
    2.5610   47.4220   26.1700 C   0  0  0  0  0
    2.1230   46.1910   26.7020 N   0  0  0  0  0
    2.9090   45.0360   26.4740 C   0  0  0  0  0
    4.1520   45.0730   25.7050 C   0  0  0  0  0
    3.2550   50.4520   25.2810 I   0  0  0  0  0
    4.8320   43.9350   25.5240 O   0  0  0  0  0
    2.3220   43.7880   27.0580 C   0  0  0  0  0
    2.0190   41.4360   26.9670 C   0  0  0  0  0
    2.6390   40.2040   26.3130 C   0  0  0  0  0
    2.2230   39.0850   26.6550 O   0  0  0  0  0
    1.4080   43.8810   27.8750 O   0  0  0  0  0
    3.5930   40.3510   25.5120 O   0  0  0  0  0
    2.7750   42.5910   26.6780 N   0  0  0  0  0
    7.3569   47.7787   23.4244 H   0  0  0  0  0
    5.9326   49.8971   23.7769 H   0  0  0  0  0
    6.4907   45.5675   24.3137 H   0  0  0  0  0
    1.9565   48.3140   26.3344 H   0  0  0  0  0
    4.3613   43.2119   25.9449 H   0  0  0  0  0
    2.0011   41.2890   28.0469 H   0  0  0  0  0
    1.0099   41.5701   26.5775 H   0  0  0  0  0
    3.7574   41.2876   25.3803 H   0  0  0  0  0
    3.6626   42.5123   26.1816 H   0  0  0  0  0
  1  2  4  0  0  0
  4  1  4  0  0  0
  3  2  4  0  0  0
  6  3  4  0  0  0
  3 11  1  0  0  0
  5  4  4  0  0  0
  5  6  4  0  0  0
 10  5  4  0  0  0
  7  6  4  0  0  0
  8  7  4  0  0  0
  9  8  4  0  0  0
  9 10  4  0  0  0
 13  9  1  0  0  0
 10 12  1  0  0  0
 13 17  2  0  0  0
 19 13  1  0  0  0
 14 15  1  0  0  0
 14 19  1  0  0  0
 15 16  2  0  0  0
 15 18  1  0  0  0
  1 20  1  0  0  0
  2 21  1  0  0  0
  4 22  1  0  0  0
  7 23  1  0  0  0
 12 24  1  0  0  0
 14 25  1  0  0  0
 14 26  1  0  0  0
 18 27  1  0  0  0
 19 28  1  0  0  0
M  END
$$$$
