3oc0_ligand
  -I-interpret- 

 55 57  0  0  0  0  0  0  0  0999 V2000
   43.5800   53.1650   30.4560 C   0  0  0  0  0
   45.0080   51.2800   30.1750 C   0  0  0  0  0
   44.1650   52.1960   29.5900 O   0  0  0  0  0
   45.3260   51.3610   31.5310 C   0  0  0  0  0
   46.1730   50.4070   32.0970 C   0  0  0  0  0
   46.5230   50.4300   33.5580 C   0  0  0  0  0
   46.6940   49.3770   31.3150 C   0  0  0  0  0
   47.5570   48.3440   31.9770 C   0  0  0  0  0
   48.5530   49.0070   32.9380 C   0  0  0  0  0
   47.9400   50.0640   33.7920 N   0  3  0  0  0
   48.1060   49.7880   35.2290 C   0  0  0  0  0
   47.9370   51.1360   35.9650 C   0  0  0  0  0
   48.0550   50.9910   37.4670 C   0  0  0  0  0
   48.6480   49.8450   38.2580 C   0  0  0  0  0
   48.8260   50.0250   39.7120 C   0  0  0  0  0
   48.1970   49.0880   40.7120 C   0  0  0  0  0
   46.5840   51.8120   35.6830 C   0  0  0  0  0
   46.9590   53.1880   35.7500 N   0  3  0  0  0
   46.2970   51.8130   34.1690 C   0  0  0  0  0
   46.3830   49.2960   29.9590 C   0  0  0  0  0
   45.5380   50.2500   29.3900 C   0  0  0  0  0
   45.1990   50.1870   28.0590 O   0  0  0  0  0
   45.7150   49.0810   27.3240 C   0  0  0  0  0
   42.9881   52.6587   31.2185 H   0  0  0  0  0
   44.3684   53.7469   30.9333 H   0  0  0  0  0
   42.9377   53.8278   29.8762 H   0  0  0  0  0
   44.9159   52.1636   32.1440 H   0  0  0  0  0
   45.8677   49.6983   34.0305 H   0  0  0  0  0
   48.1124   47.8039   31.2102 H   0  0  0  0  0
   46.9213   47.6625   32.5423 H   0  0  0  0  0
   49.3261   49.4812   32.3334 H   0  0  0  0  0
   48.9356   48.2308   33.6008 H   0  0  0  0  0
   48.4791   50.8742   33.4863 H   0  0  0  0  0
   49.0868   49.3570   35.4300 H   0  0  0  0  0
   47.3673   49.0637   35.5724 H   0  0  0  0  0
   48.7461   51.7543   35.5760 H   0  0  0  0  0
   47.0051   50.9153   37.7499 H   0  0  0  0  0
   48.7628   51.7876   37.6961 H   0  0  0  0  0
   49.6529   49.7077   37.8587 H   0  0  0  0  0
   47.9387   49.0240   38.1532 H   0  0  0  0  0
   48.3421   50.9805   39.9145 H   0  0  0  0  0
   49.8960   49.8798   39.8605 H   0  0  0  0  0
   47.1137   49.1055   40.5929 H   0  0  0  0  0
   48.5662   48.0765   40.5424 H   0  0  0  0  0
   48.4580   49.4070   41.7210 H   0  0  0  0  0
   45.7976   51.3800   36.3019 H   0  0  0  0  0
   46.1400   53.7711   35.5781 H   0  0  0  0  0
   47.3348   53.3920   36.6760 H   0  0  0  0  0
   47.6692   53.3804   35.0436 H   0  0  0  0  0
   45.2553   52.0940   34.0142 H   0  0  0  0  0
   46.9746   52.5188   33.6885 H   0  0  0  0  0
   46.7964   48.4939   29.3476 H   0  0  0  0  0
   46.8044   49.1028   27.3542 H   0  0  0  0  0
   45.3565   48.1523   27.7680 H   0  0  0  0  0
   45.3776   49.1447   26.2895 H   0  0  0  0  0
  1  3  1  0  0  0
  3  2  1  0  0  0
  2  4  4  0  0  0
  2 21  4  0  0  0
  4  5  4  0  0  0
  5  6  1  0  0  0
  5  7  4  0  0  0
  6 10  1  0  0  0
  6 19  1  0  0  0
  7  8  1  0  0  0
  7 20  4  0  0  0
  8  9  1  0  0  0
  9 10  1  0  0  0
 10 11  1  0  0  0
 11 12  1  0  0  0
 12 13  1  0  0  0
 12 17  1  0  0  0
 13 14  1  0  0  0
 14 15  1  0  0  0
 15 16  1  0  0  0
 17 18  1  0  0  0
 17 19  1  0  0  0
 20 21  4  0  0  0
 21 22  1  0  0  0
 22 23  1  0  0  0
  1 24  1  0  0  0
  1 25  1  0  0  0
  1 26  1  0  0  0
  4 27  1  0  0  0
  6 28  1  0  0  0
  8 29  1  0  0  0
  8 30  1  0  0  0
  9 31  1  0  0  0
  9 32  1  0  0  0
 10 33  1  0  0  0
 11 34  1  0  0  0
 11 35  1  0  0  0
 12 36  1  0  0  0
 13 37  1  0  0  0
 13 38  1  0  0  0
 14 39  1  0  0  0
 14 40  1  0  0  0
 15 41  1  0  0  0
 15 42  1  0  0  0
 16 43  1  0  0  0
 16 44  1  0  0  0
 16 45  1  0  0  0
 17 46  1  0  0  0
 18 47  1  0  0  0
 18 48  1  0  0  0
 18 49  1  0  0  0
 19 50  1  0  0  0
 19 51  1  0  0  0
 20 52  1  0  0  0
 23 53  1  0  0  0
 23 54  1  0  0  0
 23 55  1  0  0  0
M  END
$$$$
