### 
### Created by X-TOOL on Mon Sep 10 21:13:04 2018
### 

@<TRIPOS>MOLECULE
3oc0_ligand
   54    56     1     0     0
SMALL
GAST_HUCK


@<TRIPOS>ATOM
      1 CA         43.5800   53.1650   30.4560 C.3       1 B2Q         0.0553
      2 CB         45.0080   51.2800   30.1750 C.ar      1 B2Q         0.1060
      3 OB         44.1650   52.1960   29.5900 O.3       1 B2Q        -0.3310
      4 CC         45.3260   51.3610   31.5310 C.ar      1 B2Q        -0.0477
      5 CD         46.1730   50.4070   32.0970 C.ar      1 B2Q        -0.0773
      6 CE         46.5230   50.4300   33.5580 C.3       1 B2Q        -0.0689
      7 CF         46.6940   49.3770   31.3150 C.ar      1 B2Q        -0.0638
      8 CG         47.5570   48.3440   31.9770 C.3       1 B2Q        -0.0476
      9 CH         48.5530   49.0070   32.9380 C.3       1 B2Q        -0.1029
     10 NJ         47.9400   50.0640   33.7920 N.4       1 B2Q         0.4099
     11 CK         48.1060   49.7880   35.2290 C.3       1 B2Q        -0.1022
     12 CL         47.9370   51.1360   35.9650 C.3       1 B2Q        -0.0162
     13 CM         48.0550   50.9910   37.4670 C.3       1 B2Q        -0.0470
     14 CN         48.6480   49.8450   38.2580 C.3       1 B2Q        -0.0529
     15 CO         48.8260   50.0250   39.7120 C.3       1 B2Q        -0.0559
     16 CP         48.1970   49.0880   40.7120 C.3       1 B2Q        -0.0653
     17 CR         46.5840   51.8120   35.6830 C.3       1 B2Q        -0.0235
     18 NS         46.9590   53.1880   35.7500 N.4       1 B2Q         0.2209
     19 CT         46.2970   51.8130   34.1690 C.3       1 B2Q        -0.0180
     20 CU         46.3830   49.2960   29.9590 C.ar      1 B2Q        -0.0461
     21 CV         45.5380   50.2500   29.3900 C.ar      1 B2Q         0.1060
     22 OW         45.1990   50.1870   28.0590 O.3       1 B2Q        -0.3310
     23 CZ         45.7150   49.0810   27.3240 C.3       1 B2Q         0.0553
     24 H          42.9881   52.6587   31.2185 H         1 B2Q         0.0570
     25 H          44.3684   53.7469   30.9333 H         1 B2Q         0.0570
     26 H          42.9377   53.8278   29.8762 H         1 B2Q         0.0570
     27 H          44.9159   52.1636   32.1440 H         1 B2Q         0.0434
     28 H          45.8677   49.6983   34.0305 H         1 B2Q         0.0183
     29 H          48.1124   47.8039   31.2102 H         1 B2Q         0.0370
     30 H          46.9213   47.6625   32.5423 H         1 B2Q         0.0370
     31 H          49.3261   49.4812   32.3334 H         1 B2Q         0.0038
     32 H          48.9356   48.2308   33.6008 H         1 B2Q         0.0038
     33 H          49.0868   49.3570   35.4300 H         1 B2Q         0.0024
     34 H          47.3673   49.0637   35.5724 H         1 B2Q         0.0024
     35 H          48.7461   51.7543   35.5760 H         1 B2Q         0.0335
     36 H          47.0051   50.9153   37.7499 H         1 B2Q         0.0269
     37 H          48.7628   51.7876   37.6961 H         1 B2Q         0.0269
     38 H          49.6529   49.7077   37.8587 H         1 B2Q         0.0265
     39 H          47.9387   49.0240   38.1532 H         1 B2Q         0.0265
     40 H          48.3421   50.9805   39.9145 H         1 B2Q         0.0263
     41 H          49.8960   49.8798   39.8605 H         1 B2Q         0.0263
     42 H          47.1137   49.1055   40.5929 H         1 B2Q         0.0230
     43 H          48.5662   48.0765   40.5424 H         1 B2Q         0.0230
     44 H          48.4580   49.4070   41.7210 H         1 B2Q         0.0230
     45 H          45.7976   51.3800   36.3019 H         1 B2Q         0.0853
     46 H          46.1400   53.7711   35.5781 H         1 B2Q         0.1997
     47 H          47.3348   53.3920   36.6760 H         1 B2Q         0.1997
     48 H          47.6692   53.3804   35.0436 H         1 B2Q         0.1997
     49 H          45.2553   52.0940   34.0142 H         1 B2Q         0.0321
     50 H          46.9746   52.5188   33.6885 H         1 B2Q         0.0321
     51 H          46.7964   48.4939   29.3476 H         1 B2Q         0.0434
     52 H          46.8044   49.1028   27.3542 H         1 B2Q         0.0570
     53 H          45.3565   48.1523   27.7680 H         1 B2Q         0.0570
     54 H          45.3776   49.1447   26.2895 H         1 B2Q         0.0570
@<TRIPOS>BOND
     1    1    3 1  
     2    3    2 1  
     3    2    4 ar 
     4    2   21 ar 
     5    4    5 ar 
     6    5    6 1  
     7    5    7 ar 
     8    6   10 1  
     9    6   19 1  
    10    7    8 1  
    11    7   20 ar 
    12    8    9 1  
    13    9   10 1  
    14   10   11 1  
    15   11   12 1  
    16   12   13 1  
    17   12   17 1  
    18   13   14 1  
    19   14   15 1  
    20   15   16 1  
    21   17   18 1  
    22   17   19 1  
    23   20   21 ar 
    24   21   22 1  
    25   22   23 1  
    26    1   24 1  
    27    1   25 1  
    28    1   26 1  
    29    4   27 1  
    30    6   28 1  
    31    8   29 1  
    32    8   30 1  
    33    9   31 1  
    34    9   32 1  
    35   11   33 1  
    36   11   34 1  
    37   12   35 1  
    38   13   36 1  
    39   13   37 1  
    40   14   38 1  
    41   14   39 1  
    42   15   40 1  
    43   15   41 1  
    44   16   42 1  
    45   16   43 1  
    46   16   44 1  
    47   17   45 1  
    48   18   46 1  
    49   18   47 1  
    50   18   48 1  
    51   19   49 1  
    52   19   50 1  
    53   20   51 1  
    54   23   52 1  
    55   23   53 1  
    56   23   54 1  
@<TRIPOS>SUBSTRUCTURE
     1 B2Q         1

