2aa6_ligand
  -I-interpret- 

 53 56  0  0  0  0  0  0  0  0999 V2000
   17.5650   50.4360   18.3850 C   0  0  0  0  0
   16.5600   50.3360   19.5960 C   0  0  0  0  0
   15.5210   49.2270   19.3690 C   0  0  0  0  0
   14.4240   49.3330   19.9230 O   0  0  0  0  0
   15.8220   48.0460   18.5310 C   0  0  0  0  0
   16.9710   47.9160   17.8890 C   0  0  0  0  0
   17.2490   46.6230   17.0850 C   0  0  0  0  0
   17.9090   46.9360   15.7290 C   0  0  0  0  0
   19.1520   47.9250   15.8060 C   0  0  0  0  0
   18.6580   49.2660   16.4440 C   0  0  0  0  0
   18.1160   49.0410   17.8990 C   0  0  0  0  0
   19.8190   50.3550   16.4740 C   0  0  0  0  0
   20.3530   50.5540   15.0120 C   0  0  0  0  0
   20.9100   49.2090   14.4040 C   0  0  0  0  0
   19.6960   48.2120   14.3940 C   0  0  0  0  0
   20.2260   47.0120   13.5640 C   0  0  0  0  0
   21.0600   47.7320   12.4050 C   0  0  0  0  0
   21.2040   49.2340   12.8600 C   0  0  0  0  0
   22.1590   48.6790   15.2260 C   0  0  0  0  0
   19.2400   48.5020   18.9180 C   0  0  0  0  0
   22.5740   49.8490   12.5190 C   0  0  0  0  0
   23.4690   49.1410   12.1170 O   0  0  0  0  0
   22.7740   51.3250   12.6770 C   0  0  0  0  0
   18.4194   51.0245   18.7192 H   0  0  0  0  0
   17.0244   50.8810   17.5497 H   0  0  0  0  0
   16.0367   51.2873   19.6922 H   0  0  0  0  0
   17.1256   50.1022   20.4980 H   0  0  0  0  0
   15.0739   47.2586   18.4397 H   0  0  0  0  0
   16.3002   46.1193   16.9003 H   0  0  0  0  0
   17.9265   45.9946   17.6631 H   0  0  0  0  0
   17.1531   47.4244   15.1140 H   0  0  0  0  0
   18.2800   45.9912   15.3316 H   0  0  0  0  0
   19.9465   47.4751   16.4014 H   0  0  0  0  0
   17.8450   49.6336   15.8179 H   0  0  0  0  0
   20.6277   50.0189   17.1229 H   0  0  0  0  0
   19.4342   51.2985   16.8612 H   0  0  0  0  0
   21.1656   51.2800   15.0397 H   0  0  0  0  0
   19.5265   50.8955   14.3888 H   0  0  0  0  0
   18.7885   48.5992   13.9307 H   0  0  0  0  0
   19.4299   46.3727   13.1824 H   0  0  0  0  0
   20.8258   46.3180   14.1528 H   0  0  0  0  0
   20.5553   47.6532   11.4421 H   0  0  0  0  0
   22.0335   47.2627   12.2632 H   0  0  0  0  0
   20.5097   49.8810   12.3238 H   0  0  0  0  0
   22.9522   49.4262   15.2013 H   0  0  0  0  0
   21.8618   48.4967   16.2587 H   0  0  0  0  0
   22.5182   47.7512   14.7807 H   0  0  0  0  0
   19.6269   47.5484   18.5589 H   0  0  0  0  0
   20.0525   49.2262   18.9769 H   0  0  0  0  0
   18.7989   48.3678   19.9057 H   0  0  0  0  0
   23.5819   51.5071   13.3857 H   0  0  0  0  0
   23.0308   51.7610   11.7115 H   0  0  0  0  0
   21.8544   51.7773   13.0483 H   0  0  0  0  0
  1  2  1  0  0  0
  1 11  1  0  0  0
  2  3  1  0  0  0
  3  4  2  0  0  0
  3  5  1  0  0  0
  5  6  2  0  0  0
  6  7  1  0  0  0
  6 11  1  0  0  0
  7  8  1  0  0  0
  8  9  1  0  0  0
  9 10  1  0  0  0
  9 15  1  0  0  0
 10 11  1  0  0  0
 10 12  1  0  0  0
 11 20  1  0  0  0
 12 13  1  0  0  0
 13 14  1  0  0  0
 14 15  1  0  0  0
 14 18  1  0  0  0
 14 19  1  0  0  0
 15 16  1  0  0  0
 16 17  1  0  0  0
 17 18  1  0  0  0
 18 21  1  0  0  0
 21 22  2  0  0  0
 21 23  1  0  0  0
  1 24  1  0  0  0
  1 25  1  0  0  0
  2 26  1  0  0  0
  2 27  1  0  0  0
  5 28  1  0  0  0
  7 29  1  0  0  0
  7 30  1  0  0  0
  8 31  1  0  0  0
  8 32  1  0  0  0
  9 33  1  0  0  0
 10 34  1  0  0  0
 12 35  1  0  0  0
 12 36  1  0  0  0
 13 37  1  0  0  0
 13 38  1  0  0  0
 15 39  1  0  0  0
 16 40  1  0  0  0
 16 41  1  0  0  0
 17 42  1  0  0  0
 17 43  1  0  0  0
 18 44  1  0  0  0
 19 45  1  0  0  0
 19 46  1  0  0  0
 19 47  1  0  0  0
 20 48  1  0  0  0
 20 49  1  0  0  0
 20 50  1  0  0  0
 23 51  1  0  0  0
 23 52  1  0  0  0
 23 53  1  0  0  0
M  END
$$$$
