2oqs_ligand
  -I-interpret- 

113112  0  0  0  0  0  0  0  0999 V2000
    3.3380  -12.2460   11.9640 N   0  3  0  0  0
    2.8790  -10.9200   11.4610 C   0  0  0  0  0
    3.9270   -9.8360   11.7180 C   0  0  0  0  0
    4.5190   -9.7790   12.7980 O   0  0  0  0  0
    1.5640  -10.5510   12.1600 C   0  0  0  0  0
    0.4120  -11.4950   11.8450 C   0  0  0  0  0
   -0.6420  -11.4710   12.9420 C   0  0  0  0  0
   -0.2020  -12.1760   14.1480 N   0  0  0  0  0
   -0.7160  -11.9720   15.3640 C   0  0  0  0  0
   -1.6960  -11.0890   15.5450 N   0  0  0  0  0
   -0.2500  -12.6580   16.4030 N   0  0  0  0  0
    4.1470   -8.9770   10.7210 N   0  0  0  0  0
    5.1200   -7.8920   10.8390 C   0  0  0  0  0
    4.6140   -6.6260   10.1530 C   0  0  0  0  0
    4.1980   -6.6590    8.9930 O   0  0  0  0  0
    6.4670   -8.3050   10.2380 C   0  0  0  0  0
    7.5840   -7.2990   10.5040 C   0  0  0  0  0
    8.9650   -7.9380   10.4230 C   0  0  0  0  0
    9.2560   -8.4660    9.0910 N   0  0  0  0  0
    9.7450   -7.7360    8.0830 C   0  0  0  0  0
    9.9640   -6.4320    8.2350 N   0  0  0  0  0
   10.0140   -8.3160    6.9180 N   0  0  0  0  0
    4.6580   -5.5110   10.8810 N   0  0  0  0  0
    4.2110   -4.2250   10.3550 C   0  0  0  0  0
    5.3200   -3.1830   10.4890 C   0  0  0  0  0
    5.6610   -2.7660   11.5980 O   0  0  0  0  0
    2.9490   -3.7580   11.0900 C   0  0  0  0  0
    1.8900   -4.8450   11.2350 C   0  0  0  0  0
    0.8280   -4.5010   12.2650 C   0  0  0  0  0
    1.1660   -4.4230   13.4650 O   0  0  0  0  0
   -0.3420   -4.3170   11.8710 O   0  0  0  0  0
    5.8900   -2.7810    9.3530 N   0  0  0  0  0
    6.9720   -1.8010    9.3400 C   0  0  0  0  0
    6.5320   -0.5000    8.6720 C   0  0  0  0  0
    5.7610   -0.5160    7.7090 O   0  0  0  0  0
    8.2000   -2.3930    8.6280 C   0  0  0  0  0
    9.2090   -2.7270    9.5640 O   0  0  0  0  0
    8.8260   -1.4780    7.5940 C   0  0  0  0  0
    7.0410    0.6230    9.1800 N   0  0  0  0  0
    6.7140    1.9330    8.6230 C   0  0  0  0  0
    7.5440    2.2040    7.3730 C   0  0  0  0  0
    8.6500    1.6810    7.2240 O   0  0  0  0  0
    6.9470    3.0420    9.6510 C   0  0  0  0  0
    5.6890    3.4480   10.4040 C   0  0  0  0  0
    5.9750    4.4020   11.5500 C   0  0  0  0  0
    6.5280    5.4830   11.3490 O   0  0  0  0  0
    5.5970    4.0070   12.7610 N   0  0  0  0  0
    7.0010    3.0190    6.4730 N   0  0  0  0  0
    7.6840    3.3550    5.2280 C   0  0  0  0  0
    7.5040    4.8310    4.8660 C   0  0  0  0  0
    8.4010    5.3860    4.1960 O   0  0  0  0  0
    7.1810    2.4750    4.0630 C   0  0  0  0  0
    7.6480    1.0370    4.2450 C   0  0  0  0  0
    5.6620    2.5370    3.9580 C   0  0  0  0  0
    6.4720    5.4200    5.2550 O   0  0  0  0  0
    4.2125  -12.4988   11.5038 H   0  0  0  0  0
    3.4857  -12.1934   12.9719 H   0  0  0  0  0
    2.6288  -12.9500   11.7593 H   0  0  0  0  0
    2.7265  -10.9869   10.3838 H   0  0  0  0  0
    1.2767   -9.5602   11.8080 H   0  0  0  0  0
    1.7419  -10.6037   13.2341 H   0  0  0  0  0
    0.8065  -12.5081   11.7664 H   0  0  0  0  0
   -0.0522  -11.1750   10.9122 H   0  0  0  0  0
   -1.5351  -11.9692   12.5649 H   0  0  0  0  0
   -0.8314  -10.4309   13.2074 H   0  0  0  0  0
    0.5434  -12.8658   14.0535 H   0  0  0  0  0
   -2.0846  -10.9422   16.4766 H   0  0  0  0  0
   -2.0581  -10.5593   14.7521 H   0  0  0  0  0
    0.4984  -13.3383   16.2707 H   0  0  0  0  0
    3.6220   -9.0801    9.8526 H   0  0  0  0  0
    5.2553   -7.6824   11.9001 H   0  0  0  0  0
    6.3374   -8.3739    9.1579 H   0  0  0  0  0
    6.7576   -9.2483   10.7005 H   0  0  0  0  0
    7.4517   -6.9036   11.5111 H   0  0  0  0  0
    7.5260   -6.5191    9.7448 H   0  0  0  0  0
    8.9952   -8.7677   11.1292 H   0  0  0  0  0
    9.7057   -7.1718   10.6518 H   0  0  0  0  0
    9.0743   -9.4549    8.9196 H   0  0  0  0  0
   10.3363   -5.8836    7.4597 H   0  0  0  0  0
    9.7595   -5.9811    9.1268 H   0  0  0  0  0
    9.8474   -9.3148    6.7950 H   0  0  0  0  0
    5.0151   -5.5575   11.8353 H   0  0  0  0  0
    3.9727   -4.3453    9.2982 H   0  0  0  0  0
    2.5100   -2.9499   10.5048 H   0  0  0  0  0
    3.2480   -3.4569   12.0940 H   0  0  0  0  0
    2.3904   -5.7558   11.5638 H   0  0  0  0  0
    1.3946   -4.9582   10.2707 H   0  0  0  0  0
    2.1063   -4.5996   13.5436 H   0  0  0  0  0
    5.5612   -3.1687    8.4687 H   0  0  0  0  0
    7.2387   -1.5649   10.3701 H   0  0  0  0  0
    7.8176   -3.2733    8.1113 H   0  0  0  0  0
    9.9652   -3.0941    9.1003 H   0  0  0  0  0
    8.0912   -1.2470    6.8227 H   0  0  0  0  0
    9.1510   -0.5559    8.0759 H   0  0  0  0  0
    9.6843   -1.9755    7.1425 H   0  0  0  0  0
    7.6745    0.5657    9.9774 H   0  0  0  0  0
    5.6575    1.9265    8.3551 H   0  0  0  0  0
    7.3021    3.9195    9.1106 H   0  0  0  0  0
    7.6592    2.6637   10.3843 H   0  0  0  0  0
    5.2434    2.5456   10.8227 H   0  0  0  0  0
    5.0279    3.9564    9.7021 H   0  0  0  0  0
    5.7624    4.6081   13.5683 H   0  0  0  0  0
    5.1414    3.1026   12.8834 H   0  0  0  0  0
    6.0817    3.4203    6.6582 H   0  0  0  0  0
    8.7450    3.1637    5.3884 H   0  0  0  0  0
    7.6015    2.8601    3.1340 H   0  0  0  0  0
    8.7375    1.0101    4.2667 H   0  0  0  0  0
    7.2549    0.6446    5.1829 H   0  0  0  0  0
    7.2847    0.4306    3.4153 H   0  0  0  0  0
    5.2199    2.1784    4.8875 H   0  0  0  0  0
    5.3531    3.5672    3.7810 H   0  0  0  0  0
    5.3304    1.9096    3.1307 H   0  0  0  0  0
    5.9228    4.8077    5.7500 H   0  0  0  0  0
  1  2  1  0  0  0
  2  3  1  0  0  0
  2  5  1  0  0  0
  3  4  2  0  0  0
  3 12  1  0  0  0
  5  6  1  0  0  0
  6  7  1  0  0  0
  7  8  1  0  0  0
  8  9  1  0  0  0
  9 10  1  0  0  0
  9 11  2  0  0  0
 12 13  1  0  0  0
 13 14  1  0  0  0
 13 16  1  0  0  0
 14 15  2  0  0  0
 14 23  1  0  0  0
 16 17  1  0  0  0
 17 18  1  0  0  0
 18 19  1  0  0  0
 19 20  1  0  0  0
 20 21  1  0  0  0
 20 22  2  0  0  0
 23 24  1  0  0  0
 24 25  1  0  0  0
 24 27  1  0  0  0
 25 26  2  0  0  0
 25 32  1  0  0  0
 27 28  1  0  0  0
 28 29  1  0  0  0
 29 30  1  0  0  0
 29 31  2  0  0  0
 32 33  1  0  0  0
 33 34  1  0  0  0
 33 36  1  0  0  0
 34 35  2  0  0  0
 34 39  1  0  0  0
 36 37  1  0  0  0
 36 38  1  0  0  0
 39 40  1  0  0  0
 40 41  1  0  0  0
 40 43  1  0  0  0
 41 42  2  0  0  0
 41 48  1  0  0  0
 43 44  1  0  0  0
 44 45  1  0  0  0
 45 46  2  0  0  0
 45 47  1  0  0  0
 48 49  1  0  0  0
 49 50  1  0  0  0
 49 52  1  0  0  0
 50 51  2  0  0  0
 50 55  1  0  0  0
 52 53  1  0  0  0
 52 54  1  0  0  0
  1 56  1  0  0  0
  1 57  1  0  0  0
  1 58  1  0  0  0
  2 59  1  0  0  0
  5 60  1  0  0  0
  5 61  1  0  0  0
  6 62  1  0  0  0
  6 63  1  0  0  0
  7 64  1  0  0  0
  7 65  1  0  0  0
  8 66  1  0  0  0
 10 67  1  0  0  0
 10 68  1  0  0  0
 11 69  1  0  0  0
 12 70  1  0  0  0
 13 71  1  0  0  0
 16 72  1  0  0  0
 16 73  1  0  0  0
 17 74  1  0  0  0
 17 75  1  0  0  0
 18 76  1  0  0  0
 18 77  1  0  0  0
 19 78  1  0  0  0
 21 79  1  0  0  0
 21 80  1  0  0  0
 22 81  1  0  0  0
 23 82  1  0  0  0
 24 83  1  0  0  0
 27 84  1  0  0  0
 27 85  1  0  0  0
 28 86  1  0  0  0
 28 87  1  0  0  0
 30 88  1  0  0  0
 32 89  1  0  0  0
 33 90  1  0  0  0
 36 91  1  0  0  0
 37 92  1  0  0  0
 38 93  1  0  0  0
 38 94  1  0  0  0
 38 95  1  0  0  0
 39 96  1  0  0  0
 40 97  1  0  0  0
 43 98  1  0  0  0
 43 99  1  0  0  0
 44100  1  0  0  0
 44101  1  0  0  0
 47102  1  0  0  0
 47103  1  0  0  0
 48104  1  0  0  0
 49105  1  0  0  0
 52106  1  0  0  0
 53107  1  0  0  0
 53108  1  0  0  0
 53109  1  0  0  0
 54110  1  0  0  0
 54111  1  0  0  0
 54112  1  0  0  0
 55113  1  0  0  0
M  END
$$$$
