### 
### Created by X-TOOL on Mon Sep 10 21:12:57 2018
### 

@<TRIPOS>MOLECULE
2oqs_ligand
  113   112     1     0     0
SMALL
GAST_HUCK


@<TRIPOS>ATOM
      1 N           3.3380  -12.2460   11.9640 N.4       1 ARG         0.2379
      2 CA          2.8790  -10.9200   11.4610 C.3       1 ARG         0.0651
      3 C           3.9270   -9.8360   11.7180 C.2       1 ARG         0.2267
      4 O           4.5190   -9.7790   12.7980 O.2       1 ARG        -0.3907
      5 CB          1.5640  -10.5510   12.1600 C.3       1 ARG         0.0110
      6 CG          0.4120  -11.4950   11.8450 C.3       1 ARG        -0.0125
      7 CD         -0.6420  -11.4710   12.9420 C.3       1 ARG         0.0629
      8 NE         -0.2020  -12.1760   14.1480 N.pl3     1 ARG        -0.2723
      9 CZ         -0.7160  -11.9720   15.3640 C.cat     1 ARG         0.2882
     10 NH1        -1.6960  -11.0890   15.5450 N.pl3     1 ARG        -0.2849
     11 NH2        -0.2500  -12.6580   16.4030 N.pl3     1 ARG        -0.2849
     12 N           4.1470   -8.9770   10.7210 N.am      1 ARG        -0.2610
     13 CA          5.1200   -7.8920   10.8390 C.3       1 ARG         0.1312
     14 C           4.6140   -6.6260   10.1530 C.2       1 ARG         0.2039
     15 O           4.1980   -6.6590    8.9930 O.2       1 ARG        -0.3944
     16 CB          6.4670   -8.3050   10.2380 C.3       1 ARG        -0.0092
     17 CG          7.5840   -7.2990   10.5040 C.3       1 ARG        -0.0156
     18 CD          8.9650   -7.9380   10.4230 C.3       1 ARG         0.0627
     19 NE          9.2560   -8.4660    9.0910 N.pl3     1 ARG        -0.2723
     20 CZ          9.7450   -7.7360    8.0830 C.cat     1 ARG         0.2882
     21 NH1         9.9640   -6.4320    8.2350 N.pl3     1 ARG        -0.2849
     22 NH2        10.0140   -8.3160    6.9180 N.pl3     1 ARG        -0.2849
     23 N           4.6580   -5.5110   10.8810 N.am      1 GLU        -0.2636
     24 CA          4.2110   -4.2250   10.3550 C.3       1 GLU         0.1325
     25 C           5.3200   -3.1830   10.4890 C.2       1 GLU         0.2041
     26 O           5.6610   -2.7660   11.5980 O.2       1 GLU        -0.3944
     27 CB          2.9490   -3.7580   11.0900 C.3       1 GLU        -0.0008
     28 CG          1.8900   -4.8450   11.2350 C.3       1 GLU         0.0044
     29 CD          0.8280   -4.5010   12.2650 C.2       1 GLU         0.0350
     30 OE1         1.1660   -4.4230   13.4650 O.co2     1 GLU        -0.5690
     31 OE2        -0.3420   -4.3170   11.8710 O.co2     1 GLU        -0.5690
     32 N           5.8900   -2.7810    9.3530 N.am      1 THR        -0.2613
     33 CA          6.9720   -1.8010    9.3400 C.3       1 THR         0.1565
     34 C           6.5320   -0.5000    8.6720 C.2       1 THR         0.2065
     35 O           5.7610   -0.5160    7.7090 O.2       1 THR        -0.3943
     36 CB          8.2000   -2.3930    8.6280 C.3       1 THR         0.0924
     37 OG1         9.2090   -2.7270    9.5640 O.3       1 THR        -0.3874
     38 CG2         8.8260   -1.4780    7.5940 C.3       1 THR        -0.0346
     39 N           7.0410    0.6230    9.1800 N.am      1 GLN        -0.2635
     40 CA          6.7140    1.9330    8.6230 C.3       1 GLN         0.1330
     41 C           7.5440    2.2040    7.3730 C.2       1 GLN         0.2035
     42 O           8.6500    1.6810    7.2240 O.2       1 GLN        -0.3944
     43 CB          6.9470    3.0420    9.6510 C.3       1 GLN         0.0045
     44 CG          5.6890    3.4480   10.4040 C.3       1 GLN         0.0412
     45 CD          5.9750    4.4020   11.5500 C.2       1 GLN         0.1737
     46 OE1         6.5280    5.4830   11.3490 O.2       1 GLN        -0.3973
     47 NE2         5.5970    4.0070   12.7610 N.am      1 GLN        -0.3009
     48 N           7.0010    3.0190    6.4730 N.am      1 VAL        -0.2692
     49 CA          7.6840    3.3550    5.2280 C.3       1 VAL         0.0967
     50 C           7.5040    4.8310    4.8660 C.2       1 VAL         0.0603
     51 O           8.4010    5.3860    4.1960 O.co2     1 VAL        -0.5666
     52 CB          7.1810    2.4750    4.0630 C.3       1 VAL        -0.0118
     53 CG1         7.6480    1.0370    4.2450 C.3       1 VAL        -0.0590
     54 CG2         5.6620    2.5370    3.9580 C.3       1 VAL        -0.0590
     55 OXT         6.4720    5.4200    5.2550 O.co2     1 VAL        -0.5666
     56 H1          2.6288  -12.9385   11.7812 H         1 ARG         0.2015
     57 H2          3.5045  -12.1896   12.9565 H         1 ARG         0.2015
     58 H3          4.1910  -12.5066   11.4944 H         1 ARG         0.2015
     59 H4          2.7041  -10.9914   10.3774 H         1 ARG         0.1098
     60 H5          1.2769   -9.5370   11.8448 H         1 ARG         0.0347
     61 H6          1.7342  -10.5628   13.2467 H         1 ARG         0.0347
     62 H7          0.8041  -12.5181   11.7480 H         1 ARG         0.0302
     63 H8         -0.0523  -11.1887   10.8960 H         1 ARG         0.0302
     64 H9         -1.5568  -11.9515   12.5648 H         1 ARG         0.0689
     65 H10        -0.8582  -10.4244   13.2026 H         1 ARG         0.0689
     66 H11         0.5507  -12.8726   14.0526 H         1 ARG         0.2642
     67 H12        -2.0861  -10.9384   16.4863 H         1 ARG         0.2615
     68 H13        -2.0640  -10.5566   14.7437 H         1 ARG         0.2615
     69 H14         0.5080  -13.3426   16.2700 H         1 ARG         0.2615
     70 H15        -0.6469  -12.5049   17.3410 H         1 ARG         0.2615
     71 H16         3.6322   -9.0780    9.8696 H         1 ARG         0.1884
     72 H17         5.2662   -7.6744   11.9073 H         1 ARG         0.0800
     73 H18         6.3454   -8.4112    9.1499 H         1 ARG         0.0313
     74 H19         6.7596   -9.2731   10.6705 H         1 ARG         0.0313
     75 H20         7.4478   -6.8761   11.5103 H         1 ARG         0.0301
     76 H21         7.5216   -6.4944    9.7566 H         1 ARG         0.0301
     77 H22         9.0161   -8.7627   11.1491 H         1 ARG         0.0689
     78 H23         9.7208   -7.1797   10.6755 H         1 ARG         0.0689
     79 H24         9.0725   -9.4646    8.9179 H         1 ARG         0.2642
     80 H25        10.3409   -5.8784    7.4524 H         1 ARG         0.2615
     81 H26         9.7566   -5.9764    9.1352 H         1 ARG         0.2615
     82 H27         9.8467   -9.3247    6.7941 H         1 ARG         0.2615
     83 H28        10.3898   -7.7568    6.1389 H         1 ARG         0.2615
     84 H29         5.0081   -5.5566   11.8166 H         1 GLU         0.1883
     85 H30         3.9708   -4.3465    9.2885 H         1 GLU         0.0801
     86 H31         2.5111   -2.9184   10.5303 H         1 GLU         0.0330
     87 H32         3.2379   -3.4176   12.0953 H         1 GLU         0.0330
     88 H33         2.3849   -5.7790   11.5395 H         1 GLU         0.0433
     89 H34         1.4002   -4.9902   10.2608 H         1 GLU         0.0433
     90 H35         5.5676   -3.1611    8.4860 H         1 THR         0.1884
     91 H36         7.2481   -1.5756   10.3806 H         1 THR         0.0826
     92 H37         7.8731   -3.3107    8.1171 H         1 THR         0.0639
     93 H38         9.9574   -3.0903    9.1051 H         1 THR         0.2101
     94 H39         9.6924   -1.9790    7.1376 H         1 THR         0.0257
     95 H40         9.1545   -0.5470    8.0791 H         1 THR         0.0257
     96 H41         8.0854   -1.2441    6.8150 H         1 THR         0.0257
     97 H42         7.6620    0.5668    9.9618 H         1 GLN         0.1883
     98 H43         5.6499    1.9345    8.3442 H         1 GLN         0.0801
     99 H44         7.3388    3.9259    9.1264 H         1 GLN         0.0337
    100 H45         7.6906    2.6892   10.3808 H         1 GLN         0.0337
    101 H46         5.2140    2.5427   10.8099 H         1 GLN         0.0504
    102 H47         5.0007    3.9393    9.7005 H         1 GLN         0.0504
    103 H48         5.7605    4.5957   13.5526 H         1 GLN         0.1814
    104 H49         5.1490    3.1210   12.8808 H         1 GLN         0.1814
    105 H50         6.0997    3.4124    6.6545 H         1 VAL         0.1875
    106 H51         8.7580    3.1632    5.3685 H         1 VAL         0.0729
    107 H52         7.6082    2.8625    3.1264 H         1 VAL         0.0336
    108 H53         7.2820    0.4240    3.4082 H         1 VAL         0.0234
    109 H54         7.2519    0.6398    5.1912 H         1 VAL         0.0234
    110 H55         8.7474    1.0085    4.2670 H         1 VAL         0.0234
    111 H56         5.3459    3.5825    3.8272 H         1 VAL         0.0234
    112 H57         5.2140    2.1308    4.8768 H         1 VAL         0.0234
    113 H58         5.3296    1.9427    3.0942 H         1 VAL         0.0234
@<TRIPOS>BOND
     1    1    2 1  
     2    2    3 1  
     3    2    5 1  
     4    3    4 2  
     5    3   12 am 
     6    5    6 1  
     7    6    7 1  
     8    7    8 1  
     9    8    9 ar 
    10    9   10 ar 
    11    9   11 ar 
    12   12   13 1  
    13   13   14 1  
    14   13   16 1  
    15   14   15 2  
    16   14   23 am 
    17   16   17 1  
    18   17   18 1  
    19   18   19 1  
    20   19   20 ar 
    21   20   21 ar 
    22   20   22 ar 
    23   23   24 1  
    24   24   25 1  
    25   24   27 1  
    26   25   26 2  
    27   25   32 am 
    28   27   28 1  
    29   28   29 1  
    30   29   30 ar 
    31   29   31 ar 
    32   32   33 1  
    33   33   34 1  
    34   33   36 1  
    35   34   35 2  
    36   34   39 am 
    37   36   37 1  
    38   36   38 1  
    39   39   40 1  
    40   40   41 1  
    41   40   43 1  
    42   41   42 2  
    43   41   48 am 
    44   43   44 1  
    45   44   45 1  
    46   45   46 2  
    47   45   47 am 
    48   48   49 1  
    49   49   50 1  
    50   49   52 1  
    51   50   51 ar 
    52   50   55 ar 
    53   52   53 1  
    54   52   54 1  
    55    1   56 1  
    56    1   57 1  
    57    1   58 1  
    58    2   59 1  
    59    5   60 1  
    60    5   61 1  
    61    6   62 1  
    62    6   63 1  
    63    7   64 1  
    64    7   65 1  
    65    8   66 1  
    66   10   67 1  
    67   10   68 1  
    68   11   69 1  
    69   11   70 1  
    70   12   71 1  
    71   13   72 1  
    72   16   73 1  
    73   16   74 1  
    74   17   75 1  
    75   17   76 1  
    76   18   77 1  
    77   18   78 1  
    78   19   79 1  
    79   21   80 1  
    80   21   81 1  
    81   22   82 1  
    82   22   83 1  
    83   23   84 1  
    84   24   85 1  
    85   27   86 1  
    86   27   87 1  
    87   28   88 1  
    88   28   89 1  
    89   32   90 1  
    90   33   91 1  
    91   36   92 1  
    92   37   93 1  
    93   38   94 1  
    94   38   95 1  
    95   38   96 1  
    96   39   97 1  
    97   40   98 1  
    98   43   99 1  
    99   43  100 1  
   100   44  101 1  
   101   44  102 1  
   102   47  103 1  
   103   47  104 1  
   104   48  105 1  
   105   49  106 1  
   106   52  107 1  
   107   53  108 1  
   108   53  109 1  
   109   53  110 1  
   110   54  111 1  
   111   54  112 1  
   112   54  113 1  
@<TRIPOS>SUBSTRUCTURE
     1 ARG         1

