4ikt_ligand
  -I-interpret- 

 44 46  0  0  0  0  0  0  0  0999 V2000
   20.5010   -0.1900   22.3850 F   0  0  0  0  0
   19.8660   -0.7180   21.3620 C   0  0  0  0  0
   18.5810   -0.7450   21.6690 F   0  0  0  0  0
   20.0660    0.0860   20.3270 F   0  0  0  0  0
   20.3630   -2.1120   21.0480 C   0  0  0  0  0
   19.6780   -2.9120   20.1270 C   0  0  0  0  0
   20.1060   -4.1540   19.8220 N   0  0  0  0  0
   21.5240   -2.6230   21.6420 C   0  0  0  0  0
   21.9520   -3.9180   21.3120 C   0  0  0  0  0
   21.2240   -4.6860   20.3910 C   0  0  0  0  0
   21.6590   -5.9400   20.0730 N   0  0  0  0  0
   20.8780   -6.9170   19.3210 C   0  0  0  0  0
   21.1440   -6.8820   17.8120 C   0  0  0  0  0
   20.6410   -5.6440   17.2550 N   0  0  0  0  0
   20.6460   -5.3630   15.9340 C   0  0  0  0  0
   21.2100   -6.2010   15.0310 N   0  0  0  0  0
   20.0510   -4.1810   15.5070 C   0  0  0  0  0
   19.3190   -3.0500   16.6800 Cl  0  0  0  0  0
   20.0300   -3.8360   14.1740 C   0  0  0  0  0
   19.3940   -2.5450   13.7270 C   0  0  0  0  0
   20.6230   -4.6840   13.3000 N   0  0  0  0  0
   21.1670   -5.8540   13.7160 C   0  0  0  0  0
   21.8430   -6.6870   12.7000 C   0  0  0  0  0
   22.1870   -6.0450   11.5560 N   0  0  0  0  0
   22.2070   -8.0110   12.9060 C   0  0  0  0  0
   22.8700   -8.6720   11.8840 C   0  0  0  0  0
   23.2100   -8.0000   10.7210 C   0  0  0  0  0
   22.8410   -6.6610   10.5690 C   0  0  0  0  0
   18.7802   -2.5236   19.6462 H   0  0  0  0  0
   22.0893   -2.0209   22.3533 H   0  0  0  0  0
   22.8513   -4.3277   21.7719 H   0  0  0  0  0
   22.5922   -6.2125   20.3815 H   0  0  0  0  0
   19.8247   -6.6815   19.4734 H   0  0  0  0  0
   21.1588   -7.9071   19.6801 H   0  0  0  0  0
   20.6387   -7.7229   17.3370 H   0  0  0  0  0
   22.2172   -6.9483   17.6332 H   0  0  0  0  0
   20.2622   -4.9460   17.8951 H   0  0  0  0  0
   18.3418   -2.5422   14.0116 H   0  0  0  0  0
   19.9028   -1.7069   14.2032 H   0  0  0  0  0
   19.4790   -2.4555   12.6440 H   0  0  0  0  0
   21.9779   -8.5160   13.8444 H   0  0  0  0  0
   23.1252   -9.7258   11.9957 H   0  0  0  0  0
   23.7606   -8.5115    9.9315 H   0  0  0  0  0
   23.0851   -6.1242    9.6523 H   0  0  0  0  0
  1  2  1  0  0  0
  2  3  1  0  0  0
  2  4  1  0  0  0
  2  5  1  0  0  0
  5  6  4  0  0  0
  5  8  4  0  0  0
  6  7  4  0  0  0
  7 10  4  0  0  0
  8  9  4  0  0  0
  9 10  4  0  0  0
 10 11  1  0  0  0
 11 12  1  0  0  0
 12 13  1  0  0  0
 13 14  1  0  0  0
 14 15  1  0  0  0
 15 16  4  0  0  0
 15 17  4  0  0  0
 16 22  4  0  0  0
 17 18  1  0  0  0
 17 19  4  0  0  0
 19 20  1  0  0  0
 19 21  4  0  0  0
 21 22  4  0  0  0
 22 23  1  0  0  0
 23 24  4  0  0  0
 23 25  4  0  0  0
 24 28  4  0  0  0
 25 26  4  0  0  0
 26 27  4  0  0  0
 27 28  4  0  0  0
  6 29  1  0  0  0
  8 30  1  0  0  0
  9 31  1  0  0  0
 11 32  1  0  0  0
 12 33  1  0  0  0
 12 34  1  0  0  0
 13 35  1  0  0  0
 13 36  1  0  0  0
 14 37  1  0  0  0
 20 38  1  0  0  0
 20 39  1  0  0  0
 20 40  1  0  0  0
 25 41  1  0  0  0
 26 42  1  0  0  0
 27 43  1  0  0  0
 28 44  1  0  0  0
M  END
$$$$
