5wr7_ligand
  -I-interpret- 

 72 76  0  0  0  0  0  0  0  0999 V2000
   -7.0700  -25.4760    7.7260 C   0  0  0  0  0
   -8.1020  -25.5740    8.8740 C   0  0  0  0  0
   -7.8660  -26.8840    9.6710 C   0  0  0  0  0
   -9.5350  -25.5530    8.2820 C   0  0  0  0  0
   -8.6210  -24.1360   10.9030 C   0  0  0  0  0
   -8.2450  -22.9680   11.7580 C   0  0  0  0  0
   -7.3710  -20.7440   12.1620 C   0  0  0  0  0
   -8.2790  -22.2030   15.3530 C   0  0  0  0  0
   -8.4560  -22.3970   16.4870 C   0  0  0  0  0
   -8.6560  -22.6330   17.8760 C   0  0  0  0  0
   -7.4700  -22.4760   18.5880 C   0  0  0  0  0
   -7.4990  -22.7050   19.9420 C   0  0  0  0  0
   -6.5200  -22.6460   20.8220 O   0  0  0  0  0
   -6.9230  -22.9610   22.0360 C   0  0  0  0  0
   -8.6930  -23.0640   20.6100 C   0  0  0  0  0
   -9.8920  -23.1920   19.8880 C   0  0  0  0  0
   -8.0450  -24.4320   26.7810 C   0  0  0  0  0
   -6.6740  -24.1510   26.8090 C   0  0  0  0  0
   -6.4040  -26.7270   29.0480 C   0  0  0  0  0
   -6.0690  -23.6960   25.6420 C   0  0  0  0  0
   -6.7800  -23.5130   24.4600 C   0  0  0  0  0
   -6.0310  -23.0260   23.2440 C   0  0  0  0  0
   -4.9490  -24.0570   22.8860 C   0  0  0  0  0
   -7.8700  -24.4260    9.7990 N   0  0  0  0  0
   -9.5770  -24.8320   11.2210 O   0  0  0  0  0
   -8.4070  -23.0560   13.1420 C   0  0  0  0  0
   -8.0660  -21.9780   13.9690 C   0  0  0  0  0
   -7.5470  -20.8650   13.4680 N   0  0  0  0  0
   -6.8030  -19.4590   11.6340 C   0  0  0  0  0
   -7.7010  -21.7630   11.2720 C   0  0  0  0  0
   -8.2780  -23.2080   22.0000 C   0  0  0  0  0
   -9.8510  -22.9850   18.5170 C   0  0  0  0  0
   -8.9920  -23.6360   23.2140 C   0  0  0  0  0
  -10.1830  -23.8850   23.1810 O   0  0  0  0  0
   -8.1550  -23.8040   24.4470 C   0  0  0  0  0
   -8.7610  -24.2610   25.6270 C   0  0  0  0  0
   -5.8390  -24.2750   27.9320 N   0  0  0  0  0
   -6.2470  -24.9560   29.3870 S   0  0  0  0  0
   -5.0920  -24.6980   30.1750 O   0  0  0  0  0
   -7.4920  -24.3910   29.7750 O   0  0  0  0  0
   -5.3600  -21.6670   23.4670 C   0  0  0  0  0
   -7.2046  -24.5321    7.1978 H   0  0  0  0  0
   -6.0627  -25.5219    8.1398 H   0  0  0  0  0
   -7.2181  -26.3052    7.0342 H   0  0  0  0  0
   -6.8423  -26.9009   10.0448 H   0  0  0  0  0
   -8.5611  -26.9279   10.5094 H   0  0  0  0  0
   -8.0294  -27.7403    9.0167 H   0  0  0  0  0
  -10.2622  -25.6118    9.0918 H   0  0  0  0  0
   -9.6832  -24.6277    7.7253 H   0  0  0  0  0
   -9.6634  -26.4048    7.6142 H   0  0  0  0  0
   -6.5480  -22.1808   18.0870 H   0  0  0  0  0
  -10.8255  -23.4462   20.3900 H   0  0  0  0  0
   -8.5445  -24.7885   27.6819 H   0  0  0  0  0
   -5.5226  -27.0717   28.5073 H   0  0  0  0  0
   -6.4895  -27.2696   29.9894 H   0  0  0  0  0
   -7.2941  -26.9025   28.4438 H   0  0  0  0  0
   -5.0016  -23.4753   25.6539 H   0  0  0  0  0
   -5.4191  -25.0187   22.6806 H   0  0  0  0  0
   -4.4063  -23.7204   22.0027 H   0  0  0  0  0
   -4.2569  -24.1605   23.7217 H   0  0  0  0  0
   -7.0866  -23.8072    9.5899 H   0  0  0  0  0
   -8.8022  -23.9713   13.5827 H   0  0  0  0  0
   -7.4612  -18.6337   11.9054 H   0  0  0  0  0
   -5.8157  -19.2951   12.0658 H   0  0  0  0  0
   -6.7210  -19.5183   10.5487 H   0  0  0  0  0
   -7.5388  -21.6285   10.2026 H   0  0  0  0  0
  -10.7622  -23.0979   17.9296 H   0  0  0  0  0
   -9.8277  -24.4853   25.6247 H   0  0  0  0  0
   -4.8903  -23.9109   27.8434 H   0  0  0  0  0
   -4.7640  -21.4095   22.5915 H   0  0  0  0  0
   -6.1252  -20.9067   23.6236 H   0  0  0  0  0
   -4.7150  -21.7212   24.3440 H   0  0  0  0  0
  2  1  1  0  0  0
  2  3  1  0  0  0
  2  4  1  0  0  0
 24  2  1  0  0  0
  6  5  1  0  0  0
  5 24  1  0  0  0
  5 25  2  0  0  0
 26  6  4  0  0  0
  6 30  4  0  0  0
 28  7  4  0  0  0
  7 29  1  0  0  0
  7 30  4  0  0  0
  9  8  3  0  0  0
  8 27  1  0  0  0
 10  9  1  0  0  0
 11 10  4  0  0  0
 32 10  4  0  0  0
 12 11  4  0  0  0
 13 12  4  0  0  0
 15 12  4  0  0  0
 14 13  4  0  0  0
 22 14  1  0  0  0
 14 31  4  0  0  0
 15 16  4  0  0  0
 31 15  4  0  0  0
 16 32  4  0  0  0
 18 17  4  0  0  0
 17 36  4  0  0  0
 18 20  4  0  0  0
 37 18  1  0  0  0
 38 19  1  0  0  0
 20 21  4  0  0  0
 21 22  1  0  0  0
 21 35  4  0  0  0
 22 23  1  0  0  0
 22 41  1  0  0  0
 27 26  4  0  0  0
 27 28  4  0  0  0
 33 31  1  0  0  0
 33 34  2  0  0  0
 35 33  1  0  0  0
 36 35  4  0  0  0
 37 38  1  0  0  0
 38 39  2  0  0  0
 38 40  2  0  0  0
  1 42  1  0  0  0
  1 43  1  0  0  0
  1 44  1  0  0  0
  3 45  1  0  0  0
  3 46  1  0  0  0
  3 47  1  0  0  0
  4 48  1  0  0  0
  4 49  1  0  0  0
  4 50  1  0  0  0
 11 51  1  0  0  0
 16 52  1  0  0  0
 17 53  1  0  0  0
 19 54  1  0  0  0
 19 55  1  0  0  0
 19 56  1  0  0  0
 20 57  1  0  0  0
 23 58  1  0  0  0
 23 59  1  0  0  0
 23 60  1  0  0  0
 24 61  1  0  0  0
 26 62  1  0  0  0
 29 63  1  0  0  0
 29 64  1  0  0  0
 29 65  1  0  0  0
 30 66  1  0  0  0
 32 67  1  0  0  0
 36 68  1  0  0  0
 37 69  1  0  0  0
 41 70  1  0  0  0
 41 71  1  0  0  0
 41 72  1  0  0  0
M  END
$$$$
