4wsj_ligand
  -I-interpret- 

 31 31  0  0  0  0  0  0  0  0999 V2000
   26.7490    4.5360   55.6400 C   0  0  0  0  0
   28.1490    5.0390   56.0700 C   0  0  0  0  0
   29.2800    4.5230   55.1420 C   0  0  0  0  0
   28.9090    4.7970   53.7310 O   0  0  0  0  0
   30.5450    5.2530   55.4440 C   0  0  0  0  0
   31.6500    4.5340   54.8000 O   0  0  0  0  0
   30.4440    6.6040   55.0020 C   0  0  0  0  0
   31.6660    7.3500   55.5150 O   0  0  0  0  0
   29.2450    7.3600   55.4210 C   0  0  0  0  0
   28.1400    6.5540   56.2080 C   0  0  0  0  0
   28.2620    6.8240   57.6830 N   0  0  0  0  0
   27.7710    7.9520   58.1460 C   0  0  0  0  0
   27.2830    8.8780   57.4790 O   0  0  0  0  0
   27.9600    8.1110   59.6640 C   0  0  0  0  0
   26.0143    4.8231   56.3923 H   0  0  0  0  0
   26.4828    4.9817   54.6816 H   0  0  0  0  0
   26.7679    3.4504   55.5445 H   0  0  0  0  0
   28.3747    4.6169   57.0493 H   0  0  0  0  0
   29.4189    3.4537   55.3011 H   0  0  0  0  0
   28.0952    4.3337   53.5195 H   0  0  0  0  0
   30.7321    5.2885   56.5172 H   0  0  0  0  0
   31.6779    3.6322   55.1281 H   0  0  0  0  0
   30.3703    6.5411   53.9163 H   0  0  0  0  0
   32.4603    6.8777   55.2551 H   0  0  0  0  0
   28.7696    7.7033   54.5022 H   0  0  0  0  0
   29.5994    8.1309   56.1052 H   0  0  0  0  0
   27.2179    6.9120   55.7501 H   0  0  0  0  0
   28.7120    6.1522   58.3048 H   0  0  0  0  0
   28.6226    8.9540   59.8600 H   0  0  0  0  0
   26.9924    8.2911   60.1324 H   0  0  0  0  0
   28.3985    7.2001   60.0716 H   0  0  0  0  0
  1  2  1  0  0  0
  2  3  1  0  0  0
  2 10  1  0  0  0
  3  4  1  0  0  0
  3  5  1  0  0  0
  5  6  1  0  0  0
  5  7  1  0  0  0
  7  8  1  0  0  0
  7  9  1  0  0  0
  9 10  1  0  0  0
 10 11  1  0  0  0
 11 12  1  0  0  0
 12 13  2  0  0  0
 12 14  1  0  0  0
  1 15  1  0  0  0
  1 16  1  0  0  0
  1 17  1  0  0  0
  2 18  1  0  0  0
  3 19  1  0  0  0
  4 20  1  0  0  0
  5 21  1  0  0  0
  6 22  1  0  0  0
  7 23  1  0  0  0
  8 24  1  0  0  0
  9 25  1  0  0  0
  9 26  1  0  0  0
 10 27  1  0  0  0
 11 28  1  0  0  0
 14 29  1  0  0  0
 14 30  1  0  0  0
 14 31  1  0  0  0
M  END
$$$$
