3ejq_ligand
  -I-interpret- 

 46 48  0  0  0  0  0  0  0  0999 V2000
   26.6200   64.7430    8.3600 O   0  0  0  0  0
   26.9930   65.7670    8.9290 C   0  0  0  0  0
   25.9870   66.6230    9.6770 C   0  0  0  0  0
   24.6300   66.2660    9.6760 C   0  0  0  0  0
   23.6840   67.0410   10.3690 C   0  0  0  0  0
   24.0850   68.1920   11.0510 C   0  0  0  0  0
   23.0870   69.0480   11.8070 C   0  0  0  0  0
   25.4320   68.5470   11.0650 C   0  0  0  0  0
   26.3820   67.7620   10.3840 C   0  0  0  0  0
   28.4510   66.2020    8.8990 C   0  0  0  0  0
   29.4070   65.1710    8.2640 C   0  0  0  0  0
   29.1920   65.0480    6.7480 C   0  0  0  0  0
   29.6850   66.3060    6.0170 C   0  0  0  0  0
   31.1660   66.5640    6.3250 C   0  0  0  0  0
   31.5610   67.8000    5.7420 O   0  0  0  0  0
   31.3950   66.6400    7.8310 C   0  0  0  0  0
   32.8470   66.6870    8.3160 C   0  0  0  0  0
   33.7550   65.8780    7.5320 O   0  0  0  0  0
   30.8600   65.4260    8.4820 N   0  3  0  0  0
   31.3070   65.5850    9.8940 C   0  0  0  0  0
   32.7440   66.1190    9.7330 C   0  0  0  0  0
   33.6730   65.0420    9.9000 O   0  0  0  0  0
   24.3061   65.3786    9.1322 H   0  0  0  0  0
   22.6355   66.7432   10.3742 H   0  0  0  0  0
   22.3294   69.4169   11.1156 H   0  0  0  0  0
   22.6112   68.4490   12.5835 H   0  0  0  0  0
   23.6056   69.8911   12.2634 H   0  0  0  0  0
   25.7523   69.4373   11.6061 H   0  0  0  0  0
   27.4343   68.0450   10.4084 H   0  0  0  0  0
   28.7668   66.3383    9.9333 H   0  0  0  0  0
   28.5041   67.1057    8.2918 H   0  0  0  0  0
   29.1464   64.2496    8.7848 H   0  0  0  0  0
   28.1260   64.9271    6.5551 H   0  0  0  0  0
   29.7556   64.1890    6.3839 H   0  0  0  0  0
   29.1000   67.1620    6.3533 H   0  0  0  0  0
   29.5679   66.1593    4.9433 H   0  0  0  0  0
   31.7534   65.7434    5.9130 H   0  0  0  0  0
   32.4875   67.9617    5.9345 H   0  0  0  0  0
   30.9075   67.5803    8.0885 H   0  0  0  0  0
   33.2540   67.6957    8.2451 H   0  0  0  0  0
   34.6420   65.9552    7.8911 H   0  0  0  0  0
   31.2158   64.5632    8.0704 H   0  0  0  0  0
   31.2584   64.6570   10.4637 H   0  0  0  0  0
   30.6666   66.2518   10.4714 H   0  0  0  0  0
   32.9716   66.8844   10.4750 H   0  0  0  0  0
   33.6001   64.6933   10.7915 H   0  0  0  0  0
  1  2  2  0  0  0
  2  3  1  0  0  0
  2 10  1  0  0  0
  3  4  4  0  0  0
  3  9  4  0  0  0
  4  5  4  0  0  0
  5  6  4  0  0  0
  6  7  1  0  0  0
  6  8  4  0  0  0
  8  9  4  0  0  0
 10 11  1  0  0  0
 11 12  1  0  0  0
 11 19  1  0  0  0
 12 13  1  0  0  0
 13 14  1  0  0  0
 14 15  1  0  0  0
 14 16  1  0  0  0
 16 17  1  0  0  0
 16 19  1  0  0  0
 17 18  1  0  0  0
 17 21  1  0  0  0
 19 20  1  0  0  0
 20 21  1  0  0  0
 21 22  1  0  0  0
  4 23  1  0  0  0
  5 24  1  0  0  0
  7 25  1  0  0  0
  7 26  1  0  0  0
  7 27  1  0  0  0
  8 28  1  0  0  0
  9 29  1  0  0  0
 10 30  1  0  0  0
 10 31  1  0  0  0
 11 32  1  0  0  0
 12 33  1  0  0  0
 12 34  1  0  0  0
 13 35  1  0  0  0
 13 36  1  0  0  0
 14 37  1  0  0  0
 15 38  1  0  0  0
 16 39  1  0  0  0
 17 40  1  0  0  0
 18 41  1  0  0  0
 19 42  1  0  0  0
 20 43  1  0  0  0
 20 44  1  0  0  0
 21 45  1  0  0  0
 22 46  1  0  0  0
M  END
$$$$
