6eil_ligand
  -I-interpret- 

 39 41  0  0  0  0  0  0  0  0999 V2000
    2.1220  -31.8470   -8.0410 C   0  0  0  0  0
    3.0360  -31.0260   -8.7730 O   0  0  0  0  0
    2.4700  -30.6710   -9.9610 C   0  0  0  0  0
    1.1330  -30.9450  -10.2300 C   0  0  0  0  0
    0.5840  -30.5680  -11.4500 C   0  0  0  0  0
    1.3730  -29.9190  -12.3940 C   0  0  0  0  0
    0.8570  -29.5510  -13.5660 N   0  0  0  0  0
    2.7040  -29.6470  -12.1170 C   0  0  0  0  0
    3.2680  -30.0230  -10.9060 C   0  0  0  0  0
    4.6100  -29.7110  -10.7060 C   0  0  0  0  0
    5.1010  -28.6520  -11.3610 N   0  0  0  0  0
    5.4450  -30.4580   -9.8800 C   0  0  0  0  0
    6.7850  -30.0770   -9.7400 N   0  0  0  0  0
    7.2230  -29.0040  -10.4110 C   0  0  0  0  0
    8.4770  -28.5750  -10.3340 N   0  0  0  0  0
    6.3800  -28.2700  -11.2320 C   0  0  0  0  0
    6.9090  -27.1660  -11.9040 C   0  0  0  0  0
    8.0860  -26.8510  -11.7480 O   0  0  0  0  0
    6.1020  -26.4640  -12.8020 C   0  0  0  0  0
    4.7650  -26.1610  -12.5430 C   0  0  0  0  0
    3.9970  -25.4580  -13.4660 C   0  0  0  0  0
    4.5630  -25.0330  -14.6610 C   0  0  0  0  0
    5.9050  -25.3220  -14.9240 N   0  0  0  0  0
    6.6700  -26.0340  -13.9930 C   0  0  0  0  0
    1.2033  -31.2903   -7.8564 H   0  0  0  0  0
    1.8957  -32.7422   -8.6202 H   0  0  0  0  0
    2.5728  -32.1320   -7.0904 H   0  0  0  0  0
    0.5184  -31.4533   -9.4871 H   0  0  0  0  0
   -0.4629  -30.7805  -11.6666 H   0  0  0  0  0
   -0.1222  -29.7448  -13.7755 H   0  0  0  0  0
    1.4412  -29.0754  -14.2537 H   0  0  0  0  0
    3.3144  -29.1320  -12.8588 H   0  0  0  0  0
    5.0605  -31.3287   -9.3488 H   0  0  0  0  0
    9.1494  -29.0678   -9.7463 H   0  0  0  0  0
    8.7680  -27.7526  -10.8626 H   0  0  0  0  0
    4.3150  -26.4800  -11.6029 H   0  0  0  0  0
    2.9507  -25.2407  -13.2511 H   0  0  0  0  0
    3.9667  -24.4796  -15.3864 H   0  0  0  0  0
    7.7169  -26.2518  -14.2044 H   0  0  0  0  0
  1  2  1  0  0  0
  2  3  1  0  0  0
  3  4  4  0  0  0
  3  9  4  0  0  0
  4  5  4  0  0  0
  5  6  4  0  0  0
  6  7  1  0  0  0
  6  8  4  0  0  0
  8  9  4  0  0  0
  9 10  1  0  0  0
 10 11  4  0  0  0
 10 12  4  0  0  0
 11 16  4  0  0  0
 12 13  4  0  0  0
 13 14  4  0  0  0
 14 15  1  0  0  0
 14 16  4  0  0  0
 16 17  1  0  0  0
 17 18  2  0  0  0
 17 19  1  0  0  0
 19 20  4  0  0  0
 19 24  4  0  0  0
 20 21  4  0  0  0
 21 22  4  0  0  0
 22 23  4  0  0  0
 23 24  4  0  0  0
  1 25  1  0  0  0
  1 26  1  0  0  0
  1 27  1  0  0  0
  4 28  1  0  0  0
  5 29  1  0  0  0
  7 30  1  0  0  0
  7 31  1  0  0  0
  8 32  1  0  0  0
 12 33  1  0  0  0
 15 34  1  0  0  0
 15 35  1  0  0  0
 20 36  1  0  0  0
 21 37  1  0  0  0
 22 38  1  0  0  0
 24 39  1  0  0  0
M  END
$$$$
