1ke5_ligand
  -I-interpret- 

 38 40  0  0  0  0  0  0  0  0999 V2000
   -9.5330   52.7730   40.6960 N   0  0  0  0  0
   -9.9690   51.9100   39.7440 C   0  0  0  0  0
   -9.3390   50.5690   39.9840 C   0  0  0  0  0
   -7.5730   49.8180   41.8530 C   0  0  0  0  0
   -6.8050   50.3380   43.0180 C   0  0  0  0  0
   -6.9720   51.7510   43.4380 C   0  0  0  0  0
   -7.8640   52.6690   42.6680 C   0  0  0  0  0
   -8.6350   52.1420   41.5260 C   0  0  0  0  0
   -8.4880   50.7530   41.1260 C   0  0  0  0  0
  -10.7110   52.1550   38.7830 O   0  0  0  0  0
   -9.4920   49.4720   39.2340 C   0  0  0  0  0
  -10.2290   49.4510   37.9610 N   0  0  0  0  0
  -10.2480   48.4250   37.0840 C   0  0  0  0  0
   -9.1600   47.3970   36.9390 C   0  0  0  0  0
   -9.2920   46.3320   35.9690 C   0  0  0  0  0
  -10.4960   46.2570   35.1340 C   0  0  0  0  0
  -11.5720   47.2770   35.2400 C   0  0  0  0  0
  -11.4480   48.3620   36.2220 C   0  0  0  0  0
  -10.4970   45.1020   33.8130 S   0  0  0  0  0
   -9.4930   45.5150   32.8900 O   0  0  0  0  0
  -11.8370   44.9790   33.3220 O   0  0  0  0  0
  -10.1440   43.5980   34.3930 N   0  0  0  0  0
   -8.9430   43.1360   35.0740 C   0  0  0  0  0
   -9.8274   53.7457   40.7835 H   0  0  0  0  0
   -7.4711   48.7798   41.5368 H   0  0  0  0  0
   -6.1228   49.6830   43.5600 H   0  0  0  0  0
   -6.4403   52.1218   44.3143 H   0  0  0  0  0
   -7.9446   53.7195   42.9476 H   0  0  0  0  0
   -9.0457   48.5418   39.5857 H   0  0  0  0  0
  -10.7710   50.2811   37.7210 H   0  0  0  0  0
   -8.2702   47.4545   37.5660 H   0  0  0  0  0
   -8.5016   45.5896   35.8591 H   0  0  0  0  0
  -12.4474   47.2201   34.5931 H   0  0  0  0  0
  -12.2324   49.1132   36.3145 H   0  0  0  0  0
  -10.8686   42.8935   34.2551 H   0  0  0  0  0
   -8.0809   43.2744   34.4215 H   0  0  0  0  0
   -8.8028   43.7098   35.9901 H   0  0  0  0  0
   -9.0493   42.0791   35.3185 H   0  0  0  0  0
  1  8  1  0  0  0
  1  2  1  0  0  0
  2 10  2  0  0  0
  2  3  1  0  0  0
  3 11  2  0  0  0
  3  9  1  0  0  0
  9  8  4  0  0  0
  9  4  4  0  0  0
  4  5  4  0  0  0
  5  6  4  0  0  0
  6  7  4  0  0  0
  7  8  4  0  0  0
 11 12  1  0  0  0
 12 13  1  0  0  0
 13 18  4  0  0  0
 13 14  4  0  0  0
 14 15  4  0  0  0
 15 16  4  0  0  0
 16 19  1  0  0  0
 16 17  4  0  0  0
 17 18  4  0  0  0
 19 22  1  0  0  0
 19 21  2  0  0  0
 19 20  2  0  0  0
 22 23  1  0  0  0
  1 24  1  0  0  0
  4 25  1  0  0  0
  5 26  1  0  0  0
  6 27  1  0  0  0
  7 28  1  0  0  0
 11 29  1  0  0  0
 12 30  1  0  0  0
 14 31  1  0  0  0
 15 32  1  0  0  0
 17 33  1  0  0  0
 18 34  1  0  0  0
 22 35  1  0  0  0
 23 36  1  0  0  0
 23 37  1  0  0  0
 23 38  1  0  0  0
M  END
$$$$
