1xm6_ligand
  -I-interpret- 

 38 39  0  0  0  0  0  0  0  0999 V2000
   50.7850    2.2010  -10.0540 O   0  0  0  0  0
   49.7650    2.4050   -9.3980 C   0  0  0  0  0
   48.9710    1.2920   -8.9670 O   0  0  0  0  0
   49.5030    3.4380   -8.5800 N   0  0  0  0  0
   48.4580    3.1390   -7.6190 C   0  0  0  0  0
   47.9970    1.7310   -8.0280 C   0  0  0  0  0
   48.0490    0.7240   -6.8730 C   0  0  0  0  0
   46.6100    1.7270   -8.6360 C   0  0  0  0  0
   45.5100    2.1740   -7.8950 C   0  0  0  0  0
   44.2280    2.1600   -8.4410 C   0  0  0  0  0
   44.0260    1.6590   -9.7300 C   0  0  0  0  0
   42.7850    1.6190  -10.3080 O   0  0  0  0  0
   41.5840    2.1170   -9.7040 C   0  0  0  0  0
   45.1160    1.2070  -10.4870 C   0  0  0  0  0
   46.3930    1.2410   -9.9260 C   0  0  0  0  0
   44.8880    0.7470  -11.7810 O   0  0  0  0  0
   45.9050    0.1950  -12.6180 C   0  0  0  0  0
   45.3630    0.0630  -14.0400 C   0  0  0  0  0
   45.1150    1.4450  -14.5960 C   0  0  0  0  0
   49.9862    4.3349   -8.6292 H   0  0  0  0  0
   47.6483    3.8685   -7.6378 H   0  0  0  0  0
   48.8095    3.1834   -6.5882 H   0  0  0  0  0
   47.3176    1.0044   -6.1150 H   0  0  0  0  0
   47.8191   -0.2723   -7.2507 H   0  0  0  0  0
   49.0472    0.7266   -6.4351 H   0  0  0  0  0
   45.6580    2.5376   -6.8781 H   0  0  0  0  0
   43.3845    2.5390   -7.8640 H   0  0  0  0  0
   41.4028    1.5877   -8.7685 H   0  0  0  0  0
   41.6942    3.1829   -9.5044 H   0  0  0  0  0
   40.7451    1.9577  -10.3814 H   0  0  0  0  0
   47.2404    0.8797  -10.5086 H   0  0  0  0  0
   46.1962   -0.7864  -12.2435 H   0  0  0  0  0
   46.7768    0.8492  -12.6166 H   0  0  0  0  0
   44.4319   -0.5037  -14.0295 H   0  0  0  0  0
   46.0863   -0.4620  -14.6639 H   0  0  0  0  0
   44.3884    1.9623  -13.9695 H   0  0  0  0  0
   46.0506    2.0041  -14.6069 H   0  0  0  0  0
   44.7276    1.3626  -15.6115 H   0  0  0  0  0
  1  2  2  0  0  0
  2  3  1  0  0  0
  2  4  1  0  0  0
  3  6  1  0  0  0
  4  5  1  0  0  0
  5  6  1  0  0  0
  6  7  1  0  0  0
  6  8  1  0  0  0
  8  9  4  0  0  0
  8 15  4  0  0  0
  9 10  4  0  0  0
 10 11  4  0  0  0
 11 12  1  0  0  0
 11 14  4  0  0  0
 12 13  1  0  0  0
 14 15  4  0  0  0
 14 16  1  0  0  0
 16 17  1  0  0  0
 17 18  1  0  0  0
 18 19  1  0  0  0
  4 20  1  0  0  0
  5 21  1  0  0  0
  5 22  1  0  0  0
  7 23  1  0  0  0
  7 24  1  0  0  0
  7 25  1  0  0  0
  9 26  1  0  0  0
 10 27  1  0  0  0
 13 28  1  0  0  0
 13 29  1  0  0  0
 13 30  1  0  0  0
 15 31  1  0  0  0
 17 32  1  0  0  0
 17 33  1  0  0  0
 18 34  1  0  0  0
 18 35  1  0  0  0
 19 36  1  0  0  0
 19 37  1  0  0  0
 19 38  1  0  0  0
M  END
$$$$
