5aqz_ligand
  -I-interpret- 

 37 39  0  0  0  0  0  0  0  0999 V2000
   18.2670  -10.6920  -12.7620 N   0  0  0  0  0
   17.1500  -10.0380  -13.0820 C   0  0  0  0  0
   16.0480   -9.8580  -12.3540 N   0  0  0  0  0
   16.1410  -10.4260  -11.1470 C   0  0  0  0  0
   17.2510  -11.1430  -10.6680 C   0  0  0  0  0
   18.3500  -11.2730  -11.5470 C   0  0  0  0  0
   19.4530  -11.9620  -11.2530 N   0  0  0  0  0
   16.9540  -11.5680   -9.3220 C   0  0  0  0  0
   15.6960  -11.1100   -9.0370 C   0  0  0  0  0
   15.1930  -10.4070  -10.1530 N   0  0  0  0  0
   13.8800   -9.7770  -10.2240 C   0  0  0  0  0
   17.8460  -12.3090   -8.4320 C   0  0  0  0  0
   17.4420  -12.3720   -7.1730 N   0  0  0  0  0
   18.8950  -12.8260   -8.8250 O   0  0  0  0  0
   12.7080  -10.7400  -10.1030 C   0  0  0  0  0
   12.4150  -11.3450  -11.3540 O   0  0  0  0  0
   11.6000   -9.7840   -9.6590 C   0  0  0  0  0
   10.9770   -9.1460  -10.7630 O   0  0  0  0  0
   12.3460   -8.7730   -8.7880 C   0  0  0  0  0
   13.7430   -8.8790   -9.1440 O   0  0  0  0  0
   12.1930   -8.9800   -7.3000 C   0  0  0  0  0
   12.6090  -10.2830   -6.9230 O   0  0  0  0  0
   17.1361   -9.5890  -14.0751 H   0  0  0  0  0
   20.2044  -12.0385  -11.9385 H   0  0  0  0  0
   19.5454  -12.4126  -10.3426 H   0  0  0  0  0
   15.1663  -11.2638   -8.0969 H   0  0  0  0  0
   13.8434   -9.3058  -11.2062 H   0  0  0  0  0
   18.0063  -12.8641   -6.4803 H   0  0  0  0  0
   16.5664  -11.9285   -6.8956 H   0  0  0  0  0
   12.8701  -11.5795   -9.4269 H   0  0  0  0  0
   11.6739  -11.9466  -11.2515 H   0  0  0  0  0
   10.7898  -10.2928   -9.1368 H   0  0  0  0  0
   10.2898   -8.5563  -10.4443 H   0  0  0  0  0
   11.9199   -7.7882   -8.9794 H   0  0  0  0  0
   11.1425   -8.8580   -7.0360 H   0  0  0  0  0
   12.8134   -8.2504   -6.7796 H   0  0  0  0  0
   12.5024  -10.3899   -5.9749 H   0  0  0  0  0
  1  2  4  0  0  0
  1  6  4  0  0  0
  2  3  4  0  0  0
  3  4  4  0  0  0
  4  5  4  0  0  0
  4 10  4  0  0  0
  5  6  4  0  0  0
  5  8  4  0  0  0
  6  7  1  0  0  0
  8  9  4  0  0  0
  8 12  1  0  0  0
  9 10  4  0  0  0
 10 11  1  0  0  0
 11 15  1  0  0  0
 11 20  1  0  0  0
 12 13  1  0  0  0
 12 14  2  0  0  0
 15 16  1  0  0  0
 15 17  1  0  0  0
 17 18  1  0  0  0
 17 19  1  0  0  0
 19 20  1  0  0  0
 19 21  1  0  0  0
 21 22  1  0  0  0
  2 23  1  0  0  0
  7 24  1  0  0  0
  7 25  1  0  0  0
  9 26  1  0  0  0
 11 27  1  0  0  0
 13 28  1  0  0  0
 13 29  1  0  0  0
 15 30  1  0  0  0
 16 31  1  0  0  0
 17 32  1  0  0  0
 18 33  1  0  0  0
 19 34  1  0  0  0
 21 35  1  0  0  0
 21 36  1  0  0  0
 22 37  1  0  0  0
M  END
$$$$
