5fol_ligand
  -I-interpret- 

 53 55  0  0  0  0  0  0  0  0999 V2000
   16.9370    3.6030   19.8590 C   0  0  0  0  0
   17.9880    1.7460   20.9910 N   0  3  0  0  0
   17.7540    4.2320   19.2290 O   0  0  0  0  0
   13.5080   -1.3710   14.3200 N   0  0  0  0  0
   13.1130   -1.3150   15.7080 C   0  0  0  0  0
   13.4190   -0.0850   16.4150 N   0  0  0  0  0
   14.0740    0.9540   15.8060 C   0  0  0  0  0
   14.4870    0.8700   14.4040 C   0  0  0  0  0
   14.1420   -0.3710   13.6680 C   0  0  0  0  0
   14.4740   -0.5090   12.3830 N   0  0  0  0  0
   15.0770    2.0330   14.0810 N   0  0  0  0  0
   15.0740    2.7980   15.2000 C   0  0  0  0  0
   14.4870    2.1290   16.2480 N   0  0  0  0  0
   17.2820    3.0120   21.2100 C   0  0  0  0  0
   18.1010    3.8130   22.2240 C   0  0  0  0  0
   15.6810    3.3980   19.4190 N   0  0  0  0  0
   15.2070    3.7710   18.0910 C   0  0  0  0  0
   14.2960    4.9780   18.0990 C   0  0  0  0  0
   14.6680    6.0110   18.9950 O   0  0  0  0  0
   12.9660    4.3080   18.4640 C   0  0  0  0  0
   11.7560    5.1890   18.2230 C   0  0  0  0  0
   11.7670    5.6160   16.8720 O   0  0  0  0  0
   12.9380    3.1010   17.6660 O   0  0  0  0  0
   14.2660    2.6060   17.6340 C   0  0  0  0  0
   17.6530    5.1460   24.3160 C   0  0  0  0  0
   17.2280    4.8890   22.8860 C   0  0  0  0  0
   19.4150    4.3540   21.6500 C   0  0  0  0  0
   17.4703    1.1815   20.3175 H   0  0  0  0  0
   18.9223    1.9373   20.6292 H   0  0  0  0  0
   18.0609    1.2415   21.8745 H   0  0  0  0  0
   12.6126   -2.1505   16.1976 H   0  0  0  0  0
   14.2494   -1.3722   11.8881 H   0  0  0  0  0
   14.9523    0.2487   11.8956 H   0  0  0  0  0
   15.4818    3.8070   15.2608 H   0  0  0  0  0
   16.3009    2.9495   21.6808 H   0  0  0  0  0
   18.4200    3.1269   23.0086 H   0  0  0  0  0
   15.0189    2.9535   20.0549 H   0  0  0  0  0
   16.0805    3.9715   17.4706 H   0  0  0  0  0
   14.2987    5.5285   17.1582 H   0  0  0  0  0
   14.0362    6.7310   18.9316 H   0  0  0  0  0
   12.9098    4.1006   19.5326 H   0  0  0  0  0
   11.7901    6.0542   18.8851 H   0  0  0  0  0
   10.8435    4.6288   18.4269 H   0  0  0  0  0
   11.0041    6.1753   16.7081 H   0  0  0  0  0
   14.4680    1.7714   18.3054 H   0  0  0  0  0
   17.5622    4.2249   24.8918 H   0  0  0  0  0
   18.6890    5.4845   24.3305 H   0  0  0  0  0
   17.0127    5.9130   24.7517 H   0  0  0  0  0
   16.1950    4.5411   22.8901 H   0  0  0  0  0
   17.3353    5.8156   22.3221 H   0  0  0  0  0
   20.0325    3.5216   21.3125 H   0  0  0  0  0
   19.1987    5.0122   20.8085 H   0  0  0  0  0
   19.9450    4.9116   22.4222 H   0  0  0  0  0
  1  3  2  0  0  0
  1 14  1  0  0  0
 16  1  1  0  0  0
 14  2  1  0  0  0
  5  4  4  0  0  0
  9  4  4  0  0  0
  6  5  4  0  0  0
  7  6  4  0  0  0
  7  8  4  0  0  0
 13  7  4  0  0  0
  8  9  4  0  0  0
 11  8  4  0  0  0
  9 10  1  0  0  0
 12 11  4  0  0  0
 13 12  4  0  0  0
 24 13  1  0  0  0
 14 15  1  0  0  0
 15 26  1  0  0  0
 15 27  1  0  0  0
 17 16  1  0  0  0
 17 18  1  0  0  0
 17 24  1  0  0  0
 18 19  1  0  0  0
 18 20  1  0  0  0
 20 21  1  0  0  0
 20 23  1  0  0  0
 21 22  1  0  0  0
 23 24  1  0  0  0
 26 25  1  0  0  0
  2 28  1  0  0  0
  2 29  1  0  0  0
  2 30  1  0  0  0
  5 31  1  0  0  0
 10 32  1  0  0  0
 10 33  1  0  0  0
 12 34  1  0  0  0
 14 35  1  0  0  0
 15 36  1  0  0  0
 16 37  1  0  0  0
 17 38  1  0  0  0
 18 39  1  0  0  0
 19 40  1  0  0  0
 20 41  1  0  0  0
 21 42  1  0  0  0
 21 43  1  0  0  0
 22 44  1  0  0  0
 24 45  1  0  0  0
 25 46  1  0  0  0
 25 47  1  0  0  0
 25 48  1  0  0  0
 26 49  1  0  0  0
 26 50  1  0  0  0
 27 51  1  0  0  0
 27 52  1  0  0  0
 27 53  1  0  0  0
M  END
$$$$
