4jvi_ligand
  -I-interpret- 

 47 48  0  0  0  0  0  0  0  0999 V2000
  -40.7710   53.4920    7.1100 C   0  0  0  0  0
  -39.7020   54.3530    7.7590 C   0  0  0  0  0
  -38.5730   53.4950    8.3000 C   0  0  0  0  0
  -37.4700   54.4480    8.6420 C   0  0  0  0  0
  -37.3420   54.4680   10.1410 C   0  0  0  0  0
  -35.9100   54.1830   10.4840 C   0  0  0  0  0
  -35.4240   55.2270   11.4640 C   0  0  0  0  0
  -34.4650   56.1820   10.7400 C   0  0  0  0  0
  -33.0150   56.0090   11.2250 C   0  0  0  0  0
  -32.1900   56.7270   10.2020 C   0  0  0  0  0
  -32.1870   58.0450   10.3220 N   0  0  0  0  0
  -31.5060   58.7960    9.4450 C   0  0  0  0  0
  -31.5170   60.1700    9.5980 C   0  0  0  0  0
  -30.8300   60.9930    8.7000 C   0  0  0  0  0
  -30.8830   62.7460    8.8870 Cl  0  0  0  0  0
  -30.1220   60.4020    7.6610 C   0  0  0  0  0
  -30.1050   59.0220    7.4850 C   0  0  0  0  0
  -30.7960   58.2230    8.3820 C   0  0  0  0  0
  -30.8050   56.8460    8.2270 C   0  0  0  0  0
  -30.2020   56.3030    7.3150 O   0  0  0  0  0
  -31.4920   56.0680    9.1380 N   0  0  0  0  0
  -31.4500   54.8410    8.9770 N   0  3  0  0  0
  -40.3317   52.9287    6.2867 H   0  0  0  0  0
  -41.1772   52.8011    7.8487 H   0  0  0  0  0
  -41.5688   54.1303    6.7303 H   0  0  0  0  0
  -40.1498   54.9058    8.5848 H   0  0  0  0  0
  -39.2976   55.0345    7.0106 H   0  0  0  0  0
  -38.2480   52.7564    7.5672 H   0  0  0  0  0
  -38.8901   52.9236    9.1724 H   0  0  0  0  0
  -37.6957   55.4453    8.2643 H   0  0  0  0  0
  -36.5340   54.1300    8.1827 H   0  0  0  0  0
  -37.9940   53.7164   10.5860 H   0  0  0  0  0
  -37.6380   55.4412   10.5326 H   0  0  0  0  0
  -35.3014   54.2143    9.5803 H   0  0  0  0  0
  -35.8282   53.1920   10.9306 H   0  0  0  0  0
  -34.9057   54.7422   12.2913 H   0  0  0  0  0
  -36.2730   55.7862   11.8573 H   0  0  0  0  0
  -34.7770   57.2053   10.9488 H   0  0  0  0  0
  -34.4991   55.9594    9.6735 H   0  0  0  0  0
  -32.7355   54.9590   11.3119 H   0  0  0  0  0
  -32.8678   56.4138   12.2263 H   0  0  0  0  0
  -32.0666   60.6162   10.4268 H   0  0  0  0  0
  -29.5670   61.0340    6.9677 H   0  0  0  0  0
  -29.5569   58.5764    6.6548 H   0  0  0  0  0
  -30.8913   54.6266    8.1510 H   0  0  0  0  0
  -31.0274   54.4060    9.7971 H   0  0  0  0  0
  -32.3968   54.4832    8.8508 H   0  0  0  0  0
  1  2  1  0  0  0
  2  3  1  0  0  0
  3  4  1  0  0  0
  4  5  1  0  0  0
  5  6  1  0  0  0
  6  7  1  0  0  0
  7  8  1  0  0  0
  8  9  1  0  0  0
  9 10  1  0  0  0
 10 11  2  0  0  0
 10 21  1  0  0  0
 11 12  1  0  0  0
 12 13  4  0  0  0
 12 18  4  0  0  0
 13 14  4  0  0  0
 14 15  1  0  0  0
 14 16  4  0  0  0
 16 17  4  0  0  0
 17 18  4  0  0  0
 18 19  1  0  0  0
 19 20  2  0  0  0
 19 21  1  0  0  0
 21 22  1  0  0  0
  1 23  1  0  0  0
  1 24  1  0  0  0
  1 25  1  0  0  0
  2 26  1  0  0  0
  2 27  1  0  0  0
  3 28  1  0  0  0
  3 29  1  0  0  0
  4 30  1  0  0  0
  4 31  1  0  0  0
  5 32  1  0  0  0
  5 33  1  0  0  0
  6 34  1  0  0  0
  6 35  1  0  0  0
  7 36  1  0  0  0
  7 37  1  0  0  0
  8 38  1  0  0  0
  8 39  1  0  0  0
  9 40  1  0  0  0
  9 41  1  0  0  0
 13 42  1  0  0  0
 16 43  1  0  0  0
 17 44  1  0  0  0
 22 45  1  0  0  0
 22 46  1  0  0  0
 22 47  1  0  0  0
M  END
$$$$
