5c84_ligand
  -I-interpret- 

 54 56  0  0  0  0  0  0  0  0999 V2000
  -13.8820  -15.7320   -4.4030 C   0  0  0  0  0
  -15.7930  -16.3060   -3.0610 C   0  0  0  0  0
  -15.4720  -17.7580   -1.0290 C   0  0  0  0  0
  -15.8850  -20.2120   -1.0670 C   0  0  0  0  0
  -15.3810  -21.5370   -0.5180 C   0  0  0  0  0
  -16.3690  -18.8440   -4.5680 C   0  0  0  0  0
  -15.1030  -19.0220   -5.3890 C   0  0  0  0  0
  -16.5030  -18.6800   -7.4540 C   0  0  0  0  0
  -16.1290  -18.5280   -8.9420 C   0  0  0  0  0
  -14.7110  -19.0660   -8.9780 C   0  0  0  0  0
  -12.2210  -20.0110   -8.6630 C   0  0  0  0  0
  -12.9400  -19.7420   -7.5210 C   0  0  0  0  0
  -14.2190  -19.2560   -7.6970 C   0  0  0  0  0
  -15.2750  -16.0790   -4.3810 O   0  0  0  0  0
  -15.3890  -17.6990   -2.5520 C   0  0  0  0  0
  -15.0450  -19.0920   -0.5260 N   0  3  0  0  0
  -15.8410  -20.1610   -2.5910 C   0  0  0  0  0
  -16.1740  -18.8280   -3.1100 N   0  3  0  0  0
  -14.0370  -19.2760   -4.8440 O   0  0  0  0  0
  -15.2060  -18.8860   -6.7550 N   0  0  0  0  0
  -17.0770  -19.3220   -9.8350 C   0  0  0  0  0
  -16.1580  -17.0660   -9.3660 C   0  0  0  0  0
  -13.8990  -19.3700  -10.0560 C   0  0  0  0  0
  -12.6610  -19.8400   -9.9000 N   0  0  0  0  0
  -10.6000  -20.6250   -8.5160 Cl  0  0  0  0  0
  -13.7278  -14.8167   -3.8315 H   0  0  0  0  0
  -13.3004  -16.5406   -3.9603 H   0  0  0  0  0
  -13.5639  -15.5762   -5.4338 H   0  0  0  0  0
  -16.8808  -16.2441   -3.0935 H   0  0  0  0  0
  -15.3849  -15.5524   -2.3875 H   0  0  0  0  0
  -16.5046  -17.5832   -0.7269 H   0  0  0  0  0
  -14.8114  -16.9979   -0.6119 H   0  0  0  0  0
  -16.9238  -20.1082   -0.7537 H   0  0  0  0  0
  -14.3437  -21.6827   -0.8193 H   0  0  0  0  0
  -15.4466  -21.5266    0.5700 H   0  0  0  0  0
  -15.9926  -22.3485   -0.9124 H   0  0  0  0  0
  -17.0075  -19.6994   -4.7886 H   0  0  0  0  0
  -16.7832  -17.8728   -4.8387 H   0  0  0  0  0
  -17.1883  -19.5117   -7.2909 H   0  0  0  0  0
  -17.0323  -17.8048   -7.0773 H   0  0  0  0  0
  -12.5204  -19.9046   -6.5282 H   0  0  0  0  0
  -14.3654  -17.8282   -2.9036 H   0  0  0  0  0
  -15.1430  -19.0896    0.4893 H   0  0  0  0  0
  -14.0835  -19.2475   -0.8289 H   0  0  0  0  0
  -16.5754  -20.8685   -2.9758 H   0  0  0  0  0
  -14.8280  -20.4063   -2.9099 H   0  0  0  0  0
  -17.0898  -18.5963   -2.7253 H   0  0  0  0  0
  -17.0251  -20.3779   -9.5697 H   0  0  0  0  0
  -18.0955  -18.9602   -9.6939 H   0  0  0  0  0
  -16.7855  -19.1932  -10.8774 H   0  0  0  0  0
  -17.1601  -16.6648   -9.2143 H   0  0  0  0  0
  -15.4444  -16.5009   -8.7664 H   0  0  0  0  0
  -15.8902  -16.9893  -10.4198 H   0  0  0  0  0
  -14.2835  -19.2206  -11.0649 H   0  0  0  0  0
 14  1  1  0  0  0
  2 14  1  0  0  0
 15  2  1  0  0  0
 15  3  1  0  0  0
  3 16  1  0  0  0
  4  5  1  0  0  0
 16  4  1  0  0  0
  4 17  1  0  0  0
  6  7  1  0  0  0
 18  6  1  0  0  0
  7 19  2  0  0  0
  7 20  1  0  0  0
  8  9  1  0  0  0
 20  8  1  0  0  0
 10  9  1  0  0  0
  9 21  1  0  0  0
  9 22  1  0  0  0
 13 10  4  0  0  0
 10 23  4  0  0  0
 12 11  4  0  0  0
 11 24  4  0  0  0
 11 25  1  0  0  0
 13 12  4  0  0  0
 20 13  1  0  0  0
 15 18  1  0  0  0
 17 18  1  0  0  0
 23 24  4  0  0  0
  1 26  1  0  0  0
  1 27  1  0  0  0
  1 28  1  0  0  0
  2 29  1  0  0  0
  2 30  1  0  0  0
  3 31  1  0  0  0
  3 32  1  0  0  0
  4 33  1  0  0  0
  5 34  1  0  0  0
  5 35  1  0  0  0
  5 36  1  0  0  0
  6 37  1  0  0  0
  6 38  1  0  0  0
  8 39  1  0  0  0
  8 40  1  0  0  0
 12 41  1  0  0  0
 15 42  1  0  0  0
 16 43  1  0  0  0
 16 44  1  0  0  0
 17 45  1  0  0  0
 17 46  1  0  0  0
 18 47  1  0  0  0
 21 48  1  0  0  0
 21 49  1  0  0  0
 21 50  1  0  0  0
 22 51  1  0  0  0
 22 52  1  0  0  0
 22 53  1  0  0  0
 23 54  1  0  0  0
M  END
$$$$
