1c86_ligand
  -I-interpret- 

 27 28  0  0  0  0  0  0  0  0999 V2000
   13.8890   44.9070   17.3510 O   0  0  0  0  0
   13.8400   45.5110   18.6430 C   0  0  0  0  0
   12.4690   45.7520   19.0560 C   0  0  0  0  0
   11.2930   45.4210   18.1720 C   0  0  0  0  0
   11.4470   44.7150   16.9190 C   0  0  0  0  0
   12.8020   44.0280   17.0010 C   0  0  0  0  0
   11.9750   46.4310   20.5650 S   0  0  0  0  0
   10.3030   46.2120   20.1590 C   0  0  0  0  0
   10.0950   45.8770   18.7950 C   0  0  0  0  0
    8.8010   45.8600   18.3150 C   0  0  0  0  0
    7.6300   45.6820   19.0490 O   0  0  0  0  0
    8.4260   45.7710   16.9980 O   0  0  0  0  0
    9.2820   46.7880   20.9020 N   0  0  0  0  0
    9.3020   47.3290   22.1800 C   0  0  0  0  0
    8.0870   47.6560   22.8400 C   0  0  0  0  0
    6.9390   46.7860   22.7940 O   0  0  0  0  0
    7.9340   48.7300   23.6790 O   0  0  0  0  0
   10.5730   47.5160   22.8540 O   0  0  0  0  0
   14.3647   46.4655   18.6018 H   0  0  0  0  0
   14.3071   44.8369   19.3610 H   0  0  0  0  0
   11.3959   45.3955   16.0691 H   0  0  0  0  0
   10.6434   43.9946   16.7659 H   0  0  0  0  0
   12.7333   43.2733   17.7845 H   0  0  0  0  0
   13.0193   43.6256   16.0116 H   0  0  0  0  0
    7.8302   45.7343   19.9864 H   0  0  0  0  0
    8.3752   46.8185   20.4360 H   0  0  0  0  0
    7.1134   46.0595   22.1912 H   0  0  0  0  0
  1  6  1  0  0  0
  1  2  1  0  0  0
  2  3  1  0  0  0
  3  7  4  0  0  0
  3  4  4  0  0  0
  4  9  4  0  0  0
  4  5  1  0  0  0
  5  6  1  0  0  0
  9 10  1  0  0  0
  9  8  4  0  0  0
  8 13  1  0  0  0
  8  7  4  0  0  0
 13 14  1  0  0  0
 14 18  2  0  0  0
 14 15  1  0  0  0
 15 17  2  0  0  0
 15 16  1  0  0  0
 10 12  2  0  0  0
 10 11  1  0  0  0
  2 19  1  0  0  0
  2 20  1  0  0  0
  5 21  1  0  0  0
  5 22  1  0  0  0
  6 23  1  0  0  0
  6 24  1  0  0  0
 11 25  1  0  0  0
 13 26  1  0  0  0
 16 27  1  0  0  0
M  END
$$$$
