2iwu_ligand
  -I-interpret- 

 39 40  0  0  0  0  0  0  0  0999 V2000
   18.5050  -35.2070   -5.6720 C   0  0  0  0  0
   19.7720  -35.6510   -6.2310 O   0  0  0  0  0
   18.5160  -34.2160   -4.5470 C   0  0  0  0  0
   17.6240  -33.1570   -4.5310 C   0  0  0  0  0
   17.6450  -32.2430   -3.4850 C   0  0  0  0  0
   18.5660  -32.3810   -2.4560 C   0  0  0  0  0
   19.4600  -33.4420   -2.4810 C   0  0  0  0  0
   19.4410  -34.3540   -3.5240 C   0  0  0  0  0
   20.4270  -35.4990   -3.5290 C   0  0  0  0  0
   21.7940  -35.0650   -4.0150 C   0  0  0  0  0
   22.2030  -33.6060   -4.0360 C   0  0  0  0  0
   21.8840  -32.9170   -5.3650 C   0  0  0  0  0
   22.8080  -33.3430   -6.5040 C   0  0  0  0  0
   21.9820  -34.1990   -7.4310 C   0  0  0  0  0
   21.8780  -35.5020   -7.1880 C   0  0  0  0  0
   21.0330  -36.3710   -8.0850 C   0  0  0  0  0
   19.6300  -36.3030   -7.4940 C   0  0  0  0  0
   17.4590  -35.6570   -6.1140 O   0  0  0  0  0
   16.7110  -33.0120   -5.5390 O   0  0  0  0  0
   18.5790  -31.4770   -1.4380 O   0  0  0  0  0
   20.5350  -33.6270   -1.3060 Cl  0  0  0  0  0
   22.5860  -35.9180   -4.3840 O   0  0  0  0  0
   16.9361  -31.4151   -3.4724 H   0  0  0  0  0
   20.0530  -36.2691   -4.2037 H   0  0  0  0  0
   20.5283  -35.8672   -2.5081 H   0  0  0  0  0
   23.2820  -33.5606   -3.8880 H   0  0  0  0  0
   21.6454  -33.0927   -3.2526 H   0  0  0  0  0
   22.0138  -31.8446   -5.2194 H   0  0  0  0  0
   20.8676  -33.1947   -5.6442 H   0  0  0  0  0
   23.6658  -33.8971   -6.1231 H   0  0  0  0  0
   23.2066  -32.4742   -7.0278 H   0  0  0  0  0
   21.4769  -33.7553   -8.2890 H   0  0  0  0  0
   22.4035  -35.9420   -6.3405 H   0  0  0  0  0
   21.4058  -37.3946   -8.1229 H   0  0  0  0  0
   21.0529  -36.0242   -9.1182 H   0  0  0  0  0
   18.9498  -35.7574   -8.1481 H   0  0  0  0  0
   19.1983  -37.2975   -7.3810 H   0  0  0  0  0
   16.1748  -32.2330   -5.3740 H   0  0  0  0  0
   19.2686  -31.7111   -0.8124 H   0  0  0  0  0
  1  2  1  0  0  0
  1  3  1  0  0  0
  1 18  2  0  0  0
  2 17  1  0  0  0
  3  4  4  0  0  0
  3  8  4  0  0  0
  4  5  4  0  0  0
  4 19  1  0  0  0
  5  6  4  0  0  0
  6  7  4  0  0  0
  6 20  1  0  0  0
  7  8  4  0  0  0
  7 21  1  0  0  0
  8  9  1  0  0  0
  9 10  1  0  0  0
 10 11  1  0  0  0
 10 22  2  0  0  0
 11 12  1  0  0  0
 12 13  1  0  0  0
 13 14  1  0  0  0
 14 15  2  0  0  0
 15 16  1  0  0  0
 16 17  1  0  0  0
  5 23  1  0  0  0
  9 24  1  0  0  0
  9 25  1  0  0  0
 11 26  1  0  0  0
 11 27  1  0  0  0
 12 28  1  0  0  0
 12 29  1  0  0  0
 13 30  1  0  0  0
 13 31  1  0  0  0
 14 32  1  0  0  0
 15 33  1  0  0  0
 16 34  1  0  0  0
 16 35  1  0  0  0
 17 36  1  0  0  0
 17 37  1  0  0  0
 19 38  1  0  0  0
 20 39  1  0  0  0
M  END
$$$$
