### 
### Created by X-TOOL on Mon Sep 10 21:12:51 2018
### 

@<TRIPOS>MOLECULE
1oj5_ligand
  218   219     1     0     0
SMALL
GAST_HUCK


@<TRIPOS>ATOM
      1 N           9.7800   13.4640   20.4140 N.4       1 LEU         0.2379
      2 CA          9.5400   14.3110   21.6290 C.3       1 LEU         0.0654
      3 C          10.8450   14.9360   22.1410 C.2       1 LEU         0.2292
      4 O          11.7330   14.2280   22.6320 O.2       1 LEU        -0.3905
      5 CB          8.8820   13.4480   22.7190 C.3       1 LEU         0.0102
      6 CG          8.4990   14.1040   24.0500 C.3       1 LEU        -0.0394
      7 CD1         7.4480   15.1790   23.8630 C.3       1 LEU        -0.0623
      8 CD2         7.9830   13.0110   24.9920 C.3       1 LEU        -0.0623
      9 N          11.0040   16.2490   22.0130 N.am      1 PRO        -0.2471
     10 CA         12.2230   16.8720   22.5170 C.3       1 PRO         0.1341
     11 C          12.3960   16.7170   24.0410 C.2       1 PRO         0.2066
     12 O          11.4100   16.5590   24.7500 O.2       1 PRO        -0.3942
     13 CB         12.0520   18.3380   22.1300 C.3       1 PRO        -0.0104
     14 CG         11.1040   18.3040   20.9880 C.3       1 PRO        -0.0281
     15 CD         10.1250   17.2350   21.3580 C.3       1 PRO         0.0371
     16 N          13.6320   16.7560   24.5230 N.am      1 PRO        -0.2498
     17 CA         13.8950   16.8100   25.9610 C.3       1 PRO         0.1338
     18 C          13.5630   18.1900   26.5830 C.2       1 PRO         0.2042
     19 O          13.9240   19.2380   26.0450 O.2       1 PRO        -0.3944
     20 CB         15.3920   16.5480   26.0390 C.3       1 PRO        -0.0104
     21 CG         15.9220   17.0860   24.7430 C.3       1 PRO        -0.0281
     22 CD         14.8770   16.7560   23.7340 C.3       1 PRO         0.0369
     23 N          12.8660   18.1810   27.7090 N.am      1 THR        -0.2613
     24 CA         12.6100   19.4030   28.4480 C.3       1 THR         0.1565
     25 C          13.8700   19.8400   29.2110 C.2       1 THR         0.2065
     26 O          14.8400   19.0850   29.3510 O.2       1 THR        -0.3943
     27 CB         11.4990   19.1830   29.5030 C.3       1 THR         0.0924
     28 OG1        11.9530   18.2210   30.4610 O.3       1 THR        -0.3874
     29 CG2        10.2320   18.5690   28.8980 C.3       1 THR        -0.0346
     30 N          13.8060   21.0590   29.7290 N.am      1 GLU        -0.2635
     31 CA         14.8240   21.6360   30.6110 C.3       1 GLU         0.1325
     32 C          15.1370   20.7010   31.7820 C.2       1 GLU         0.2040
     33 O          16.2980   20.4690   32.0800 O.2       1 GLU        -0.3944
     34 CB         14.3490   23.0040   31.1490 C.3       1 GLU        -0.0008
     35 CG         15.4460   23.8800   31.7660 C.3       1 GLU         0.0044
     36 CD         15.8150   23.4920   33.1850 C.2       1 GLU         0.0350
     37 OE1        17.0310   23.3940   33.4790 O.co2     1 GLU        -0.5690
     38 OE2        14.8960   23.2890   34.0100 O.co2     1 GLU        -0.5690
     39 N          14.1080   20.1360   32.4090 N.am      1 GLN        -0.2636
     40 CA         14.3270   19.2090   33.5360 C.3       1 GLN         0.1330
     41 C          14.9600   17.8830   33.0670 C.2       1 GLN         0.2041
     42 O          15.8250   17.3660   33.7520 O.2       1 GLN        -0.3944
     43 CB         13.0060   18.8920   34.2890 C.3       1 GLN         0.0045
     44 CG         12.7200   17.3570   34.4730 C.3       1 GLN         0.0412
     45 CD         11.4690   17.0200   35.2670 C.2       1 GLN         0.1737
     46 OE1        11.3320   17.4160   36.4140 O.2       1 GLN        -0.3973
     47 NE2        10.5710   16.2640   34.6620 N.am      1 GLN        -0.3009
     48 N          14.5290   17.3460   31.9190 N.am      1 ASP        -0.2622
     49 CA         15.1880   16.1840   31.3100 C.3       1 ASP         0.1423
     50 C          16.7000   16.4100   31.2080 C.2       1 ASP         0.2056
     51 O          17.4830   15.5430   31.5700 O.2       1 ASP        -0.3943
     52 CB         14.6630   15.8780   29.8910 C.3       1 ASP         0.0406
     53 CG         13.2470   15.3640   29.8670 C.2       1 ASP         0.0393
     54 OD1        12.7290   14.9040   30.9110 O.co2     1 ASP        -0.5688
     55 OD2        12.5670   15.3960   28.8180 O.co2     1 ASP        -0.5688
     56 N          17.1110   17.5850   30.7600 N.am      1 LEU        -0.2636
     57 CA         18.5360   17.8520   30.5470 C.3       1 LEU         0.1312
     58 C          19.2880   18.0980   31.8530 C.2       1 LEU         0.2040
     59 O          20.4350   17.6890   31.9880 O.2       1 LEU        -0.3944
     60 CB         18.7520   19.0380   29.5980 C.3       1 LEU        -0.0101
     61 CG         18.2670   18.8030   28.1690 C.3       1 LEU        -0.0425
     62 CD1        18.3750   20.0800   27.3550 C.3       1 LEU        -0.0625
     63 CD2        19.0330   17.6730   27.5060 C.3       1 LEU        -0.0625
     64 N          18.6620   18.7780   32.8000 N.am      1 THR        -0.2613
     65 CA         19.2620   18.9290   34.1140 C.3       1 THR         0.1565
     66 C          19.5740   17.5470   34.7290 C.2       1 THR         0.2065
     67 O          20.6680   17.3280   35.2410 O.2       1 THR        -0.3943
     68 CB         18.3450   19.7560   35.0320 C.3       1 THR         0.0924
     69 OG1        18.1300   21.0620   34.4520 O.3       1 THR        -0.3874
     70 CG2        19.0300   20.0180   36.3890 C.3       1 THR        -0.0346
     71 N          18.6310   16.6120   34.6340 N.am      1 LYS        -0.2637
     72 CA         18.8310   15.2430   35.1300 C.3       1 LYS         0.1307
     73 C          19.9750   14.5100   34.4120 C.2       1 LYS         0.2039
     74 O          20.8300   13.8990   35.0470 O.2       1 LYS        -0.3944
     75 CB         17.5440   14.4490   34.9390 C.3       1 LYS        -0.0152
     76 CG         17.5160   13.1060   35.6340 C.3       1 LYS        -0.0610
     77 N          19.9930   14.5790   33.0770 N.am      1 LEU        -0.2637
     78 CA         21.0060   13.8760   32.2920 C.3       1 LEU         0.1312
     79 C          22.3900   14.4150   32.5930 C.2       1 LEU         0.2039
     80 O          23.3580   13.6580   32.6750 O.2       1 LEU        -0.3944
     81 CB         20.7140   13.9850   30.7920 C.3       1 LEU        -0.0101
     82 CG         19.4600   13.2100   30.3650 C.3       1 LEU        -0.0425
     83 CD1        18.9230   13.7220   29.0470 C.3       1 LEU        -0.0625
     84 CD2        19.7710   11.7080   30.2890 C.3       1 LEU        -0.0625
     85 N          22.4680   15.7190   32.7890 N.am      1 LEU        -0.2637
     86 CA         23.7370   16.4050   32.9720 C.3       1 LEU         0.1312
     87 C          24.3360   16.2420   34.3630 C.2       1 LEU         0.2039
     88 O          25.4920   16.5770   34.5360 O.2       1 LEU        -0.3944
     89 CB         23.5750   17.9000   32.6910 C.3       1 LEU        -0.0101
     90 CG         23.4760   18.2870   31.2210 C.3       1 LEU        -0.0425
     91 CD1        23.2440   19.7640   31.1090 C.3       1 LEU        -0.0625
     92 CD2        24.7200   17.8590   30.4690 C.3       1 LEU        -0.0625
     93 N          23.5580   15.7590   35.3390 N.am      1 LEU        -0.2640
     94 CA         24.0510   15.5030   36.7070 C.3       1 LEU         0.1282
     95 C          24.3120   14.0010   36.9630 C.2       1 LEU         0.2037
     96 O          25.3520   13.6160   37.5010 O.2       1 LEU        -0.3944
     97 CB         23.0580   16.0620   37.7420 C.3       1 LEU        -0.0244
     98 N          23.3610   13.1660   36.5570 N.am      1 GLU        -0.2623
     99 CA         23.4870   11.7060   36.6110 C.3       1 GLU         0.1435
    100 C          24.8810   11.1980   36.2220 C.2       1 GLU         0.2572
    101 O          25.1600   10.9440   35.0500 O.2       1 GLU        -0.3680
    102 CB         22.4330   11.0560   35.7070 C.3       1 GLU         0.0005
    103 CG         21.0840   10.8520   36.3750 C.3       1 GLU         0.0045
    104 CD         20.0760   10.1960   35.4540 C.2       1 GLU         0.0350
    105 OE1        19.0310    9.7240   35.9620 O.co2     1 GLU        -0.5690
    106 OE2        20.3290   10.1560   34.2250 O.co2     1 GLU        -0.5690
    107 O1         25.8029   11.0292   37.1656 O.3       1 GLU        -0.2910
    108 H1          8.9068   13.0685   20.1023 H         1 LEU         0.2015
    109 H2         10.4222   12.7217   20.6434 H         1 LEU         0.2015
    110 H3         10.1722   14.0328   19.6800 H         1 LEU         0.2015
    111 H4          8.8509   15.1248   21.3592 H         1 LEU         0.1098
    112 H5          9.5816   12.6314   22.9508 H         1 LEU         0.0348
    113 H6          7.9604   13.0301   22.2878 H         1 LEU         0.0348
    114 H7          9.3951   14.5659   24.4900 H         1 LEU         0.0299
    115 H8          7.2011   15.6240   24.8382 H         1 LEU         0.0232
    116 H9          6.5430   14.7345   23.4232 H         1 LEU         0.0232
    117 H10         7.8367   15.9591   23.1919 H         1 LEU         0.0232
    118 H11         8.7569   12.2393   25.1170 H         1 LEU         0.0232
    119 H12         7.0773   12.5561   24.5645 H         1 LEU         0.0232
    120 H13         7.7445   13.4529   25.9707 H         1 LEU         0.0232
    121 H14        13.1032   16.4406   22.0179 H         1 PRO         0.0802
    122 H15        13.0140   18.7761   21.8257 H         1 PRO         0.0313
    123 H16        11.6340   18.9165   22.9671 H         1 PRO         0.0313
    124 H17        10.5979   19.2737   20.8717 H         1 PRO         0.0287
    125 H18        11.6265   18.0488   20.0543 H         1 PRO         0.0287
    126 H19         9.3588   17.6135   22.0505 H         1 PRO         0.0524
    127 H20         9.6374   16.8106   20.4680 H         1 PRO         0.0524
    128 H21        13.3266   16.0297   26.4882 H         1 PRO         0.0802
    129 H22        15.5964   15.4708   26.1280 H         1 PRO         0.0313
    130 H23        15.8378   17.0777   26.8938 H         1 PRO         0.0313
    131 H24        16.0681   18.1744   24.8069 H         1 PRO         0.0287
    132 H25        16.8757   16.6025   24.4846 H         1 PRO         0.0287
    133 H26        14.8409   17.5172   22.9408 H         1 PRO         0.0524
    134 H27        15.0597   15.7681   23.2861 H         1 PRO         0.0524
    135 H28        12.5088   17.3142   28.0570 H         1 THR         0.1884
    136 H29        12.3056   20.1924   27.7450 H         1 THR         0.0826
    137 H30        11.2620   20.1405   29.9898 H         1 THR         0.0639
    138 H31        11.2792   18.0868   31.1171 H         1 THR         0.2101
    139 H32         9.4773   18.4340   29.6868 H         1 THR         0.0257
    140 H33        10.4744   17.5933   28.4517 H         1 THR         0.0257
    141 H34         9.8347   19.2389   28.1213 H         1 THR         0.0257
    142 H35        13.0107   21.6215   29.5029 H         1 GLU         0.1883
    143 H36        15.7447   21.7860   30.0280 H         1 GLU         0.0801
    144 H37        13.5865   22.8202   31.9202 H         1 GLU         0.0330
    145 H38        13.8990   23.5605   30.3137 H         1 GLU         0.0330
    146 H39        15.0948   24.9224   31.7720 H         1 GLU         0.0433
    147 H40        16.3466   23.8001   31.1396 H         1 GLU         0.0433
    148 H41        13.1754   20.3421   32.1129 H         1 GLN         0.1883
    149 H42        15.0191   19.6940   34.2401 H         1 GLN         0.0801
    150 H43        12.1722   19.3325   33.7228 H         1 GLN         0.0337
    151 H44        13.0576   19.3549   35.2855 H         1 GLN         0.0337
    152 H45        13.5816   16.9105   34.9908 H         1 GLN         0.0504
    153 H46        12.6196   16.9079   33.4739 H         1 GLN         0.0504
    154 H47         9.7284   16.0110   35.1374 H         1 GLN         0.1814
    155 H48        10.7336   15.9445   33.7285 H         1 GLN         0.1814
    156 H49        13.7350   17.7481   31.4630 H         1 ASP         0.1884
    157 H50        14.9985   15.3103   31.9508 H         1 ASP         0.0819
    158 H51        15.3157   15.1188   29.4354 H         1 ASP         0.0478
    159 H52        14.7067   16.8031   29.2975 H         1 ASP         0.0478
    160 H53        16.4403   18.3004   30.5641 H         1 LEU         0.1883
    161 H54        18.9695   16.9580   30.0749 H         1 LEU         0.0800
    162 H55        19.8291   19.2583   29.5632 H         1 LEU         0.0315
    163 H56        18.2131   19.9062   30.0051 H         1 LEU         0.0315
    164 H57        17.2066   18.5139   28.2126 H         1 LEU         0.0298
    165 H58        18.0220   19.8925   26.3302 H         1 LEU         0.0232
    166 H59        19.4242   20.4093   27.3269 H         1 LEU         0.0232
    167 H60        17.7570   20.8634   27.8180 H         1 LEU         0.0232
    168 H61        18.9396   16.7608   28.1136 H         1 LEU         0.0232
    169 H62        20.0942   17.9498   27.4209 H         1 LEU         0.0232
    170 H63        18.6204   17.4893   26.5030 H         1 LEU         0.0232
    171 H64        17.7709   19.1902   32.6099 H         1 THR         0.1884
    172 H65        20.2109   19.4734   33.9989 H         1 THR         0.0826
    173 H66        17.3897   19.2300   35.1757 H         1 THR         0.0639
    174 H67        17.5762   21.5758   35.0280 H         1 THR         0.2101
    175 H68        18.3597   20.6095   37.0299 H         1 THR         0.0257
    176 H69        19.9658   20.5729   36.2263 H         1 THR         0.0257
    177 H70        19.2530   19.0585   36.8785 H         1 THR         0.0257
    178 H71        17.7567   16.8493   34.2107 H         1 LYS         0.1883
    179 H72        19.0689   15.2939   36.2027 H         1 LYS         0.0800
    180 H73        17.4039   14.2791   33.8613 H         1 LYS         0.0310
    181 H74        16.7096   15.0519   35.3267 H         1 LYS         0.0310
    182 H75        16.5529   12.6119   35.4383 H         1 LYS         0.0232
    183 H76        17.6402   13.2511   36.7173 H         1 LYS         0.0232
    184 H77        18.3344   12.4782   35.2519 H         1 LYS         0.0232
    185 H78        19.2989   15.1230   32.6056 H         1 LEU         0.1883
    186 H79        20.9800   12.8127   32.5725 H         1 LEU         0.0800
    187 H80        21.5769   13.5875   30.2375 H         1 LEU         0.0315
    188 H81        20.5728   15.0461   30.5390 H         1 LEU         0.0315
    189 H82        18.6846   13.3625   31.1301 H         1 LEU         0.0298
    190 H83        18.0268   13.1482   28.7685 H         1 LEU         0.0232
    191 H84        19.6904   13.6043   28.2678 H         1 LEU         0.0232
    192 H85        18.6612   14.7858   29.1461 H         1 LEU         0.0232
    193 H86        20.1589   11.3644   31.2593 H         1 LEU         0.0232
    194 H87        20.5250   11.5287   29.5084 H         1 LEU         0.0232
    195 H88        18.8519   11.1551   30.0450 H         1 LEU         0.0232
    196 H89        21.6235   16.2540   32.8124 H         1 LEU         0.1883
    197 H90        24.4486   15.9850   32.2459 H         1 LEU         0.0800
    198 H91        24.4435   18.4210   33.1202 H         1 LEU         0.0315
    199 H92        22.6577   18.2412   33.1931 H         1 LEU         0.0315
    200 H93        22.6135   17.7662   30.7795 H         1 LEU         0.0298
    201 H94        23.1724   20.0444   30.0478 H         1 LEU         0.0232
    202 H95        24.0819   20.3032   31.5749 H         1 LEU         0.0232
    203 H96        22.3075   20.0280   31.6220 H         1 LEU         0.0232
    204 H97        24.8564   16.7726   30.5742 H         1 LEU         0.0232
    205 H98        25.5960   18.3802   30.8825 H         1 LEU         0.0232
    206 H99        24.6107   18.1134   29.4044 H         1 LEU         0.0232
    207 H100       22.5995   15.5626   35.1324 H         1 LEU         0.1883
    208 H101       25.0065   16.0348   36.8260 H         1 LEU         0.0797
    209 H102       23.4360   15.8653   38.7561 H         1 LEU         0.0277
    210 H103       22.0808   15.5734   37.6138 H         1 LEU         0.0277
    211 H104       22.9477   17.1466   37.5958 H         1 LEU         0.0277
    212 H105       22.5136   13.5544   36.1951 H         1 GLU         0.1885
    213 H106       23.2950   11.3936   37.6481 H         1 GLU         0.0817
    214 H107       22.8113   10.0744   35.3857 H         1 GLU         0.0331
    215 H108       22.2887   11.6995   34.8266 H         1 GLU         0.0331
    216 H109       20.6924   11.8316   36.6865 H         1 GLU         0.0433
    217 H110       21.2212   10.2136   37.2602 H         1 GLU         0.0433
    218 H111       26.5520   11.5823   36.9774 H         1 GLU         0.2540
@<TRIPOS>BOND
     1    2    1 1  
     2    2    5 1  
     3    3    2 1  
     4    3    4 2  
     5    5    6 1  
     6    6    7 1  
     7    6    8 1  
     8   11   10 1  
     9   10   13 1  
    10   10    9 1  
    11    9   15 1  
    12   15   14 1  
    13   13   14 1  
    14   11   12 2  
    15    9    3 am 
    16   18   17 1  
    17   17   20 1  
    18   17   16 1  
    19   16   22 1  
    20   22   21 1  
    21   20   21 1  
    22   18   19 2  
    23   16   11 am 
    24   24   23 1  
    25   24   27 1  
    26   25   24 1  
    27   25   26 2  
    28   27   29 1  
    29   27   28 1  
    30   23   18 am 
    31   31   30 1  
    32   31   34 1  
    33   32   31 1  
    34   32   33 2  
    35   34   35 1  
    36   35   36 1  
    37   36   38 ar 
    38   36   37 ar 
    39   30   25 am 
    40   40   39 1  
    41   40   43 1  
    42   41   40 1  
    43   41   42 2  
    44   43   44 1  
    45   44   45 1  
    46   45   47 am 
    47   45   46 2  
    48   39   32 am 
    49   49   48 1  
    50   49   52 1  
    51   50   49 1  
    52   50   51 2  
    53   52   53 1  
    54   53   54 ar 
    55   53   55 ar 
    56   48   41 am 
    57   57   56 1  
    58   57   60 1  
    59   58   57 1  
    60   58   59 2  
    61   60   61 1  
    62   61   62 1  
    63   61   63 1  
    64   56   50 am 
    65   65   64 1  
    66   65   68 1  
    67   66   65 1  
    68   66   67 2  
    69   68   70 1  
    70   68   69 1  
    71   64   58 am 
    72   72   71 1  
    73   72   75 1  
    74   73   72 1  
    75   73   74 2  
    76   75   76 1  
    77   71   66 am 
    78   78   77 1  
    79   78   81 1  
    80   79   78 1  
    81   79   80 2  
    82   81   82 1  
    83   82   83 1  
    84   82   84 1  
    85   77   73 am 
    86   86   85 1  
    87   86   89 1  
    88   87   86 1  
    89   87   88 2  
    90   89   90 1  
    91   90   91 1  
    92   90   92 1  
    93   85   79 am 
    94   94   93 1  
    95   94   97 1  
    96   95   94 1  
    97   95   96 2  
    98   93   87 am 
    99   98   99 1  
   100   99  102 1  
   101   99  100 1  
   102  100  101 2  
   103  102  103 1  
   104  103  104 1  
   105  104  106 ar 
   106  104  105 ar 
   107   95   98 am 
   108  100  107 1  
   109    1  108 1  
   110    1  109 1  
   111    1  110 1  
   112    2  111 1  
   113    5  112 1  
   114    5  113 1  
   115    6  114 1  
   116    7  115 1  
   117    7  116 1  
   118    7  117 1  
   119    8  118 1  
   120    8  119 1  
   121    8  120 1  
   122   10  121 1  
   123   13  122 1  
   124   13  123 1  
   125   14  124 1  
   126   14  125 1  
   127   15  126 1  
   128   15  127 1  
   129   17  128 1  
   130   20  129 1  
   131   20  130 1  
   132   21  131 1  
   133   21  132 1  
   134   22  133 1  
   135   22  134 1  
   136   23  135 1  
   137   24  136 1  
   138   27  137 1  
   139   28  138 1  
   140   29  139 1  
   141   29  140 1  
   142   29  141 1  
   143   30  142 1  
   144   31  143 1  
   145   34  144 1  
   146   34  145 1  
   147   35  146 1  
   148   35  147 1  
   149   39  148 1  
   150   40  149 1  
   151   43  150 1  
   152   43  151 1  
   153   44  152 1  
   154   44  153 1  
   155   47  154 1  
   156   47  155 1  
   157   48  156 1  
   158   49  157 1  
   159   52  158 1  
   160   52  159 1  
   161   56  160 1  
   162   57  161 1  
   163   60  162 1  
   164   60  163 1  
   165   61  164 1  
   166   62  165 1  
   167   62  166 1  
   168   62  167 1  
   169   63  168 1  
   170   63  169 1  
   171   63  170 1  
   172   64  171 1  
   173   65  172 1  
   174   68  173 1  
   175   69  174 1  
   176   70  175 1  
   177   70  176 1  
   178   70  177 1  
   179   71  178 1  
   180   72  179 1  
   181   75  180 1  
   182   75  181 1  
   183   76  182 1  
   184   76  183 1  
   185   76  184 1  
   186   77  185 1  
   187   78  186 1  
   188   81  187 1  
   189   81  188 1  
   190   82  189 1  
   191   83  190 1  
   192   83  191 1  
   193   83  192 1  
   194   84  193 1  
   195   84  194 1  
   196   84  195 1  
   197   85  196 1  
   198   86  197 1  
   199   89  198 1  
   200   89  199 1  
   201   90  200 1  
   202   91  201 1  
   203   91  202 1  
   204   91  203 1  
   205   92  204 1  
   206   92  205 1  
   207   92  206 1  
   208   93  207 1  
   209   94  208 1  
   210   97  209 1  
   211   97  210 1  
   212   97  211 1  
   213   98  212 1  
   214   99  213 1  
   215  102  214 1  
   216  102  215 1  
   217  103  216 1  
   218  103  217 1  
   219  107  218 1  
@<TRIPOS>SUBSTRUCTURE
     1 LEU         1

