1oj5_ligand
  -I-interpret- 

221222  0  0  0  0  0  0  0  0999 V2000
    9.7800   13.4640   20.4140 N   0  3  0  0  0
    9.5400   14.3110   21.6290 C   0  0  0  0  0
   10.8450   14.9360   22.1410 C   0  0  0  0  0
   11.7330   14.2280   22.6320 O   0  0  0  0  0
    8.8820   13.4480   22.7190 C   0  0  0  0  0
    8.4990   14.1040   24.0500 C   0  0  0  0  0
    7.4480   15.1790   23.8630 C   0  0  0  0  0
    7.9830   13.0110   24.9920 C   0  0  0  0  0
   11.0040   16.2490   22.0130 N   0  0  0  0  0
   12.2230   16.8720   22.5170 C   0  0  0  0  0
   12.3960   16.7170   24.0410 C   0  0  0  0  0
   11.4100   16.5590   24.7500 O   0  0  0  0  0
   12.0520   18.3380   22.1300 C   0  0  0  0  0
   11.1040   18.3040   20.9880 C   0  0  0  0  0
   10.1250   17.2350   21.3580 C   0  0  0  0  0
   13.6320   16.7560   24.5230 N   0  0  0  0  0
   13.8950   16.8100   25.9610 C   0  0  0  0  0
   13.5630   18.1900   26.5830 C   0  0  0  0  0
   13.9240   19.2380   26.0450 O   0  0  0  0  0
   15.3920   16.5480   26.0390 C   0  0  0  0  0
   15.9220   17.0860   24.7430 C   0  0  0  0  0
   14.8770   16.7560   23.7340 C   0  0  0  0  0
   12.8660   18.1810   27.7090 N   0  0  0  0  0
   12.6100   19.4030   28.4480 C   0  0  0  0  0
   13.8700   19.8400   29.2110 C   0  0  0  0  0
   14.8400   19.0850   29.3510 O   0  0  0  0  0
   11.4990   19.1830   29.5030 C   0  0  0  0  0
   11.9530   18.2210   30.4610 O   0  0  0  0  0
   10.2320   18.5690   28.8980 C   0  0  0  0  0
   13.8060   21.0590   29.7290 N   0  0  0  0  0
   14.8240   21.6360   30.6110 C   0  0  0  0  0
   15.1370   20.7010   31.7820 C   0  0  0  0  0
   16.2980   20.4690   32.0800 O   0  0  0  0  0
   14.3490   23.0040   31.1490 C   0  0  0  0  0
   15.4460   23.8800   31.7660 C   0  0  0  0  0
   15.8150   23.4920   33.1850 C   0  0  0  0  0
   17.0310   23.3940   33.4790 O   0  0  0  0  0
   14.8960   23.2890   34.0100 O   0  0  0  0  0
   14.1080   20.1360   32.4090 N   0  0  0  0  0
   14.3270   19.2090   33.5360 C   0  0  0  0  0
   14.9600   17.8830   33.0670 C   0  0  0  0  0
   15.8250   17.3660   33.7520 O   0  0  0  0  0
   13.0060   18.8920   34.2890 C   0  0  0  0  0
   12.7200   17.3570   34.4730 C   0  0  0  0  0
   11.4690   17.0200   35.2670 C   0  0  0  0  0
   11.3320   17.4160   36.4140 O   0  0  0  0  0
   10.5710   16.2640   34.6620 N   0  0  0  0  0
   14.5290   17.3460   31.9190 N   0  0  0  0  0
   15.1880   16.1840   31.3100 C   0  0  0  0  0
   16.7000   16.4100   31.2080 C   0  0  0  0  0
   17.4830   15.5430   31.5700 O   0  0  0  0  0
   14.6630   15.8780   29.8910 C   0  0  0  0  0
   13.2470   15.3640   29.8670 C   0  0  0  0  0
   12.7290   14.9040   30.9110 O   0  0  0  0  0
   12.5670   15.3960   28.8180 O   0  0  0  0  0
   17.1110   17.5850   30.7600 N   0  0  0  0  0
   18.5360   17.8520   30.5470 C   0  0  0  0  0
   19.2880   18.0980   31.8530 C   0  0  0  0  0
   20.4350   17.6890   31.9880 O   0  0  0  0  0
   18.7520   19.0380   29.5980 C   0  0  0  0  0
   18.2670   18.8030   28.1690 C   0  0  0  0  0
   18.3750   20.0800   27.3550 C   0  0  0  0  0
   19.0330   17.6730   27.5060 C   0  0  0  0  0
   18.6620   18.7780   32.8000 N   0  0  0  0  0
   19.2620   18.9290   34.1140 C   0  0  0  0  0
   19.5740   17.5470   34.7290 C   0  0  0  0  0
   20.6680   17.3280   35.2410 O   0  0  0  0  0
   18.3450   19.7560   35.0320 C   0  0  0  0  0
   18.1300   21.0620   34.4520 O   0  0  0  0  0
   19.0300   20.0180   36.3890 C   0  0  0  0  0
   18.6310   16.6120   34.6340 N   0  0  0  0  0
   18.8310   15.2430   35.1300 C   0  0  0  0  0
   19.9750   14.5100   34.4120 C   0  0  0  0  0
   20.8300   13.8990   35.0470 O   0  0  0  0  0
   17.5440   14.4490   34.9390 C   0  0  0  0  0
   17.5160   13.1060   35.6340 C   0  0  0  0  0
   19.9930   14.5790   33.0770 N   0  0  0  0  0
   21.0060   13.8760   32.2920 C   0  0  0  0  0
   22.3900   14.4150   32.5930 C   0  0  0  0  0
   23.3580   13.6580   32.6750 O   0  0  0  0  0
   20.7140   13.9850   30.7920 C   0  0  0  0  0
   19.4600   13.2100   30.3650 C   0  0  0  0  0
   18.9230   13.7220   29.0470 C   0  0  0  0  0
   19.7710   11.7080   30.2890 C   0  0  0  0  0
   22.4680   15.7190   32.7890 N   0  0  0  0  0
   23.7370   16.4050   32.9720 C   0  0  0  0  0
   24.3360   16.2420   34.3630 C   0  0  0  0  0
   25.4920   16.5770   34.5360 O   0  0  0  0  0
   23.5750   17.9000   32.6910 C   0  0  0  0  0
   23.4760   18.2870   31.2210 C   0  0  0  0  0
   23.2440   19.7640   31.1090 C   0  0  0  0  0
   24.7200   17.8590   30.4690 C   0  0  0  0  0
   23.5580   15.7590   35.3390 N   0  0  0  0  0
   24.0510   15.5030   36.7070 C   0  0  0  0  0
   24.3120   14.0010   36.9630 C   0  0  0  0  0
   25.3520   13.6160   37.5010 O   0  0  0  0  0
   23.0580   16.0620   37.7420 C   0  0  0  0  0
   23.3610   13.1660   36.5570 N   0  0  0  0  0
   23.4870   11.7060   36.6110 C   0  0  0  0  0
   24.8810   11.1980   36.2220 C   0  0  0  0  0
   25.1600   10.9440   35.0500 O   0  0  0  0  0
   22.4330   11.0560   35.7070 C   0  0  0  0  0
   21.0840   10.8520   36.3750 C   0  0  0  0  0
   20.0760   10.1960   35.4540 C   0  0  0  0  0
   19.0310    9.7240   35.9620 O   0  0  0  0  0
   20.3290   10.1560   34.2250 O   0  0  0  0  0
   25.8029   11.0292   37.1656 O   0  0  0  0  0
    8.8958   13.0644   20.0995 H   0  0  0  0  0
   10.1769   14.0406   19.6721 H   0  0  0  0  0
   10.4299   12.7133   20.6473 H   0  0  0  0  0
    8.8743   15.1322   21.3633 H   0  0  0  0  0
    9.6319   12.7007   22.9782 H   0  0  0  0  0
    7.9382   13.1172   22.2855 H   0  0  0  0  0
    9.3775   14.5899   24.4746 H   0  0  0  0  0
    6.5489   14.7358   23.4349 H   0  0  0  0  0
    7.2103   15.6249   24.8288 H   0  0  0  0  0
    7.8313   15.9471   23.1912 H   0  0  0  0  0
    7.7470   13.4502   25.9613 H   0  0  0  0  0
    7.0856   12.5611   24.5674 H   0  0  0  0  0
    8.7507   12.2470   25.1150 H   0  0  0  0  0
   13.1171   16.4084   22.1002 H   0  0  0  0  0
   12.9995   18.8069   21.8646 H   0  0  0  0  0
   11.6784   18.9413   22.9574 H   0  0  0  0  0
   10.6204   19.2672   20.8252 H   0  0  0  0  0
   11.6049   18.0947   20.0428 H   0  0  0  0  0
    9.3126   17.5870   21.9938 H   0  0  0  0  0
    9.5743   16.8330   20.5076 H   0  0  0  0  0
   13.2803   16.0997   26.5139 H   0  0  0  0  0
   15.6202   15.4904   26.1717 H   0  0  0  0  0
   15.8509   17.0269   26.9039 H   0  0  0  0  0
   16.1083   18.1586   24.7964 H   0  0  0  0  0
   16.8855   16.6458   24.4862 H   0  0  0  0  0
   14.8509   17.4676   22.9088 H   0  0  0  0  0
   15.0592   15.8029   23.2375 H   0  0  0  0  0
   12.5017   17.2969   28.0640 H   0  0  0  0  0
   12.3084   20.1603   27.7244 H   0  0  0  0  0
   11.2802   20.1613   29.9311 H   0  0  0  0  0
   11.2688   18.0791   31.1192 H   0  0  0  0  0
    9.8394   19.2337   28.1285 H   0  0  0  0  0
   10.4736   17.6023   28.4561 H   0  0  0  0  0
    9.4850   18.4358   29.6805 H   0  0  0  0  0
   12.9948   21.6327   29.4983 H   0  0  0  0  0
   15.7345   21.7718   30.0274 H   0  0  0  0  0
   13.6315   22.7960   31.9427 H   0  0  0  0  0
   13.9516   23.5546   30.2963 H   0  0  0  0  0
   15.0667   24.9014   31.7969 H   0  0  0  0  0
   16.3398   23.7601   31.1538 H   0  0  0  0  0
   17.5631   23.5901   32.7044 H   0  0  0  0  0
   13.1567   20.3462   32.1069 H   0  0  0  0  0
   15.0124   19.7163   34.2150 H   0  0  0  0  0
   12.1904   19.3015   33.6930 H   0  0  0  0  0
   13.0929   19.3243   35.2858 H   0  0  0  0  0
   13.5627   16.9471   35.0296 H   0  0  0  0  0
   12.5763   16.9444   33.4744 H   0  0  0  0  0
    9.7214   15.9881   35.1545 H   0  0  0  0  0
   10.7270   15.9559   33.7022 H   0  0  0  0  0
   13.7192   17.7561   31.4538 H   0  0  0  0  0
   14.9624   15.3394   31.9611 H   0  0  0  0  0
   15.2993   15.1002   29.4687 H   0  0  0  0  0
   14.6805   16.8116   29.3286 H   0  0  0  0  0
   13.3665   14.9441   31.6277 H   0  0  0  0  0
   16.4269   18.3147   30.5602 H   0  0  0  0  0
   18.9427   16.9504   30.0889 H   0  0  0  0  0
   19.8267   19.2124   29.5453 H   0  0  0  0  0
   18.1769   19.8739   29.9964 H   0  0  0  0  0
   17.2183   18.5091   28.2128 H   0  0  0  0  0
   17.7623   20.8554   27.8149 H   0  0  0  0  0
   19.4150   20.4053   27.3280 H   0  0  0  0  0
   18.0250   19.8929   26.3398 H   0  0  0  0  0
   20.0935   17.9230   27.4764 H   0  0  0  0  0
   18.8905   16.7553   28.0767 H   0  0  0  0  0
   18.6632   17.5319   26.4904 H   0  0  0  0  0
   17.7531   19.1984   32.6061 H   0  0  0  0  0
   20.2039   19.4674   34.0089 H   0  0  0  0  0
   17.4169   19.1977   35.1551 H   0  0  0  0  0
   17.5577   21.5758   35.0266 H   0  0  0  0  0
   19.2504   19.0665   36.8730 H   0  0  0  0  0
   19.9571   20.5678   36.2264 H   0  0  0  0  0
   18.3649   20.6042   37.0231 H   0  0  0  0  0
   17.7392   16.8540   34.2022 H   0  0  0  0  0
   19.0985   15.3183   36.1840 H   0  0  0  0  0
   17.4490   14.2538   33.8708 H   0  0  0  0  0
   16.7389   15.0443   35.3697 H   0  0  0  0  0
   18.3274   12.4850   35.2545 H   0  0  0  0  0
   17.6392   13.2511   36.7073 H   0  0  0  0  0
   16.5613   12.6174   35.4393 H   0  0  0  0  0
   19.2850   15.1339   32.5961 H   0  0  0  0  0
   20.9716   12.8237   32.5742 H   0  0  0  0  0
   21.5638   13.5605   30.2574 H   0  0  0  0  0
   20.5471   15.0374   30.5626 H   0  0  0  0  0
   18.6846   13.3670   31.1149 H   0  0  0  0  0
   18.6640   14.7761   29.1465 H   0  0  0  0  0
   19.6843   13.6049   28.2758 H   0  0  0  0  0
   18.0350   13.1527   28.7722 H   0  0  0  0  0
   20.5634   11.5388   29.5599 H   0  0  0  0  0
   20.0951   11.3554   31.2681 H   0  0  0  0  0
   18.8745   11.1676   29.9852 H   0  0  0  0  0
   21.6066   16.2647   32.8129 H   0  0  0  0  0
   24.4227   15.9382   32.2649 H   0  0  0  0  0
   24.4698   18.3865   33.0794 H   0  0  0  0  0
   22.6356   18.2018   33.1543 H   0  0  0  0  0
   22.6317   17.7690   30.7660 H   0  0  0  0  0
   22.3158   20.0243   31.6177 H   0  0  0  0  0
   24.0749   20.2971   31.5711 H   0  0  0  0  0
   23.1732   20.0406   30.0571 H   0  0  0  0  0
   25.5920   18.3470   30.9043 H   0  0  0  0  0
   24.8331   16.7774   30.5421 H   0  0  0  0  0
   24.6265   18.1458   29.4216 H   0  0  0  0  0
   22.5803   15.5587   35.1283 H   0  0  0  0  0
   25.0068   16.0164   36.8115 H   0  0  0  0  0
   22.9496   17.1367   37.5960 H   0  0  0  0  0
   22.0902   15.5772   37.6139 H   0  0  0  0  0
   23.4336   15.8665   38.7464 H   0  0  0  0  0
   22.4966   13.5622   36.1878 H   0  0  0  0  0
   23.3269   11.4218   37.6511 H   0  0  0  0  0
   22.8084   10.0707   35.4307 H   0  0  0  0  0
   22.2762   11.7256   34.8613 H   0  0  0  0  0
   20.6960   11.8309   36.6566 H   0  0  0  0  0
   21.2294   10.1988   37.2354 H   0  0  0  0  0
   21.1775   10.5738   34.0603 H   0  0  0  0  0
   25.4334   11.2683   38.0188 H   0  0  0  0  0
  2  1  1  0  0  0
  2  5  1  0  0  0
  3  2  1  0  0  0
  3  4  2  0  0  0
  5  6  1  0  0  0
  6  7  1  0  0  0
  6  8  1  0  0  0
 11 10  1  0  0  0
 10 13  1  0  0  0
 10  9  1  0  0  0
  9 15  1  0  0  0
 15 14  1  0  0  0
 13 14  1  0  0  0
 11 12  2  0  0  0
  9  3  1  0  0  0
 18 17  1  0  0  0
 17 20  1  0  0  0
 17 16  1  0  0  0
 16 22  1  0  0  0
 22 21  1  0  0  0
 20 21  1  0  0  0
 18 19  2  0  0  0
 16 11  1  0  0  0
 24 23  1  0  0  0
 24 27  1  0  0  0
 25 24  1  0  0  0
 25 26  2  0  0  0
 27 29  1  0  0  0
 27 28  1  0  0  0
 23 18  1  0  0  0
 31 30  1  0  0  0
 31 34  1  0  0  0
 32 31  1  0  0  0
 32 33  2  0  0  0
 34 35  1  0  0  0
 35 36  1  0  0  0
 36 38  2  0  0  0
 36 37  1  0  0  0
 30 25  1  0  0  0
 40 39  1  0  0  0
 40 43  1  0  0  0
 41 40  1  0  0  0
 41 42  2  0  0  0
 43 44  1  0  0  0
 44 45  1  0  0  0
 45 47  1  0  0  0
 45 46  2  0  0  0
 39 32  1  0  0  0
 49 48  1  0  0  0
 49 52  1  0  0  0
 50 49  1  0  0  0
 50 51  2  0  0  0
 52 53  1  0  0  0
 53 54  1  0  0  0
 53 55  2  0  0  0
 48 41  1  0  0  0
 57 56  1  0  0  0
 57 60  1  0  0  0
 58 57  1  0  0  0
 58 59  2  0  0  0
 60 61  1  0  0  0
 61 62  1  0  0  0
 61 63  1  0  0  0
 56 50  1  0  0  0
 65 64  1  0  0  0
 65 68  1  0  0  0
 66 65  1  0  0  0
 66 67  2  0  0  0
 68 70  1  0  0  0
 68 69  1  0  0  0
 64 58  1  0  0  0
 72 71  1  0  0  0
 72 75  1  0  0  0
 73 72  1  0  0  0
 73 74  2  0  0  0
 75 76  1  0  0  0
 71 66  1  0  0  0
 78 77  1  0  0  0
 78 81  1  0  0  0
 79 78  1  0  0  0
 79 80  2  0  0  0
 81 82  1  0  0  0
 82 83  1  0  0  0
 82 84  1  0  0  0
 77 73  1  0  0  0
 86 85  1  0  0  0
 86 89  1  0  0  0
 87 86  1  0  0  0
 87 88  2  0  0  0
 89 90  1  0  0  0
 90 91  1  0  0  0
 90 92  1  0  0  0
 85 79  1  0  0  0
 94 93  1  0  0  0
 94 97  1  0  0  0
 95 94  1  0  0  0
 95 96  2  0  0  0
 93 87  1  0  0  0
 98 99  1  0  0  0
 99102  1  0  0  0
 99100  1  0  0  0
100101  2  0  0  0
102103  1  0  0  0
103104  1  0  0  0
104106  1  0  0  0
104105  2  0  0  0
 95 98  1  0  0  0
100107  1  0  0  0
  1108  1  0  0  0
  1109  1  0  0  0
  1110  1  0  0  0
  2111  1  0  0  0
  5112  1  0  0  0
  5113  1  0  0  0
  6114  1  0  0  0
  7115  1  0  0  0
  7116  1  0  0  0
  7117  1  0  0  0
  8118  1  0  0  0
  8119  1  0  0  0
  8120  1  0  0  0
 10121  1  0  0  0
 13122  1  0  0  0
 13123  1  0  0  0
 14124  1  0  0  0
 14125  1  0  0  0
 15126  1  0  0  0
 15127  1  0  0  0
 17128  1  0  0  0
 20129  1  0  0  0
 20130  1  0  0  0
 21131  1  0  0  0
 21132  1  0  0  0
 22133  1  0  0  0
 22134  1  0  0  0
 23135  1  0  0  0
 24136  1  0  0  0
 27137  1  0  0  0
 28138  1  0  0  0
 29139  1  0  0  0
 29140  1  0  0  0
 29141  1  0  0  0
 30142  1  0  0  0
 31143  1  0  0  0
 34144  1  0  0  0
 34145  1  0  0  0
 35146  1  0  0  0
 35147  1  0  0  0
 37148  1  0  0  0
 39149  1  0  0  0
 40150  1  0  0  0
 43151  1  0  0  0
 43152  1  0  0  0
 44153  1  0  0  0
 44154  1  0  0  0
 47155  1  0  0  0
 47156  1  0  0  0
 48157  1  0  0  0
 49158  1  0  0  0
 52159  1  0  0  0
 52160  1  0  0  0
 54161  1  0  0  0
 56162  1  0  0  0
 57163  1  0  0  0
 60164  1  0  0  0
 60165  1  0  0  0
 61166  1  0  0  0
 62167  1  0  0  0
 62168  1  0  0  0
 62169  1  0  0  0
 63170  1  0  0  0
 63171  1  0  0  0
 63172  1  0  0  0
 64173  1  0  0  0
 65174  1  0  0  0
 68175  1  0  0  0
 69176  1  0  0  0
 70177  1  0  0  0
 70178  1  0  0  0
 70179  1  0  0  0
 71180  1  0  0  0
 72181  1  0  0  0
 75182  1  0  0  0
 75183  1  0  0  0
 76184  1  0  0  0
 76185  1  0  0  0
 76186  1  0  0  0
 77187  1  0  0  0
 78188  1  0  0  0
 81189  1  0  0  0
 81190  1  0  0  0
 82191  1  0  0  0
 83192  1  0  0  0
 83193  1  0  0  0
 83194  1  0  0  0
 84195  1  0  0  0
 84196  1  0  0  0
 84197  1  0  0  0
 85198  1  0  0  0
 86199  1  0  0  0
 89200  1  0  0  0
 89201  1  0  0  0
 90202  1  0  0  0
 91203  1  0  0  0
 91204  1  0  0  0
 91205  1  0  0  0
 92206  1  0  0  0
 92207  1  0  0  0
 92208  1  0  0  0
 93209  1  0  0  0
 94210  1  0  0  0
 97211  1  0  0  0
 97212  1  0  0  0
 97213  1  0  0  0
 98214  1  0  0  0
 99215  1  0  0  0
102216  1  0  0  0
102217  1  0  0  0
103218  1  0  0  0
103219  1  0  0  0
106220  1  0  0  0
107221  1  0  0  0
M  END
$$$$
