5ia0_ligand
  -I-interpret- 

 57 61  0  0  0  0  0  0  0  0999 V2000
  -27.9460   -5.3080  -25.1200 C   0  0  0  0  0
  -27.1040   -6.4680  -25.2490 O   0  0  0  0  0
  -26.1310   -6.4040  -26.2040 C   0  0  0  0  0
  -26.0470   -5.3480  -27.1240 C   0  0  0  0  0
  -25.2260   -7.4730  -26.2330 C   0  0  0  0  0
  -25.2430   -8.5410  -25.3150 C   0  0  0  0  0
  -24.7370   -9.6430  -25.6150 O   0  0  0  0  0
  -25.6400   -8.3720  -24.1420 O   0  0  0  0  0
  -24.2220   -7.4500  -27.1880 C   0  0  0  0  0
  -24.1530   -6.4080  -28.1100 C   0  0  0  0  0
  -25.0390   -5.3400  -28.0870 C   0  0  0  0  0
  -24.8200   -4.4020  -29.0360 N   0  0  0  0  0
  -25.4280   -3.2130  -29.1590 C   0  0  0  0  0
  -26.5570   -2.8690  -28.5160 N   0  0  0  0  0
  -24.8650   -2.3530  -30.0410 N   0  0  0  0  0
  -25.4270   -1.0910  -30.2620 C   0  0  0  0  0
  -26.5750   -0.7490  -29.5670 C   0  0  0  0  0
  -27.0330    0.5280  -29.8960 C   0  0  0  0  0
  -27.2720    1.3110  -28.6670 N   0  0  0  0  0
  -27.1230   -1.6660  -28.6810 C   0  0  0  0  0
  -28.2830   -1.4570  -27.9470 C   0  0  0  0  0
  -29.0150   -2.6210  -27.7130 C   0  0  0  0  0
  -30.2230   -2.5310  -27.0240 C   0  0  0  0  0
  -30.6760   -1.2940  -26.5660 C   0  0  0  0  0
  -32.1900   -1.1490  -25.6980 Cl  0  0  0  0  0
  -29.9250   -0.1450  -26.7890 C   0  0  0  0  0
  -28.7380   -0.2230  -27.5050 C   0  0  0  0  0
  -28.0660    0.9990  -27.6480 C   0  0  0  0  0
  -28.0430    1.8980  -26.5800 C   0  0  0  0  0
  -27.4650    1.5370  -25.3530 C   0  0  0  0  0
  -26.9230    0.2300  -25.1360 F   0  0  0  0  0
  -27.4380    2.4460  -24.2960 C   0  0  0  0  0
  -27.9670    3.7230  -24.4710 C   0  0  0  0  0
  -28.5240    4.0940  -25.6950 C   0  0  0  0  0
  -28.5440    3.1760  -26.7360 C   0  0  0  0  0
  -29.0580    3.4460  -27.9550 O   0  0  0  0  0
  -28.7590    4.7810  -28.3290 C   0  0  0  0  0
  -27.3335   -4.4422  -24.8682 H   0  0  0  0  0
  -28.4615   -5.1280  -26.0634 H   0  0  0  0  0
  -28.6785   -5.4783  -24.3310 H   0  0  0  0  0
  -26.7703   -4.5334  -27.0858 H   0  0  0  0  0
  -26.0031   -7.4878  -24.0525 H   0  0  0  0  0
  -23.4831   -8.2507  -27.2178 H   0  0  0  0  0
  -23.3771   -6.4323  -28.8752 H   0  0  0  0  0
  -24.1130   -4.6236  -29.7370 H   0  0  0  0  0
  -24.9719   -0.3932  -30.9649 H   0  0  0  0  0
  -27.9657    0.4419  -30.4534 H   0  0  0  0  0
  -26.2815    1.0333  -30.5026 H   0  0  0  0  0
  -28.6480   -3.5857  -28.0635 H   0  0  0  0  0
  -30.8145   -3.4284  -26.8428 H   0  0  0  0  0
  -30.2675    0.8149  -26.4025 H   0  0  0  0  0
  -27.0052    2.1590  -23.3377 H   0  0  0  0  0
  -27.9455    4.4361  -23.6469 H   0  0  0  0  0
  -28.9385    5.0927  -25.8323 H   0  0  0  0  0
  -29.1906    5.4666  -27.5997 H   0  0  0  0  0
  -27.6777    4.9148  -28.3599 H   0  0  0  0  0
  -29.1798    4.9840  -29.3138 H   0  0  0  0  0
  1  2  1  0  0  0
  2  3  1  0  0  0
  3  4  4  0  0  0
  3  5  4  0  0  0
  4 11  4  0  0  0
  5  6  1  0  0  0
  5  9  4  0  0  0
  6  7  2  0  0  0
  6  8  1  0  0  0
  9 10  4  0  0  0
 10 11  4  0  0  0
 11 12  1  0  0  0
 12 13  1  0  0  0
 13 14  4  0  0  0
 13 15  4  0  0  0
 14 20  4  0  0  0
 15 16  4  0  0  0
 16 17  4  0  0  0
 17 18  1  0  0  0
 17 20  4  0  0  0
 18 19  1  0  0  0
 19 28  2  0  0  0
 20 21  1  0  0  0
 21 22  4  0  0  0
 21 27  4  0  0  0
 22 23  4  0  0  0
 23 24  4  0  0  0
 24 25  1  0  0  0
 24 26  4  0  0  0
 26 27  4  0  0  0
 27 28  1  0  0  0
 28 29  1  0  0  0
 29 30  4  0  0  0
 29 35  4  0  0  0
 30 31  1  0  0  0
 30 32  4  0  0  0
 32 33  4  0  0  0
 33 34  4  0  0  0
 34 35  4  0  0  0
 35 36  1  0  0  0
 36 37  1  0  0  0
  1 38  1  0  0  0
  1 39  1  0  0  0
  1 40  1  0  0  0
  4 41  1  0  0  0
  8 42  1  0  0  0
  9 43  1  0  0  0
 10 44  1  0  0  0
 12 45  1  0  0  0
 16 46  1  0  0  0
 18 47  1  0  0  0
 18 48  1  0  0  0
 22 49  1  0  0  0
 23 50  1  0  0  0
 26 51  1  0  0  0
 32 52  1  0  0  0
 33 53  1  0  0  0
 34 54  1  0  0  0
 37 55  1  0  0  0
 37 56  1  0  0  0
 37 57  1  0  0  0
M  END
$$$$
