3jpv_ligand
  -I-interpret- 

 26 29  0  0  0  0  0  0  0  0999 V2000
   25.9580   47.7130   -0.6830 C   0  0  0  0  0
   25.5940   46.4990   -1.2530 C   0  0  0  0  0
   25.2090   45.4660   -0.4020 C   0  0  0  0  0
   25.1930   45.6560    0.9930 C   0  0  0  0  0
   25.5530   46.8670    1.5720 C   0  0  0  0  0
   25.9480   47.8800    0.7160 C   0  0  0  0  0
   26.3450   49.1820    0.9840 C   0  0  0  0  0
   26.5880   49.7730   -0.2590 C   0  0  0  0  0
   26.3300   48.8730   -1.2470 N   0  0  0  0  0
   26.4820   49.8850    2.1680 C   0  0  0  0  0
   26.9070   51.2190    2.1170 C   0  0  0  0  0
   27.1570   51.8020    0.8720 C   0  0  0  0  0
   27.0070   51.0860   -0.3080 C   0  0  0  0  0
   27.5600   53.0660    0.4560 C   0  0  0  0  0
   27.6540   53.1220   -0.8770 C   0  0  0  0  0
   27.3050   51.8990   -1.3350 N   0  0  0  0  0
   27.8760   54.2070    1.4170 C   0  0  0  0  0
   27.6810   54.0410    2.6210 O   0  0  0  0  0
   25.6094   46.3595   -2.3339 H   0  0  0  0  0
   24.9176   44.5022   -0.8195 H   0  0  0  0  0
   24.8898   44.8303    1.6367 H   0  0  0  0  0
   25.5255   47.0124    2.6519 H   0  0  0  0  0
   26.2630   49.4091    3.1238 H   0  0  0  0  0
   27.0405   51.7930    3.0340 H   0  0  0  0  0
   27.9527   53.9828   -1.4752 H   0  0  0  0  0
   28.2678   55.1533    1.0442 H   0  0  0  0  0
  1  2  4  0  0  0
  1  6  4  0  0  0
  1  9  4  0  0  0
  2  3  4  0  0  0
  3  4  4  0  0  0
  4  5  4  0  0  0
  5  6  4  0  0  0
  6  7  4  0  0  0
  7  8  4  0  0  0
  7 10  4  0  0  0
  8  9  4  0  0  0
  8 13  4  0  0  0
 10 11  4  0  0  0
 11 12  4  0  0  0
 12 13  4  0  0  0
 12 14  4  0  0  0
 13 16  4  0  0  0
 14 15  4  0  0  0
 14 17  1  0  0  0
 15 16  4  0  0  0
 17 18  2  0  0  0
  2 19  1  0  0  0
  3 20  1  0  0  0
  4 21  1  0  0  0
  5 22  1  0  0  0
 10 23  1  0  0  0
 11 24  1  0  0  0
 15 25  1  0  0  0
 17 26  1  0  0  0
M  END
$$$$
