1w5x_ligand
  -I-interpret- 

 88 93  0  0  0  0  0  0  0  0999 V2000
   16.5670   21.9590    8.7560 C   0  0  0  0  0
   18.0130   21.7870    8.5230 C   0  0  0  0  0
   18.7110   20.5610    8.8610 C   0  0  0  0  0
   17.9830   19.4290    9.4550 C   0  0  0  0  0
   16.5300   19.5620    9.7020 C   0  0  0  0  0
   15.8430   20.8000    9.3590 C   0  0  0  0  0
    9.8110   23.8560    2.1860 C   0  0  0  0  0
    8.7700   22.9280    2.6680 C   0  0  0  0  0
    7.3420   23.3660    2.7040 C   0  0  0  0  0
    6.9810   24.7480    2.2450 C   0  0  0  0  0
    8.0690   25.6530    1.7640 C   0  0  0  0  0
    9.4350   25.1990    1.7460 C   0  0  0  0  0
   11.2900   23.4910    2.1270 C   0  0  0  0  0
   11.7600   23.0610    3.4460 O   0  0  0  0  0
   11.9360   24.0800    4.5760 C   0  0  0  0  0
   12.9970   23.6860    5.5660 C   0  0  0  0  0
   14.2820   23.4650    4.9150 C   0  0  0  0  0
   15.2290   22.7270    5.9590 C   0  0  0  0  0
   15.1860   21.2170    5.7920 C   0  0  0  0  0
   14.1280   20.5720    6.0030 O   0  0  0  0  0
   16.3400   20.5850    5.4280 N   0  0  0  0  0
   14.8860   23.0620    7.3730 O   0  0  0  0  0
   15.9460   23.3040    8.3510 C   0  0  0  0  0
   14.8430   24.7450    4.5190 O   0  0  0  0  0
   13.1370   24.7980    6.5430 O   0  0  0  0  0
   10.6970   24.2170    5.3670 C   0  0  0  0  0
   10.2670   23.2360    6.0260 O   0  0  0  0  0
   10.0490   25.4100    5.3700 N   0  0  0  0  0
    8.8310   25.6050    6.1290 C   0  0  0  0  0
    9.1430   26.3030    7.4140 C   0  0  0  0  0
    8.0090   27.1450    7.8030 C   0  0  0  0  0
   10.3610   26.2470    8.2580 C   0  0  0  0  0
   10.4140   27.0640    9.5120 C   0  0  0  0  0
    9.2560   27.9000    9.8740 C   0  0  0  0  0
    7.7660   26.5710    5.5440 C   0  0  0  0  0
    8.4830   27.6460    4.8890 O   0  0  0  0  0
    8.0440   27.9540    9.0340 C   0  0  0  0  0
    6.9400   27.0110    6.7890 C   0  0  0  0  0
   16.4420   19.1560    5.2500 C   0  0  0  0  0
   16.3600   18.7580    3.7820 C   0  0  0  0  0
   17.3050   17.6880    3.5100 C   0  0  0  0  0
   15.5120   19.2920    2.7050 C   0  0  0  0  0
   15.6360   18.7190    1.3300 C   0  0  0  0  0
   16.6010   17.6400    1.0960 C   0  0  0  0  0
   17.8460   18.6200    5.6380 C   0  0  0  0  0
   18.8120   19.6620    5.3430 O   0  0  0  0  0
   17.4490   17.1030    2.1620 C   0  0  0  0  0
   18.0230   17.3530    4.7830 C   0  0  0  0  0
    6.3150   22.4500    3.1840 F   0  0  0  0  0
   15.7780   18.4480   10.2910 F   0  0  0  0  0
   14.3510   20.9740    9.5930 F   0  0  0  0  0
    9.1430   21.5600    3.1210 F   0  0  0  0  0
   18.5765   22.6091    8.0818 H   0  0  0  0  0
   19.7816   20.4780    8.6737 H   0  0  0  0  0
   18.5056   18.5068    9.7092 H   0  0  0  0  0
    5.9448   25.0857    2.2620 H   0  0  0  0  0
    7.8272   26.6605    1.4256 H   0  0  0  0  0
   10.2126   25.8768    1.3937 H   0  0  0  0  0
   11.8603   24.3654    1.8135 H   0  0  0  0  0
   11.4274   22.6756    1.4168 H   0  0  0  0  0
   12.2116   25.0052    4.0699 H   0  0  0  0  0
   12.7039   22.7553    6.0518 H   0  0  0  0  0
   14.1746   22.8518    4.0203 H   0  0  0  0  0
   16.2354   23.0871    5.7455 H   0  0  0  0  0
   17.1737   21.1520    5.2737 H   0  0  0  0  0
   16.7108   23.9458    7.9137 H   0  0  0  0  0
   15.5305   23.7971    9.2298 H   0  0  0  0  0
   15.6898   24.6029    4.0897 H   0  0  0  0  0
   13.8104   24.5721    7.1889 H   0  0  0  0  0
   10.4279   26.1853    4.8262 H   0  0  0  0  0
    8.4433   24.5872    6.1733 H   0  0  0  0  0
   11.2052   25.6205    7.9700 H   0  0  0  0  0
   11.2982   27.0405   10.1490 H   0  0  0  0  0
    9.2957   28.4945   10.7867 H   0  0  0  0  0
    7.0927   26.1548    4.7947 H   0  0  0  0  0
    7.8540   28.2663    4.5132 H   0  0  0  0  0
    7.1956   28.5770    9.3172 H   0  0  0  0  0
    6.3610   27.9216    6.6351 H   0  0  0  0  0
    6.1534   26.3096    7.0671 H   0  0  0  0  0
   15.6328   18.7585    5.8625 H   0  0  0  0  0
   14.8028   20.0947    2.9070 H   0  0  0  0  0
   15.0192   19.0970    0.5147 H   0  0  0  0  0
   16.6902   17.2229    0.0929 H   0  0  0  0  0
   17.9753   18.3696    6.6909 H   0  0  0  0  0
   19.6920   19.3558    5.5743 H   0  0  0  0  0
   18.1607   16.3006    1.9675 H   0  0  0  0  0
   19.0710   17.1025    4.6185 H   0  0  0  0  0
   17.6223   16.4624    5.2672 H   0  0  0  0  0
  1  2  4  0  0  0
  1  6  4  0  0  0
 23  1  1  0  0  0
  2  3  4  0  0  0
  3  4  4  0  0  0
  5  4  4  0  0  0
  6  5  4  0  0  0
  5 50  1  0  0  0
  6 51  1  0  0  0
  7  8  4  0  0  0
  7 12  4  0  0  0
 13  7  1  0  0  0
  8  9  4  0  0  0
  8 52  1  0  0  0
  9 10  4  0  0  0
  9 49  1  0  0  0
 11 10  4  0  0  0
 12 11  4  0  0  0
 14 13  1  0  0  0
 15 14  1  0  0  0
 16 15  1  0  0  0
 15 26  1  0  0  0
 17 16  1  0  0  0
 16 25  1  0  0  0
 18 17  1  0  0  0
 17 24  1  0  0  0
 18 19  1  0  0  0
 22 18  1  0  0  0
 19 20  2  0  0  0
 19 21  1  0  0  0
 21 39  1  0  0  0
 22 23  1  0  0  0
 26 27  2  0  0  0
 26 28  1  0  0  0
 28 29  1  0  0  0
 29 30  1  0  0  0
 29 35  1  0  0  0
 30 31  4  0  0  0
 30 32  4  0  0  0
 31 37  4  0  0  0
 31 38  1  0  0  0
 32 33  4  0  0  0
 33 34  4  0  0  0
 34 37  4  0  0  0
 35 36  1  0  0  0
 35 38  1  0  0  0
 39 40  1  0  0  0
 39 45  1  0  0  0
 40 41  4  0  0  0
 40 42  4  0  0  0
 41 47  4  0  0  0
 41 48  1  0  0  0
 42 43  4  0  0  0
 43 44  4  0  0  0
 44 47  4  0  0  0
 45 46  1  0  0  0
 45 48  1  0  0  0
  2 53  1  0  0  0
  3 54  1  0  0  0
  4 55  1  0  0  0
 10 56  1  0  0  0
 11 57  1  0  0  0
 12 58  1  0  0  0
 13 59  1  0  0  0
 13 60  1  0  0  0
 15 61  1  0  0  0
 16 62  1  0  0  0
 17 63  1  0  0  0
 18 64  1  0  0  0
 21 65  1  0  0  0
 23 66  1  0  0  0
 23 67  1  0  0  0
 24 68  1  0  0  0
 25 69  1  0  0  0
 28 70  1  0  0  0
 29 71  1  0  0  0
 32 72  1  0  0  0
 33 73  1  0  0  0
 34 74  1  0  0  0
 35 75  1  0  0  0
 36 76  1  0  0  0
 37 77  1  0  0  0
 38 78  1  0  0  0
 38 79  1  0  0  0
 39 80  1  0  0  0
 42 81  1  0  0  0
 43 82  1  0  0  0
 44 83  1  0  0  0
 45 84  1  0  0  0
 46 85  1  0  0  0
 47 86  1  0  0  0
 48 87  1  0  0  0
 48 88  1  0  0  0
M  END
$$$$
