3uig_ligand
  -I-interpret- 

 95 94  0  0  0  0  0  0  0  0999 V2000
   35.3190  -14.4840    1.4450 N   0  3  0  0  0
   34.3910  -13.5750    0.7770 C   0  0  0  0  0
   35.1470  -12.5500   -0.0650 C   0  0  0  0  0
   36.3380  -12.3090    0.1520 O   0  0  0  0  0
   33.5120  -12.8810    1.7960 C   0  0  0  0  0
   34.4520  -11.9340   -1.0150 N   0  0  0  0  0
   35.1140  -11.0570   -1.9690 C   0  0  0  0  0
   34.2320   -9.8670   -2.3260 C   0  0  0  0  0
   32.9980   -9.9710   -2.3150 O   0  0  0  0  0
   35.4560  -11.8370   -3.2510 C   0  0  0  0  0
   34.2470  -12.0000   -4.1790 C   0  0  0  0  0
   34.3960  -13.0960   -5.2260 C   0  0  0  0  0
   33.1280  -13.3150   -5.9270 N   0  0  0  0  0
   32.2950  -14.3260   -5.6810 C   0  0  0  0  0
   31.1600  -14.4440   -6.3620 N   0  0  0  0  0
   32.6020  -15.2260   -4.7570 N   0  0  0  0  0
   34.8720   -8.7460   -2.6600 N   0  0  0  0  0
   34.1770   -7.5350   -3.1090 C   0  0  0  0  0
   35.1870   -6.5270   -3.6690 C   0  0  0  0  0
   34.4820   -5.2350   -4.0840 C   0  0  0  0  0
   36.1050   -6.2640   -2.6060 O   0  0  0  0  0
   37.4110   -5.5100   -3.1470 P   0  0  0  0  0
   37.9430   -6.2720   -4.2970 O   0  0  0  0  0
   37.0070   -4.0240   -3.6130 O   0  0  0  0  0
   38.4920   -5.4140   -1.9500 O   0  0  0  0  0
   33.1110   -7.8730   -4.1370 C   0  0  0  0  0
   33.2670   -8.8150   -4.9020 O   0  0  0  0  0
   32.0170   -7.1270   -4.1450 N   0  0  0  0  0
   30.8930   -7.4650   -5.0140 C   0  0  0  0  0
   31.2640   -7.3870   -6.4940 C   0  0  0  0  0
   32.2990   -6.8260   -6.8450 O   0  0  0  0  0
   29.6940   -6.5530   -4.7370 C   0  0  0  0  0
   28.4390   -6.9500   -5.5000 C   0  0  0  0  0
   27.4330   -5.8210   -5.6210 C   0  0  0  0  0
   26.1910   -6.2900   -6.3720 C   0  0  0  0  0
   25.3320   -5.1600   -6.8380 N   0  3  0  0  0
   30.4130   -7.9730   -7.3390 N   0  0  0  0  0
   30.4940   -7.8690   -8.7950 C   0  0  0  0  0
   31.3780   -6.7200   -9.2710 C   0  0  0  0  0
   32.4570   -6.9380   -9.8260 O   0  0  0  0  0
   29.0840   -7.7160   -9.3760 C   0  0  0  0  0
   29.0370   -7.2800  -10.8400 C   0  0  0  0  0
   29.0650   -5.7630  -11.0250 C   0  0  0  0  0
   28.0900   -5.0670  -10.7260 O   0  0  0  0  0
   30.1840   -5.2490  -11.5310 N   0  0  0  0  0
   31.0340   -5.5470   -9.1120 O   0  0  0  0  0
   35.9040  -14.9439    0.7474 H   0  0  0  0  0
   35.9075  -13.9548    2.0885 H   0  0  0  0  0
   34.7913  -15.1858    1.9640 H   0  0  0  0  0
   33.7573  -14.1596    0.1101 H   0  0  0  0  0
   34.1317  -12.2707    2.4529 H   0  0  0  0  0
   32.7919  -12.2458    1.2802 H   0  0  0  0  0
   32.9818  -13.6287    2.3859 H   0  0  0  0  0
   33.4440  -12.0773   -1.0763 H   0  0  0  0  0
   36.0284  -10.6870   -1.5052 H   0  0  0  0  0
   35.7928  -12.8319   -2.9596 H   0  0  0  0  0
   36.2211  -11.2786   -3.7904 H   0  0  0  0  0
   34.1294  -11.0594   -4.7170 H   0  0  0  0  0
   33.3983  -12.2721   -3.5516 H   0  0  0  0  0
   34.6897  -14.0210   -4.7298 H   0  0  0  0  0
   35.1521  -12.7925   -5.9500 H   0  0  0  0  0
   32.8649  -12.6483   -6.6527 H   0  0  0  0  0
   30.5304  -15.2238   -6.1727 H   0  0  0  0  0
   30.9184  -13.7548   -7.0740 H   0  0  0  0  0
   33.4747  -15.1442   -4.2354 H   0  0  0  0  0
   35.8901   -8.7299   -2.6006 H   0  0  0  0  0
   33.6762   -7.0811   -2.2538 H   0  0  0  0  0
   35.6906   -6.9187   -4.5528 H   0  0  0  0  0
   33.7408   -5.4575   -4.8516 H   0  0  0  0  0
   33.9883   -4.7972   -3.2164 H   0  0  0  0  0
   35.2162   -4.5327   -4.4788 H   0  0  0  0  0
   36.6628   -3.5365   -2.8610 H   0  0  0  0  0
   38.1169   -4.9147   -1.2209 H   0  0  0  0  0
   31.9588   -6.3088   -3.5387 H   0  0  0  0  0
   30.6231   -8.4965   -4.7874 H   0  0  0  0  0
   29.9670   -5.5474   -5.0569 H   0  0  0  0  0
   29.4668   -6.6252   -3.6734 H   0  0  0  0  0
   27.9611   -7.7617   -4.9515 H   0  0  0  0  0
   28.7406   -7.2339   -6.5082 H   0  0  0  0  0
   27.8892   -4.9977   -6.1706 H   0  0  0  0  0
   27.1415   -5.4979   -4.6216 H   0  0  0  0  0
   25.5987   -6.8985   -5.6886 H   0  0  0  0  0
   26.5224   -6.8411   -7.2521 H   0  0  0  0  0
   24.5205   -5.5323   -7.3311 H   0  0  0  0  0
   25.0220   -4.6158   -6.0330 H   0  0  0  0  0
   25.8692   -4.5631   -7.4669 H   0  0  0  0  0
   29.6561   -8.5302   -6.9427 H   0  0  0  0  0
   30.9592   -8.7873   -9.1532 H   0  0  0  0  0
   32.5998   -7.8855   -9.8845 H   0  0  0  0  0
   28.5867   -6.9371   -8.7980 H   0  0  0  0  0
   28.6120   -8.6971   -9.3230 H   0  0  0  0  0
   28.0997   -7.6443  -11.2606 H   0  0  0  0  0
   29.9208   -7.6866  -11.3316 H   0  0  0  0  0
   30.2591   -4.2436  -11.6854 H   0  0  0  0  0
   30.9662   -5.8606  -11.7643 H   0  0  0  0  0
  1  2  1  0  0  0
  2  3  1  0  0  0
  2  5  1  0  0  0
  3  4  2  0  0  0
  3  6  1  0  0  0
  6  7  1  0  0  0
  7  8  1  0  0  0
  7 10  1  0  0  0
  8  9  2  0  0  0
  8 17  1  0  0  0
 10 11  1  0  0  0
 11 12  1  0  0  0
 12 13  1  0  0  0
 13 14  1  0  0  0
 14 15  1  0  0  0
 14 16  2  0  0  0
 17 18  1  0  0  0
 18 19  1  0  0  0
 18 26  1  0  0  0
 19 20  1  0  0  0
 19 21  1  0  0  0
 21 22  1  0  0  0
 22 23  2  0  0  0
 22 24  1  0  0  0
 22 25  1  0  0  0
 26 27  2  0  0  0
 26 28  1  0  0  0
 28 29  1  0  0  0
 29 30  1  0  0  0
 29 32  1  0  0  0
 30 31  2  0  0  0
 30 37  1  0  0  0
 32 33  1  0  0  0
 33 34  1  0  0  0
 34 35  1  0  0  0
 35 36  1  0  0  0
 37 38  1  0  0  0
 38 39  1  0  0  0
 38 41  1  0  0  0
 39 40  1  0  0  0
 39 46  2  0  0  0
 41 42  1  0  0  0
 42 43  1  0  0  0
 43 44  2  0  0  0
 43 45  1  0  0  0
  1 47  1  0  0  0
  1 48  1  0  0  0
  1 49  1  0  0  0
  2 50  1  0  0  0
  5 51  1  0  0  0
  5 52  1  0  0  0
  5 53  1  0  0  0
  6 54  1  0  0  0
  7 55  1  0  0  0
 10 56  1  0  0  0
 10 57  1  0  0  0
 11 58  1  0  0  0
 11 59  1  0  0  0
 12 60  1  0  0  0
 12 61  1  0  0  0
 13 62  1  0  0  0
 15 63  1  0  0  0
 15 64  1  0  0  0
 16 65  1  0  0  0
 17 66  1  0  0  0
 18 67  1  0  0  0
 19 68  1  0  0  0
 20 69  1  0  0  0
 20 70  1  0  0  0
 20 71  1  0  0  0
 24 72  1  0  0  0
 25 73  1  0  0  0
 28 74  1  0  0  0
 29 75  1  0  0  0
 32 76  1  0  0  0
 32 77  1  0  0  0
 33 78  1  0  0  0
 33 79  1  0  0  0
 34 80  1  0  0  0
 34 81  1  0  0  0
 35 82  1  0  0  0
 35 83  1  0  0  0
 36 84  1  0  0  0
 36 85  1  0  0  0
 36 86  1  0  0  0
 37 87  1  0  0  0
 38 88  1  0  0  0
 40 89  1  0  0  0
 41 90  1  0  0  0
 41 91  1  0  0  0
 42 92  1  0  0  0
 42 93  1  0  0  0
 45 94  1  0  0  0
 45 95  1  0  0  0
M  END
$$$$
