### 
### Created by X-TOOL on Mon Sep 10 21:13:11 2018
### 

@<TRIPOS>MOLECULE
3uig_ligand
   93    92     1     0     0
SMALL
GAST_HUCK


@<TRIPOS>ATOM
      1 N          35.3190  -14.4840    1.4450 N.4       1 ALA         0.2377
      2 CA         34.3910  -13.5750    0.7770 C.3       1 ALA         0.0621
      3 C          35.1470  -12.5500   -0.0650 C.2       1 ALA         0.2264
      4 O          36.3380  -12.3090    0.1520 O.2       1 ALA        -0.3907
      5 CB         33.5120  -12.8810    1.7960 C.3       1 ALA        -0.0040
      6 N          34.4520  -11.9340   -1.0150 N.am      1 ARG        -0.2610
      7 CA         35.1140  -11.0570   -1.9690 C.3       1 ARG         0.1312
      8 C          34.2320   -9.8670   -2.3260 C.2       1 ARG         0.2040
      9 O          32.9980   -9.9710   -2.3150 O.2       1 ARG        -0.3944
     10 CB         35.4560  -11.8370   -3.2510 C.3       1 ARG        -0.0092
     11 CG         34.2470  -12.0000   -4.1790 C.3       1 ARG        -0.0156
     12 CD         34.3960  -13.0960   -5.2260 C.3       1 ARG         0.0627
     13 NE         33.1280  -13.3150   -5.9270 N.pl3     1 ARG        -0.2723
     14 CZ         32.2950  -14.3260   -5.6810 C.cat     1 ARG         0.2882
     15 NH1        31.1600  -14.4440   -6.3620 N.pl3     1 ARG        -0.2849
     16 NH2        32.6020  -15.2260   -4.7570 N.pl3     1 ARG        -0.2849
     17 N          34.8720   -8.7460   -2.6600 N.am      1 TPO        -0.2611
     18 CA         34.1770   -7.5350   -3.1090 C.3       1 TPO         0.1612
     19 CB         35.1870   -6.5270   -3.6690 C.3       1 TPO         0.1262
     20 CG2        34.4820   -5.2350   -4.0840 C.3       1 TPO        -0.0298
     21 OG1        36.1050   -6.2640   -2.6060 O.3       1 TPO        -0.2685
     22 P          37.4110   -5.5100   -3.1470 P.3       1 TPO         0.2014
     23 O1P        37.9430   -6.2720   -4.2970 O.co2     1 TPO        -0.5537
     24 O2P        37.0070   -4.0240   -3.6130 O.co2     1 TPO        -0.5537
     25 O3P        38.4920   -5.4140   -1.9500 O.co2     1 TPO        -0.5537
     26 C          33.1110   -7.8730   -4.1370 C.2       1 TPO         0.2068
     27 O          33.2670   -8.8150   -4.9020 O.2       1 TPO        -0.3943
     28 N          32.0170   -7.1270   -4.1450 N.am      1 LYS        -0.2636
     29 CA         30.8930   -7.4650   -5.0140 C.3       1 LYS         0.1309
     30 C          31.2640   -7.3870   -6.4940 C.2       1 LYS         0.2033
     31 O          32.2990   -6.8260   -6.8450 O.2       1 LYS        -0.3944
     32 CB         29.6940   -6.5530   -4.7370 C.3       1 LYS        -0.0122
     33 CG         28.4390   -6.9500   -5.5000 C.3       1 LYS        -0.0440
     34 CD         27.4330   -5.8210   -5.6210 C.3       1 LYS        -0.0124
     35 CE         26.1910   -6.2900   -6.3720 C.3       1 LYS        -0.0354
     36 NZ         25.3320   -5.1600   -6.8380 N.4       1 LYS         0.2185
     37 N          30.4130   -7.9730   -7.3390 N.am      1 GLN        -0.2693
     38 CA         30.4940   -7.8690   -8.7950 C.3       1 GLN         0.0964
     39 C          31.3780   -6.7200   -9.2710 C.2       1 GLN         0.0602
     40 O          32.4570   -6.9380   -9.8260 O.co2     1 GLN        -0.5666
     41 CB         29.0840   -7.7160   -9.3760 C.3       1 GLN        -0.0010
     42 CG         29.0370   -7.2800  -10.8400 C.3       1 GLN         0.0407
     43 CD         29.0650   -5.7630  -11.0250 C.2       1 GLN         0.1737
     44 OE1        28.0900   -5.0670  -10.7260 O.2       1 GLN        -0.3973
     45 NE2        30.1840   -5.2490  -11.5310 N.am      1 GLN        -0.3009
     46 OXT        31.0340   -5.5470   -9.1120 O.co2     1 GLN        -0.5666
     47 H1         34.7994  -15.1508    1.9941 H         1 ALA         0.2015
     48 H2         35.9308  -13.9564    2.0478 H         1 ALA         0.2015
     49 H3         35.8671  -14.9722    0.7541 H         1 ALA         0.2015
     50 H4         33.7481  -14.1657    0.1079 H         1 ALA         0.1095
     51 H5         32.8191  -12.2005    1.2796 H         1 ALA         0.0310
     52 H6         34.1408  -12.3056    2.4914 H         1 ALA         0.0310
     53 H7         32.9375  -13.6326    2.3572 H         1 ALA         0.0310
     54 H8         33.4637  -12.0745   -1.0751 H         1 ARG         0.1884
     55 H9         36.0451  -10.6847   -1.5168 H         1 ARG         0.0800
     56 H10        35.8217  -12.8355   -2.9695 H         1 ARG         0.0313
     57 H11        36.2461  -11.2964   -3.7927 H         1 ARG         0.0313
     58 H12        34.0842  -11.0459   -4.7016 H         1 ARG         0.0301
     59 H13        33.3682  -12.2337   -3.5601 H         1 ARG         0.0301
     60 H14        34.7014  -14.0297   -4.7311 H         1 ARG         0.0689
     61 H15        35.1649  -12.7984   -5.9541 H         1 ARG         0.0689
     62 H16        32.8623  -12.6417   -6.6598 H         1 ARG         0.2642
     63 H17        30.5212  -15.2279   -6.1664 H         1 ARG         0.2615
     64 H18        30.9191  -13.7515   -7.0854 H         1 ARG         0.2615
     65 H19        33.4803  -15.1399   -4.2259 H         1 ARG         0.2615
     66 H20        31.9622  -16.0113   -4.5703 H         1 ARG         0.2615
     67 H21        35.8702   -8.7302   -2.6018 H         1 TPO         0.1884
     68 H22        33.6807   -7.0788   -2.2398 H         1 TPO         0.0830
     69 H23        35.7135   -6.9535   -4.5355 H         1 TPO         0.0695
     70 H24        35.2219   -4.5253   -4.4826 H         1 TPO         0.0260
     71 H25        33.9834   -4.7921   -3.2093 H         1 TPO         0.0260
     72 H26        33.7336   -5.4582   -4.8587 H         1 TPO         0.0260
     73 H27        31.9599   -6.3249   -3.5506 H         1 LYS         0.1883
     74 H28        30.5969   -8.5008   -4.7917 H         1 LYS         0.0800
     75 H29        29.9647   -5.5259   -5.0229 H         1 LYS         0.0312
     76 H30        29.4720   -6.5875   -3.6602 H         1 LYS         0.0312
     77 H31        27.9609   -7.7898   -4.9745 H         1 LYS         0.0269
     78 H32        28.7306   -7.2687   -6.5116 H         1 LYS         0.0269
     79 H33        27.8921   -4.9842   -6.1678 H         1 LYS         0.0317
     80 H34        27.1423   -5.4858   -4.6145 H         1 LYS         0.0317
     81 H35        25.5968   -6.9296   -5.7028 H         1 LYS         0.0813
     82 H36        26.5101   -6.8729   -7.2486 H         1 LYS         0.0813
     83 H37        24.5296   -5.5268   -7.3255 H         1 LYS         0.1994
     84 H38        25.8618   -4.5694   -7.4597 H         1 LYS         0.1994
     85 H39        25.0249   -4.6214   -6.0432 H         1 LYS         0.1994
     86 H40        29.6710   -8.5193   -6.9504 H         1 GLN         0.1875
     87 H41        30.9283   -8.8054   -9.1753 H         1 GLN         0.0727
     88 H42        28.5473   -6.9647   -8.7780 H         1 GLN         0.0330
     89 H43        28.5721   -8.6859   -9.2914 H         1 GLN         0.0330
     90 H44        28.1114   -7.6686  -11.2896 H         1 GLN         0.0504
     91 H45        29.9058   -7.7103  -11.3596 H         1 GLN         0.0504
     92 H46        30.2607   -4.2624  -11.6747 H         1 GLN         0.1814
     93 H47        30.9478   -5.8496  -11.7674 H         1 GLN         0.1814
@<TRIPOS>BOND
     1    1    2 1  
     2    2    3 1  
     3    2    5 1  
     4    3    4 2  
     5    3    6 am 
     6    6    7 1  
     7    7    8 1  
     8    7   10 1  
     9    8    9 2  
    10    8   17 am 
    11   10   11 1  
    12   11   12 1  
    13   12   13 1  
    14   13   14 ar 
    15   14   15 ar 
    16   14   16 ar 
    17   17   18 1  
    18   18   19 1  
    19   18   26 1  
    20   19   20 1  
    21   19   21 1  
    22   21   22 1  
    23   22   23 ar 
    24   22   24 ar 
    25   22   25 ar 
    26   26   27 2  
    27   26   28 am 
    28   28   29 1  
    29   29   30 1  
    30   29   32 1  
    31   30   31 2  
    32   30   37 am 
    33   32   33 1  
    34   33   34 1  
    35   34   35 1  
    36   35   36 1  
    37   37   38 1  
    38   38   39 1  
    39   38   41 1  
    40   39   40 ar 
    41   39   46 ar 
    42   41   42 1  
    43   42   43 1  
    44   43   44 2  
    45   43   45 am 
    46    1   47 1  
    47    1   48 1  
    48    1   49 1  
    49    2   50 1  
    50    5   51 1  
    51    5   52 1  
    52    5   53 1  
    53    6   54 1  
    54    7   55 1  
    55   10   56 1  
    56   10   57 1  
    57   11   58 1  
    58   11   59 1  
    59   12   60 1  
    60   12   61 1  
    61   13   62 1  
    62   15   63 1  
    63   15   64 1  
    64   16   65 1  
    65   16   66 1  
    66   17   67 1  
    67   18   68 1  
    68   19   69 1  
    69   20   70 1  
    70   20   71 1  
    71   20   72 1  
    72   28   73 1  
    73   29   74 1  
    74   32   75 1  
    75   32   76 1  
    76   33   77 1  
    77   33   78 1  
    78   34   79 1  
    79   34   80 1  
    80   35   81 1  
    81   35   82 1  
    82   36   83 1  
    83   36   84 1  
    84   36   85 1  
    85   37   86 1  
    86   38   87 1  
    87   41   88 1  
    88   41   89 1  
    89   42   90 1  
    90   42   91 1  
    91   45   92 1  
    92   45   93 1  
@<TRIPOS>SUBSTRUCTURE
     1 ALA         1

