3q0z_ligand
  -I-interpret- 

 85 91  0  0  0  0  0  0  0  0999 V2000
   20.7290    3.4770  -15.3650 N   0  0  0  0  0
   20.3560    3.6680  -16.7680 C   0  0  0  0  0
   20.9650    4.9380  -17.3480 C   0  0  0  0  0
   22.2840    5.1770  -17.1270 N   0  0  0  0  0
   22.9540    6.3200  -17.6190 C   0  0  0  0  0
   20.2550    5.6940  -18.0000 O   0  0  0  0  0
   22.2330    7.4410  -18.0780 C   0  0  0  0  0
   22.9130    8.5570  -18.5560 C   0  0  0  0  0
   24.3220    8.5660  -18.5770 C   0  0  0  0  0
   25.0360    7.4500  -18.0990 C   0  0  0  0  0
   24.3570    6.3230  -17.6220 C   0  0  0  0  0
   25.0110    9.8050  -19.1040 C   0  0  0  0  0
   26.2230   10.1620  -18.6780 C   0  0  0  0  0
   26.9560   11.3450  -19.1380 C   0  0  0  0  0
   26.2730   12.3630  -19.7090 O   0  0  0  0  0
   18.8130    3.5250  -16.8970 C   0  0  0  0  0
   20.8240    2.4500  -17.6060 C   0  0  0  0  0
   18.5450    2.9760  -18.3130 C   0  0  0  0  0
   19.9290    2.5670  -18.8640 C   0  0  0  0  0
   28.1790   11.3690  -18.9800 O   0  0  0  0  0
   20.5070    4.4230  -14.4140 C   0  0  0  0  0
   20.8780    4.1090  -12.9940 C   0  0  0  0  0
   20.1150    4.6320  -11.9350 C   0  0  0  0  0
   20.3860    4.3050  -10.6040 C   0  0  0  0  0
   21.8960    3.1730  -12.7350 C   0  0  0  0  0
   23.0620    2.0220  -10.8500 N   0  0  0  0  0
   22.1410    2.8390  -11.3870 C   0  0  0  0  0
   21.4170    3.4070  -10.3560 C   0  0  0  0  0
   21.9920    2.7930   -9.1040 C   0  0  0  0  0
   22.9710    1.9870   -9.5330 C   0  0  0  0  0
   21.4610    3.1030   -7.7200 C   0  0  0  0  0
   23.8390    1.1100   -8.6740 C   0  0  0  0  0
   21.7460    4.5400   -7.1700 C   0  0  0  0  0
   21.0800    4.7530   -5.7840 C   0  0  0  0  0
   19.5640    4.4460   -5.8710 C   0  0  0  0  0
   19.3660    2.9530   -6.2420 C   0  0  0  0  0
   19.9390    2.7390   -7.6630 C   0  0  0  0  0
   19.9590    5.4950  -14.6320 O   0  0  0  0  0
   24.3360    1.6040   -7.4540 C   0  0  0  0  0
   25.0180    0.7510   -6.5710 C   0  0  0  0  0
   25.2270   -0.5910   -6.9390 C   0  0  0  0  0
   24.7570   -1.0800   -8.1750 C   0  0  0  0  0
   24.0610   -0.2360   -9.0580 C   0  0  0  0  0
   24.0510    1.2770  -11.6240 C   0  0  0  0  0
   23.5700   -0.7750  -10.2900 N   0  0  0  0  0
   23.5440   -0.1350  -11.4940 C   0  0  0  0  0
   23.0930   -0.6850  -12.4990 O   0  0  0  0  0
   21.1725    2.6004  -15.0905 H   0  0  0  0  0
   22.8157    4.4997  -16.5803 H   0  0  0  0  0
   21.1432    7.4336  -18.0585 H   0  0  0  0  0
   22.3564    9.4232  -18.9138 H   0  0  0  0  0
   26.1259    7.4642  -18.1006 H   0  0  0  0  0
   24.9113    5.4582  -17.2573 H   0  0  0  0  0
   24.5055   10.4198  -19.8487 H   0  0  0  0  0
   26.7038    9.5278  -17.9333 H   0  0  0  0  0
   25.3386   12.1445  -19.7360 H   0  0  0  0  0
   18.3170    4.4842  -16.7484 H   0  0  0  0  0
   18.4168    2.8536  -16.1352 H   0  0  0  0  0
   20.7165    1.4987  -17.0849 H   0  0  0  0  0
   21.8906    2.4628  -17.8305 H   0  0  0  0  0
   18.0665    3.7221  -18.9474 H   0  0  0  0  0
   17.8575    2.1304  -18.2907 H   0  0  0  0  0
   19.8871    1.6336  -19.4253 H   0  0  0  0  0
   20.3174    3.2942  -19.5771 H   0  0  0  0  0
   19.2911    5.3098  -12.1582 H   0  0  0  0  0
   19.8084    4.7394   -9.7880 H   0  0  0  0  0
   22.4723    2.7240  -13.5439 H   0  0  0  0  0
   22.0327    2.4766   -7.0353 H   0  0  0  0  0
   21.3347    5.2680   -7.8692 H   0  0  0  0  0
   22.8235    4.6634   -7.0609 H   0  0  0  0  0
   21.2187    5.7891   -5.4752 H   0  0  0  0  0
   21.5403    4.0824   -5.0584 H   0  0  0  0  0
   19.1065    5.0761   -6.6338 H   0  0  0  0  0
   19.0940    4.6491   -4.9087 H   0  0  0  0  0
   18.3074    2.6942   -6.2178 H   0  0  0  0  0
   19.8817    2.3134   -5.5257 H   0  0  0  0  0
   19.8219    1.6890   -7.9311 H   0  0  0  0  0
   19.4004    3.3849   -8.3564 H   0  0  0  0  0
   24.1912    2.6524   -7.1932 H   0  0  0  0  0
   25.3807    1.1237   -5.6131 H   0  0  0  0  0
   25.7579   -1.2596   -6.2613 H   0  0  0  0  0
   24.9346   -2.1202   -8.4480 H   0  0  0  0  0
   25.0712    1.4063  -11.2626 H   0  0  0  0  0
   24.1360    1.6137  -12.6572 H   0  0  0  0  0
   23.2053   -1.7272  -10.2649 H   0  0  0  0  0
  1  2  1  0  0  0
  1 21  1  0  0  0
  2  3  1  0  0  0
  2 16  1  0  0  0
  2 17  1  0  0  0
  3  4  1  0  0  0
  3  6  2  0  0  0
  4  5  1  0  0  0
  5  7  4  0  0  0
  5 11  4  0  0  0
  7  8  4  0  0  0
  8  9  4  0  0  0
  9 10  4  0  0  0
  9 12  1  0  0  0
 10 11  4  0  0  0
 12 13  2  0  0  0
 13 14  1  0  0  0
 14 15  1  0  0  0
 14 20  2  0  0  0
 16 18  1  0  0  0
 17 19  1  0  0  0
 18 19  1  0  0  0
 21 22  1  0  0  0
 21 38  2  0  0  0
 22 23  4  0  0  0
 22 25  4  0  0  0
 23 24  4  0  0  0
 24 28  4  0  0  0
 25 27  4  0  0  0
 27 26  4  0  0  0
 26 30  4  0  0  0
 26 44  1  0  0  0
 27 28  4  0  0  0
 28 29  4  0  0  0
 29 30  4  0  0  0
 29 31  1  0  0  0
 30 32  1  0  0  0
 31 33  1  0  0  0
 31 37  1  0  0  0
 32 39  4  0  0  0
 32 43  4  0  0  0
 33 34  1  0  0  0
 34 35  1  0  0  0
 35 36  1  0  0  0
 36 37  1  0  0  0
 39 40  4  0  0  0
 40 41  4  0  0  0
 41 42  4  0  0  0
 42 43  4  0  0  0
 43 45  1  0  0  0
 44 46  1  0  0  0
 45 46  1  0  0  0
 46 47  2  0  0  0
  1 48  1  0  0  0
  4 49  1  0  0  0
  7 50  1  0  0  0
  8 51  1  0  0  0
 10 52  1  0  0  0
 11 53  1  0  0  0
 12 54  1  0  0  0
 13 55  1  0  0  0
 15 56  1  0  0  0
 16 57  1  0  0  0
 16 58  1  0  0  0
 17 59  1  0  0  0
 17 60  1  0  0  0
 18 61  1  0  0  0
 18 62  1  0  0  0
 19 63  1  0  0  0
 19 64  1  0  0  0
 23 65  1  0  0  0
 24 66  1  0  0  0
 25 67  1  0  0  0
 31 68  1  0  0  0
 33 69  1  0  0  0
 33 70  1  0  0  0
 34 71  1  0  0  0
 34 72  1  0  0  0
 35 73  1  0  0  0
 35 74  1  0  0  0
 36 75  1  0  0  0
 36 76  1  0  0  0
 37 77  1  0  0  0
 37 78  1  0  0  0
 39 79  1  0  0  0
 40 80  1  0  0  0
 41 81  1  0  0  0
 42 82  1  0  0  0
 44 83  1  0  0  0
 44 84  1  0  0  0
 45 85  1  0  0  0
M  END
$$$$
