2vci_ligand
  -I-interpret- 

 66 69  0  0  0  0  0  0  0  0999 V2000
   35.4870    4.9960   21.3240 C   0  0  0  0  0
   35.9860    3.5600   21.0790 C   0  0  0  0  0
   36.8710    3.2020   22.1750 O   0  0  0  0  0
   36.1890    3.1500   23.4720 C   0  0  0  0  0
   35.6590    4.5420   23.8420 C   0  0  0  0  0
   34.9570    5.2020   22.7050 N   0  3  0  0  0
   35.1460    6.6380   22.9490 C   0  0  0  0  0
   34.0970    7.1990   23.8990 C   0  0  0  0  0
   32.7330    7.0520   23.5820 C   0  0  0  0  0
   31.7720    7.5550   24.4550 C   0  0  0  0  0
   34.5160    7.8380   25.0770 C   0  0  0  0  0
   33.5580    8.3410   25.9530 C   0  0  0  0  0
   32.1880    8.2030   25.6380 C   0  0  0  0  0
   31.1920    8.7610   26.4740 C   0  0  0  0  0
   30.8160    8.3590   27.7390 C   0  0  0  0  0
   31.4670    7.2140   28.5180 C   0  0  0  0  0
   32.0850    6.3470   27.8920 O   0  0  0  0  0
   31.3180    7.3320   29.8730 N   0  0  0  0  0
   31.8070    6.4480   30.9560 C   0  0  0  0  0
   33.0170    5.6360   30.4970 C   0  0  0  0  0
   29.8220    9.1600   28.1590 N   0  0  0  0  0
   29.5230   10.1560   27.1500 O   0  0  0  0  0
   30.3810    9.8760   26.1290 C   0  0  0  0  0
   30.4470   10.5530   24.9090 C   0  0  0  0  0
   31.7250   10.8640   24.5100 C   0  0  0  0  0
   31.9690   11.5150   23.3220 C   0  0  0  0  0
   33.3810   11.9070   22.9720 C   0  0  0  0  0
   33.4370   13.2730   23.6870 C   0  0  0  0  0
   34.4610   10.9450   23.4980 C   0  0  0  0  0
   30.8980   11.8950   22.5190 C   0  0  0  0  0
   31.1360   12.5340   21.3480 O   0  0  0  0  0
   29.5950   11.5770   22.9210 C   0  0  0  0  0
   29.3470   10.9020   24.1020 C   0  0  0  0  0
   28.0580   10.6360   24.4290 O   0  0  0  0  0
   34.6740    5.1889   20.6241 H   0  0  0  0  0
   36.3336    5.6692   21.1894 H   0  0  0  0  0
   36.5181    3.5019   20.1295 H   0  0  0  0  0
   35.1434    2.8700   21.0332 H   0  0  0  0  0
   36.8939    2.8200   24.2351 H   0  0  0  0  0
   35.3535    2.4527   23.4103 H   0  0  0  0  0
   36.5096    5.1641   24.1206 H   0  0  0  0  0
   34.9454    4.4258   24.6577 H   0  0  0  0  0
   34.0152    4.8104   22.7007 H   0  0  0  0  0
   35.0564    7.1599   21.9963 H   0  0  0  0  0
   36.1269    6.7801   23.4026 H   0  0  0  0  0
   32.4325    6.5496   22.6626 H   0  0  0  0  0
   30.7112    7.4496   24.2276 H   0  0  0  0  0
   35.5776    7.9389   25.3027 H   0  0  0  0  0
   33.8626    8.8373   26.8744 H   0  0  0  0  0
   30.7926    8.1495   30.1830 H   0  0  0  0  0
   31.0085    5.7593   31.2321 H   0  0  0  0  0
   32.1021    7.0654   31.8044 H   0  0  0  0  0
   32.7367    5.0201   29.6425 H   0  0  0  0  0
   33.8203    6.3143   30.2096 H   0  0  0  0  0
   33.3542    4.9963   31.3126 H   0  0  0  0  0
   32.5643   10.5889   25.1488 H   0  0  0  0  0
   33.5865   11.9069   21.9015 H   0  0  0  0  0
   32.6712   13.9295   23.2740 H   0  0  0  0  0
   33.2594   13.1312   24.7531 H   0  0  0  0  0
   34.4198   13.7200   23.5374 H   0  0  0  0  0
   34.4053   10.8979   24.5856 H   0  0  0  0  0
   34.2951    9.9516   23.0811 H   0  0  0  0  0
   35.4448   11.3065   23.1986 H   0  0  0  0  0
   30.3014   12.7270   20.9147 H   0  0  0  0  0
   28.7567   11.8683   22.2882 H   0  0  0  0  0
   27.4794   10.9621   23.7358 H   0  0  0  0  0
  1  2  1  0  0  0
  1  6  1  0  0  0
  2  3  1  0  0  0
  3  4  1  0  0  0
  4  5  1  0  0  0
  5  6  1  0  0  0
  6  7  1  0  0  0
  7  8  1  0  0  0
  8  9  4  0  0  0
  8 11  4  0  0  0
  9 10  4  0  0  0
 10 13  4  0  0  0
 11 12  4  0  0  0
 12 13  4  0  0  0
 13 14  1  0  0  0
 14 15  4  0  0  0
 14 23  4  0  0  0
 15 16  1  0  0  0
 15 21  4  0  0  0
 16 17  2  0  0  0
 16 18  1  0  0  0
 18 19  1  0  0  0
 19 20  1  0  0  0
 21 22  4  0  0  0
 22 23  4  0  0  0
 23 24  1  0  0  0
 24 25  4  0  0  0
 24 33  4  0  0  0
 25 26  4  0  0  0
 26 27  1  0  0  0
 26 30  4  0  0  0
 27 28  1  0  0  0
 27 29  1  0  0  0
 30 31  1  0  0  0
 30 32  4  0  0  0
 32 33  4  0  0  0
 33 34  1  0  0  0
  1 35  1  0  0  0
  1 36  1  0  0  0
  2 37  1  0  0  0
  2 38  1  0  0  0
  4 39  1  0  0  0
  4 40  1  0  0  0
  5 41  1  0  0  0
  5 42  1  0  0  0
  6 43  1  0  0  0
  7 44  1  0  0  0
  7 45  1  0  0  0
  9 46  1  0  0  0
 10 47  1  0  0  0
 11 48  1  0  0  0
 12 49  1  0  0  0
 18 50  1  0  0  0
 19 51  1  0  0  0
 19 52  1  0  0  0
 20 53  1  0  0  0
 20 54  1  0  0  0
 20 55  1  0  0  0
 25 56  1  0  0  0
 27 57  1  0  0  0
 28 58  1  0  0  0
 28 59  1  0  0  0
 28 60  1  0  0  0
 29 61  1  0  0  0
 29 62  1  0  0  0
 29 63  1  0  0  0
 31 64  1  0  0  0
 32 65  1  0  0  0
 34 66  1  0  0  0
M  END
$$$$
