2bdy_ligand
  -I-interpret- 

 62 65  0  0  0  0  0  0  0  0999 V2000
   20.7730  -15.7630   25.1970 C   0  0  0  0  0
   19.7560  -14.7970   25.2590 C   0  0  0  0  0
   22.0820  -15.3890   25.5670 C   0  0  0  0  0
   20.4800  -17.0900   24.7620 C   0  0  0  0  0
   18.1500  -15.2810   24.7380 S   0  0  0  0  0
   20.0510  -13.5120   25.6510 C   0  0  0  0  0
   22.3460  -14.0680   25.9880 C   0  0  0  0  0
   23.0970  -16.3770   25.5030 C   0  0  0  0  0
   21.4850  -18.0050   24.7050 C   0  0  0  0  0
   18.2180  -15.5590   23.1080 N   0  0  0  0  0
   17.7240  -16.5010   25.3350 O   0  0  0  0  0
   17.3620  -14.0810   24.8500 O   0  0  0  0  0
   21.3500  -13.1390   26.0200 C   0  0  0  0  0
   22.7840  -17.6480   25.0760 C   0  0  0  0  0
   18.9290  -14.6790   22.2620 C   0  0  0  0  0
   18.3360  -13.4950   21.8220 C   0  0  0  0  0
   20.2390  -14.9730   21.8500 C   0  0  0  0  0
   19.0350  -12.6410   20.9820 C   0  0  0  0  0
   17.0700  -13.1930   22.2140 O   0  0  0  0  0
   20.9530  -14.1300   21.0190 C   0  0  0  0  0
   20.3370  -12.9520   20.5700 C   0  0  0  0  0
   18.3560  -11.3540   20.5110 C   0  0  0  0  0
   21.1040  -12.0310   19.6640 C   0  0  0  0  0
   17.0430  -11.6320   19.8090 C   0  0  0  0  0
   16.0100  -10.8010   20.0620 N   0  0  0  0  0
   16.9330  -12.5650   19.0390 O   0  0  0  0  0
   14.6970  -10.9980   19.4510 C   0  0  0  0  0
   13.7410  -10.8880   20.5970 C   0  0  0  0  0
   13.2000   -9.6630   20.9560 C   0  0  0  0  0
   13.4110  -12.0140   21.3230 C   0  0  0  0  0
   12.3390   -9.5790   22.0380 C   0  0  0  0  0
   12.5430  -11.9540   22.3940 C   0  0  0  0  0
   11.9680  -10.7180   22.7430 C   0  0  0  0  0
   11.0290  -10.6170   23.8790 C   0  0  0  0  0
   10.3170  -11.7390   24.2800 N   0  0  0  0  0
   10.8500   -9.4770   24.4980 N   0  0  0  0  0
   19.4644  -17.3668   24.4791 H   0  0  0  0  0
   19.2559  -12.7668   25.6751 H   0  0  0  0  0
   23.3554  -13.7887   26.2901 H   0  0  0  0  0
   24.1194  -16.1317   25.7903 H   0  0  0  0  0
   21.2762  -19.0206   24.3686 H   0  0  0  0  0
   17.7437  -16.3705   22.7119 H   0  0  0  0  0
   21.5617  -12.1156   26.3297 H   0  0  0  0  0
   23.5732  -18.3982   25.0259 H   0  0  0  0  0
   20.7073  -15.8944   22.1962 H   0  0  0  0  0
   16.8090  -12.3529   21.8296 H   0  0  0  0  0
   21.9719  -14.3750   20.7192 H   0  0  0  0  0
   19.0212  -10.8549   19.8063 H   0  0  0  0  0
   18.1518  -10.7358   21.3852 H   0  0  0  0  0
   20.5625  -11.9126   18.7255 H   0  0  0  0  0
   21.2156  -11.0596   20.1456 H   0  0  0  0  0
   22.0884  -12.4550   19.4659 H   0  0  0  0  0
   16.1494  -10.0146   20.6965 H   0  0  0  0  0
   14.6198  -11.9580   18.9406 H   0  0  0  0  0
   14.4913  -10.2650   18.6709 H   0  0  0  0  0
   13.4517   -8.7675   20.3878 H   0  0  0  0  0
   13.8462  -12.9736   21.0439 H   0  0  0  0  0
   11.9476   -8.6076   22.3402 H   0  0  0  0  0
   12.3056  -12.8531   22.9627 H   0  0  0  0  0
    9.6567  -11.6740   25.0547 H   0  0  0  0  0
   10.4541  -12.6285   23.8000 H   0  0  0  0  0
   11.3614   -8.6474   24.1969 H   0  0  0  0  0
  1  2  4  0  0  0
  1  3  4  0  0  0
  1  4  4  0  0  0
  2  5  1  0  0  0
  2  6  4  0  0  0
  3  7  4  0  0  0
  3  8  4  0  0  0
  4  9  4  0  0  0
  5 10  1  0  0  0
  5 11  2  0  0  0
  5 12  2  0  0  0
  6 13  4  0  0  0
  7 13  4  0  0  0
  8 14  4  0  0  0
  9 14  4  0  0  0
 10 15  1  0  0  0
 15 16  4  0  0  0
 15 17  4  0  0  0
 16 18  4  0  0  0
 16 19  1  0  0  0
 17 20  4  0  0  0
 18 21  4  0  0  0
 18 22  1  0  0  0
 20 21  4  0  0  0
 21 23  1  0  0  0
 22 24  1  0  0  0
 24 25  1  0  0  0
 24 26  2  0  0  0
 25 27  1  0  0  0
 27 28  1  0  0  0
 28 29  4  0  0  0
 28 30  4  0  0  0
 29 31  4  0  0  0
 30 32  4  0  0  0
 31 33  4  0  0  0
 32 33  4  0  0  0
 33 34  1  0  0  0
 34 35  1  0  0  0
 34 36  2  0  0  0
  4 37  1  0  0  0
  6 38  1  0  0  0
  7 39  1  0  0  0
  8 40  1  0  0  0
  9 41  1  0  0  0
 10 42  1  0  0  0
 13 43  1  0  0  0
 14 44  1  0  0  0
 17 45  1  0  0  0
 19 46  1  0  0  0
 20 47  1  0  0  0
 22 48  1  0  0  0
 22 49  1  0  0  0
 23 50  1  0  0  0
 23 51  1  0  0  0
 23 52  1  0  0  0
 25 53  1  0  0  0
 27 54  1  0  0  0
 27 55  1  0  0  0
 29 56  1  0  0  0
 30 57  1  0  0  0
 31 58  1  0  0  0
 32 59  1  0  0  0
 35 60  1  0  0  0
 35 61  1  0  0  0
 36 62  1  0  0  0
M  END
$$$$
