5oyd_ligand
  -I-interpret- 

127132  0  0  0  0  0  0  0  0999 V2000
    2.2570  125.3100   22.7140 C   0  0  0  0  0
    2.6430  125.5640   24.1640 C   0  0  0  0  0
    1.4910  125.3660   25.1160 C   0  0  0  0  0
    0.1950  126.0460   24.6020 C   0  0  0  0  0
   -0.1090  125.4620   23.2330 C   0  0  0  0  0
   -1.4040  125.8630   22.5760 C   0  0  0  0  0
    3.6070  125.1200   20.6920 C   0  0  0  0  0
    4.2100  125.8330   19.4920 C   0  0  0  0  0
    3.0040  125.8690   21.6050 N   0  0  0  0  0
    1.8420  125.8560   26.4400 O   0  0  0  0  0
    3.7280  124.7040   24.5450 O   0  0  0  0  0
   -0.8770  125.8870   25.5570 O   0  0  0  0  0
    0.9610  125.8530   22.3720 O   0  0  0  0  0
   -1.4260  127.2700   22.5700 O   0  0  0  0  0
    3.6990  123.8930   20.8050 O   0  0  0  0  0
   -2.8530  126.7010   26.5120 C   0  0  0  0  0
   -3.6300  127.9990   26.8230 C   0  0  0  0  0
   -2.7980  128.8980   27.7450 C   0  0  0  0  0
   -1.4810  129.1780   27.0400 C   0  0  0  0  0
   -0.4880  129.9150   27.9390 C   0  0  0  0  0
   -1.5520  127.0910   25.8510 C   0  0  0  0  0
   -3.6730  125.9080   25.6960 O   0  0  0  0  0
   -4.8240  127.6050   27.4430 O   0  0  0  0  0
   -3.3820  130.1620   27.9210 O   0  0  0  0  0
   -0.8670  127.9000   26.7730 O   0  0  0  0  0
    0.4360  130.4820   27.0180 O   0  0  0  0  0
    1.6830  130.8080   27.5730 C   0  0  0  0  0
    2.1540  132.0150   26.7670 C   0  0  0  0  0
    2.4270  131.5580   25.3340 C   0  0  0  0  0
    3.3650  130.3670   25.3430 C   0  0  0  0  0
    2.6510  129.2710   26.1160 C   0  0  0  0  0
    1.2200  133.1010   26.7950 O   0  0  0  0  0
    3.1120  132.6410   24.7760 O   0  0  0  0  0
    3.7070  129.9800   24.0260 O   0  0  0  0  0
    2.5950  129.7280   27.4500 O   0  0  0  0  0
   -3.9680  132.0430   29.2860 C   0  0  0  0  0
   -4.4580  132.4310   30.6770 C   0  0  0  0  0
   -5.6070  131.5200   31.0970 C   0  0  0  0  0
   -5.3510  130.0280   30.8720 C   0  0  0  0  0
   -6.6120  129.2270   31.2550 C   0  0  0  0  0
   -3.7490  130.5270   29.2230 C   0  0  0  0  0
   -2.7040  132.6280   29.0030 O   0  0  0  0  0
   -5.0170  133.7230   30.7190 O   0  0  0  0  0
   -5.8280  131.6580   32.5120 O   0  0  0  0  0
   -4.9560  129.8250   29.5230 O   0  0  0  0  0
   -7.8250  129.7690   30.6830 O   0  0  0  0  0
   -7.9710  129.5740   29.2410 C   0  0  0  0  0
   -9.3550  130.0130   28.7990 C   0  0  0  0  0
  -10.4230  128.9690   29.2220 C   0  0  0  0  0
  -10.0170  127.5260   28.8770 C   0  0  0  0  0
   -8.6500  127.2440   29.4850 C   0  0  0  0  0
   -9.6460  131.2630   29.4540 O   0  0  0  0  0
  -11.6800  129.2760   28.6100 O   0  0  0  0  0
  -10.9190  126.5890   29.4310 O   0  0  0  0  0
   -7.7770  128.2060   28.8830 O   0  0  0  0  0
   -7.2860  132.1950   34.2570 C   0  0  0  0  0
   -8.4640  133.0350   34.6790 C   0  0  0  0  0
   -8.3560  134.4850   34.1920 C   0  0  0  0  0
   -8.0420  134.5390   32.6840 C   0  0  0  0  0
   -7.8020  135.9310   32.0860 C   0  0  0  0  0
   -7.0370  132.3750   32.7930 C   0  0  0  0  0
   -7.6960  130.8240   34.4940 O   0  0  0  0  0
   -8.6490  132.8390   36.0950 O   0  0  0  0  0
   -9.6650  135.0260   34.3360 O   0  0  0  0  0
   -6.8750  133.7420   32.4440 O   0  0  0  0  0
   -7.3420  136.8150   33.1220 O   0  0  0  0  0
    2.4047  124.2315   22.7708 H   0  0  0  0  0
    2.9482  126.6084   24.2291 H   0  0  0  0  0
    1.2905  124.2964   25.1782 H   0  0  0  0  0
    0.3184  127.1238   24.4965 H   0  0  0  0  0
   -0.2133  124.3889   23.3930 H   0  0  0  0  0
   -2.2594  125.4603   23.1184 H   0  0  0  0  0
   -1.4685  125.4660   21.5629 H   0  0  0  0  0
    5.2843  125.6505   19.4647 H   0  0  0  0  0
    3.7524  125.4540   18.5781 H   0  0  0  0  0
    4.0240  126.9037   19.5760 H   0  0  0  0  0
    3.0688  126.8836   21.5232 H   0  0  0  0  0
    2.6452  125.4227   26.7378 H   0  0  0  0  0
    4.4621  124.8294   23.9393 H   0  0  0  0  0
   -2.2380  127.5745   22.1582 H   0  0  0  0  0
   -2.6068  126.1212   27.4015 H   0  0  0  0  0
   -3.8381  128.5728   25.9199 H   0  0  0  0  0
   -2.7038  128.3892   28.7043 H   0  0  0  0  0
   -1.6938  129.7781   26.1553 H   0  0  0  0  0
   -0.0070  129.2541   28.6601 H   0  0  0  0  0
   -0.9691  130.6669   28.5646 H   0  0  0  0  0
   -1.6616  127.6522   24.9230 H   0  0  0  0  0
   -3.2168  125.0904   25.4840 H   0  0  0  0  0
   -5.3442  128.3830   27.6566 H   0  0  0  0  0
    1.6167  131.0217   28.6398 H   0  0  0  0  0
    3.0660  132.4021   27.2214 H   0  0  0  0  0
    1.5181  131.2764   24.8024 H   0  0  0  0  0
    4.3149  130.6018   25.8232 H   0  0  0  0  0
    3.1782  128.3199   26.0407 H   0  0  0  0  0
    1.6549  129.0828   25.7154 H   0  0  0  0  0
    1.5639  133.8309   26.2748 H   0  0  0  0  0
    3.3295  132.4440   23.8620 H   0  0  0  0  0
    4.3001  129.2259   24.0591 H   0  0  0  0  0
   -4.7202  132.3846   28.5750 H   0  0  0  0  0
   -3.5804  132.3615   31.3197 H   0  0  0  0  0
   -6.4504  131.8298   30.4800 H   0  0  0  0  0
   -4.5410  129.6698   31.5074 H   0  0  0  0  0
   -6.7117  129.2656   32.3397 H   0  0  0  0  0
   -6.4895  128.2139   30.8720 H   0  0  0  0  0
   -2.9741  130.2742   29.9467 H   0  0  0  0  0
   -2.4216  132.3670   28.1234 H   0  0  0  0  0
   -5.3079  133.9157   31.6133 H   0  0  0  0  0
   -7.2114  130.1760   28.7422 H   0  0  0  0  0
   -9.3783  130.1135   27.7139 H   0  0  0  0  0
  -10.5096  129.0289   30.3069 H   0  0  0  0  0
  -10.0126  127.4297   27.7913 H   0  0  0  0  0
   -8.3229  126.2223   29.2922 H   0  0  0  0  0
   -8.6630  127.3315   30.5714 H   0  0  0  0  0
  -10.5187  131.5649   29.1915 H   0  0  0  0  0
  -12.3326  128.6249   28.8780 H   0  0  0  0  0
  -10.6388  125.7007   29.1985 H   0  0  0  0  0
   -6.3790  132.4652   34.7977 H   0  0  0  0  0
   -9.3839  132.7144   34.1900 H   0  0  0  0  0
   -7.5779  135.0102   34.7459 H   0  0  0  0  0
   -8.9405  134.1683   32.1906 H   0  0  0  0  0
   -8.7310  136.3136   31.6632 H   0  0  0  0  0
   -7.0513  135.8672   31.2983 H   0  0  0  0  0
   -7.8862  132.0078   32.2167 H   0  0  0  0  0
   -6.9842  130.2305   34.2437 H   0  0  0  0  0
   -9.3953  133.3633   36.3947 H   0  0  0  0  0
   -9.6657  135.9409   34.0453 H   0  0  0  0  0
   -7.1904  137.6879   32.7523 H   0  0  0  0  0
  2  1  1  0  0  0
  1  9  1  0  0  0
 13  1  1  0  0  0
  3  2  1  0  0  0
  2 11  1  0  0  0
  4  3  1  0  0  0
  3 10  1  0  0  0
  4  5  1  0  0  0
 12  4  1  0  0  0
  5  6  1  0  0  0
  5 13  1  0  0  0
  6 14  1  0  0  0
  7  8  1  0  0  0
  9  7  1  0  0  0
  7 15  2  0  0  0
 21 12  1  0  0  0
 17 16  1  0  0  0
 16 21  1  0  0  0
 16 22  1  0  0  0
 18 17  1  0  0  0
 17 23  1  0  0  0
 18 19  1  0  0  0
 24 18  1  0  0  0
 19 20  1  0  0  0
 19 25  1  0  0  0
 20 26  1  0  0  0
 25 21  1  0  0  0
 41 24  1  0  0  0
 26 27  1  0  0  0
 27 28  1  0  0  0
 27 35  1  0  0  0
 28 29  1  0  0  0
 28 32  1  0  0  0
 29 30  1  0  0  0
 29 33  1  0  0  0
 31 30  1  0  0  0
 30 34  1  0  0  0
 35 31  1  0  0  0
 37 36  1  0  0  0
 36 41  1  0  0  0
 36 42  1  0  0  0
 38 37  1  0  0  0
 37 43  1  0  0  0
 38 39  1  0  0  0
 44 38  1  0  0  0
 39 40  1  0  0  0
 39 45  1  0  0  0
 40 46  1  0  0  0
 45 41  1  0  0  0
 61 44  1  0  0  0
 46 47  1  0  0  0
 47 48  1  0  0  0
 47 55  1  0  0  0
 48 49  1  0  0  0
 48 52  1  0  0  0
 49 50  1  0  0  0
 49 53  1  0  0  0
 51 50  1  0  0  0
 50 54  1  0  0  0
 55 51  1  0  0  0
 56 57  1  0  0  0
 56 61  1  0  0  0
 56 62  1  0  0  0
 57 58  1  0  0  0
 57 63  1  0  0  0
 58 59  1  0  0  0
 58 64  1  0  0  0
 59 60  1  0  0  0
 59 65  1  0  0  0
 60 66  1  0  0  0
 61 65  1  0  0  0
  1 67  1  0  0  0
  2 68  1  0  0  0
  3 69  1  0  0  0
  4 70  1  0  0  0
  5 71  1  0  0  0
  6 72  1  0  0  0
  6 73  1  0  0  0
  8 74  1  0  0  0
  8 75  1  0  0  0
  8 76  1  0  0  0
  9 77  1  0  0  0
 10 78  1  0  0  0
 11 79  1  0  0  0
 14 80  1  0  0  0
 16 81  1  0  0  0
 17 82  1  0  0  0
 18 83  1  0  0  0
 19 84  1  0  0  0
 20 85  1  0  0  0
 20 86  1  0  0  0
 21 87  1  0  0  0
 22 88  1  0  0  0
 23 89  1  0  0  0
 27 90  1  0  0  0
 28 91  1  0  0  0
 29 92  1  0  0  0
 30 93  1  0  0  0
 31 94  1  0  0  0
 31 95  1  0  0  0
 32 96  1  0  0  0
 33 97  1  0  0  0
 34 98  1  0  0  0
 36 99  1  0  0  0
 37100  1  0  0  0
 38101  1  0  0  0
 39102  1  0  0  0
 40103  1  0  0  0
 40104  1  0  0  0
 41105  1  0  0  0
 42106  1  0  0  0
 43107  1  0  0  0
 47108  1  0  0  0
 48109  1  0  0  0
 49110  1  0  0  0
 50111  1  0  0  0
 51112  1  0  0  0
 51113  1  0  0  0
 52114  1  0  0  0
 53115  1  0  0  0
 54116  1  0  0  0
 56117  1  0  0  0
 57118  1  0  0  0
 58119  1  0  0  0
 59120  1  0  0  0
 60121  1  0  0  0
 60122  1  0  0  0
 61123  1  0  0  0
 62124  1  0  0  0
 63125  1  0  0  0
 64126  1  0  0  0
 66127  1  0  0  0
M  END
$$$$
