2g1r_ligand
  -I-interpret- 

 55 57  0  0  0  0  0  0  0  0999 V2000
   78.7740   24.9270   71.3990 C   0  0  0  0  0
   78.1240   25.8870   72.1090 N   0  0  0  0  0
   78.4120   25.9540   73.4200 C   0  0  0  0  0
   79.2800   25.1420   74.0530 N   0  0  0  0  0
   79.9420   24.1750   73.3570 C   0  0  0  0  0
   79.7170   24.0300   71.9620 C   0  0  0  0  0
   78.4810   24.8790   70.0870 N   0  0  0  0  0
   77.8080   26.8820   74.1580 N   0  0  0  0  0
   80.9080   23.3170   74.1550 C   0  0  0  0  0
   82.3070   23.9280   74.2220 C   0  0  0  0  0
   80.0660   21.6980   70.8870 C   0  0  0  0  0
   80.8820   20.8710   70.0510 C   0  0  0  0  0
   82.0640   21.3930   69.4480 C   0  0  0  0  0
   82.4330   22.7510   69.6740 C   0  0  0  0  0
   81.5990   23.5170   70.5160 C   0  0  0  0  0
   80.4420   23.0330   71.1150 C   0  0  0  0  0
   82.8420   20.5490   68.6520 O   0  0  0  0  0
   83.7710   21.1520   67.7220 C   0  0  0  0  0
   84.3310   22.5670   68.1510 C   0  0  0  0  0
   83.6160   23.2810   69.1000 N   0  0  0  0  0
   84.1350   24.6620   69.4400 C   0  0  0  0  0
   84.6940   24.7810   70.8780 C   0  0  0  0  0
   84.8000   26.1880   71.2740 N   0  0  0  0  0
   85.9730   26.7360   71.6710 C   0  0  0  0  0
   85.8740   28.2220   72.0300 C   0  0  0  0  0
   83.0870   21.3010   66.3440 C   0  0  0  0  0
   84.9340   20.1560   67.5890 C   0  0  0  0  0
   85.3510   22.9890   67.6210 O   0  0  0  0  0
   87.0420   26.1360   71.7420 O   0  0  0  0  0
   77.8103   25.5368   69.6898 H   0  0  0  0  0
   78.9296   24.1848   69.4893 H   0  0  0  0  0
   77.1424   27.5232   73.7265 H   0  0  0  0  0
   78.0106   26.9521   75.1552 H   0  0  0  0  0
   80.9855   22.3477   73.6625 H   0  0  0  0  0
   80.5259   23.2346   75.1725 H   0  0  0  0  0
   82.7041   24.0349   73.2126 H   0  0  0  0  0
   82.2520   24.9072   74.6977 H   0  0  0  0  0
   82.9592   23.2763   74.8033 H   0  0  0  0  0
   79.1611   21.2961   71.3428 H   0  0  0  0  0
   80.5976   19.8338   69.8739 H   0  0  0  0  0
   81.8796   24.5525   70.7086 H   0  0  0  0  0
   83.2968   25.3540   69.3583 H   0  0  0  0  0
   84.9531   24.8804   68.7536 H   0  0  0  0  0
   85.6852   24.3288   70.9107 H   0  0  0  0  0
   84.0177   24.2706   71.5637 H   0  0  0  0  0
   83.9645   26.7726   71.2498 H   0  0  0  0  0
   86.1758   28.3647   73.0676 H   0  0  0  0  0
   86.5307   28.7968   71.3769 H   0  0  0  0  0
   84.8453   28.5581   71.9000 H   0  0  0  0  0
   82.7898   20.3178   65.9791 H   0  0  0  0  0
   82.2057   21.9346   66.4439 H   0  0  0  0  0
   83.7848   21.7553   65.6406 H   0  0  0  0  0
   85.3935   20.0034   68.5656 H   0  0  0  0  0
   84.5557   19.2060   67.2116 H   0  0  0  0  0
   85.6747   20.5547   66.8958 H   0  0  0  0  0
  1  2  4  0  0  0
  6  1  4  0  0  0
  1  7  1  0  0  0
  2  3  4  0  0  0
  4  3  4  0  0  0
  3  8  1  0  0  0
  5  4  4  0  0  0
  6  5  4  0  0  0
  5  9  1  0  0  0
 16  6  1  0  0  0
  9 10  1  0  0  0
 11 12  4  0  0  0
 11 16  4  0  0  0
 12 13  4  0  0  0
 13 14  4  0  0  0
 13 17  1  0  0  0
 14 15  4  0  0  0
 14 20  1  0  0  0
 15 16  4  0  0  0
 17 18  1  0  0  0
 18 19  1  0  0  0
 18 26  1  0  0  0
 18 27  1  0  0  0
 19 20  1  0  0  0
 19 28  2  0  0  0
 20 21  1  0  0  0
 21 22  1  0  0  0
 22 23  1  0  0  0
 23 24  1  0  0  0
 24 25  1  0  0  0
 24 29  2  0  0  0
  7 30  1  0  0  0
  7 31  1  0  0  0
  8 32  1  0  0  0
  8 33  1  0  0  0
  9 34  1  0  0  0
  9 35  1  0  0  0
 10 36  1  0  0  0
 10 37  1  0  0  0
 10 38  1  0  0  0
 11 39  1  0  0  0
 12 40  1  0  0  0
 15 41  1  0  0  0
 21 42  1  0  0  0
 21 43  1  0  0  0
 22 44  1  0  0  0
 22 45  1  0  0  0
 23 46  1  0  0  0
 25 47  1  0  0  0
 25 48  1  0  0  0
 25 49  1  0  0  0
 26 50  1  0  0  0
 26 51  1  0  0  0
 26 52  1  0  0  0
 27 53  1  0  0  0
 27 54  1  0  0  0
 27 55  1  0  0  0
M  END
$$$$
