5tuq_ligand
  -I-interpret- 

 58 60  0  0  0  0  0  0  0  0999 V2000
   53.9010  -27.1080   33.2330 O   0  0  0  0  0
   52.8710  -27.6620   33.6550 C   0  0  0  0  0
   52.3910  -27.5280   35.0770 C   0  0  0  0  0
   53.0990  -26.7370   36.1990 C   0  0  0  0  0
   54.3230  -27.4800   36.7280 C   0  0  0  0  0
   53.3500  -25.2550   35.9130 C   0  0  0  0  0
   51.2360  -28.1550   35.5410 C   0  0  0  0  0
   50.8720  -27.9420   37.0060 C   0  0  0  0  0
   49.4850  -27.2130   37.1650 C   0  0  0  0  0
   48.5930  -27.7490   38.3210 C   0  0  0  0  0
   47.3470  -26.8750   38.5800 C   0  0  0  0  0
   47.6820  -25.3850   38.6830 C   0  0  0  0  0
   48.4790  -24.8950   37.4670 C   0  0  0  0  0
   49.7580  -25.7120   37.2790 C   0  0  0  0  0
   50.4570  -28.9800   34.6010 N   0  0  0  0  0
   49.2100  -29.6970   34.9790 C   0  0  0  0  0
   49.6160  -31.0220   35.3510 O   0  0  0  0  0
   49.4670  -32.0020   34.3280 C   0  0  0  0  0
   50.5190  -33.0710   34.4240 C   0  0  0  0  0
   51.5860  -33.0910   33.5490 C   0  0  0  0  0
   52.5430  -34.1050   33.6380 C   0  0  0  0  0
   52.4230  -35.0910   34.5950 C   0  0  0  0  0
   51.3540  -35.0750   35.4640 C   0  0  0  0  0
   50.3990  -34.0670   35.3700 C   0  0  0  0  0
   50.9040  -29.1280   33.1900 C   0  0  0  0  0
   52.1410  -28.4390   32.7510 N   0  0  0  0  0
   52.5810  -28.5650   31.4220 O   0  0  0  0  0
   50.2960  -29.7800   32.4190 O   0  0  0  0  0
   52.3724  -26.6937   37.0104 H   0  0  0  0  0
   55.1262  -27.4238   35.9933 H   0  0  0  0  0
   54.6497  -27.0212   37.6612 H   0  0  0  0  0
   54.0640  -28.5237   36.9059 H   0  0  0  0  0
   53.6592  -24.7563   36.8316 H   0  0  0  0  0
   54.1357  -25.1589   35.1637 H   0  0  0  0  0
   52.4332  -24.7978   35.5407 H   0  0  0  0  0
   51.6407  -27.3185   37.4625 H   0  0  0  0  0
   50.8029  -28.9177   37.4869 H   0  0  0  0  0
   48.8856  -27.4274   36.2802 H   0  0  0  0  0
   49.1935  -27.7474   39.2307 H   0  0  0  0  0
   48.2471  -28.7433   38.0386 H   0  0  0  0  0
   46.9110  -27.1865   39.5292 H   0  0  0  0  0
   46.6647  -27.0075   37.7403 H   0  0  0  0  0
   48.2890  -25.2311   39.5752 H   0  0  0  0  0
   46.7474  -24.8260   38.7280 H   0  0  0  0  0
   48.7525  -23.8521   37.6273 H   0  0  0  0  0
   47.8601  -25.0074   36.5768 H   0  0  0  0  0
   50.2317  -25.3857   36.3531 H   0  0  0  0  0
   50.3904  -25.5512   38.1521 H   0  0  0  0  0
   48.4996  -29.7181   34.1526 H   0  0  0  0  0
   48.6981  -29.1948   35.7999 H   0  0  0  0  0
   49.5673  -31.5075   33.3618 H   0  0  0  0  0
   48.4897  -32.4710   34.4418 H   0  0  0  0  0
   51.6821  -32.3159   32.7887 H   0  0  0  0  0
   53.3874  -34.1169   32.9488 H   0  0  0  0  0
   53.1715  -35.8804   34.6636 H   0  0  0  0  0
   51.2564  -35.8504   36.2238 H   0  0  0  0  0
   49.5478  -34.0648   36.0509 H   0  0  0  0  0
   53.3896  -28.0610   31.3047 H   0  0  0  0  0
  1  2  2  0  0  0
  2  3  1  0  0  0
  2 26  1  0  0  0
  3  4  1  0  0  0
  3  7  2  0  0  0
  4  5  1  0  0  0
  4  6  1  0  0  0
  7  8  1  0  0  0
  7 15  1  0  0  0
  8  9  1  0  0  0
  9 10  1  0  0  0
  9 14  1  0  0  0
 10 11  1  0  0  0
 11 12  1  0  0  0
 12 13  1  0  0  0
 13 14  1  0  0  0
 15 16  1  0  0  0
 15 25  1  0  0  0
 16 17  1  0  0  0
 17 18  1  0  0  0
 18 19  1  0  0  0
 19 20  4  0  0  0
 19 24  4  0  0  0
 20 21  4  0  0  0
 21 22  4  0  0  0
 22 23  4  0  0  0
 23 24  4  0  0  0
 25 26  1  0  0  0
 25 28  2  0  0  0
 26 27  1  0  0  0
  4 29  1  0  0  0
  5 30  1  0  0  0
  5 31  1  0  0  0
  5 32  1  0  0  0
  6 33  1  0  0  0
  6 34  1  0  0  0
  6 35  1  0  0  0
  8 36  1  0  0  0
  8 37  1  0  0  0
  9 38  1  0  0  0
 10 39  1  0  0  0
 10 40  1  0  0  0
 11 41  1  0  0  0
 11 42  1  0  0  0
 12 43  1  0  0  0
 12 44  1  0  0  0
 13 45  1  0  0  0
 13 46  1  0  0  0
 14 47  1  0  0  0
 14 48  1  0  0  0
 16 49  1  0  0  0
 16 50  1  0  0  0
 18 51  1  0  0  0
 18 52  1  0  0  0
 20 53  1  0  0  0
 21 54  1  0  0  0
 22 55  1  0  0  0
 23 56  1  0  0  0
 24 57  1  0  0  0
 27 58  1  0  0  0
M  END
$$$$
