3vqu_ligand
  -I-interpret- 

 37 38  0  0  0  0  0  0  0  0999 V2000
   -1.2880  -38.1520   -5.7270 O   0  0  0  0  0
   -1.6740  -38.0710   -6.8550 C   0  0  0  0  0
   -2.3640  -39.0410   -7.3740 N   0  0  0  0  0
   -1.3440  -36.8670   -7.6530 C   0  0  0  0  0
   -0.7560  -36.9960   -8.8760 C   0  0  0  0  0
   -0.4460  -35.8810   -9.6070 C   0  0  0  0  0
   -1.6000  -35.6260   -7.1510 C   0  0  0  0  0
   -1.2870  -34.5200   -7.8830 C   0  0  0  0  0
   -0.7020  -34.6440   -9.1050 C   0  0  0  0  0
   -0.4130  -33.5410   -9.7850 N   0  0  0  0  0
    0.4390  -33.4370  -10.8000 C   0  0  0  0  0
    0.6960  -32.1820  -11.2600 C   0  0  0  0  0
    1.5480  -31.9500  -12.2880 C   0  0  0  0  0
    1.7640  -30.7120  -12.7040 N   0  0  0  0  0
    2.2040  -33.0810  -12.9090 C   0  0  0  0  0
    3.0150  -32.9010  -13.8840 C   0  0  0  0  0
    3.7450  -32.7320  -14.7500 N   0  0  0  0  0
    0.9960  -34.5000  -11.3400 N   0  0  0  0  0
    1.8470  -34.3950  -12.3460 C   0  0  0  0  0
    2.3540  -35.5430  -12.7960 O   0  0  0  0  0
    1.8120  -36.6820  -12.2150 C   0  0  0  0  0
    2.5950  -37.8280  -12.7560 C   0  0  0  0  0
   -2.5756  -39.8702   -6.8190 H   0  0  0  0  0
   -2.6944  -38.9737   -8.3367 H   0  0  0  0  0
   -0.5327  -37.9868   -9.2718 H   0  0  0  0  0
    0.0068  -35.9852  -10.5930 H   0  0  0  0  0
   -2.0542  -35.5184   -6.1660 H   0  0  0  0  0
   -1.5069  -33.5288   -7.4865 H   0  0  0  0  0
   -0.8931  -32.6874   -9.4999 H   0  0  0  0  0
    0.1999  -31.3352  -10.7856 H   0  0  0  0  0
    1.2889  -29.9315  -12.2507 H   0  0  0  0  0
    2.4055  -30.5386  -13.4778 H   0  0  0  0  0
    0.7523  -36.7804  -12.4506 H   0  0  0  0  0
    1.8734  -36.6390  -11.1276 H   0  0  0  0  0
    2.4971  -37.8531  -13.8413 H   0  0  0  0  0
    3.6445  -37.7084  -12.4872 H   0  0  0  0  0
    2.2142  -38.7580  -12.3339 H   0  0  0  0  0
  1  2  2  0  0  0
  2  3  1  0  0  0
  2  4  1  0  0  0
  4  5  4  0  0  0
  4  7  4  0  0  0
  5  6  4  0  0  0
  6  9  4  0  0  0
  7  8  4  0  0  0
  8  9  4  0  0  0
  9 10  1  0  0  0
 10 11  1  0  0  0
 11 12  4  0  0  0
 11 18  4  0  0  0
 12 13  4  0  0  0
 13 14  1  0  0  0
 13 15  4  0  0  0
 15 16  1  0  0  0
 15 19  4  0  0  0
 16 17  3  0  0  0
 18 19  4  0  0  0
 19 20  1  0  0  0
 20 21  1  0  0  0
 21 22  1  0  0  0
  3 23  1  0  0  0
  3 24  1  0  0  0
  5 25  1  0  0  0
  6 26  1  0  0  0
  7 27  1  0  0  0
  8 28  1  0  0  0
 10 29  1  0  0  0
 12 30  1  0  0  0
 14 31  1  0  0  0
 14 32  1  0  0  0
 21 33  1  0  0  0
 21 34  1  0  0  0
 22 35  1  0  0  0
 22 36  1  0  0  0
 22 37  1  0  0  0
M  END
$$$$
