3cr5_ligand
  -I-interpret- 

 49 50  0  0  0  0  0  0  0  0999 V2000
   -0.9960    2.6430   24.6340 C   0  0  0  0  0
    0.1760    2.0610   25.0990 C   0  0  0  0  0
    1.1700    2.7980   25.7200 C   0  0  0  0  0
    0.9830    4.1570   25.8680 C   0  0  0  0  0
   -0.1850    4.7470   25.4200 C   0  0  0  0  0
   -1.1710    4.0020   24.8010 C   0  0  0  0  0
   -1.9160    0.5670   23.7800 C   0  0  0  0  0
   -0.4840    0.1840   23.4410 C   0  0  0  0  0
    2.0030    5.0230   26.5260 C   0  0  0  0  0
   -0.0820   -0.9680   24.3350 C   0  0  0  0  0
    2.5740   -0.7960   25.4770 C   0  0  0  0  0
    2.1530    0.4910   25.1540 C   0  0  0  0  0
    2.9650    1.4050   24.5010 C   0  0  0  0  0
    4.2500    1.0190   24.1880 C   0  0  0  0  0
    4.6860   -0.2590   24.5000 C   0  0  0  0  0
    3.8600   -1.1680   25.1410 C   0  0  0  0  0
    0.5610   -1.3430   26.7270 C   0  0  0  0  0
   -0.3460   -0.5820   25.7790 C   0  0  0  0  0
    5.2020    1.9300   23.4860 C   0  0  0  0  0
   -1.9970    1.9450   24.0130 O   0  0  0  0  0
    1.7710   -1.7140   26.1100 O   0  0  0  0  0
    3.2320    4.8420   26.3310 N   0  0  0  0  0
    1.6040    6.0190   27.3130 N   0  0  0  0  0
    5.1430    3.1870   23.5860 N   0  0  0  0  0
    6.1400    1.3680   22.7250 N   0  0  0  0  0
    0.3181    0.9879   24.9708 H   0  0  0  0  0
    2.0780    2.3165   26.0831 H   0  0  0  0  0
   -0.3305    5.8185   25.5575 H   0  0  0  0  0
   -2.0817    4.4849   24.4467 H   0  0  0  0  0
   -2.2293    0.0314   24.6761 H   0  0  0  0  0
   -2.5661    0.3042   22.9455 H   0  0  0  0  0
    0.1801    1.0334   23.6009 H   0  0  0  0  0
   -0.4113   -0.1098   22.3939 H   0  0  0  0  0
    0.9768   -1.1887   24.1994 H   0  0  0  0  0
   -0.6615   -1.8547   24.0779 H   0  0  0  0  0
    1.1416    0.7928   25.4262 H   0  0  0  0  0
    2.5983    2.3985   24.2431 H   0  0  0  0  0
    5.7010   -0.5555   24.2353 H   0  0  0  0  0
    4.2226   -2.1683   25.3779 H   0  0  0  0  0
    0.0445   -2.2503   27.0403 H   0  0  0  0  0
    0.7926   -0.6954   27.5726 H   0  0  0  0  0
   -1.3812   -0.8243   26.0194 H   0  0  0  0  0
   -0.1522    0.4844   25.8943 H   0  0  0  0  0
    3.9147    5.4564   26.7747 H   0  0  0  0  0
    2.2932    6.6288   27.7529 H   0  0  0  0  0
    0.6090    6.1726   27.4764 H   0  0  0  0  0
    4.4231    3.6193   24.1650 H   0  0  0  0  0
    6.8089    1.9532   22.2244 H   0  0  0  0  0
    6.1893    0.3525   22.6429 H   0  0  0  0  0
  1  2  4  0  0  0
  1  6  4  0  0  0
 20  1  1  0  0  0
  2  3  4  0  0  0
  3  4  4  0  0  0
  5  4  4  0  0  0
  4  9  1  0  0  0
  6  5  4  0  0  0
  8  7  1  0  0  0
  7 20  1  0  0  0
 10  8  1  0  0  0
  9 22  2  0  0  0
  9 23  1  0  0  0
 18 10  1  0  0  0
 11 12  4  0  0  0
 11 16  4  0  0  0
 21 11  1  0  0  0
 12 13  4  0  0  0
 13 14  4  0  0  0
 15 14  4  0  0  0
 14 19  1  0  0  0
 16 15  4  0  0  0
 17 18  1  0  0  0
 17 21  1  0  0  0
 19 24  2  0  0  0
 19 25  1  0  0  0
  2 26  1  0  0  0
  3 27  1  0  0  0
  5 28  1  0  0  0
  6 29  1  0  0  0
  7 30  1  0  0  0
  7 31  1  0  0  0
  8 32  1  0  0  0
  8 33  1  0  0  0
 10 34  1  0  0  0
 10 35  1  0  0  0
 12 36  1  0  0  0
 13 37  1  0  0  0
 15 38  1  0  0  0
 16 39  1  0  0  0
 17 40  1  0  0  0
 17 41  1  0  0  0
 18 42  1  0  0  0
 18 43  1  0  0  0
 22 44  1  0  0  0
 23 45  1  0  0  0
 23 46  1  0  0  0
 24 47  1  0  0  0
 25 48  1  0  0  0
 25 49  1  0  0  0
M  END
$$$$
