### 
### Created by X-TOOL on Mon Sep 10 21:13:10 2018
### 

@<TRIPOS>MOLECULE
3ued_ligand
   96    95     1     0     0
SMALL
GAST_HUCK


@<TRIPOS>ATOM
      1 N         -34.7730   -9.9300   -2.0860 N.4       1 ALA         0.2377
      2 CA        -33.9710   -9.3850   -0.9480 C.3       1 ALA         0.0621
      3 C         -34.7550   -8.3480   -0.1430 C.2       1 ALA         0.2264
      4 O         -35.9570   -8.1650   -0.3500 O.2       1 ALA        -0.3907
      5 CB        -32.6580   -8.8030   -1.4550 C.3       1 ALA        -0.0040
      6 N         -34.0670   -7.6760    0.7720 N.am      1 ARG        -0.2610
      7 CA        -34.7040   -6.7440    1.7050 C.3       1 ARG         0.1312
      8 C         -33.6710   -5.6840    2.1750 C.2       1 ARG         0.2040
      9 O         -32.4120   -5.9080    2.0580 O.2       1 ARG        -0.3944
     10 CB        -35.2620   -7.4920    2.9290 C.3       1 ARG        -0.0092
     11 CG        -34.1940   -8.3060    3.6530 C.3       1 ARG        -0.0156
     12 CD        -34.5980   -9.0220    4.9430 C.3       1 ARG         0.0627
     13 NE        -33.4840   -9.8960    5.3570 N.pl3     1 ARG        -0.2723
     14 CZ        -32.3370   -9.4700    5.8990 C.cat     1 ARG         0.2882
     15 NH1       -32.1400   -8.1770    6.1370 N.pl3     1 ARG        -0.2849
     16 NH2       -31.3700  -10.3350    6.2010 N.pl3     1 ARG        -0.2849
     17 N         -34.1710   -4.5520    2.7200 N.am      1 TPO        -0.2611
     18 CA        -33.5840   -3.2760    3.2150 C.3       1 TPO         0.1612
     19 CB        -34.7500   -2.3380    3.6030 C.3       1 TPO         0.1262
     20 CG2       -34.2450   -0.8980    3.7540 C.3       1 TPO        -0.0298
     21 OG1       -35.6940   -2.4250    2.5490 O.3       1 TPO        -0.2685
     22 P         -37.0530   -1.7020    2.7300 P.3       1 TPO         0.2014
     23 O1P       -37.8550   -2.6460    3.5280 O.co2     1 TPO        -0.5537
     24 O2P       -36.8090   -0.2770    3.4200 O.co2     1 TPO        -0.5537
     25 O3P       -37.7840   -1.2440    1.3330 O.co2     1 TPO        -0.5537
     26 C         -32.5510   -3.4930    4.3780 C.2       1 TPO         0.2068
     27 O         -32.9090   -4.0190    5.4070 O.2       1 TPO        -0.3943
     28 N         -31.2960   -3.1050    4.1790 N.am      1 LYS        -0.2636
     29 CA        -30.2660   -3.1730    5.2280 C.3       1 LYS         0.1310
     30 C         -30.7820   -2.6640    6.5550 C.2       1 LYS         0.2039
     31 O         -31.3400   -1.5800    6.5940 O.2       1 LYS        -0.3944
     32 CB        -29.0750   -2.3030    4.8520 C.3       1 LYS        -0.0122
     33 CG        -27.9570   -2.2410    5.8880 C.3       1 LYS        -0.0440
     34 CD        -27.2600   -0.8810    5.8720 C.3       1 LYS        -0.0124
     35 CE        -25.7800   -0.9480    6.2570 C.3       1 LYS        -0.0354
     36 NZ        -25.1250    0.3930    6.1230 N.4       1 LYS         0.2185
     37 N         -30.5700   -3.4290    7.6330 N.am      1 GLN        -0.2640
     38 CA        -31.0600   -3.0720    8.9770 C.3       1 GLN         0.1282
     39 C         -29.9520   -2.4300    9.8640 C.2       1 GLN         0.2031
     40 O         -28.7660   -2.4420    9.5010 O.2       1 GLN        -0.3944
     41 CB        -31.6850   -4.3120    9.6370 C.3       1 GLN        -0.0244
     42 N         -30.3590   -1.8610   11.0080 N.am      1 THR        -0.2698
     43 CA        -29.4470   -1.2030   11.9960 C.3       1 THR         0.0916
     44 C         -29.0220    0.1850   11.5110 C.2       1 THR         0.0598
     45 O         -29.7440    0.8280   10.7470 O.co2     1 THR        -0.5666
     46 CB        -28.1730   -2.0340   12.3340 C.3       1 THR        -0.0300
     47 OXT       -27.9530    0.6750   11.8790 O.co2     1 THR        -0.5666
     48 H1        -34.2232  -10.6079   -2.5902 H         1 ALA         0.2015
     49 H2        -35.0306   -9.1781   -2.7060 H         1 ALA         0.2015
     50 H3        -35.6059  -10.3715   -1.7291 H         1 ALA         0.2015
     51 H4        -33.7335  -10.2210   -0.2737 H         1 ALA         0.1095
     52 H5        -32.0807   -8.4069   -0.6066 H         1 ALA         0.0310
     53 H6        -32.8674   -7.9911   -2.1669 H         1 ALA         0.0310
     54 H7        -32.0775   -9.5907   -1.9575 H         1 ALA         0.0310
     55 H8        -33.0776   -7.8111    0.8262 H         1 ARG         0.1884
     56 H9        -35.5324   -6.2360    1.1896 H         1 ARG         0.0800
     57 H10       -36.0577   -8.1734    2.5935 H         1 ARG         0.0313
     58 H11       -35.6811   -6.7563    3.6312 H         1 ARG         0.0313
     59 H12       -33.3709   -7.6201    3.9021 H         1 ARG         0.0301
     60 H13       -33.8332   -9.0724    2.9512 H         1 ARG         0.0301
     61 H14       -35.4992   -9.6272    4.7657 H         1 ARG         0.0689
     62 H15       -34.8024   -8.2819    5.7307 H         1 ARG         0.0689
     63 H16       -33.5976  -10.9103    5.2185 H         1 ARG         0.2642
     64 H17       -31.2536   -7.8594    6.5545 H         1 ARG         0.2615
     65 H18       -32.8738   -7.4928    5.9039 H         1 ARG         0.2615
     66 H19       -31.5047  -11.3406    6.0237 H         1 ARG         0.2615
     67 H20       -30.4876   -9.9982    6.6119 H         1 ARG         0.2615
     68 H21       -35.1664   -4.5776    2.8121 H         1 TPO         0.1884
     69 H22       -33.0365   -2.8087    2.3832 H         1 TPO         0.0830
     70 H23       -35.2050   -2.6668    4.5489 H         1 TPO         0.0695
     71 H24       -35.0840   -0.2423    4.0299 H         1 TPO         0.0260
     72 H25       -33.8128   -0.5591    2.8009 H         1 TPO         0.0260
     73 H26       -33.4760   -0.8596    4.5396 H         1 TPO         0.0260
     74 H27       -31.0406   -2.7520    3.2789 H         1 LYS         0.1883
     75 H28       -29.9420   -4.2183    5.3386 H         1 LYS         0.0800
     76 H29       -29.4414   -1.2791    4.6865 H         1 LYS         0.0312
     77 H30       -28.6496   -2.6958    3.9168 H         1 LYS         0.0312
     78 H31       -27.2182   -3.0249    5.6653 H         1 LYS         0.0269
     79 H32       -28.3842   -2.4129    6.8870 H         1 LYS         0.0269
     80 H33       -27.7747   -0.2177    6.5827 H         1 LYS         0.0317
     81 H34       -27.3371   -0.4623    4.8577 H         1 LYS         0.0317
     82 H35       -25.2694   -1.6645    5.5968 H         1 LYS         0.0813
     83 H36       -25.6954   -1.2861    7.3003 H         1 LYS         0.0813
     84 H37       -24.1536    0.3199    6.3822 H         1 LYS         0.1994
     85 H38       -25.5855    1.0540    6.7289 H         1 LYS         0.1994
     86 H39       -25.1951    0.7073    5.1678 H         1 LYS         0.1994
     87 H40       -30.0567   -4.2800    7.5218 H         1 GLN         0.1883
     88 H41       -31.8539   -2.3205    8.8550 H         1 GLN         0.0797
     89 H42       -32.0514   -4.0480   10.6400 H         1 GLN         0.0277
     90 H43       -30.9267   -5.1045    9.7204 H         1 GLN         0.0277
     91 H44       -32.5241   -4.6706    9.0228 H         1 GLN         0.0277
     92 H45       -31.3372   -1.8773   11.2150 H         1 THR         0.1875
     93 H46       -30.0170   -1.0787   12.9286 H         1 THR         0.0723
     94 H47       -27.5592   -1.4841   13.0627 H         1 THR         0.0270
     95 H48       -27.5903   -2.2016   11.4162 H         1 THR         0.0270
     96 H49       -28.4700   -3.0029   12.7618 H         1 THR         0.0270
@<TRIPOS>BOND
     1    1    2 1  
     2    2    3 1  
     3    2    5 1  
     4    3    4 2  
     5    3    6 am 
     6    6    7 1  
     7    7    8 1  
     8    7   10 1  
     9    8    9 2  
    10    8   17 am 
    11   10   11 1  
    12   11   12 1  
    13   12   13 1  
    14   13   14 ar 
    15   14   15 ar 
    16   14   16 ar 
    17   17   18 1  
    18   18   19 1  
    19   18   26 1  
    20   19   20 1  
    21   19   21 1  
    22   21   22 1  
    23   22   23 ar 
    24   22   24 ar 
    25   22   25 ar 
    26   26   27 2  
    27   26   28 am 
    28   28   29 1  
    29   29   30 1  
    30   29   32 1  
    31   30   31 2  
    32   30   37 am 
    33   32   33 1  
    34   33   34 1  
    35   34   35 1  
    36   35   36 1  
    37   37   38 1  
    38   38   39 1  
    39   38   41 1  
    40   39   40 2  
    41   39   42 am 
    42   42   43 1  
    43   43   44 1  
    44   43   46 1  
    45   44   45 ar 
    46   44   47 ar 
    47    1   48 1  
    48    1   49 1  
    49    1   50 1  
    50    2   51 1  
    51    5   52 1  
    52    5   53 1  
    53    5   54 1  
    54    6   55 1  
    55    7   56 1  
    56   10   57 1  
    57   10   58 1  
    58   11   59 1  
    59   11   60 1  
    60   12   61 1  
    61   12   62 1  
    62   13   63 1  
    63   15   64 1  
    64   15   65 1  
    65   16   66 1  
    66   16   67 1  
    67   17   68 1  
    68   18   69 1  
    69   19   70 1  
    70   20   71 1  
    71   20   72 1  
    72   20   73 1  
    73   28   74 1  
    74   29   75 1  
    75   32   76 1  
    76   32   77 1  
    77   33   78 1  
    78   33   79 1  
    79   34   80 1  
    80   34   81 1  
    81   35   82 1  
    82   35   83 1  
    83   36   84 1  
    84   36   85 1  
    85   36   86 1  
    86   37   87 1  
    87   38   88 1  
    88   41   89 1  
    89   41   90 1  
    90   41   91 1  
    91   42   92 1  
    92   43   93 1  
    93   46   94 1  
    94   46   95 1  
    95   46   96 1  
@<TRIPOS>SUBSTRUCTURE
     1 ALA         1

