3ued_ligand
  -I-interpret- 

 98 97  0  0  0  0  0  0  0  0999 V2000
  -34.7730   -9.9300   -2.0860 N   0  3  0  0  0
  -33.9710   -9.3850   -0.9480 C   0  0  0  0  0
  -34.7550   -8.3480   -0.1430 C   0  0  0  0  0
  -35.9570   -8.1650   -0.3500 O   0  0  0  0  0
  -32.6580   -8.8030   -1.4550 C   0  0  0  0  0
  -34.0670   -7.6760    0.7720 N   0  0  0  0  0
  -34.7040   -6.7440    1.7050 C   0  0  0  0  0
  -33.6710   -5.6840    2.1750 C   0  0  0  0  0
  -32.4120   -5.9080    2.0580 O   0  0  0  0  0
  -35.2620   -7.4920    2.9290 C   0  0  0  0  0
  -34.1940   -8.3060    3.6530 C   0  0  0  0  0
  -34.5980   -9.0220    4.9430 C   0  0  0  0  0
  -33.4840   -9.8960    5.3570 N   0  0  0  0  0
  -32.3370   -9.4700    5.8990 C   0  0  0  0  0
  -32.1400   -8.1770    6.1370 N   0  0  0  0  0
  -31.3700  -10.3350    6.2010 N   0  0  0  0  0
  -34.1710   -4.5520    2.7200 N   0  0  0  0  0
  -33.5840   -3.2760    3.2150 C   0  0  0  0  0
  -34.7500   -2.3380    3.6030 C   0  0  0  0  0
  -34.2450   -0.8980    3.7540 C   0  0  0  0  0
  -35.6940   -2.4250    2.5490 O   0  0  0  0  0
  -37.0530   -1.7020    2.7300 P   0  0  0  0  0
  -37.8550   -2.6460    3.5280 O   0  0  0  0  0
  -36.8090   -0.2770    3.4200 O   0  0  0  0  0
  -37.7840   -1.2440    1.3330 O   0  0  0  0  0
  -32.5510   -3.4930    4.3780 C   0  0  0  0  0
  -32.9090   -4.0190    5.4070 O   0  0  0  0  0
  -31.2960   -3.1050    4.1790 N   0  0  0  0  0
  -30.2660   -3.1730    5.2280 C   0  0  0  0  0
  -30.7820   -2.6640    6.5550 C   0  0  0  0  0
  -31.3400   -1.5800    6.5940 O   0  0  0  0  0
  -29.0750   -2.3030    4.8520 C   0  0  0  0  0
  -27.9570   -2.2410    5.8880 C   0  0  0  0  0
  -27.2600   -0.8810    5.8720 C   0  0  0  0  0
  -25.7800   -0.9480    6.2570 C   0  0  0  0  0
  -25.1250    0.3930    6.1230 N   0  3  0  0  0
  -30.5700   -3.4290    7.6330 N   0  0  0  0  0
  -31.0600   -3.0720    8.9770 C   0  0  0  0  0
  -29.9520   -2.4300    9.8640 C   0  0  0  0  0
  -28.7660   -2.4420    9.5010 O   0  0  0  0  0
  -31.6850   -4.3120    9.6370 C   0  0  0  0  0
  -30.3590   -1.8610   11.0080 N   0  0  0  0  0
  -29.4470   -1.2030   11.9960 C   0  0  0  0  0
  -29.0220    0.1850   11.5110 C   0  0  0  0  0
  -29.7440    0.8280   10.7470 O   0  0  0  0  0
  -28.1730   -2.0340   12.3340 C   0  0  0  0  0
  -27.9530    0.6750   11.8790 O   0  0  0  0  0
  -35.6478  -10.3154   -1.7301 H   0  0  0  0  0
  -34.9746   -9.1806   -2.7479 H   0  0  0  0  0
  -34.2418  -10.6645   -2.5537 H   0  0  0  0  0
  -33.7487  -10.2119   -0.2735 H   0  0  0  0  0
  -32.8653   -7.9459   -2.0957 H   0  0  0  0  0
  -32.0511   -8.4860   -0.6069 H   0  0  0  0  0
  -32.1212   -9.5621   -2.0240 H   0  0  0  0  0
  -33.0579   -7.8138    0.8273 H   0  0  0  0  0
  -35.5290   -6.2522    1.1896 H   0  0  0  0  0
  -36.0311   -8.1811    2.5802 H   0  0  0  0  0
  -35.6511   -6.7510    3.6273 H   0  0  0  0  0
  -33.4284   -7.5875    3.9458 H   0  0  0  0  0
  -33.9086   -9.0959    2.9582 H   0  0  0  0  0
  -35.4963   -9.6160    4.7749 H   0  0  0  0  0
  -34.8107   -8.2924    5.7244 H   0  0  0  0  0
  -33.5964  -10.9005    5.2198 H   0  0  0  0  0
  -32.8667   -7.4994    5.9062 H   0  0  0  0  0
  -30.4961  -10.0015    6.6079 H   0  0  0  0  0
  -31.5034  -11.3309    6.0254 H   0  0  0  0  0
  -35.1863   -4.5781    2.8139 H   0  0  0  0  0
  -32.9955   -2.8103    2.4245 H   0  0  0  0  0
  -35.1941   -2.6261    4.5558 H   0  0  0  0  0
  -33.4831   -0.8613    4.5326 H   0  0  0  0  0
  -33.8170   -0.5634    2.8090 H   0  0  0  0  0
  -35.0772   -0.2493    4.0273 H   0  0  0  0  0
  -36.2812    0.2735    2.8369 H   0  0  0  0  0
  -37.2145   -0.6323    0.8608 H   0  0  0  0  0
  -31.0355   -2.7450    3.2609 H   0  0  0  0  0
  -29.9819   -4.2214    5.3183 H   0  0  0  0  0
  -29.4541   -1.2870    4.7421 H   0  0  0  0  0
  -28.6418   -2.7403    3.9524 H   0  0  0  0  0
  -27.2220   -3.0104    5.6518 H   0  0  0  0  0
  -28.3903   -2.3972    6.8759 H   0  0  0  0  0
  -27.7605   -0.2480    6.6047 H   0  0  0  0  0
  -27.3163   -0.4963    4.8537 H   0  0  0  0  0
  -25.2780   -1.6490    5.5901 H   0  0  0  0  0
  -25.7045   -1.2702    7.2955 H   0  0  0  0  0
  -24.1422    0.3178    6.3855 H   0  0  0  0  0
  -25.1966    0.7099    5.1561 H   0  0  0  0  0
  -25.5918    1.0609    6.7365 H   0  0  0  0  0
  -30.0465   -4.2970    7.5196 H   0  0  0  0  0
  -31.8275   -2.3052    8.8720 H   0  0  0  0  0
  -32.5163   -4.6664    9.0275 H   0  0  0  0  0
  -30.9327   -5.0964    9.7191 H   0  0  0  0  0
  -32.0476   -4.0492   10.6308 H   0  0  0  0  0
  -31.3568   -1.8777   11.2191 H   0  0  0  0  0
  -30.0327   -1.1235   12.9118 H   0  0  0  0  0
  -30.5347    0.3196   10.5520 H   0  0  0  0  0
  -28.4686   -2.9937   12.7578 H   0  0  0  0  0
  -27.5966   -2.1994   11.4238 H   0  0  0  0  0
  -27.5657   -1.4881   13.0560 H   0  0  0  0  0
  1  2  1  0  0  0
  2  3  1  0  0  0
  2  5  1  0  0  0
  3  4  2  0  0  0
  3  6  1  0  0  0
  6  7  1  0  0  0
  7  8  1  0  0  0
  7 10  1  0  0  0
  8  9  2  0  0  0
  8 17  1  0  0  0
 10 11  1  0  0  0
 11 12  1  0  0  0
 12 13  1  0  0  0
 13 14  1  0  0  0
 14 15  2  0  0  0
 14 16  1  0  0  0
 17 18  1  0  0  0
 18 19  1  0  0  0
 18 26  1  0  0  0
 19 20  1  0  0  0
 19 21  1  0  0  0
 21 22  1  0  0  0
 22 23  2  0  0  0
 22 24  1  0  0  0
 22 25  1  0  0  0
 26 27  2  0  0  0
 26 28  1  0  0  0
 28 29  1  0  0  0
 29 30  1  0  0  0
 29 32  1  0  0  0
 30 31  2  0  0  0
 30 37  1  0  0  0
 32 33  1  0  0  0
 33 34  1  0  0  0
 34 35  1  0  0  0
 35 36  1  0  0  0
 37 38  1  0  0  0
 38 39  1  0  0  0
 38 41  1  0  0  0
 39 40  2  0  0  0
 39 42  1  0  0  0
 42 43  1  0  0  0
 43 44  1  0  0  0
 43 46  1  0  0  0
 44 45  1  0  0  0
 44 47  2  0  0  0
  1 48  1  0  0  0
  1 49  1  0  0  0
  1 50  1  0  0  0
  2 51  1  0  0  0
  5 52  1  0  0  0
  5 53  1  0  0  0
  5 54  1  0  0  0
  6 55  1  0  0  0
  7 56  1  0  0  0
 10 57  1  0  0  0
 10 58  1  0  0  0
 11 59  1  0  0  0
 11 60  1  0  0  0
 12 61  1  0  0  0
 12 62  1  0  0  0
 13 63  1  0  0  0
 15 64  1  0  0  0
 16 65  1  0  0  0
 16 66  1  0  0  0
 17 67  1  0  0  0
 18 68  1  0  0  0
 19 69  1  0  0  0
 20 70  1  0  0  0
 20 71  1  0  0  0
 20 72  1  0  0  0
 24 73  1  0  0  0
 25 74  1  0  0  0
 28 75  1  0  0  0
 29 76  1  0  0  0
 32 77  1  0  0  0
 32 78  1  0  0  0
 33 79  1  0  0  0
 33 80  1  0  0  0
 34 81  1  0  0  0
 34 82  1  0  0  0
 35 83  1  0  0  0
 35 84  1  0  0  0
 36 85  1  0  0  0
 36 86  1  0  0  0
 36 87  1  0  0  0
 37 88  1  0  0  0
 38 89  1  0  0  0
 41 90  1  0  0  0
 41 91  1  0  0  0
 41 92  1  0  0  0
 42 93  1  0  0  0
 43 94  1  0  0  0
 45 95  1  0  0  0
 46 96  1  0  0  0
 46 97  1  0  0  0
 46 98  1  0  0  0
M  END
$$$$
