### 
### Created by X-TOOL on Mon Sep 10 21:12:45 2018
### 

@<TRIPOS>MOLECULE
1hgt_ligand
  168   170     1     0     0
SMALL
GAST_HUCK


@<TRIPOS>ATOM
      1 N           5.2610  -12.9600   -0.3360 N.4       1 ASP         0.2391
      2 CA          4.5800  -12.2590    0.7750 C.3       1 ASP         0.0765
      3 C           4.9670  -10.7730    0.7890 C.2       1 ASP         0.2285
      4 O           4.0740   -9.9020    0.6020 O.2       1 ASP        -0.3906
      5 CB          4.7670  -12.9770    2.0950 C.3       1 ASP         0.0607
      6 CG          4.4750  -12.1300    3.3270 C.2       1 ASP         0.0425
      7 OD1         3.2580  -11.9390    3.5910 O.co2     1 ASP        -0.5686
      8 OD2         5.4330  -11.6950    4.0090 O.co2     1 ASP        -0.5686
      9 N           6.2450  -10.4990    0.9910 N.am      1 PHE        -0.2591
     10 CA          6.6580   -9.0740    0.9760 C.3       1 PHE         0.1406
     11 C           6.3410   -8.5020   -0.4070 C.2       1 PHE         0.2060
     12 O           6.4510   -9.2270   -1.4160 O.2       1 PHE        -0.3942
     13 CB          8.1370   -8.9240    1.3430 C.3       1 PHE         0.0214
     14 CG          8.3160   -8.6070    2.8020 C.ar      1 PHE        -0.0386
     15 CD1         8.1510   -7.3020    3.2560 C.ar      1 PHE        -0.0601
     16 CD2         8.5680   -9.6420    3.7070 C.ar      1 PHE        -0.0601
     17 CE1         8.2780   -7.0130    4.6230 C.ar      1 PHE        -0.0686
     18 CE2         8.6770   -9.3730    5.0590 C.ar      1 PHE        -0.0686
     19 CZ          8.5460   -8.0700    5.5130 C.ar      1 PHE        -0.0687
     20 N           5.9180   -7.2440   -0.4590 N.am      1 GLU        -0.2635
     21 CA          5.6790   -6.6030   -1.7930 C.3       1 GLU         0.1325
     22 C           7.1200   -6.2750   -2.2350 C.2       1 GLU         0.2040
     23 O           8.0500   -6.5460   -1.4380 O.2       1 GLU        -0.3944
     24 CB          4.9450   -5.3230   -1.7500 C.3       1 GLU        -0.0008
     25 CG          3.6060   -5.0980   -2.3660 C.3       1 GLU         0.0044
     26 CD          3.1860   -3.6500   -2.3660 C.2       1 GLU         0.0350
     27 OE1         3.8660   -2.9010   -3.0990 O.co2     1 GLU        -0.5690
     28 OE2         2.3010   -3.2210   -1.6680 O.co2     1 GLU        -0.5690
     29 N           7.3370   -5.7270   -3.3870 N.am      1 GLU        -0.2636
     30 CA          8.6990   -5.3850   -3.8820 C.3       1 GLU         0.1325
     31 C           8.8110   -3.8610   -3.7530 C.2       1 GLU         0.2040
     32 O           7.7790   -3.1390   -3.8270 O.2       1 GLU        -0.3944
     33 CB          8.8710   -5.7600   -5.3400 C.3       1 GLU        -0.0008
     34 CG          7.7170   -5.4560   -6.2910 C.3       1 GLU         0.0044
     35 CD          6.5180   -6.3500   -6.1890 C.2       1 GLU         0.0350
     36 OE1         6.5700   -7.5480   -5.9690 O.co2     1 GLU        -0.5690
     37 OE2         5.4470   -5.7280   -6.3610 O.co2     1 GLU        -0.5690
     38 N          10.0350   -3.4350   -3.5530 N.am      1 ILE        -0.2635
     39 CA         10.3020   -1.9920   -3.4280 C.3       1 ILE         0.1337
     40 C          11.0910   -1.5570   -4.6600 C.2       1 ILE         0.2067
     41 O          11.8040   -2.3970   -5.2270 O.2       1 ILE        -0.3942
     42 CB         11.1420   -1.7270   -2.1290 C.3       1 ILE        -0.0037
     43 CG1        12.6530   -2.0000   -2.4570 C.3       1 ILE        -0.0491
     44 CG2        10.6850   -2.4390   -0.8440 C.3       1 ILE        -0.0582
     45 CD1        13.5120   -2.1260   -1.1710 C.3       1 ILE        -0.0648
     46 N          10.9930   -0.2900   -5.0040 N.am      1 PRO        -0.2498
     47 CA         11.7620    0.2920   -6.1100 C.3       1 PRO         0.1338
     48 C          13.2660    0.0510   -5.9270 C.2       1 PRO         0.2041
     49 O          13.8090    0.2300   -4.8110 O.2       1 PRO        -0.3944
     50 CB         11.3960    1.7630   -6.0620 C.3       1 PRO        -0.0104
     51 CG         10.4170    2.0180   -4.9780 C.3       1 PRO        -0.0281
     52 CD         10.1500    0.7000   -4.2890 C.3       1 PRO         0.0369
     53 N          13.9380   -0.3960   -7.0160 N.am      1 GLU        -0.2636
     54 CA         15.3830   -0.6940   -6.8780 C.3       1 GLU         0.1325
     55 C          16.1510    0.6210   -6.9960 C.2       1 GLU         0.2040
     56 O          17.3560    0.6630   -7.2420 O.2       1 GLU        -0.3944
     57 CB         16.0280   -1.8120   -7.6220 C.3       1 GLU        -0.0008
     58 CG         17.3890   -2.3990   -7.3400 C.3       1 GLU         0.0044
     59 CD         18.5600   -2.3230   -8.2460 C.2       1 GLU         0.0350
     60 OE1        18.2870   -2.0400   -9.4470 O.co2     1 GLU        -0.5690
     61 OE2        19.7590   -2.5180   -7.9310 O.co2     1 GLU        -0.5690
     62 N          15.3210    1.6530   -6.7910 N.am      1 GLU        -0.2636
     63 CA         15.9360    3.0090   -6.7240 C.3       1 GLU         0.1325
     64 C          16.6250    2.9120   -5.3230 C.2       1 GLU         0.2041
     65 O          17.5490    3.6170   -4.9560 O.2       1 GLU        -0.3944
     66 CB         14.9390    4.1520   -6.5880 C.3       1 GLU        -0.0008
     67 CG         13.9830    4.0790   -5.4050 C.3       1 GLU         0.0044
     68 CD         12.7920    4.9740   -5.4480 C.2       1 GLU         0.0350
     69 OE1        13.1220    6.2030   -5.5300 O.co2     1 GLU        -0.5690
     70 OE2        11.6330    4.5670   -5.3770 O.co2     1 GLU        -0.5690
     71 N          16.0420    1.9770   -4.5890 N.am      1 TYS        -0.2621
     72 CA         16.3230    1.5500   -3.2400 C.3       1 TYS         0.1390
     73 C          17.1850    0.3050   -3.1550 C.2       1 TYS         0.2052
     74 O          18.0700    0.2500   -2.2790 O.2       1 TYS        -0.3943
     75 CB         15.1080    1.4740   -2.3550 C.3       1 TYS         0.0163
     76 CG         14.3110    2.7700   -2.2150 C.ar      1 TYS        -0.0493
     77 CD1        14.9590    3.9130   -1.7240 C.ar      1 TYS        -0.0685
     78 CD2        12.9990    2.8250   -2.6300 C.ar      1 TYS        -0.0685
     79 CE1        14.2880    5.1330   -1.6310 C.ar      1 TYS        -0.0398
     80 CE2        12.3220    4.0220   -2.5200 C.ar      1 TYS        -0.0398
     81 CZ         12.9820    5.1510   -2.0410 C.ar      1 TYS         0.0805
     82 OH         12.1990    6.2700   -1.9280 O.3       1 TYS        -0.3376
     83 N          16.8090   -0.6600   -3.9900 N.am      1 LEU        -0.2693
     84 CA         17.6420   -1.9010   -3.9850 C.3       1 LEU         0.0946
     85 C          18.8860   -1.3250   -4.6830 C.2       1 LEU         0.0601
     86 O          18.7110   -0.0920   -4.9130 O.co2     1 LEU        -0.5666
     87 CB         16.9200   -3.0550   -4.6290 C.3       1 LEU        -0.0156
     88 CG         15.3940   -3.0190   -4.5090 C.3       1 LEU        -0.0431
     89 CD1        14.7010   -3.9720   -5.4650 C.3       1 LEU        -0.0625
     90 CD2        15.0520   -3.3140   -3.0560 C.3       1 LEU        -0.0625
     91 OXT        19.8110   -2.0810   -4.9050 O.co2     1 LEU        -0.5666
     92 H1          4.9970  -13.9328   -0.3315 H         1 ASP         0.2016
     93 H2          6.2593  -12.8823   -0.2206 H         1 ASP         0.2016
     94 H3          4.9906  -12.5425   -1.2127 H         1 ASP         0.2016
     95 H4          3.5016  -12.2946    0.5610 H         1 ASP         0.1117
     96 H5          5.8107  -13.3193    2.1541 H         1 ASP         0.0512
     97 H6          4.0943  -13.8471    2.1101 H         1 ASP         0.0512
     98 H7          6.9109  -11.2282    1.1486 H         1 PHE         0.1886
     99 H8          6.0665   -8.5264    1.7244 H         1 PHE         0.0823
    100 H9          8.5724   -8.1100    0.7449 H         1 PHE         0.0474
    101 H10         8.6585   -9.8655    1.1157 H         1 PHE         0.0474
    102 H11         7.9243   -6.5084    2.5532 H         1 PHE         0.0557
    103 H12         8.6783  -10.6588    3.3478 H         1 PHE         0.0557
    104 H13         8.1720   -5.9971    4.9861 H         1 PHE         0.0599
    105 H14         8.8641  -10.1777    5.7608 H         1 PHE         0.0599
    106 H15         8.6517   -7.8614    6.5715 H         1 PHE         0.0559
    107 H16         5.7604   -6.7293    0.3838 H         1 GLU         0.1883
    108 H17         5.1741   -7.3000   -2.4780 H         1 GLU         0.0801
    109 H18         5.6129   -4.5829   -2.2150 H         1 GLU         0.0330
    110 H19         4.8231   -5.0873   -0.6825 H         1 GLU         0.0330
    111 H20         2.8603   -5.6779   -1.8024 H         1 GLU         0.0433
    112 H21         3.6362   -5.4528   -3.4067 H         1 GLU         0.0433
    113 H22         6.5525   -5.5235   -3.9728 H         1 GLU         0.1883
    114 H23         9.4653   -5.8893   -3.2750 H         1 GLU         0.0801
    115 H24         9.0539   -6.8439   -5.3812 H         1 GLU         0.0330
    116 H25         9.7556   -5.2244   -5.7150 H         1 GLU         0.0330
    117 H26         8.1021   -5.5282   -7.3189 H         1 GLU         0.0433
    118 H27         7.3843   -4.4259   -6.0955 H         1 GLU         0.0433
    119 H28        10.7874   -4.0902   -3.4853 H         1 ILE         0.1883
    120 H29         9.3543   -1.4362   -3.3741 H         1 ILE         0.0803
    121 H30        11.0463   -0.6520   -1.9166 H         1 ILE         0.0345
    122 H31        13.0410   -1.1683   -3.0634 H         1 ILE         0.0267
    123 H32        12.7290   -2.9369   -3.0283 H         1 ILE         0.0267
    124 H33         9.6237   -2.2166   -0.6593 H         1 ILE         0.0235
    125 H34        11.2871   -2.0845    0.0056 H         1 ILE         0.0235
    126 H35        10.8174   -3.5249   -0.9595 H         1 ILE         0.0235
    127 H36        14.5597   -2.3163   -1.4471 H         1 ILE         0.0230
    128 H37        13.1367   -2.9599   -0.5596 H         1 ILE         0.0230
    129 H38        13.4487   -1.1912   -0.5947 H         1 ILE         0.0230
    130 H39        11.4488   -0.1460   -7.0692 H         1 PRO         0.0802
    131 H40        10.9547    2.0582   -7.0254 H         1 PRO         0.0313
    132 H41        12.3037    2.3563   -5.8773 H         1 PRO         0.0313
    133 H42         9.4832    2.4166   -5.4012 H         1 PRO         0.0287
    134 H43        10.8317    2.7403   -4.2595 H         1 PRO         0.0287
    135 H44        10.4349    0.7547   -3.2280 H         1 PRO         0.0524
    136 H45         9.0865    0.4310   -4.3697 H         1 PRO         0.0524
    137 H46        13.4702   -0.5216   -7.8909 H         1 GLU         0.1883
    138 H47        15.4881   -1.0046   -5.8280 H         1 GLU         0.0801
    139 H48        16.0713   -1.4745   -8.6680 H         1 GLU         0.0330
    140 H49        15.3275   -2.6559   -7.5376 H         1 GLU         0.0330
    141 H50        17.2154   -3.4730   -7.1774 H         1 GLU         0.0433
    142 H51        17.7178   -1.9341   -6.3989 H         1 GLU         0.0433
    143 H52        14.3353    1.5196   -6.6878 H         1 GLU         0.1883
    144 H53        16.6317    3.1886   -7.5569 H         1 GLU         0.0801
    145 H54        14.3338    4.1794   -7.5061 H         1 GLU         0.0330
    146 H55        15.5117    5.0869   -6.4983 H         1 GLU         0.0330
    147 H56        14.5547    4.3290   -4.4991 H         1 GLU         0.0433
    148 H57        13.6188    3.0434   -5.3347 H         1 GLU         0.0433
    149 H58        15.2917    1.4924   -5.0387 H         1 TYS         0.1885
    150 H59        16.9388    2.3549   -2.8124 H         1 TYS         0.0821
    151 H60        15.4391    1.1703   -1.3510 H         1 TYS         0.0453
    152 H61        14.4364    0.7066   -2.7674 H         1 TYS         0.0453
    153 H62        15.9952    3.8477   -1.4125 H         1 TYS         0.0530
    154 H63        12.5088    1.9467   -3.0343 H         1 TYS         0.0530
    155 H64        14.7772    6.0232   -1.2525 H         1 TYS         0.0525
    156 H65        11.2782    4.0837   -2.8059 H         1 TYS         0.0525
    157 H66        12.7231    6.9897   -1.5966 H         1 TYS         0.2458
    158 H67        16.0134   -0.5606   -4.5877 H         1 LEU         0.1875
    159 H68        17.8982   -2.2074   -2.9601 H         1 LEU         0.0726
    160 H69        17.2762   -3.9838   -4.1595 H         1 LEU         0.0308
    161 H70        17.1769   -3.0628   -5.6985 H         1 LEU         0.0308
    162 H71        15.0504   -2.0023   -4.7505 H         1 LEU         0.0297
    163 H72        13.6117   -3.8990   -5.3301 H         1 LEU         0.0232
    164 H73        15.0280   -5.0016   -5.2577 H         1 LEU         0.0232
    165 H74        14.9608   -3.7062   -6.5003 H         1 LEU         0.0232
    166 H75        15.5760   -2.5999   -2.4037 H         1 LEU         0.0232
    167 H76        15.3665   -4.3380   -2.8059 H         1 LEU         0.0232
    168 H77        13.9663   -3.2174   -2.9079 H         1 LEU         0.0232
@<TRIPOS>BOND
     1    1    2 1  
     2    2    3 1  
     3    2    5 1  
     4    3    4 2  
     5    3    9 am 
     6    5    6 1  
     7    6    7 ar 
     8    6    8 ar 
     9    9   10 1  
    10   10   11 1  
    11   10   13 1  
    12   11   12 2  
    13   11   20 am 
    14   13   14 1  
    15   14   15 ar 
    16   14   16 ar 
    17   15   17 ar 
    18   16   18 ar 
    19   17   19 ar 
    20   18   19 ar 
    21   20   21 1  
    22   21   22 1  
    23   21   24 1  
    24   22   23 2  
    25   22   29 am 
    26   24   25 1  
    27   25   26 1  
    28   26   27 ar 
    29   26   28 ar 
    30   29   30 1  
    31   30   31 1  
    32   30   33 1  
    33   31   32 2  
    34   31   38 am 
    35   33   34 1  
    36   34   35 1  
    37   35   36 ar 
    38   35   37 ar 
    39   38   39 1  
    40   39   40 1  
    41   39   42 1  
    42   40   41 2  
    43   40   46 am 
    44   42   43 1  
    45   42   44 1  
    46   43   45 1  
    47   46   47 1  
    48   46   52 1  
    49   47   48 1  
    50   47   50 1  
    51   48   49 2  
    52   48   53 am 
    53   50   51 1  
    54   51   52 1  
    55   53   54 1  
    56   54   55 1  
    57   54   57 1  
    58   55   56 2  
    59   55   62 am 
    60   57   58 1  
    61   58   59 1  
    62   59   60 ar 
    63   59   61 ar 
    64   62   63 1  
    65   63   64 1  
    66   63   66 1  
    67   64   65 2  
    68   64   71 am 
    69   66   67 1  
    70   67   68 1  
    71   68   69 ar 
    72   68   70 ar 
    73   71   72 1  
    74   72   73 1  
    75   72   75 1  
    76   73   74 2  
    77   73   83 am 
    78   75   76 1  
    79   76   77 ar 
    80   76   78 ar 
    81   77   79 ar 
    82   78   80 ar 
    83   79   81 ar 
    84   80   81 ar 
    85   81   82 1  
    86   83   84 1  
    87   84   85 1  
    88   84   87 1  
    89   85   86 ar 
    90   85   91 ar 
    91   87   88 1  
    92   88   89 1  
    93   88   90 1  
    94    1   92 1  
    95    1   93 1  
    96    1   94 1  
    97    2   95 1  
    98    5   96 1  
    99    5   97 1  
   100    9   98 1  
   101   10   99 1  
   102   13  100 1  
   103   13  101 1  
   104   15  102 1  
   105   16  103 1  
   106   17  104 1  
   107   18  105 1  
   108   19  106 1  
   109   20  107 1  
   110   21  108 1  
   111   24  109 1  
   112   24  110 1  
   113   25  111 1  
   114   25  112 1  
   115   29  113 1  
   116   30  114 1  
   117   33  115 1  
   118   33  116 1  
   119   34  117 1  
   120   34  118 1  
   121   38  119 1  
   122   39  120 1  
   123   42  121 1  
   124   43  122 1  
   125   43  123 1  
   126   44  124 1  
   127   44  125 1  
   128   44  126 1  
   129   45  127 1  
   130   45  128 1  
   131   45  129 1  
   132   47  130 1  
   133   50  131 1  
   134   50  132 1  
   135   51  133 1  
   136   51  134 1  
   137   52  135 1  
   138   52  136 1  
   139   53  137 1  
   140   54  138 1  
   141   57  139 1  
   142   57  140 1  
   143   58  141 1  
   144   58  142 1  
   145   62  143 1  
   146   63  144 1  
   147   66  145 1  
   148   66  146 1  
   149   67  147 1  
   150   67  148 1  
   151   71  149 1  
   152   72  150 1  
   153   75  151 1  
   154   75  152 1  
   155   77  153 1  
   156   78  154 1  
   157   79  155 1  
   158   80  156 1  
   159   82  157 1  
   160   83  158 1  
   161   84  159 1  
   162   87  160 1  
   163   87  161 1  
   164   88  162 1  
   165   89  163 1  
   166   89  164 1  
   167   89  165 1  
   168   90  166 1  
   169   90  167 1  
   170   90  168 1  
@<TRIPOS>SUBSTRUCTURE
     1 ASP         1

