1hgt_ligand
  -I-interpret- 

174176  0  0  0  0  0  0  0  0999 V2000
    5.2610  -12.9600   -0.3360 N   0  3  0  0  0
    4.5800  -12.2590    0.7750 C   0  0  0  0  0
    4.9670  -10.7730    0.7890 C   0  0  0  0  0
    4.0740   -9.9020    0.6020 O   0  0  0  0  0
    4.7670  -12.9770    2.0950 C   0  0  0  0  0
    4.4750  -12.1300    3.3270 C   0  0  0  0  0
    3.2580  -11.9390    3.5910 O   0  0  0  0  0
    5.4330  -11.6950    4.0090 O   0  0  0  0  0
    6.2450  -10.4990    0.9910 N   0  0  0  0  0
    6.6580   -9.0740    0.9760 C   0  0  0  0  0
    6.3410   -8.5020   -0.4070 C   0  0  0  0  0
    6.4510   -9.2270   -1.4160 O   0  0  0  0  0
    8.1370   -8.9240    1.3430 C   0  0  0  0  0
    8.3160   -8.6070    2.8020 C   0  0  0  0  0
    8.1510   -7.3020    3.2560 C   0  0  0  0  0
    8.5680   -9.6420    3.7070 C   0  0  0  0  0
    8.2780   -7.0130    4.6230 C   0  0  0  0  0
    8.6770   -9.3730    5.0590 C   0  0  0  0  0
    8.5460   -8.0700    5.5130 C   0  0  0  0  0
    5.9180   -7.2440   -0.4590 N   0  0  0  0  0
    5.6790   -6.6030   -1.7930 C   0  0  0  0  0
    7.1200   -6.2750   -2.2350 C   0  0  0  0  0
    8.0500   -6.5460   -1.4380 O   0  0  0  0  0
    4.9450   -5.3230   -1.7500 C   0  0  0  0  0
    3.6060   -5.0980   -2.3660 C   0  0  0  0  0
    3.1860   -3.6500   -2.3660 C   0  0  0  0  0
    3.8660   -2.9010   -3.0990 O   0  0  0  0  0
    2.3010   -3.2210   -1.6680 O   0  0  0  0  0
    7.3370   -5.7270   -3.3870 N   0  0  0  0  0
    8.6990   -5.3850   -3.8820 C   0  0  0  0  0
    8.8110   -3.8610   -3.7530 C   0  0  0  0  0
    7.7790   -3.1390   -3.8270 O   0  0  0  0  0
    8.8710   -5.7600   -5.3400 C   0  0  0  0  0
    7.7170   -5.4560   -6.2910 C   0  0  0  0  0
    6.5180   -6.3500   -6.1890 C   0  0  0  0  0
    6.5700   -7.5480   -5.9690 O   0  0  0  0  0
    5.4470   -5.7280   -6.3610 O   0  0  0  0  0
   10.0350   -3.4350   -3.5530 N   0  0  0  0  0
   10.3020   -1.9920   -3.4280 C   0  0  0  0  0
   11.0910   -1.5570   -4.6600 C   0  0  0  0  0
   11.8040   -2.3970   -5.2270 O   0  0  0  0  0
   11.1420   -1.7270   -2.1290 C   0  0  0  0  0
   12.6530   -2.0000   -2.4570 C   0  0  0  0  0
   10.6850   -2.4390   -0.8440 C   0  0  0  0  0
   13.5120   -2.1260   -1.1710 C   0  0  0  0  0
   10.9930   -0.2900   -5.0040 N   0  0  0  0  0
   11.7620    0.2920   -6.1100 C   0  0  0  0  0
   13.2660    0.0510   -5.9270 C   0  0  0  0  0
   13.8090    0.2300   -4.8110 O   0  0  0  0  0
   11.3960    1.7630   -6.0620 C   0  0  0  0  0
   10.4170    2.0180   -4.9780 C   0  0  0  0  0
   10.1500    0.7000   -4.2890 C   0  0  0  0  0
   13.9380   -0.3960   -7.0160 N   0  0  0  0  0
   15.3830   -0.6940   -6.8780 C   0  0  0  0  0
   16.1510    0.6210   -6.9960 C   0  0  0  0  0
   17.3560    0.6630   -7.2420 O   0  0  0  0  0
   16.0280   -1.8120   -7.6220 C   0  0  0  0  0
   17.3890   -2.3990   -7.3400 C   0  0  0  0  0
   18.5600   -2.3230   -8.2460 C   0  0  0  0  0
   18.2870   -2.0400   -9.4470 O   0  0  0  0  0
   19.7590   -2.5180   -7.9310 O   0  0  0  0  0
   15.3210    1.6530   -6.7910 N   0  0  0  0  0
   15.9360    3.0090   -6.7240 C   0  0  0  0  0
   16.6250    2.9120   -5.3230 C   0  0  0  0  0
   17.5490    3.6170   -4.9560 O   0  0  0  0  0
   14.9390    4.1520   -6.5880 C   0  0  0  0  0
   13.9830    4.0790   -5.4050 C   0  0  0  0  0
   12.7920    4.9740   -5.4480 C   0  0  0  0  0
   13.1220    6.2030   -5.5300 O   0  0  0  0  0
   11.6330    4.5670   -5.3770 O   0  0  0  0  0
   16.0420    1.9770   -4.5890 N   0  0  0  0  0
   16.3230    1.5500   -3.2400 C   0  0  0  0  0
   17.1850    0.3050   -3.1550 C   0  0  0  0  0
   18.0700    0.2500   -2.2790 O   0  0  0  0  0
   15.1080    1.4740   -2.3550 C   0  0  0  0  0
   14.3110    2.7700   -2.2150 C   0  0  0  0  0
   14.9590    3.9130   -1.7240 C   0  0  0  0  0
   12.9990    2.8250   -2.6300 C   0  0  0  0  0
   14.2880    5.1330   -1.6310 C   0  0  0  0  0
   12.3220    4.0220   -2.5200 C   0  0  0  0  0
   12.9820    5.1510   -2.0410 C   0  0  0  0  0
   12.1990    6.2700   -1.9280 O   0  0  0  0  0
   16.8090   -0.6600   -3.9900 N   0  0  0  0  0
   17.6420   -1.9010   -3.9850 C   0  0  0  0  0
   18.8860   -1.3250   -4.6830 C   0  0  0  0  0
   18.7110   -0.0920   -4.9130 O   0  0  0  0  0
   16.9200   -3.0550   -4.6290 C   0  0  0  0  0
   15.3940   -3.0190   -4.5090 C   0  0  0  0  0
   14.7010   -3.9720   -5.4650 C   0  0  0  0  0
   15.0520   -3.3140   -3.0560 C   0  0  0  0  0
   19.8110   -2.0810   -4.9050 O   0  0  0  0  0
    5.1108  -12.4456   -1.2039 H   0  0  0  0  0
    6.2606  -13.0144   -0.1402 H   0  0  0  0  0
    4.8794  -13.9015   -0.4271 H   0  0  0  0  0
    3.5032  -12.2845    0.6075 H   0  0  0  0  0
    5.8157  -13.2688    2.1518 H   0  0  0  0  0
    4.0619  -13.8081    2.1069 H   0  0  0  0  0
    2.7160  -12.3691    2.9255 H   0  0  0  0  0
    6.9243  -11.2427    1.1518 H   0  0  0  0  0
    6.1053   -8.5119    1.7288 H   0  0  0  0  0
    8.5554   -8.1044    0.7587 H   0  0  0  0  0
    8.6417   -9.8666    1.1310 H   0  0  0  0  0
    7.9230   -6.5040    2.5493 H   0  0  0  0  0
    8.6789  -10.6644    3.3459 H   0  0  0  0  0
    8.1714   -5.9915    4.9881 H   0  0  0  0  0
    8.8651  -10.1822    5.7646 H   0  0  0  0  0
    8.6523   -7.8603    6.5773 H   0  0  0  0  0
    5.7573   -6.7190    0.4006 H   0  0  0  0  0
    5.0808   -7.2572   -2.4273 H   0  0  0  0  0
    5.5874   -4.6619   -2.3317 H   0  0  0  0  0
    4.7395   -5.2034   -0.6863 H   0  0  0  0  0
    2.8751   -5.6532   -1.7781 H   0  0  0  0  0
    3.6616   -5.4251   -3.4043 H   0  0  0  0  0
    4.5161   -3.4240   -3.5738 H   0  0  0  0  0
    6.5368   -5.5194   -3.9845 H   0  0  0  0  0
    9.4576   -5.9231   -3.3136 H   0  0  0  0  0
    8.9807   -6.8444   -5.3514 H   0  0  0  0  0
    9.7094   -5.1625   -5.6981 H   0  0  0  0  0
    8.1108   -5.5907   -7.2984 H   0  0  0  0  0
    7.3707   -4.4542   -6.0371 H   0  0  0  0  0
    5.6386   -4.8006   -6.5185 H   0  0  0  0  0
   10.8025   -4.1033   -3.4840 H   0  0  0  0  0
    9.3708   -1.4297   -3.3592 H   0  0  0  0  0
   10.9733   -0.6823   -1.8679 H   0  0  0  0  0
   13.0326   -1.1610   -3.0402 H   0  0  0  0  0
   12.7189   -2.9400   -3.0049 H   0  0  0  0  0
    9.6671   -2.1328   -0.6029 H   0  0  0  0  0
   10.7145   -3.5177   -0.9977 H   0  0  0  0  0
   11.3508   -2.1692   -0.0242 H   0  0  0  0  0
   13.4484   -1.1992   -0.6009 H   0  0  0  0  0
   13.1391   -2.9525   -0.5661 H   0  0  0  0  0
   14.5498   -2.3145   -1.4458 H   0  0  0  0  0
   11.5320   -0.1533   -7.0779 H   0  0  0  0  0
   10.9520    2.0493   -7.0154 H   0  0  0  0  0
   12.2966    2.3465   -5.8710 H   0  0  0  0  0
    9.4938    2.4288   -5.3866 H   0  0  0  0  0
   10.8132    2.7455   -4.2695 H   0  0  0  0  0
   10.3940    0.7442   -3.2276 H   0  0  0  0  0
    9.0941    0.4322   -4.3282 H   0  0  0  0  0
   13.4609   -0.5241   -7.9084 H   0  0  0  0  0
   15.4410   -1.1531   -5.8911 H   0  0  0  0  0
   16.1746   -1.3700   -8.6075 H   0  0  0  0  0
   15.3700   -2.6480   -7.3846 H   0  0  0  0  0
   17.1793   -3.4685   -7.3247 H   0  0  0  0  0
   17.7210   -1.8094   -6.4854 H   0  0  0  0  0
   17.3391   -1.9191   -9.5386 H   0  0  0  0  0
   14.3156    1.5169   -6.6858 H   0  0  0  0  0
   16.5295    3.2184   -7.6139 H   0  0  0  0  0
   14.3169    4.1192   -7.4825 H   0  0  0  0  0
   15.5317    5.0552   -6.4430 H   0  0  0  0  0
   14.5600    4.3899   -4.5341 H   0  0  0  0  0
   13.5927    3.0613   -5.3977 H   0  0  0  0  0
   14.0784    6.2741   -5.5739 H   0  0  0  0  0
   15.2767    1.4827   -5.0477 H   0  0  0  0  0
   16.9313    2.3571   -2.8317 H   0  0  0  0  0
   15.4672    1.2223   -1.3572 H   0  0  0  0  0
   14.4374    0.7461   -2.8118 H   0  0  0  0  0
   16.0010    3.8474   -1.4108 H   0  0  0  0  0
   12.5061    1.9419   -3.0366 H   0  0  0  0  0
   14.7799    6.0282   -1.2504 H   0  0  0  0  0
   11.2724    4.0840   -2.8075 H   0  0  0  0  0
   11.3216    6.0810   -2.2686 H   0  0  0  0  0
   15.9975   -0.5586   -4.5996 H   0  0  0  0  0
   17.8873   -2.3725   -3.0334 H   0  0  0  0  0
   17.8448    0.1720   -4.5943 H   0  0  0  0  0
   17.2528   -3.9574   -4.1161 H   0  0  0  0  0
   17.1510   -3.0135   -5.6934 H   0  0  0  0  0
   15.0267   -2.0338   -4.7963 H   0  0  0  0  0
   14.9593   -3.7076   -6.4904 H   0  0  0  0  0
   15.0258   -4.9918   -5.2585 H   0  0  0  0  0
   13.6218   -3.8988   -5.3304 H   0  0  0  0  0
   15.4360   -4.2978   -2.7862 H   0  0  0  0  0
   15.5062   -2.5573   -2.4163 H   0  0  0  0  0
   13.9696   -3.2975   -2.9283 H   0  0  0  0  0
  1  2  1  0  0  0
  2  3  1  0  0  0
  2  5  1  0  0  0
  3  4  2  0  0  0
  3  9  1  0  0  0
  5  6  1  0  0  0
  6  7  1  0  0  0
  6  8  2  0  0  0
  9 10  1  0  0  0
 10 11  1  0  0  0
 10 13  1  0  0  0
 11 12  2  0  0  0
 11 20  1  0  0  0
 13 14  1  0  0  0
 14 15  4  0  0  0
 14 16  4  0  0  0
 15 17  4  0  0  0
 16 18  4  0  0  0
 17 19  4  0  0  0
 18 19  4  0  0  0
 20 21  1  0  0  0
 21 22  1  0  0  0
 21 24  1  0  0  0
 22 23  2  0  0  0
 22 29  1  0  0  0
 24 25  1  0  0  0
 25 26  1  0  0  0
 26 27  1  0  0  0
 26 28  2  0  0  0
 29 30  1  0  0  0
 30 31  1  0  0  0
 30 33  1  0  0  0
 31 32  2  0  0  0
 31 38  1  0  0  0
 33 34  1  0  0  0
 34 35  1  0  0  0
 35 36  2  0  0  0
 35 37  1  0  0  0
 38 39  1  0  0  0
 39 40  1  0  0  0
 39 42  1  0  0  0
 40 41  2  0  0  0
 40 46  1  0  0  0
 42 43  1  0  0  0
 42 44  1  0  0  0
 43 45  1  0  0  0
 46 47  1  0  0  0
 46 52  1  0  0  0
 47 48  1  0  0  0
 47 50  1  0  0  0
 48 49  2  0  0  0
 48 53  1  0  0  0
 50 51  1  0  0  0
 51 52  1  0  0  0
 53 54  1  0  0  0
 54 55  1  0  0  0
 54 57  1  0  0  0
 55 56  2  0  0  0
 55 62  1  0  0  0
 57 58  1  0  0  0
 58 59  1  0  0  0
 59 60  1  0  0  0
 59 61  2  0  0  0
 62 63  1  0  0  0
 63 64  1  0  0  0
 63 66  1  0  0  0
 64 65  2  0  0  0
 64 71  1  0  0  0
 66 67  1  0  0  0
 67 68  1  0  0  0
 68 69  1  0  0  0
 68 70  2  0  0  0
 71 72  1  0  0  0
 72 73  1  0  0  0
 72 75  1  0  0  0
 73 74  2  0  0  0
 73 83  1  0  0  0
 75 76  1  0  0  0
 76 77  4  0  0  0
 76 78  4  0  0  0
 77 79  4  0  0  0
 78 80  4  0  0  0
 79 81  4  0  0  0
 80 81  4  0  0  0
 81 82  1  0  0  0
 83 84  1  0  0  0
 84 85  1  0  0  0
 84 87  1  0  0  0
 85 86  1  0  0  0
 85 91  2  0  0  0
 87 88  1  0  0  0
 88 89  1  0  0  0
 88 90  1  0  0  0
  1 92  1  0  0  0
  1 93  1  0  0  0
  1 94  1  0  0  0
  2 95  1  0  0  0
  5 96  1  0  0  0
  5 97  1  0  0  0
  7 98  1  0  0  0
  9 99  1  0  0  0
 10100  1  0  0  0
 13101  1  0  0  0
 13102  1  0  0  0
 15103  1  0  0  0
 16104  1  0  0  0
 17105  1  0  0  0
 18106  1  0  0  0
 19107  1  0  0  0
 20108  1  0  0  0
 21109  1  0  0  0
 24110  1  0  0  0
 24111  1  0  0  0
 25112  1  0  0  0
 25113  1  0  0  0
 27114  1  0  0  0
 29115  1  0  0  0
 30116  1  0  0  0
 33117  1  0  0  0
 33118  1  0  0  0
 34119  1  0  0  0
 34120  1  0  0  0
 37121  1  0  0  0
 38122  1  0  0  0
 39123  1  0  0  0
 42124  1  0  0  0
 43125  1  0  0  0
 43126  1  0  0  0
 44127  1  0  0  0
 44128  1  0  0  0
 44129  1  0  0  0
 45130  1  0  0  0
 45131  1  0  0  0
 45132  1  0  0  0
 47133  1  0  0  0
 50134  1  0  0  0
 50135  1  0  0  0
 51136  1  0  0  0
 51137  1  0  0  0
 52138  1  0  0  0
 52139  1  0  0  0
 53140  1  0  0  0
 54141  1  0  0  0
 57142  1  0  0  0
 57143  1  0  0  0
 58144  1  0  0  0
 58145  1  0  0  0
 60146  1  0  0  0
 62147  1  0  0  0
 63148  1  0  0  0
 66149  1  0  0  0
 66150  1  0  0  0
 67151  1  0  0  0
 67152  1  0  0  0
 69153  1  0  0  0
 71154  1  0  0  0
 72155  1  0  0  0
 75156  1  0  0  0
 75157  1  0  0  0
 77158  1  0  0  0
 78159  1  0  0  0
 79160  1  0  0  0
 80161  1  0  0  0
 82162  1  0  0  0
 83163  1  0  0  0
 84164  1  0  0  0
 86165  1  0  0  0
 87166  1  0  0  0
 87167  1  0  0  0
 88168  1  0  0  0
 89169  1  0  0  0
 89170  1  0  0  0
 89171  1  0  0  0
 90172  1  0  0  0
 90173  1  0  0  0
 90174  1  0  0  0
M  END
$$$$
