2zga_ligand
  -I-interpret- 

 43 43  0  0  0  0  0  0  0  0999 V2000
   -2.4640  -20.2510   18.0140 N   0  0  0  0  0
   -3.9760  -17.9940   16.8360 C   0  0  0  0  0
   -4.2010  -19.3270   16.4680 C   0  0  0  0  0
   -3.4000  -20.4770   17.0580 C   0  0  0  0  0
   -8.3970  -17.2140   19.8470 C   0  0  0  0  0
   -4.6870  -16.9370   16.2550 C   0  0  0  0  0
   -9.0190  -17.0490   14.0200 C   0  0  0  0  0
   -5.6660  -17.2230   15.3030 C   0  0  0  0  0
   -5.9080  -18.5510   14.9480 C   0  0  0  0  0
   -5.1900  -19.6070   15.5240 C   0  0  0  0  0
   -6.6070  -15.9200   14.5440 S   0  0  0  0  0
   -6.1790  -14.6880   15.1710 O   0  0  0  0  0
   -8.2400  -16.2580   14.9900 N   0  0  0  0  0
   -8.7360  -15.7230   16.2580 C   0  0  0  0  0
   -8.5770  -16.6020   17.4710 C   0  0  0  0  0
   -8.5110  -16.1790   18.7480 C   0  0  0  0  0
   -8.5590  -14.7380   19.1930 C   0  0  0  0  0
   -9.5900  -18.3910   14.5340 C   0  0  0  0  0
  -10.7830  -18.6770   13.7170 N   0  3  0  0  0
   -6.5190  -16.1520   13.1150 O   0  0  0  0  0
   -3.6900  -21.6180   16.7430 O   0  0  0  0  0
   -2.0014  -21.0370   18.4707 H   0  0  0  0  0
   -2.2230  -19.2951   18.2759 H   0  0  0  0  0
   -3.2264  -17.7736   17.5960 H   0  0  0  0  0
   -9.2651  -17.8724   19.8158 H   0  0  0  0  0
   -7.4896  -17.7998   19.6999 H   0  0  0  0  0
   -8.3545  -16.7124   20.8138 H   0  0  0  0  0
   -4.4788  -15.9063   16.5421 H   0  0  0  0  0
   -8.3325  -17.3004   13.2115 H   0  0  0  0  0
   -9.8790  -16.4365   13.7490 H   0  0  0  0  0
   -6.6741  -18.7717   14.2047 H   0  0  0  0  0
   -5.4017  -20.6372   15.2377 H   0  0  0  0  0
   -9.8091  -15.5841   16.1262 H   0  0  0  0  0
   -8.1476  -14.8273   16.4569 H   0  0  0  0  0
   -8.5093  -17.6764   17.2999 H   0  0  0  0  0
   -7.7261  -14.1937   18.7479 H   0  0  0  0  0
   -9.4998  -14.2910   18.8718 H   0  0  0  0  0
   -8.4856  -14.6920   20.2796 H   0  0  0  0  0
   -9.8467  -18.3270   15.5914 H   0  0  0  0  0
   -8.8536  -19.1894   14.4431 H   0  0  0  0  0
  -11.1978  -19.5582   14.0200 H   0  0  0  0  0
  -11.4608  -17.9235   13.8318 H   0  0  0  0  0
  -10.5130  -18.7465   12.7358 H   0  0  0  0  0
  4  1  1  0  0  0
  2  3  4  0  0  0
  6  2  4  0  0  0
  3  4  1  0  0  0
 10  3  4  0  0  0
  4 21  2  0  0  0
 16  5  1  0  0  0
  8  6  4  0  0  0
 13  7  1  0  0  0
  7 18  1  0  0  0
  8  9  4  0  0  0
 11  8  1  0  0  0
  9 10  4  0  0  0
 11 12  2  0  0  0
 13 11  1  0  0  0
 11 20  2  0  0  0
 14 13  1  0  0  0
 15 14  1  0  0  0
 15 16  2  0  0  0
 16 17  1  0  0  0
 18 19  1  0  0  0
  1 22  1  0  0  0
  1 23  1  0  0  0
  2 24  1  0  0  0
  5 25  1  0  0  0
  5 26  1  0  0  0
  5 27  1  0  0  0
  6 28  1  0  0  0
  7 29  1  0  0  0
  7 30  1  0  0  0
  9 31  1  0  0  0
 10 32  1  0  0  0
 14 33  1  0  0  0
 14 34  1  0  0  0
 15 35  1  0  0  0
 17 36  1  0  0  0
 17 37  1  0  0  0
 17 38  1  0  0  0
 18 39  1  0  0  0
 18 40  1  0  0  0
 19 41  1  0  0  0
 19 42  1  0  0  0
 19 43  1  0  0  0
M  END
$$$$
