1jyq_ligand
  -I-interpret- 

 90 92  0  0  0  0  0  0  0  0999 V2000
  -28.8520   37.7930   35.6640 C   0  0  0  0  0
  -29.6420   38.9260   35.3150 C   0  0  0  0  0
  -29.6710   39.3420   33.9720 C   0  0  0  0  0
  -28.9230   38.6720   32.9890 C   0  0  0  0  0
  -28.0920   37.1200   34.6670 C   0  0  0  0  0
  -30.4900   40.4930   33.5150 C   0  0  0  0  0
  -29.9610   41.8270   33.4510 O   0  0  0  0  0
  -28.7740   42.2610   33.7710 C   0  0  0  0  0
  -28.0030   41.7300   34.7790 O   0  0  0  0  0
  -27.4060   36.9560   32.3710 N   0  0  0  0  0
  -28.1300   37.5700   33.3340 C   0  0  0  0  0
  -28.6340   43.5240   33.4430 N   0  0  0  0  0
  -27.4480   44.2920   33.4820 C   0  0  0  0  0
  -27.9920   45.6800   33.4050 C   0  0  0  0  0
  -28.9380   46.0270   32.6490 O   0  0  0  0  0
  -26.5470   44.0820   32.2300 C   0  0  0  0  0
  -25.8710   42.7140   32.2280 C   0  0  0  0  0
  -26.4600   41.6680   31.4710 C   0  0  0  0  0
  -24.6950   42.4720   32.9840 C   0  0  0  0  0
  -25.8960   40.4040   31.4610 C   0  0  0  0  0
  -24.0880   41.1920   32.9840 C   0  0  0  0  0
  -24.7360   40.1860   32.2050 C   0  0  0  0  0
  -24.1760   38.8990   32.1760 O   0  0  0  0  0
  -23.4880   38.1660   33.3190 P   0  0  0  0  0
  -23.9910   36.8140   33.2960 O   0  0  0  0  0
  -23.7460   38.7540   34.6230 O   0  0  0  0  0
  -21.9630   38.1250   33.0320 O   0  0  0  0  0
  -27.4480   46.4150   34.3280 N   0  0  0  0  0
  -27.8180   47.7830   34.5170 C   0  0  0  0  0
  -29.0700   47.8930   35.4290 C   0  0  0  0  0
  -27.7360   48.6120   33.2100 C   0  0  0  0  0
  -28.5820   49.4940   32.9640 O   0  0  0  0  0
  -26.6710   48.3040   35.4550 C   0  0  0  0  0
  -26.8940   49.6920   36.0670 C   0  0  0  0  0
  -27.3950   49.8120   37.3880 C   0  0  0  0  0
  -26.6180   50.8380   35.3130 C   0  0  0  0  0
  -27.6060   51.0850   37.9200 C   0  0  0  0  0
  -26.8210   52.1460   35.8300 C   0  0  0  0  0
  -27.3140   52.2200   37.1390 C   0  0  0  0  0
  -27.5100   53.5160   37.6550 O   0  0  0  0  0
  -28.2860   54.6800   36.7660 P   0  0  0  0  0
  -28.4530   55.8160   37.6910 O   0  0  0  0  0
  -29.5550   54.1220   36.2400 O   0  0  0  0  0
  -27.4420   55.0860   35.6060 O   0  0  0  0  0
  -26.7850   48.3170   32.3440 N   0  0  0  0  0
  -26.7030   49.0630   31.1070 C   0  0  0  0  0
  -27.2720   48.2090   29.9730 C   0  0  0  0  0
  -28.1160   47.2850   30.1990 O   0  0  0  0  0
  -25.2350   49.4440   30.7670 C   0  0  0  0  0
  -24.2930   48.1900   30.6050 C   0  0  0  0  0
  -24.5070   47.1770   31.2010 O   0  0  0  0  0
  -23.2600   48.3260   29.8210 N   0  0  0  0  0
  -26.8840   48.4730   28.8370 O   0  0  0  0  0
  -28.8298   37.4414   36.6955 H   0  0  0  0  0
  -30.2130   39.4602   36.0744 H   0  0  0  0  0
  -28.9600   39.0112   31.9538 H   0  0  0  0  0
  -27.4816   36.2577   34.9351 H   0  0  0  0  0
  -31.2740   40.5645   34.2689 H   0  0  0  0  0
  -30.7087   40.2542   32.4742 H   0  0  0  0  0
  -27.4425   37.2966   31.4102 H   0  0  0  0  0
  -26.8234   36.1522   32.6054 H   0  0  0  0  0
  -29.4750   44.0052   33.1243 H   0  0  0  0  0
  -26.8350   44.0452   34.3488 H   0  0  0  0  0
  -25.7683   44.8446   32.2412 H   0  0  0  0  0
  -27.1777   44.1495   31.3436 H   0  0  0  0  0
  -27.3636   41.8615   30.8929 H   0  0  0  0  0
  -24.2545   43.2785   33.5702 H   0  0  0  0  0
  -26.3481   39.5968   30.8847 H   0  0  0  0  0
  -23.1775   40.9866   33.5470 H   0  0  0  0  0
  -23.4115   39.6537   34.6389 H   0  0  0  0  0
  -21.6122   39.0185   33.0438 H   0  0  0  0  0
  -26.7376   46.0049   34.9343 H   0  0  0  0  0
  -29.9027   47.3633   34.9663 H   0  0  0  0  0
  -28.8505   47.4497   36.4003 H   0  0  0  0  0
  -29.3326   48.9430   35.5584 H   0  0  0  0  0
  -25.7761   48.3785   34.8372 H   0  0  0  0  0
  -26.6114   47.6043   36.2887 H   0  0  0  0  0
  -27.6123   48.9227   37.9797 H   0  0  0  0  0
  -26.2358   50.7240   34.2986 H   0  0  0  0  0
  -27.9938   51.1998   38.9322 H   0  0  0  0  0
  -26.6058   53.0387   35.2428 H   0  0  0  0  0
  -29.3611   53.3907   35.6491 H   0  0  0  0  0
  -27.3391   54.3404   35.0101 H   0  0  0  0  0
  -26.1166   47.5729   32.5440 H   0  0  0  0  0
  -27.2756   49.9831   31.2239 H   0  0  0  0  0
  -28.2892   47.2350   31.1419 H   0  0  0  0  0
  -24.8490   50.0443   31.5909 H   0  0  0  0  0
  -25.2427   49.9778   29.8167 H   0  0  0  0  0
  -22.6049   47.5533   29.7019 H   0  0  0  0  0
  -23.1071   49.2051   29.3268 H   0  0  0  0  0
  1  5  4  0  0  0
  2  1  4  0  0  0
  3  2  4  0  0  0
  6  3  1  0  0  0
  3  4  4  0  0  0
  4 11  4  0  0  0
 11 10  1  0  0  0
 11  5  4  0  0  0
  7  6  1  0  0  0
  8  7  1  0  0  0
  8  9  2  0  0  0
 13 12  1  0  0  0
 13 16  1  0  0  0
 14 13  1  0  0  0
 14 15  2  0  0  0
 16 17  1  0  0  0
 17 19  4  0  0  0
 17 18  4  0  0  0
 18 20  4  0  0  0
 20 22  4  0  0  0
 22 23  1  0  0  0
 21 22  4  0  0  0
 19 21  4  0  0  0
 23 24  1  0  0  0
 24 27  1  0  0  0
 24 26  1  0  0  0
 24 25  2  0  0  0
 29 28  1  0  0  0
 29 33  1  0  0  0
 31 29  1  0  0  0
 29 30  1  0  0  0
 31 32  2  0  0  0
 33 34  1  0  0  0
 34 36  4  0  0  0
 34 35  4  0  0  0
 35 37  4  0  0  0
 37 39  4  0  0  0
 39 40  1  0  0  0
 38 39  4  0  0  0
 36 38  4  0  0  0
 40 41  1  0  0  0
 41 44  1  0  0  0
 41 43  1  0  0  0
 41 42  2  0  0  0
 46 47  1  0  0  0
 46 49  1  0  0  0
 45 46  1  0  0  0
 49 50  1  0  0  0
 50 51  2  0  0  0
 50 52  1  0  0  0
 47 53  2  0  0  0
 47 48  1  0  0  0
 28 14  1  0  0  0
 12  8  1  0  0  0
 31 45  1  0  0  0
  1 54  1  0  0  0
  2 55  1  0  0  0
  4 56  1  0  0  0
  5 57  1  0  0  0
  6 58  1  0  0  0
  6 59  1  0  0  0
 10 60  1  0  0  0
 10 61  1  0  0  0
 12 62  1  0  0  0
 13 63  1  0  0  0
 16 64  1  0  0  0
 16 65  1  0  0  0
 18 66  1  0  0  0
 19 67  1  0  0  0
 20 68  1  0  0  0
 21 69  1  0  0  0
 26 70  1  0  0  0
 27 71  1  0  0  0
 28 72  1  0  0  0
 30 73  1  0  0  0
 30 74  1  0  0  0
 30 75  1  0  0  0
 33 76  1  0  0  0
 33 77  1  0  0  0
 35 78  1  0  0  0
 36 79  1  0  0  0
 37 80  1  0  0  0
 38 81  1  0  0  0
 43 82  1  0  0  0
 44 83  1  0  0  0
 45 84  1  0  0  0
 46 85  1  0  0  0
 48 86  1  0  0  0
 49 87  1  0  0  0
 49 88  1  0  0  0
 52 89  1  0  0  0
 52 90  1  0  0  0
M  END
$$$$
