1ijr_ligand
  -I-interpret- 

 81 83  0  0  0  0  0  0  0  0999 V2000
   69.0730   26.5080   34.2270 P   0  0  0  0  0
   68.7380   27.4620   35.3400 O   0  0  0  0  0
   69.8460   27.2460   33.1800 O   0  0  0  0  0
   69.8900   25.3630   34.7600 O   0  0  0  0  0
   59.6350   27.6920   33.5900 C   0  0  0  0  0
   60.9750   27.6510   33.0400 N   0  0  0  0  0
   63.3860   27.4740   33.2620 C   0  0  0  0  0
   62.0580   27.9400   33.7790 C   0  0  0  0  0
   62.0300   28.5790   34.8280 O   0  0  0  0  0
   64.3720   28.5450   33.3860 N   0  0  0  0  0
   63.7640   26.2010   34.0420 C   0  0  0  0  0
   65.1140   25.7390   33.4800 C   0  0  0  0  0
   66.3100   26.2430   34.0160 C   0  0  0  0  0
   65.1570   24.8140   32.4250 C   0  0  0  0  0
   67.5610   25.8410   33.5080 C   0  0  0  0  0
   66.3980   24.4060   31.9130 C   0  0  0  0  0
   67.6000   24.9100   32.4390 C   0  0  0  0  0
   68.8590   24.5050   31.9220 O   0  0  0  0  0
   58.5880   27.7530   32.4190 C   0  0  0  0  0
   64.7360   29.2730   32.3040 C   0  0  0  0  0
   65.7590   30.3510   32.4900 C   0  0  0  0  0
   64.2780   29.0970   31.1900 O   0  0  0  0  0
   57.8780   23.7910   37.4620 O   0  0  0  0  0
   59.3150   26.4940   34.5070 C   0  0  0  0  0
   59.9890   25.2960   34.7590 C   0  0  0  0  0
   59.5490   24.4050   35.7560 C   0  0  0  0  0
   58.3900   24.7090   36.5180 C   0  0  0  0  0
   57.7910   25.9790   36.3170 C   0  0  0  0  0
   58.1620   26.7780   35.2500 C   0  0  0  0  0
   56.5890   24.0310   38.0720 C   0  0  0  0  0
   55.5950   22.9110   37.7080 C   0  0  0  0  0
   54.1410   23.4810   37.8030 C   0  0  0  0  0
   53.1280   22.3830   37.4490 C   0  0  0  0  0
   53.4250   21.8200   36.0260 C   0  0  0  0  0
   54.8760   21.2970   35.8900 C   0  0  0  0  0
   55.8650   22.4220   36.2520 C   0  0  0  0  0
   60.3970   23.1620   36.0040 C   0  0  0  0  0
   59.9180   22.0260   36.5690 N   0  0  0  0  0
   61.5730   23.1920   35.6510 O   0  0  0  0  0
   68.7890   23.3300   31.0960 C   0  0  0  0  0
   68.8420   23.7080   29.6400 C   0  0  0  0  0
   69.4850   22.8610   28.8250 O   0  0  0  0  0
   68.3060   24.7440   29.2510 O   0  0  0  0  0
   68.2413   26.9987   36.0184 H   0  0  0  0  0
   69.3857   24.8963   35.4304 H   0  0  0  0  0
   59.5752   28.5872   34.2090 H   0  0  0  0  0
   61.0994   27.3945   32.0606 H   0  0  0  0  0
   63.3468   27.2277   32.2009 H   0  0  0  0  0
   64.7894   28.7458   34.2948 H   0  0  0  0  0
   63.8316   26.4012   35.1113 H   0  0  0  0  0
   63.0044   25.4282   33.9242 H   0  0  0  0  0
   66.2698   26.9570   34.8386 H   0  0  0  0  0
   64.2328   24.4155   32.0065 H   0  0  0  0  0
   66.4304   23.6869   31.0945 H   0  0  0  0  0
   58.6370   26.8301   31.8411 H   0  0  0  0  0
   57.5870   27.8706   32.8341 H   0  0  0  0  0
   58.8166   28.6004   31.7727 H   0  0  0  0  0
   66.6241   30.1416   31.8608 H   0  0  0  0  0
   65.3277   31.3118   32.2089 H   0  0  0  0  0
   66.0670   30.3814   33.5351 H   0  0  0  0  0
   60.8729   25.0466   34.1719 H   0  0  0  0  0
   57.0284   26.3301   37.0122 H   0  0  0  0  0
   57.5492   27.6394   34.9842 H   0  0  0  0  0
   56.1982   24.9806   37.7064 H   0  0  0  0  0
   56.7113   24.0545   39.1549 H   0  0  0  0  0
   55.7148   22.0728   38.3944 H   0  0  0  0  0
   54.0326   24.3104   37.1041 H   0  0  0  0  0
   53.9557   23.8283   38.8194 H   0  0  0  0  0
   52.1229   22.8046   37.4647 H   0  0  0  0  0
   53.2062   21.5755   38.1770 H   0  0  0  0  0
   53.2890   22.6287   35.3079 H   0  0  0  0  0
   52.7472   20.9858   35.8448 H   0  0  0  0  0
   55.0513   20.9762   34.8631 H   0  0  0  0  0
   55.0226   20.4539   36.5651 H   0  0  0  0  0
   56.8846   22.0432   36.1813 H   0  0  0  0  0
   55.7336   23.2547   35.5610 H   0  0  0  0  0
   60.5311   21.2203   36.6928 H   0  0  0  0  0
   58.9447   21.9773   36.8701 H   0  0  0  0  0
   67.8506   22.8121   31.2943 H   0  0  0  0  0
   69.6359   22.6835   31.3259 H   0  0  0  0  0
   69.8247   22.1227   29.3360 H   0  0  0  0  0
  1 15  1  0  0  0
  1  4  1  0  0  0
  1  3  2  0  0  0
  1  2  1  0  0  0
 15 17  4  0  0  0
 15 13  4  0  0  0
 13 12  4  0  0  0
 12 14  4  0  0  0
 12 11  1  0  0  0
 11  7  1  0  0  0
  7  8  1  0  0  0
  7 10  1  0  0  0
 10 20  1  0  0  0
 20 22  2  0  0  0
 20 21  1  0  0  0
  8  9  2  0  0  0
  8  6  1  0  0  0
  6  5  1  0  0  0
  5 19  1  0  0  0
  5 24  1  0  0  0
 24 29  4  0  0  0
 24 25  4  0  0  0
 25 26  4  0  0  0
 26 37  1  0  0  0
 26 27  4  0  0  0
 27 28  4  0  0  0
 27 23  1  0  0  0
 23 30  1  0  0  0
 30 31  1  0  0  0
 31 36  1  0  0  0
 31 32  1  0  0  0
 32 33  1  0  0  0
 33 34  1  0  0  0
 34 35  1  0  0  0
 35 36  1  0  0  0
 28 29  4  0  0  0
 37 39  2  0  0  0
 37 38  1  0  0  0
 14 16  4  0  0  0
 16 17  4  0  0  0
 17 18  1  0  0  0
 18 40  1  0  0  0
 40 41  1  0  0  0
 41 43  2  0  0  0
 41 42  1  0  0  0
  2 44  1  0  0  0
  4 45  1  0  0  0
  5 46  1  0  0  0
  6 47  1  0  0  0
  7 48  1  0  0  0
 10 49  1  0  0  0
 11 50  1  0  0  0
 11 51  1  0  0  0
 13 52  1  0  0  0
 14 53  1  0  0  0
 16 54  1  0  0  0
 19 55  1  0  0  0
 19 56  1  0  0  0
 19 57  1  0  0  0
 21 58  1  0  0  0
 21 59  1  0  0  0
 21 60  1  0  0  0
 25 61  1  0  0  0
 28 62  1  0  0  0
 29 63  1  0  0  0
 30 64  1  0  0  0
 30 65  1  0  0  0
 31 66  1  0  0  0
 32 67  1  0  0  0
 32 68  1  0  0  0
 33 69  1  0  0  0
 33 70  1  0  0  0
 34 71  1  0  0  0
 34 72  1  0  0  0
 35 73  1  0  0  0
 35 74  1  0  0  0
 36 75  1  0  0  0
 36 76  1  0  0  0
 38 77  1  0  0  0
 38 78  1  0  0  0
 40 79  1  0  0  0
 40 80  1  0  0  0
 42 81  1  0  0  0
M  END
$$$$
