### 
### Created by X-TOOL on Mon Sep 10 21:12:49 2018
### 

@<TRIPOS>MOLECULE
1ijr_ligand
   78    80     1     0     0
SMALL
GAST_HUCK


@<TRIPOS>ATOM
      1 P1         69.0730   26.5080   34.2270 P.3       1 CC0        -0.1904
      2 OR1        68.7380   27.4620   35.3400 O.co2     1 CC0        -0.7699
      3 OR2        69.8460   27.2460   33.1800 O.co2     1 CC0        -0.7699
      4 O10        69.8900   25.3630   34.7600 O.co2     1 CC0        -0.7699
      5 C1         59.6350   27.6920   33.5900 C.3       1 CC0         0.0688
      6 N1         60.9750   27.6510   33.0400 N.am      1 CC0        -0.2724
      7 C0         63.3860   27.4740   33.2620 C.3       1 CC0         0.1375
      8 C3         62.0580   27.9400   33.7790 C.2       1 CC0         0.2053
      9 O2         62.0300   28.5790   34.8280 O.2       1 CC0        -0.3942
     10 N2         64.3720   28.5450   33.3860 N.am      1 CC0        -0.2643
     11 C4         63.7640   26.2010   34.0420 C.3       1 CC0        -0.0017
     12 C5         65.1140   25.7390   33.4800 C.ar      1 CC0        -0.1484
     13 C6         66.3100   26.2430   34.0160 C.ar      1 CC0        -0.1871
     14 C7         65.1570   24.8140   32.4250 C.ar      1 CC0        -0.1834
     15 C8         67.5610   25.8410   33.5080 C.ar      1 CC0        -0.1681
     16 C9         66.3980   24.4060   31.9130 C.ar      1 CC0        -0.1553
     17 C10        67.6000   24.9100   32.4390 C.ar      1 CC0        -0.0144
     18 O3         68.8590   24.5050   31.9220 O.3       1 CC0        -0.3292
     19 C11        58.5880   27.7530   32.4190 C.3       1 CC0        -0.0334
     20 C12        64.7360   29.2730   32.3040 C.2       1 CC0         0.1752
     21 C13        65.7590   30.3510   32.4900 C.3       1 CC0         0.0258
     22 O4         64.2780   29.0970   31.1900 O.2       1 CC0        -0.3972
     23 O5         57.8780   23.7910   37.4620 O.3       1 CC0        -0.3166
     24 C14        59.3150   26.4940   34.5070 C.ar      1 CC0        -0.0233
     25 C15        59.9890   25.2960   34.7590 C.ar      1 CC0        -0.0465
     26 C16        59.5490   24.4050   35.7560 C.ar      1 CC0         0.0718
     27 C17        58.3900   24.7090   36.5180 C.ar      1 CC0         0.1058
     28 C18        57.7910   25.9790   36.3170 C.ar      1 CC0        -0.0329
     29 C19        58.1620   26.7780   35.2500 C.ar      1 CC0        -0.0619
     30 C20        56.5890   24.0310   38.0720 C.3       1 CC0         0.0735
     31 C21        55.5950   22.9110   37.7080 C.3       1 CC0        -0.0131
     32 C22        54.1410   23.4810   37.8030 C.3       1 CC0        -0.0478
     33 C23        53.1280   22.3830   37.4490 C.3       1 CC0        -0.0527
     34 C24        53.4250   21.8200   36.0260 C.3       1 CC0        -0.0530
     35 C25        54.8760   21.2970   35.8900 C.3       1 CC0        -0.0527
     36 C26        55.8650   22.4220   36.2520 C.3       1 CC0        -0.0478
     37 C27        60.3970   23.1620   36.0040 C.2       1 CC0         0.1952
     38 N3         59.9180   22.0260   36.5690 N.am      1 CC0        -0.3020
     39 O6         61.5730   23.1920   35.6510 O.2       1 CC0        -0.3911
     40 C28        68.7890   23.3300   31.0960 C.3       1 CC0         0.1189
     41 C29        68.8420   23.7080   29.6400 C.2       1 CC0         0.0650
     42 O7         69.4850   22.8610   28.8250 O.co2     1 CC0        -0.5663
     43 O8         68.3060   24.7440   29.2510 O.co2     1 CC0        -0.5663
     44 H1         59.5445   28.6095   34.1900 H         1 CC0         0.0696
     45 H2         61.0969   27.3995   32.0798 H         1 CC0         0.1879
     46 H3         63.2918   27.2176   32.1965 H         1 CC0         0.0820
     47 H4         64.7812   28.7419   34.2769 H         1 CC0         0.1884
     48 H5         63.8542   26.4243   35.1153 H         1 CC0         0.0437
     49 H6         63.0020   25.4219   33.8923 H         1 CC0         0.0437
     50 H7         66.2700   26.9531   34.8341 H         1 CC0        -0.0217
     51 H8         64.2379   24.4177   32.0088 H         1 CC0        -0.0214
     52 H9         66.4302   23.6909   31.0990 H         1 CC0        -0.0220
     53 H10        57.5712   27.7841   32.8376 H         1 CC0         0.0272
     54 H11        58.6959   26.8614   31.7838 H         1 CC0         0.0272
     55 H12        58.7641   28.6562   31.8163 H         1 CC0         0.0272
     56 H13        65.9469   30.8482   31.5269 H         1 CC0         0.0467
     57 H14        66.6945   29.9084   32.8628 H         1 CC0         0.0467
     58 H15        65.3869   31.0882   33.2167 H         1 CC0         0.0467
     59 H16        60.8680   25.0480   34.1752 H         1 CC0         0.0579
     60 H17        57.0326   26.3282   37.0084 H         1 CC0         0.0539
     61 H18        57.5526   27.6347   34.9857 H         1 CC0         0.0569
     62 H19        56.1944   24.9936   37.7147 H         1 CC0         0.0617
     63 H20        56.7081   24.0664   39.1650 H         1 CC0         0.0617
     64 H21        55.7114   22.0697   38.4070 H         1 CC0         0.0327
     65 H22        54.0309   24.3198   37.1000 H         1 CC0         0.0269
     66 H23        53.9534   23.8343   38.8277 H         1 CC0         0.0269
     67 H24        52.1123   22.8047   37.4688 H         1 CC0         0.0265
     68 H25        53.2015   21.5689   38.1851 H         1 CC0         0.0265
     69 H26        53.2677   22.6213   35.2890 H         1 CC0         0.0265
     70 H27        52.7303   20.9920   35.8214 H         1 CC0         0.0265
     71 H28        55.0531   20.9729   34.8539 H         1 CC0         0.0265
     72 H29        55.0241   20.4459   36.5709 H         1 CC0         0.0265
     73 H30        56.8944   22.0412   36.1791 H         1 CC0         0.0269
     74 H31        55.7345   23.2621   35.5540 H         1 CC0         0.0269
     75 H32        60.5235   21.2421   36.7063 H         1 CC0         0.1804
     76 H33        58.9593   21.9722   36.8483 H         1 CC0         0.1804
     77 H34        67.8466   22.8001   31.2987 H         1 CC0         0.0781
     78 H35        69.6380   22.6711   31.3304 H         1 CC0         0.0781
@<TRIPOS>BOND
     1    1   15 un 
     2    1    4 ar 
     3    1    3 ar 
     4    1    2 ar 
     5   15   17 ar 
     6   15   13 ar 
     7   13   12 ar 
     8   12   14 ar 
     9   12   11 1  
    10   11    7 1  
    11    7    8 1  
    12    7   10 1  
    13   10   20 am 
    14   20   22 2  
    15   20   21 1  
    16    8    9 2  
    17    8    6 am 
    18    6    5 1  
    19    5   19 1  
    20    5   24 1  
    21   24   29 ar 
    22   24   25 ar 
    23   25   26 ar 
    24   26   37 1  
    25   26   27 ar 
    26   27   28 ar 
    27   27   23 1  
    28   23   30 1  
    29   30   31 1  
    30   31   36 1  
    31   31   32 1  
    32   32   33 1  
    33   33   34 1  
    34   34   35 1  
    35   35   36 1  
    36   28   29 ar 
    37   37   39 2  
    38   37   38 am 
    39   14   16 ar 
    40   16   17 ar 
    41   17   18 1  
    42   18   40 1  
    43   40   41 1  
    44   41   43 ar 
    45   41   42 ar 
    46    5   44 1  
    47    6   45 1  
    48    7   46 1  
    49   10   47 1  
    50   11   48 1  
    51   11   49 1  
    52   13   50 1  
    53   14   51 1  
    54   16   52 1  
    55   19   53 1  
    56   19   54 1  
    57   19   55 1  
    58   21   56 1  
    59   21   57 1  
    60   21   58 1  
    61   25   59 1  
    62   28   60 1  
    63   29   61 1  
    64   30   62 1  
    65   30   63 1  
    66   31   64 1  
    67   32   65 1  
    68   32   66 1  
    69   33   67 1  
    70   33   68 1  
    71   34   69 1  
    72   34   70 1  
    73   35   71 1  
    74   35   72 1  
    75   36   73 1  
    76   36   74 1  
    77   38   75 1  
    78   38   76 1  
    79   40   77 1  
    80   40   78 1  
@<TRIPOS>SUBSTRUCTURE
     1 CC0         1

