3chr_ligand
  -I-interpret- 

 42 43  0  0  0  0  0  0  0  0999 V2000
   13.4230   40.4570   63.4290 N   0  3  0  0  0
   13.7260   41.8570   63.1620 C   0  0  0  0  0
   13.4320   42.6790   64.4060 C   0  0  0  0  0
   11.9480   42.8780   64.6800 C   0  0  0  0  0
   11.2950   41.7490   65.4240 C   0  0  0  0  0
   11.8400   40.6740   65.5910 O   0  0  0  0  0
   10.0890   42.0370   65.8820 N   0  0  0  0  0
    9.3340   41.1650   66.5840 C   0  0  0  0  0
    9.5880   39.7840   66.6700 C   0  0  0  0  0
    8.8010   38.9750   67.4850 C   0  0  0  0  0
    7.7470   39.5430   68.1830 C   0  0  0  0  0
    7.5060   40.9060   68.0960 C   0  0  0  0  0
    8.2770   41.7090   67.2870 C   0  0  0  0  0
    6.8960   38.8520   69.0010 O   0  0  0  0  0
    6.9170   37.4700   69.3580 C   0  0  0  0  0
    7.8420   36.9830   70.4780 C   0  0  0  0  0
    8.4390   37.7700   71.4790 C   0  0  0  0  0
    9.2480   37.1870   72.4510 C   0  0  0  0  0
    9.4650   35.8050   72.4430 C   0  0  0  0  0
    8.8760   35.0220   71.4640 C   0  0  0  0  0
    8.0850   35.6180   70.5010 C   0  0  0  0  0
   13.6195   39.9029   62.5955 H   0  0  0  0  0
   14.0006   40.1268   64.2022 H   0  0  0  0  0
   12.4376   40.3647   63.6756 H   0  0  0  0  0
   13.1112   42.2127   62.3352 H   0  0  0  0  0
   14.7783   41.9590   62.8968 H   0  0  0  0  0
   13.8676   43.6662   64.2517 H   0  0  0  0  0
   13.8483   42.1389   65.2563 H   0  0  0  0  0
   11.4520   42.9512   63.7121 H   0  0  0  0  0
   11.8553   43.7669   65.3040 H   0  0  0  0  0
    9.7094   42.9652   65.6956 H   0  0  0  0  0
   10.4044   39.3456   66.0961 H   0  0  0  0  0
    9.0110   37.9090   67.5730 H   0  0  0  0  0
    6.6953   41.3470   68.6760 H   0  0  0  0  0
    8.0539   42.7725   67.2012 H   0  0  0  0  0
    7.2804   36.9628   68.4642 H   0  0  0  0  0
    5.9116   37.2684   69.7275 H   0  0  0  0  0
    8.2669   38.8462   71.4942 H   0  0  0  0  0
    9.7120   37.8073   73.2178 H   0  0  0  0  0
   10.0954   35.3460   73.2046 H   0  0  0  0  0
    9.0354   33.9438   71.4535 H   0  0  0  0  0
    7.6351   34.9919   69.7305 H   0  0  0  0  0
  1  2  1  0  0  0
  2  3  1  0  0  0
  3  4  1  0  0  0
  4  5  1  0  0  0
  5  6  2  0  0  0
  5  7  1  0  0  0
  7  8  1  0  0  0
  8  9  4  0  0  0
  8 13  4  0  0  0
  9 10  4  0  0  0
 10 11  4  0  0  0
 11 12  4  0  0  0
 11 14  1  0  0  0
 12 13  4  0  0  0
 14 15  1  0  0  0
 15 16  1  0  0  0
 16 17  4  0  0  0
 16 21  4  0  0  0
 17 18  4  0  0  0
 18 19  4  0  0  0
 19 20  4  0  0  0
 20 21  4  0  0  0
  1 22  1  0  0  0
  1 23  1  0  0  0
  1 24  1  0  0  0
  2 25  1  0  0  0
  2 26  1  0  0  0
  3 27  1  0  0  0
  3 28  1  0  0  0
  4 29  1  0  0  0
  4 30  1  0  0  0
  7 31  1  0  0  0
  9 32  1  0  0  0
 10 33  1  0  0  0
 12 34  1  0  0  0
 13 35  1  0  0  0
 15 36  1  0  0  0
 15 37  1  0  0  0
 17 38  1  0  0  0
 18 39  1  0  0  0
 19 40  1  0  0  0
 20 41  1  0  0  0
 21 42  1  0  0  0
M  END
$$$$
