5dtq_ligand
  -I-interpret- 

 29 31  0  0  0  0  0  0  0  0999 V2000
  -25.9790   25.5300   -8.8210 C   0  0  0  0  0
  -26.1380   25.8680   -7.4600 C   0  0  0  0  0
  -25.0760   25.8090   -6.5470 C   0  0  0  0  0
  -24.7100   23.2170  -11.0970 C   0  0  0  0  0
  -24.7650   22.2450  -10.0760 C   0  0  0  0  0
  -24.8030   20.8930  -10.4070 C   0  0  0  0  0
  -24.7710   20.4850  -11.7580 C   0  0  0  0  0
  -24.6160   21.4550  -12.7870 C   0  0  0  0  0
  -24.5680   22.8120  -12.4420 C   0  0  0  0  0
  -24.7290   18.7160  -13.3550 C   0  0  0  0  0
  -24.6250   19.6500  -14.4180 C   0  0  0  0  0
  -24.5350   21.0270  -14.1330 C   0  0  0  0  0
  -23.8320   25.3860   -7.0140 C   0  0  0  0  0
  -23.6710   25.0430   -8.3800 C   0  0  0  0  0
  -24.7210   25.1350   -9.3040 C   0  0  0  0  0
  -27.3280   25.6210   -9.9400 Cl  0  0  0  0  0
  -22.1230   24.5800   -9.0210 Cl  0  0  0  0  0
  -24.5010   24.6710  -10.7430 C   0  0  0  0  0
  -24.0620   25.4240  -11.6060 O   0  0  0  0  0
  -24.8380   19.1480  -12.0630 N   0  0  0  0  0
  -27.1192   26.1855   -7.1071 H   0  0  0  0  0
  -25.2184   26.0857   -5.5024 H   0  0  0  0  0
  -24.7777   22.5517   -9.0301 H   0  0  0  0  0
  -24.8579   20.1441   -9.6170 H   0  0  0  0  0
  -24.4197   23.5619  -13.2190 H   0  0  0  0  0
  -24.7219   17.6475  -13.5701 H   0  0  0  0  0
  -24.6148   19.3036  -15.4514 H   0  0  0  0  0
  -24.4050   21.7512  -14.9372 H   0  0  0  0  0
  -22.9856   25.3193   -6.3305 H   0  0  0  0  0
  1  2  4  0  0  0
 15  1  4  0  0  0
  1 16  1  0  0  0
  2  3  4  0  0  0
 13  3  4  0  0  0
  4  5  4  0  0  0
  4  9  4  0  0  0
 18  4  1  0  0  0
  5  6  4  0  0  0
  6  7  4  0  0  0
  8  7  4  0  0  0
  7 20  4  0  0  0
  9  8  4  0  0  0
  8 12  4  0  0  0
 11 10  4  0  0  0
 20 10  4  0  0  0
 12 11  4  0  0  0
 14 13  4  0  0  0
 15 14  4  0  0  0
 14 17  1  0  0  0
 15 18  1  0  0  0
 18 19  2  0  0  0
  2 21  1  0  0  0
  3 22  1  0  0  0
  5 23  1  0  0  0
  6 24  1  0  0  0
  9 25  1  0  0  0
 10 26  1  0  0  0
 11 27  1  0  0  0
 12 28  1  0  0  0
 13 29  1  0  0  0
M  END
$$$$
