3btj_ligand
  -I-interpret- 

 77 80  0  0  0  0  0  0  0  0999 V2000
  -71.4650  -50.6010    7.7690 C   0  0  0  0  0
  -71.7190  -51.7530    6.9500 C   0  0  0  0  0
  -73.0510  -52.2530    6.8240 C   0  0  0  0  0
  -74.1240  -51.5980    7.5140 C   0  0  0  0  0
  -72.5170  -49.8890    8.4970 C   0  0  0  0  0
  -73.8920  -50.4240    8.3460 C   0  0  0  0  0
  -74.9950  -49.7870    9.0270 C   0  0  0  0  0
  -74.7900  -48.6390    9.8420 C   0  0  0  0  0
  -73.5350  -48.0330   10.0700 C   0  0  0  0  0
  -72.3250  -48.6190    9.4180 N   0  0  0  0  0
  -62.5020  -45.4990    1.1680 C   0  0  0  0  0
  -62.8040  -45.4990    2.6280 C   0  0  0  0  0
  -61.5710  -45.4230    3.6760 N   0  0  0  0  0
  -60.1910  -45.3530    2.9320 C   0  0  0  0  0
  -60.0630  -45.3620    1.5450 C   0  0  0  0  0
  -61.1360  -45.4300    0.6700 C   0  0  0  0  0
  -63.5910  -45.5690    0.2180 C   0  0  0  0  0
  -64.9640  -45.6360    0.6130 C   0  0  0  0  0
  -65.2880  -45.6350    1.9920 C   0  0  0  0  0
  -64.2340  -45.5670    2.9600 C   0  0  0  0  0
  -61.4080  -45.5430    5.2820 C   0  0  0  0  0
  -62.8160  -45.8250    5.7710 C   0  0  0  0  0
  -62.9270  -45.9870    7.2830 C   0  0  0  0  0
  -64.3700  -46.2850    7.5100 C   0  0  0  0  0
  -64.8170  -46.5110    8.9360 C   0  0  0  0  0
  -66.3170  -46.8060    8.8010 C   0  0  0  0  0
  -67.0350  -47.0750   10.0990 C   0  0  0  0  0
  -68.5070  -47.3620    9.8310 C   0  0  0  0  0
  -69.5850  -48.2880    9.2460 C   0  0  0  0  0
  -70.9840  -47.8770    9.7650 C   0  0  0  0  0
  -73.5650  -46.7910   11.0080 C   0  0  0  0  0
  -58.8440  -45.2750    3.6590 C   0  0  0  0  0
  -76.3600  -50.2320    8.9480 N   0  0  0  0  0
  -60.6430  -45.4170   -0.6930 N   0  3  0  0  0
  -70.4401  -50.2394    7.8526 H   0  0  0  0  0
  -70.8985  -52.2439    6.4266 H   0  0  0  0  0
  -73.2510  -53.1284    6.2062 H   0  0  0  0  0
  -75.1371  -51.9874    7.4139 H   0  0  0  0  0
  -75.6620  -48.1966   10.3237 H   0  0  0  0  0
  -72.4760  -47.7798   10.0188 H   0  0  0  0  0
  -59.0594  -45.3126    1.1225 H   0  0  0  0  0
  -62.2054  -45.4946    0.4691 H   0  0  0  0  0
  -63.3545  -45.5708   -0.8460 H   0  0  0  0  0
  -65.7520  -45.6872   -0.1384 H   0  0  0  0  0
  -66.3284  -45.6854    2.3133 H   0  0  0  0  0
  -64.5115  -45.5656    4.0141 H   0  0  0  0  0
  -60.9892  -44.6391    5.7244 H   0  0  0  0  0
  -60.7053  -46.3250    5.5696 H   0  0  0  0  0
  -63.1319  -46.7662    5.3211 H   0  0  0  0  0
  -63.4324  -44.9706    5.4914 H   0  0  0  0  0
  -62.6004  -45.0957    7.8187 H   0  0  0  0  0
  -62.2779  -46.7763    7.6623 H   0  0  0  0  0
  -64.5624  -47.2229    6.9890 H   0  0  0  0  0
  -64.9102  -45.4020    7.1686 H   0  0  0  0  0
  -64.6169  -45.6523    9.5768 H   0  0  0  0  0
  -64.2741  -47.3232    9.4195 H   0  0  0  0  0
  -66.4061  -47.7107    8.1997 H   0  0  0  0  0
  -66.7741  -45.9163    8.3680 H   0  0  0  0  0
  -66.9520  -46.1993   10.7427 H   0  0  0  0  0
  -66.5840  -47.9399   10.5855 H   0  0  0  0  0
  -68.5811  -46.6360    9.0214 H   0  0  0  0  0
  -68.7215  -47.6366   10.8638 H   0  0  0  0  0
  -69.3784  -49.3134    9.5526 H   0  0  0  0  0
  -69.5709  -48.2088    8.1590 H   0  0  0  0  0
  -70.8941  -48.0472   10.8379 H   0  0  0  0  0
  -71.1290  -46.9027    9.2983 H   0  0  0  0  0
  -74.2081  -46.0252   10.5743 H   0  0  0  0  0
  -73.9532  -47.0834   11.9837 H   0  0  0  0  0
  -72.5546  -46.3978   11.1205 H   0  0  0  0  0
  -58.2359  -46.1382    3.3883 H   0  0  0  0  0
  -58.3281  -44.3599    3.3682 H   0  0  0  0  0
  -59.0134  -45.2716    4.7358 H   0  0  0  0  0
  -77.0899  -49.7310    9.4547 H   0  0  0  0  0
  -76.5984  -51.0487    8.3853 H   0  0  0  0  0
  -59.6245  -45.3617   -0.6844 H   0  0  0  0  0
  -60.9343  -46.2720   -1.1668 H   0  0  0  0  0
  -61.0245  -44.6081   -1.1836 H   0  0  0  0  0
  1  2  4  0  0  0
  5  1  4  0  0  0
  2  3  4  0  0  0
  4  3  4  0  0  0
  6  4  4  0  0  0
  5  6  4  0  0  0
 10  5  1  0  0  0
  6  7  1  0  0  0
  8  7  2  0  0  0
  7 33  1  0  0  0
  9  8  1  0  0  0
 10  9  1  0  0  0
  9 31  1  0  0  0
 30 10  1  0  0  0
 12 11  4  0  0  0
 11 16  1  0  0  0
 11 17  4  0  0  0
 13 12  1  0  0  0
 12 20  4  0  0  0
 13 14  1  0  0  0
 21 13  1  0  0  0
 14 15  2  0  0  0
 14 32  1  0  0  0
 15 16  1  0  0  0
 16 34  1  0  0  0
 17 18  4  0  0  0
 19 18  4  0  0  0
 20 19  4  0  0  0
 22 21  1  0  0  0
 23 22  1  0  0  0
 24 23  1  0  0  0
 25 24  1  0  0  0
 26 25  1  0  0  0
 27 26  1  0  0  0
 28 27  1  0  0  0
 29 28  1  0  0  0
 29 30  1  0  0  0
  1 35  1  0  0  0
  2 36  1  0  0  0
  3 37  1  0  0  0
  4 38  1  0  0  0
  8 39  1  0  0  0
  9 40  1  0  0  0
 15 41  1  0  0  0
 16 42  1  0  0  0
 17 43  1  0  0  0
 18 44  1  0  0  0
 19 45  1  0  0  0
 20 46  1  0  0  0
 21 47  1  0  0  0
 21 48  1  0  0  0
 22 49  1  0  0  0
 22 50  1  0  0  0
 23 51  1  0  0  0
 23 52  1  0  0  0
 24 53  1  0  0  0
 24 54  1  0  0  0
 25 55  1  0  0  0
 25 56  1  0  0  0
 26 57  1  0  0  0
 26 58  1  0  0  0
 27 59  1  0  0  0
 27 60  1  0  0  0
 28 61  1  0  0  0
 28 62  1  0  0  0
 29 63  1  0  0  0
 29 64  1  0  0  0
 30 65  1  0  0  0
 30 66  1  0  0  0
 31 67  1  0  0  0
 31 68  1  0  0  0
 31 69  1  0  0  0
 32 70  1  0  0  0
 32 71  1  0  0  0
 32 72  1  0  0  0
 33 73  1  0  0  0
 33 74  1  0  0  0
 34 75  1  0  0  0
 34 76  1  0  0  0
 34 77  1  0  0  0
M  END
$$$$
