### 
### Created by X-TOOL on Mon Sep 10 21:13:25 2018
### 

@<TRIPOS>MOLECULE
4xtt_ligand
   66    72     1     0     0
SMALL
GAST_HUCK


@<TRIPOS>ATOM
      1 P           1.8080  -37.9040   10.5100 P.3       1 2BA         0.2557
      2 O1P         1.0390  -36.6910   10.8670 O.co2     1 2BA        -0.6177
      3 O2P         2.5730  -38.3180   11.7280 O.co2     1 2BA        -0.6177
      4 O5'         0.7780  -39.0790   10.1450 O.3       1 2BA        -0.2514
      5 C5'         1.2920  -40.3680    9.7630 C.3       1 2BA         0.1128
      6 C4'         0.1890  -41.2020    9.2470 C.3       1 2BA         0.1242
      7 O4'        -1.0010  -41.1910   10.1540 O.3       1 2BA        -0.3360
      8 C3'        -0.2760  -40.6610    7.9730 C.3       1 2BA         0.1540
      9 O3'         0.4600  -41.2780    6.8810 O.3       1 2BA        -0.2453
     10 C2'        -1.6730  -41.0300    7.8780 C.3       1 2BA         0.1439
     11 O2'        -1.8150  -42.3580    7.2990 O.3       1 2BA        -0.3832
     12 C1'        -2.1760  -41.0200    9.2690 C.3       1 2BA         0.2014
     13 N9         -2.7650  -39.7890    9.5540 N.pl3     1 2BA        -0.1919
     14 C8         -2.1680  -39.0440   10.2820 C.2       1 2BA         0.1123
     15 N7         -2.8920  -37.9000   10.4480 N.2       1 2BA        -0.2958
     16 C5         -4.0780  -38.2250    9.5830 C.ar      1 2BA         0.1045
     17 C6         -5.2760  -37.6550    9.1770 C.ar      1 2BA         0.1298
     18 N6         -5.5920  -36.3780    9.6460 N.pl3     1 2BA        -0.3152
     19 N1         -6.1380  -38.2760    8.3560 N.ar      1 2BA        -0.2698
     20 C2         -5.8700  -39.4740    7.9020 C.ar      1 2BA         0.0533
     21 N3         -4.7530  -40.0980    8.2270 N.ar      1 2BA        -0.2714
     22 C4         -3.8390  -39.5390    9.0500 C.ar      1 2BA         0.1613
     23 P1          0.8340  -40.3190    5.6430 P.3       1 2BA         0.2557
     24 O1P1       -0.4630  -39.8870    5.0550 O.co2     1 2BA        -0.6177
     25 O2P1        1.5580  -41.1380    4.6290 O.co2     1 2BA        -0.6177
     26 O5'1        1.6610  -38.9820    5.9510 O.3       1 2BA        -0.2514
     27 C5'1        2.9180  -39.0350    6.6060 C.3       1 2BA         0.1128
     28 C4'1        3.2690  -37.6580    7.0160 C.3       1 2BA         0.1242
     29 O4'1        3.0980  -36.7200    5.8740 O.3       1 2BA        -0.3360
     30 C3'1        2.3440  -37.1830    8.0570 C.3       1 2BA         0.1540
     31 O3'1        2.8550  -37.4660    9.3840 O.3       1 2BA        -0.2453
     32 C2'1        2.2450  -35.7450    7.8690 C.3       1 2BA         0.1439
     33 O2'1        3.3270  -35.1050    8.5900 O.3       1 2BA        -0.3832
     34 C1'1        2.4050  -35.5190    6.4220 C.3       1 2BA         0.2014
     35 N91         1.1510  -35.3590    5.8010 N.pl3     1 2BA        -0.1919
     36 C81         0.7470  -36.2270    5.0410 C.2       1 2BA         0.1123
     37 N71        -0.4860  -35.9220    4.5250 N.2       1 2BA        -0.2958
     38 C51        -0.6690  -34.5980    5.2290 C.ar      1 2BA         0.1045
     39 C61        -1.6320  -33.5850    5.2920 C.ar      1 2BA         0.1298
     40 N61        -2.8330  -33.7010    4.5320 N.pl3     1 2BA        -0.3152
     41 N11        -1.4810  -32.5140    6.0330 N.ar      1 2BA        -0.2698
     42 C21        -0.3880  -32.3360    6.7630 C.ar      1 2BA         0.0533
     43 N31         0.6070  -33.2310    6.7880 N.ar      1 2BA        -0.2714
     44 C41         0.5230  -34.3660    6.0480 C.ar      1 2BA         0.1613
     45 H1          1.7435  -40.8573   10.6386 H         1 2BA         0.0647
     46 H2          2.0541  -40.2419    8.9799 H         1 2BA         0.0647
     47 H3          0.5485  -42.2333    9.1165 H         1 2BA         0.0655
     48 H4         -0.1544  -39.5682    7.9428 H         1 2BA         0.0712
     49 H5         -2.2224  -40.3013    7.2638 H         1 2BA         0.0680
     50 H6         -1.3659  -42.9908    7.8470 H         1 2BA         0.2101
     51 H7         -2.9017  -41.8325    9.4216 H         1 2BA         0.0996
     52 H8         -1.2006  -39.2493   10.7381 H         1 2BA         0.1349
     53 H9         -6.4743  -35.9288    9.3620 H         1 2BA         0.1820
     54 H10        -4.9427  -35.8854   10.2759 H         1 2BA         0.1820
     55 H11        -6.5800  -39.9639    7.2455 H         1 2BA         0.0996
     56 H12         3.6822  -39.4278    5.9192 H         1 2BA         0.0647
     57 H13         2.8522  -39.6843    7.4914 H         1 2BA         0.0647
     58 H14         4.3061  -37.6354    7.3820 H         1 2BA         0.0655
     59 H15         1.3589  -37.6571    7.9352 H         1 2BA         0.0712
     60 H16         1.2745  -35.3649    8.2207 H         1 2BA         0.0680
     61 H17         4.1586  -35.4179    8.2540 H         1 2BA         0.2101
     62 H18         3.0138  -34.6196    6.2478 H         1 2BA         0.0996
     63 H19         1.3003  -37.1341    4.8023 H         1 2BA         0.1349
     64 H20        -3.5441  -32.9572    4.5759 H         1 2BA         0.1820
     65 H21        -2.9894  -34.5286    3.9391 H         1 2BA         0.1820
     66 H22        -0.2975  -31.4354    7.3595 H         1 2BA         0.0996
@<TRIPOS>BOND
     1    1    2 ar 
     2    1    3 ar 
     3    1    4 1  
     4    1   31 1  
     5    4    5 1  
     6    5    6 1  
     7    6    7 1  
     8    6    8 1  
     9    7   12 1  
    10    8    9 1  
    11    8   10 1  
    12    9   23 1  
    13   10   11 1  
    14   10   12 1  
    15   12   13 1  
    16   13   14 1  
    17   13   22 1  
    18   14   15 2  
    19   15   16 1  
    20   16   17 ar 
    21   16   22 ar 
    22   17   18 1  
    23   17   19 ar 
    24   19   20 ar 
    25   20   21 ar 
    26   21   22 ar 
    27   23   24 ar 
    28   23   25 ar 
    29   23   26 1  
    30   26   27 1  
    31   27   28 1  
    32   28   29 1  
    33   28   30 1  
    34   29   34 1  
    35   30   31 1  
    36   30   32 1  
    37   32   33 1  
    38   32   34 1  
    39   34   35 1  
    40   35   36 1  
    41   35   44 1  
    42   36   37 2  
    43   37   38 1  
    44   38   39 ar 
    45   38   44 ar 
    46   39   40 1  
    47   39   41 ar 
    48   41   42 ar 
    49   42   43 ar 
    50   43   44 ar 
    51    5   45 1  
    52    5   46 1  
    53    6   47 1  
    54    8   48 1  
    55   10   49 1  
    56   11   50 1  
    57   12   51 1  
    58   14   52 1  
    59   18   53 1  
    60   18   54 1  
    61   20   55 1  
    62   27   56 1  
    63   27   57 1  
    64   28   58 1  
    65   30   59 1  
    66   32   60 1  
    67   33   61 1  
    68   34   62 1  
    69   36   63 1  
    70   40   64 1  
    71   40   65 1  
    72   42   66 1  
@<TRIPOS>SUBSTRUCTURE
     1 2BA         1

