4xtt_ligand
  -I-interpret- 

 68 74  0  0  0  0  0  0  0  0999 V2000
    1.8080  -37.9040   10.5100 P   0  0  0  0  0
    1.0390  -36.6910   10.8670 O   0  0  0  0  0
    2.5730  -38.3180   11.7280 O   0  0  0  0  0
    0.7780  -39.0790   10.1450 O   0  0  0  0  0
    1.2920  -40.3680    9.7630 C   0  0  0  0  0
    0.1890  -41.2020    9.2470 C   0  0  0  0  0
   -1.0010  -41.1910   10.1540 O   0  0  0  0  0
   -0.2760  -40.6610    7.9730 C   0  0  0  0  0
    0.4600  -41.2780    6.8810 O   0  0  0  0  0
   -1.6730  -41.0300    7.8780 C   0  0  0  0  0
   -1.8150  -42.3580    7.2990 O   0  0  0  0  0
   -2.1760  -41.0200    9.2690 C   0  0  0  0  0
   -2.7650  -39.7890    9.5540 N   0  0  0  0  0
   -2.1680  -39.0440   10.2820 C   0  0  0  0  0
   -2.8920  -37.9000   10.4480 N   0  0  0  0  0
   -4.0780  -38.2250    9.5830 C   0  0  0  0  0
   -5.2760  -37.6550    9.1770 C   0  0  0  0  0
   -5.5920  -36.3780    9.6460 N   0  0  0  0  0
   -6.1380  -38.2760    8.3560 N   0  0  0  0  0
   -5.8700  -39.4740    7.9020 C   0  0  0  0  0
   -4.7530  -40.0980    8.2270 N   0  0  0  0  0
   -3.8390  -39.5390    9.0500 C   0  0  0  0  0
    0.8340  -40.3190    5.6430 P   0  0  0  0  0
   -0.4630  -39.8870    5.0550 O   0  0  0  0  0
    1.5580  -41.1380    4.6290 O   0  0  0  0  0
    1.6610  -38.9820    5.9510 O   0  0  0  0  0
    2.9180  -39.0350    6.6060 C   0  0  0  0  0
    3.2690  -37.6580    7.0160 C   0  0  0  0  0
    3.0980  -36.7200    5.8740 O   0  0  0  0  0
    2.3440  -37.1830    8.0570 C   0  0  0  0  0
    2.8550  -37.4660    9.3840 O   0  0  0  0  0
    2.2450  -35.7450    7.8690 C   0  0  0  0  0
    3.3270  -35.1050    8.5900 O   0  0  0  0  0
    2.4050  -35.5190    6.4220 C   0  0  0  0  0
    1.1510  -35.3590    5.8010 N   0  0  0  0  0
    0.7470  -36.2270    5.0410 C   0  0  0  0  0
   -0.4860  -35.9220    4.5250 N   0  0  0  0  0
   -0.6690  -34.5980    5.2290 C   0  0  0  0  0
   -1.6320  -33.5850    5.2920 C   0  0  0  0  0
   -2.8330  -33.7010    4.5320 N   0  0  0  0  0
   -1.4810  -32.5140    6.0330 N   0  0  0  0  0
   -0.3880  -32.3360    6.7630 C   0  0  0  0  0
    0.6070  -33.2310    6.7880 N   0  0  0  0  0
    0.5230  -34.3660    6.0480 C   0  0  0  0  0
    3.0852  -39.1056   11.5305 H   0  0  0  0  0
    1.7401  -40.8529   10.6303 H   0  0  0  0  0
    2.0477  -40.2434    8.9875 H   0  0  0  0  0
    0.5825  -42.2146    9.1576 H   0  0  0  0  0
   -0.1319  -39.5821    7.9154 H   0  0  0  0  0
   -2.2282  -40.3447    7.2375 H   0  0  0  0  0
   -2.7464  -42.5841    7.2444 H   0  0  0  0  0
   -2.9138  -41.8094    9.4126 H   0  0  0  0  0
   -1.1998  -39.2495   10.7385 H   0  0  0  0  0
   -4.9490  -35.8902   10.2697 H   0  0  0  0  0
   -6.4657  -35.9332    9.3648 H   0  0  0  0  0
   -6.5839  -39.9666    7.2419 H   0  0  0  0  0
    2.3987  -41.4255    4.9926 H   0  0  0  0  0
    3.6783  -39.4371    5.9364 H   0  0  0  0  0
    2.8650  -39.6885    7.4768 H   0  0  0  0  0
    4.2995  -37.6814    7.3704 H   0  0  0  0  0
    1.3782  -37.6815    7.9741 H   0  0  0  0  0
    1.3000  -35.3415    8.2327 H   0  0  0  0  0
    3.2703  -34.1540    8.4719 H   0  0  0  0  0
    2.9787  -34.6111    6.2354 H   0  0  0  0  0
    1.3008  -37.1349    4.8021 H   0  0  0  0  0
   -2.9878  -34.5206    3.9449 H   0  0  0  0  0
   -3.5372  -32.9644    4.5755 H   0  0  0  0  0
   -0.2970  -31.4304    7.3628 H   0  0  0  0  0
  1  2  2  0  0  0
  1  3  1  0  0  0
  1  4  1  0  0  0
  1 31  1  0  0  0
  4  5  1  0  0  0
  5  6  1  0  0  0
  6  7  1  0  0  0
  6  8  1  0  0  0
  7 12  1  0  0  0
  8  9  1  0  0  0
  8 10  1  0  0  0
  9 23  1  0  0  0
 10 11  1  0  0  0
 10 12  1  0  0  0
 12 13  1  0  0  0
 13 14  4  0  0  0
 13 22  4  0  0  0
 14 15  4  0  0  0
 15 16  4  0  0  0
 16 17  4  0  0  0
 16 22  4  0  0  0
 17 18  1  0  0  0
 17 19  4  0  0  0
 19 20  4  0  0  0
 20 21  4  0  0  0
 21 22  4  0  0  0
 23 24  2  0  0  0
 23 25  1  0  0  0
 23 26  1  0  0  0
 26 27  1  0  0  0
 27 28  1  0  0  0
 28 29  1  0  0  0
 28 30  1  0  0  0
 29 34  1  0  0  0
 30 31  1  0  0  0
 30 32  1  0  0  0
 32 33  1  0  0  0
 32 34  1  0  0  0
 34 35  1  0  0  0
 35 36  4  0  0  0
 35 44  4  0  0  0
 36 37  4  0  0  0
 37 38  4  0  0  0
 38 39  4  0  0  0
 38 44  4  0  0  0
 39 40  1  0  0  0
 39 41  4  0  0  0
 41 42  4  0  0  0
 42 43  4  0  0  0
 43 44  4  0  0  0
  3 45  1  0  0  0
  5 46  1  0  0  0
  5 47  1  0  0  0
  6 48  1  0  0  0
  8 49  1  0  0  0
 10 50  1  0  0  0
 11 51  1  0  0  0
 12 52  1  0  0  0
 14 53  1  0  0  0
 18 54  1  0  0  0
 18 55  1  0  0  0
 20 56  1  0  0  0
 25 57  1  0  0  0
 27 58  1  0  0  0
 27 59  1  0  0  0
 28 60  1  0  0  0
 30 61  1  0  0  0
 32 62  1  0  0  0
 33 63  1  0  0  0
 34 64  1  0  0  0
 36 65  1  0  0  0
 40 66  1  0  0  0
 40 67  1  0  0  0
 42 68  1  0  0  0
M  END
$$$$
