2i7c_ligand
  -I-interpret- 

 60 62  0  0  0  0  0  0  0  0999 V2000
   12.9340  113.1580   32.2670 N   0  3  0  0  0
   12.2760  114.1620   31.4080 C   0  0  0  0  0
   13.3360  114.6800   30.6750 C   0  0  0  0  0
   13.6450  114.6990   29.3220 C   0  0  0  0  0
   15.1650  115.4200   28.7920 S   0  0  0  0  0
   16.3750  115.0470   30.1310 C   0  0  0  0  0
   17.8070  115.6890   29.9140 C   0  0  0  0  0
   18.5280  115.4350   28.6660 O   0  0  0  0  0
   17.8270  117.2380   30.0410 C   0  0  0  0  0
   18.1270  117.5520   31.3990 O   0  0  0  0  0
   18.9330  117.6690   29.0690 C   0  0  0  0  0
   19.8660  118.6580   29.5850 O   0  0  0  0  0
   19.6660  116.3420   28.8060 C   0  0  0  0  0
   20.5290  116.3540   27.5840 N   0  0  0  0  0
   20.2660  116.9640   26.4260 C   0  0  0  0  0
   21.2580  116.7570   25.5680 N   0  0  0  0  0
   22.1680  115.9900   26.1770 C   0  0  0  0  0
   23.3920  115.4500   25.7820 C   0  0  0  0  0
   23.8770  115.6710   24.5530 N   0  0  0  0  0
   24.0840  114.7090   26.6740 N   0  0  0  0  0
   23.6040  114.4860   27.8940 C   0  0  0  0  0
   22.4370  114.9870   28.2990 N   0  0  0  0  0
   21.7010  115.7430   27.4560 C   0  0  0  0  0
   12.6710  114.2370   28.2430 C   0  0  0  0  0
   12.0470  115.5070   27.6060 C   0  0  0  0  0
   11.3600  115.2180   26.2590 C   0  0  0  0  0
   10.7960  116.4950   25.5860 C   0  0  0  0  0
    9.6920  116.1550   24.5620 C   0  0  0  0  0
    9.3640  117.3490   23.7650 N   0  3  0  0  0
   12.2353  112.7077   32.8581 H   0  0  0  0  0
   13.3887  112.4572   31.6818 H   0  0  0  0  0
   13.6311  113.6178   32.8526 H   0  0  0  0  0
   11.7410  114.9225   31.9768 H   0  0  0  0  0
   11.4932  113.7363   30.7802 H   0  0  0  0  0
   14.0836  115.1769   31.2933 H   0  0  0  0  0
   16.5083  113.9654   30.1503 H   0  0  0  0  0
   15.9721  115.4663   31.0529 H   0  0  0  0  0
   18.3134  115.1579   30.7200 H   0  0  0  0  0
   16.8915  117.7426   29.7994 H   0  0  0  0  0
   18.1464  118.5055   31.5090 H   0  0  0  0  0
   18.5087  118.1641   28.1955 H   0  0  0  0  0
   20.5174  118.8642   28.9107 H   0  0  0  0  0
   20.3797  116.0788   29.5867 H   0  0  0  0  0
   19.3689  117.5463   26.2158 H   0  0  0  0  0
   23.3497  116.2409   23.8915 H   0  0  0  0  0
   24.7736  115.2694   24.2787 H   0  0  0  0  0
   24.1835  113.8738   28.5850 H   0  0  0  0  0
   11.8946  113.6053   28.6745 H   0  0  0  0  0
   13.1897  113.6464   27.4878 H   0  0  0  0  0
   12.8506  116.2211   27.4260 H   0  0  0  0  0
   11.2915  115.8896   28.2923 H   0  0  0  0  0
   10.5247  114.5438   26.4483 H   0  0  0  0  0
   12.1056  114.7894   25.5893 H   0  0  0  0  0
   11.6095  116.9971   25.0624 H   0  0  0  0  0
   10.3653  117.1311   26.3593 H   0  0  0  0  0
    8.8004  115.8201   25.0920 H   0  0  0  0  0
   10.0469  115.3661   23.8989 H   0  0  0  0  0
    8.6344  117.1166   23.0912 H   0  0  0  0  0
    9.0335  118.0893   24.3840 H   0  0  0  0  0
   10.1977  117.6652   23.2697 H   0  0  0  0  0
  1  2  1  0  0  0
  2  3  1  0  0  0
  3  4  2  0  0  0
  4  5  1  0  0  0
  4 24  1  0  0  0
  5  6  1  0  0  0
  6  7  1  0  0  0
  7  8  1  0  0  0
  7  9  1  0  0  0
  8 13  1  0  0  0
  9 10  1  0  0  0
  9 11  1  0  0  0
 11 12  1  0  0  0
 11 13  1  0  0  0
 13 14  1  0  0  0
 14 15  4  0  0  0
 14 23  4  0  0  0
 15 16  4  0  0  0
 16 17  4  0  0  0
 17 18  4  0  0  0
 17 23  4  0  0  0
 18 19  1  0  0  0
 18 20  4  0  0  0
 20 21  4  0  0  0
 21 22  4  0  0  0
 22 23  4  0  0  0
 24 25  1  0  0  0
 25 26  1  0  0  0
 26 27  1  0  0  0
 27 28  1  0  0  0
 28 29  1  0  0  0
  1 30  1  0  0  0
  1 31  1  0  0  0
  1 32  1  0  0  0
  2 33  1  0  0  0
  2 34  1  0  0  0
  3 35  1  0  0  0
  6 36  1  0  0  0
  6 37  1  0  0  0
  7 38  1  0  0  0
  9 39  1  0  0  0
 10 40  1  0  0  0
 11 41  1  0  0  0
 12 42  1  0  0  0
 13 43  1  0  0  0
 15 44  1  0  0  0
 19 45  1  0  0  0
 19 46  1  0  0  0
 21 47  1  0  0  0
 24 48  1  0  0  0
 24 49  1  0  0  0
 25 50  1  0  0  0
 25 51  1  0  0  0
 26 52  1  0  0  0
 26 53  1  0  0  0
 27 54  1  0  0  0
 27 55  1  0  0  0
 28 56  1  0  0  0
 28 57  1  0  0  0
 29 58  1  0  0  0
 29 59  1  0  0  0
 29 60  1  0  0  0
M  END
$$$$
