1rlp_ligand
  -I-interpret- 

161164  0  0  0  0  0  0  0  0999 V2000
   14.2590    1.8740   -1.9260 N   0  3  0  0  0
   12.9640    2.4470   -2.3900 C   0  0  0  0  0
   11.9780    1.3130   -2.6750 C   0  0  0  0  0
   11.7570    0.9400   -3.8100 O   0  0  0  0  0
   13.1940    3.2590   -3.6670 C   0  0  0  0  0
   12.1880    4.4100   -3.7270 C   0  0  0  0  0
   12.4090    5.3430   -2.5340 C   0  0  0  0  0
   12.5810    6.7400   -3.0220 N   0  0  0  0  0
   11.5440    7.4290   -3.4200 C   0  0  0  0  0
   10.3520    6.8960   -3.3900 N   0  0  0  0  0
   11.6990    8.6510   -3.8480 N   0  0  0  0  0
   11.3840    0.7610   -1.6520 N   0  0  0  0  0
   10.4130   -0.3490   -1.8620 C   0  0  0  0  0
    9.3270    0.1010   -2.8420 C   0  0  0  0  0
    8.9860    1.2650   -2.9160 O   0  0  0  0  0
    9.7690   -0.7230   -0.5250 C   0  0  0  0  0
    8.7790   -0.8140   -3.5950 N   0  0  0  0  0
    7.7160   -0.4400   -4.5700 C   0  0  0  0  0
    6.4680    0.0230   -3.8110 C   0  0  0  0  0
    6.3090   -0.2750   -2.6430 O   0  0  0  0  0
    7.3680   -1.6540   -5.4340 C   0  0  0  0  0
    8.4580   -1.8580   -6.4880 C   0  0  0  0  0
    8.5510   -3.3430   -6.8450 C   0  0  0  0  0
    8.1120   -1.0530   -7.7420 C   0  0  0  0  0
    5.6150    0.7390   -4.5010 N   0  0  0  0  0
    4.3680    1.2580   -3.9130 C   0  0  0  0  0
    3.4520    0.0970   -3.5020 C   0  0  0  0  0
    3.3510   -0.8860   -4.2100 O   0  0  0  0  0
    3.7210    2.0820   -5.0280 C   0  0  0  0  0
    4.6090    1.9470   -6.2930 C   0  0  0  0  0
    5.8270    1.0870   -5.9180 C   0  0  0  0  0
    2.8110    0.2430   -2.3680 N   0  0  0  0  0
    1.8980   -0.7890   -1.8460 C   0  0  0  0  0
    0.7100   -0.9690   -2.7950 C   0  0  0  0  0
    0.1920   -0.0170   -3.3450 O   0  0  0  0  0
    1.4240   -0.2490   -0.4910 C   0  0  0  0  0
    2.0660    1.1480   -0.2900 C   0  0  0  0  0
    2.9490    1.4370   -1.5150 C   0  0  0  0  0
    0.2760   -2.1830   -2.9920 N   0  0  0  0  0
   -0.8770   -2.4220   -3.9050 C   0  0  0  0  0
   -2.1230   -1.7300   -3.3400 C   0  0  0  0  0
   -2.1740   -1.4130   -2.1690 O   0  0  0  0  0
   -1.1300   -3.9260   -4.0160 C   0  0  0  0  0
   -0.0750   -4.5520   -4.9310 C   0  0  0  0  0
   -0.2670   -6.0690   -4.9680 C   0  0  0  0  0
   -0.2240   -3.9840   -6.3440 C   0  0  0  0  0
   -3.0930   -1.5140   -4.1950 N   0  0  0  0  0
   -4.3530   -0.8580   -3.8000 C   0  0  0  0  0
   -5.0290   -1.6400   -2.6700 C   0  0  0  0  0
   -4.5900   -2.7090   -2.2940 O   0  0  0  0  0
   -5.2190   -0.8750   -5.0670 C   0  0  0  0  0
   -4.3740   -1.5030   -6.2070 C   0  0  0  0  0
   -3.0130   -1.9060   -5.6150 C   0  0  0  0  0
   -6.0930   -1.1150   -2.1230 N   0  0  0  0  0
   -6.7900   -1.8320   -1.0180 C   0  0  0  0  0
   -6.9150   -3.3150   -1.3710 C   0  0  0  0  0
   -7.4590   -3.6760   -2.3960 O   0  0  0  0  0
   -8.1860   -1.2380   -0.8150 C   0  0  0  0  0
   -8.6780   -1.5790    0.5940 C   0  0  0  0  0
  -10.2060   -1.6670    0.6060 C   0  0  0  0  0
  -10.7880   -0.3280    0.2890 N   0  0  0  0  0
  -11.2080   -0.0380   -0.9190 C   0  0  0  0  0
  -11.1090   -0.9030   -1.8960 N   0  0  0  0  0
  -11.7260    1.1370   -1.1530 N   0  0  0  0  0
   -6.4150   -4.1770   -0.5290 N   0  0  0  0  0
   -6.5040   -5.6360   -0.8160 C   0  0  0  0  0
   -6.4560   -6.4160    0.4990 C   0  0  0  0  0
   -6.6760   -7.6160    0.4620 O   0  0  0  0  0
   -5.3290   -6.0550   -1.7020 C   0  0  0  0  0
   -5.8270   -6.3010   -3.1270 C   0  0  0  0  0
   -6.0430   -5.2420   -3.9870 C   0  0  0  0  0
   -6.0690   -7.5840   -3.5730 C   0  0  0  0  0
   -6.4930   -5.4650   -5.2720 C   0  0  0  0  0
   -6.5200   -7.8060   -4.8580 C   0  0  0  0  0
   -6.7350   -6.7480   -5.7180 C   0  0  0  0  0
   -7.1840   -6.9700   -7.0030 O   0  0  0  0  0
   -6.1990   -5.8010    1.5200 O   0  0  0  0  0
   14.1047    1.3331   -1.0751 H   0  0  0  0  0
   14.6403    1.2670   -2.6517 H   0  0  0  0  0
   14.9153    2.6310   -1.7348 H   0  0  0  0  0
   12.5552    3.0967   -1.6161 H   0  0  0  0  0
   13.0615    2.6148   -4.5362 H   0  0  0  0  0
   14.2070    3.6614   -3.6644 H   0  0  0  0  0
   11.1749    4.0094   -3.6923 H   0  0  0  0  0
   12.3270    4.9662   -4.6540 H   0  0  0  0  0
   13.3030    5.0346   -1.9920 H   0  0  0  0  0
   11.5465    5.2937   -1.8693 H   0  0  0  0  0
   13.5103    7.1599   -3.0456 H   0  0  0  0  0
    9.5441    7.4355   -3.7011 H   0  0  0  0  0
   10.2290    5.9403   -3.0555 H   0  0  0  0  0
   12.6292    9.0688   -3.8721 H   0  0  0  0  0
   11.5850    1.0901   -0.7077 H   0  0  0  0  0
   10.9344   -1.2150   -2.2698 H   0  0  0  0  0
   10.5429   -1.0434    0.1726 H   0  0  0  0  0
    9.2483    0.1442   -0.1188 H   0  0  0  0  0
    9.0588   -1.5352   -0.6799 H   0  0  0  0  0
    9.0788   -1.7857   -3.5158 H   0  0  0  0  0
    8.0739    0.3686   -5.2073 H   0  0  0  0  0
    6.4111   -1.4863   -5.9282 H   0  0  0  0  0
    7.3005   -2.5411   -4.8043 H   0  0  0  0  0
    9.4149   -1.5191   -6.0911 H   0  0  0  0  0
    8.7976   -3.9156   -5.9509 H   0  0  0  0  0
    7.5935   -3.6807   -7.2416 H   0  0  0  0  0
    9.3279   -3.4869   -7.5959 H   0  0  0  0  0
    7.1549   -1.3928   -8.1378 H   0  0  0  0  0
    8.0461    0.0046   -7.4866 H   0  0  0  0  0
    8.8893   -1.1992   -8.4920 H   0  0  0  0  0
    4.5484    1.8519   -3.0170 H   0  0  0  0  0
    3.6433    3.1275   -4.7298 H   0  0  0  0  0
    2.7139    1.7184   -5.2318 H   0  0  0  0  0
    4.9299    2.9298   -6.6383 H   0  0  0  0  0
    4.0484    1.4791   -7.1023 H   0  0  0  0  0
    5.9092    0.2008   -6.5472 H   0  0  0  0  0
    6.7650    1.6208   -6.0704 H   0  0  0  0  0
    2.3819   -1.7612   -1.7518 H   0  0  0  0  0
    1.7230   -0.9231    0.3117 H   0  0  0  0  0
    0.3368   -0.1732   -0.4720 H   0  0  0  0  0
    2.6643    1.1631    0.6210 H   0  0  0  0  0
    1.2930    1.9101   -0.1912 H   0  0  0  0  0
    2.6395    2.3444   -2.0336 H   0  0  0  0  0
    3.9866    1.6175   -1.2341 H   0  0  0  0  0
    0.7256   -2.9683   -2.5214 H   0  0  0  0  0
   -0.6549   -2.0179   -4.8927 H   0  0  0  0  0
   -2.1223   -4.0987   -4.4327 H   0  0  0  0  0
   -1.0695   -4.3795   -3.0267 H   0  0  0  0  0
    0.9197   -4.3213   -4.5496 H   0  0  0  0  0
   -0.1605   -6.4721   -3.9609 H   0  0  0  0  0
   -1.2619   -6.2988   -5.3494 H   0  0  0  0  0
    0.4850   -6.5133   -5.6200 H   0  0  0  0  0
   -1.2190   -4.2153   -6.7241 H   0  0  0  0  0
   -0.0865   -2.9031   -6.3161 H   0  0  0  0  0
    0.5278   -4.4305   -6.9948 H   0  0  0  0  0
   -4.1948    0.1541   -3.4277 H   0  0  0  0  0
   -5.5222    0.1376   -5.3330 H   0  0  0  0  0
   -6.1244   -1.4586   -4.9000 H   0  0  0  0  0
   -4.2375   -0.7858   -7.0164 H   0  0  0  0  0
   -4.8816   -2.3757   -6.6180 H   0  0  0  0  0
   -2.8173   -2.9718   -5.7328 H   0  0  0  0  0
   -2.1850   -1.4155   -6.1268 H   0  0  0  0  0
   -6.4459   -0.2162   -2.4516 H   0  0  0  0  0
   -6.2142   -1.7221   -0.0990 H   0  0  0  0  0
   -8.8717   -1.6547   -1.5528 H   0  0  0  0  0
   -8.1441   -0.1555   -0.9359 H   0  0  0  0  0
   -8.3576   -0.7992    1.2849 H   0  0  0  0  0
   -8.2605   -2.5390    0.8978 H   0  0  0  0  0
  -10.5427   -1.9836    1.5932 H   0  0  0  0  0
  -10.5329   -2.3900   -0.1414 H   0  0  0  0  0
  -10.8600    0.3736    1.0258 H   0  0  0  0  0
  -11.4352   -0.6565   -2.8305 H   0  0  0  0  0
  -10.7056   -1.8238   -1.7230 H   0  0  0  0  0
  -11.8013    1.8204   -0.3995 H   0  0  0  0  0
   -5.9632   -3.8519    0.3258 H   0  0  0  0  0
   -7.4402   -5.8493   -1.3318 H   0  0  0  0  0
   -6.8536   -7.8799   -0.4438 H   0  0  0  0  0
   -4.8860   -6.9701   -1.3090 H   0  0  0  0  0
   -4.5801   -5.2631   -1.7106 H   0  0  0  0  0
   -5.8566   -4.2229   -3.6481 H   0  0  0  0  0
   -5.9026   -8.4290   -2.9049 H   0  0  0  0  0
   -6.6588   -4.6203   -5.9406 H   0  0  0  0  0
   -6.7080   -8.8249   -5.1966 H   0  0  0  0  0
   -7.2984   -7.9129   -7.1424 H   0  0  0  0  0
  1  2  1  0  0  0
  2  3  1  0  0  0
  2  5  1  0  0  0
  3  4  2  0  0  0
  3 12  1  0  0  0
  5  6  1  0  0  0
  6  7  1  0  0  0
  7  8  1  0  0  0
  8  9  1  0  0  0
  9 10  1  0  0  0
  9 11  2  0  0  0
 12 13  1  0  0  0
 13 14  1  0  0  0
 13 16  1  0  0  0
 14 15  2  0  0  0
 14 17  1  0  0  0
 17 18  1  0  0  0
 18 19  1  0  0  0
 18 21  1  0  0  0
 19 20  2  0  0  0
 19 25  1  0  0  0
 21 22  1  0  0  0
 22 23  1  0  0  0
 22 24  1  0  0  0
 25 26  1  0  0  0
 25 31  1  0  0  0
 26 27  1  0  0  0
 26 29  1  0  0  0
 27 28  2  0  0  0
 27 32  1  0  0  0
 29 30  1  0  0  0
 30 31  1  0  0  0
 32 33  1  0  0  0
 32 38  1  0  0  0
 33 34  1  0  0  0
 33 36  1  0  0  0
 34 35  2  0  0  0
 34 39  1  0  0  0
 36 37  1  0  0  0
 37 38  1  0  0  0
 39 40  1  0  0  0
 40 41  1  0  0  0
 40 43  1  0  0  0
 41 42  2  0  0  0
 41 47  1  0  0  0
 43 44  1  0  0  0
 44 45  1  0  0  0
 44 46  1  0  0  0
 47 48  1  0  0  0
 47 53  1  0  0  0
 48 49  1  0  0  0
 48 51  1  0  0  0
 49 50  2  0  0  0
 49 54  1  0  0  0
 51 52  1  0  0  0
 52 53  1  0  0  0
 54 55  1  0  0  0
 55 56  1  0  0  0
 55 58  1  0  0  0
 56 57  2  0  0  0
 56 65  1  0  0  0
 58 59  1  0  0  0
 59 60  1  0  0  0
 60 61  1  0  0  0
 61 62  1  0  0  0
 62 63  1  0  0  0
 62 64  2  0  0  0
 65 66  1  0  0  0
 66 67  1  0  0  0
 66 69  1  0  0  0
 67 68  1  0  0  0
 67 77  2  0  0  0
 69 70  1  0  0  0
 70 71  4  0  0  0
 70 72  4  0  0  0
 71 73  4  0  0  0
 72 74  4  0  0  0
 73 75  4  0  0  0
 74 75  4  0  0  0
 75 76  1  0  0  0
  1 78  1  0  0  0
  1 79  1  0  0  0
  1 80  1  0  0  0
  2 81  1  0  0  0
  5 82  1  0  0  0
  5 83  1  0  0  0
  6 84  1  0  0  0
  6 85  1  0  0  0
  7 86  1  0  0  0
  7 87  1  0  0  0
  8 88  1  0  0  0
 10 89  1  0  0  0
 10 90  1  0  0  0
 11 91  1  0  0  0
 12 92  1  0  0  0
 13 93  1  0  0  0
 16 94  1  0  0  0
 16 95  1  0  0  0
 16 96  1  0  0  0
 17 97  1  0  0  0
 18 98  1  0  0  0
 21 99  1  0  0  0
 21100  1  0  0  0
 22101  1  0  0  0
 23102  1  0  0  0
 23103  1  0  0  0
 23104  1  0  0  0
 24105  1  0  0  0
 24106  1  0  0  0
 24107  1  0  0  0
 26108  1  0  0  0
 29109  1  0  0  0
 29110  1  0  0  0
 30111  1  0  0  0
 30112  1  0  0  0
 31113  1  0  0  0
 31114  1  0  0  0
 33115  1  0  0  0
 36116  1  0  0  0
 36117  1  0  0  0
 37118  1  0  0  0
 37119  1  0  0  0
 38120  1  0  0  0
 38121  1  0  0  0
 39122  1  0  0  0
 40123  1  0  0  0
 43124  1  0  0  0
 43125  1  0  0  0
 44126  1  0  0  0
 45127  1  0  0  0
 45128  1  0  0  0
 45129  1  0  0  0
 46130  1  0  0  0
 46131  1  0  0  0
 46132  1  0  0  0
 48133  1  0  0  0
 51134  1  0  0  0
 51135  1  0  0  0
 52136  1  0  0  0
 52137  1  0  0  0
 53138  1  0  0  0
 53139  1  0  0  0
 54140  1  0  0  0
 55141  1  0  0  0
 58142  1  0  0  0
 58143  1  0  0  0
 59144  1  0  0  0
 59145  1  0  0  0
 60146  1  0  0  0
 60147  1  0  0  0
 61148  1  0  0  0
 63149  1  0  0  0
 63150  1  0  0  0
 64151  1  0  0  0
 65152  1  0  0  0
 66153  1  0  0  0
 68154  1  0  0  0
 69155  1  0  0  0
 69156  1  0  0  0
 71157  1  0  0  0
 72158  1  0  0  0
 73159  1  0  0  0
 74160  1  0  0  0
 76161  1  0  0  0
M  END
$$$$
