### 
### Created by X-TOOL on Mon Sep 10 21:12:45 2018
### 

@<TRIPOS>MOLECULE
1rlp_ligand
  162   165     1     0     0
SMALL
GAST_HUCK


@<TRIPOS>ATOM
      1 N          14.2590    1.8740   -1.9260 N.4       1 ARG         0.2379
      2 CA         12.9640    2.4470   -2.3900 C.3       1 ARG         0.0651
      3 C          11.9780    1.3130   -2.6750 C.2       1 ARG         0.2267
      4 O          11.7570    0.9400   -3.8100 O.2       1 ARG        -0.3907
      5 CB         13.1940    3.2590   -3.6670 C.3       1 ARG         0.0110
      6 CG         12.1880    4.4100   -3.7270 C.3       1 ARG        -0.0125
      7 CD         12.4090    5.3430   -2.5340 C.3       1 ARG         0.0629
      8 NE         12.5810    6.7400   -3.0220 N.pl3     1 ARG        -0.2723
      9 CZ         11.5440    7.4290   -3.4200 C.cat     1 ARG         0.2882
     10 NH1        10.3520    6.8960   -3.3900 N.pl3     1 ARG        -0.2849
     11 NH2        11.6990    8.6510   -3.8480 N.pl3     1 ARG        -0.2849
     12 H1         14.9089    2.6212   -1.7381 H         1 ARG         0.2015
     13 H2         14.6361    1.2728   -2.6418 H         1 ARG         0.2015
     14 H3         14.1080    1.3405   -1.0842 H         1 ARG         0.2015
     15 H4         12.5522    3.1025   -1.6085 H         1 ARG         0.1098
     16 H5         13.0601    2.6089   -4.5441 H         1 ARG         0.0347
     17 H6         14.2162    3.6652   -3.6642 H         1 ARG         0.0347
     18 H7         11.1656    4.0057   -3.6918 H         1 ARG         0.0302
     19 H8         12.3284    4.9714   -4.6625 H         1 ARG         0.0302
     20 H9         13.3113    5.0318   -1.9872 H         1 ARG         0.0689
     21 H10        11.5385    5.2934   -1.8634 H         1 ARG         0.0689
     22 H11        13.5194    7.1640   -3.0458 H         1 ARG         0.2642
     23 H12         9.5362    7.4407   -3.7041 H         1 ARG         0.2615
     24 H13        10.2277    5.9309   -3.0522 H         1 ARG         0.2615
     25 H14        12.6383    9.0729   -3.8723 H         1 ARG         0.2615
     26 H15        10.8821    9.1943   -4.1617 H         1 ARG         0.2615
     27 N          11.3840    0.7610   -1.6520 N.am      1 ALA        -0.2613
     28 CA         10.4130   -0.3490   -1.8620 C.3       1 ALA         0.1283
     29 C           9.3270    0.1010   -2.8420 C.2       1 ALA         0.2036
     30 O           8.9860    1.2650   -2.9160 O.2       1 ALA        -0.3944
     31 CB          9.7690   -0.7230   -0.5250 C.3       1 ALA        -0.0244
     32 H16        11.5810    1.0837   -0.7262 H         1 ALA         0.1884
     33 H17        10.9388   -1.2233   -2.2732 H         1 ALA         0.0797
     34 H18         9.0520   -1.5427   -0.6800 H         1 ALA         0.0277
     35 H19         9.2431    0.1513   -0.1140 H         1 ALA         0.0277
     36 H20        10.5490   -1.0466    0.1799 H         1 ALA         0.0277
     37 N           8.7790   -0.8140   -3.5950 N.am      1 LEU        -0.2637
     38 CA          7.7160   -0.4400   -4.5700 C.3       1 LEU         0.1314
     39 C           6.4680    0.0230   -3.8110 C.2       1 LEU         0.2064
     40 O           6.3090   -0.2750   -2.6430 O.2       1 LEU        -0.3942
     41 CB          7.3680   -1.6540   -5.4340 C.3       1 LEU        -0.0101
     42 CG          8.4580   -1.8580   -6.4880 C.3       1 LEU        -0.0425
     43 CD1         8.5510   -3.3430   -6.8450 C.3       1 LEU        -0.0625
     44 CD2         8.1120   -1.0530   -7.7420 C.3       1 LEU        -0.0625
     45 H21         9.0729   -1.7667   -3.5174 H         1 LEU         0.1883
     46 H22         8.0780    0.3759   -5.2128 H         1 LEU         0.0800
     47 H23         6.4024   -1.4845   -5.9330 H         1 LEU         0.0315
     48 H24         7.3002   -2.5493   -4.7985 H         1 LEU         0.0315
     49 H25         9.4238   -1.5159   -6.0876 H         1 LEU         0.0298
     50 H26         9.3347   -3.4895   -7.6028 H         1 LEU         0.0232
     51 H27         7.5853   -3.6851   -7.2454 H         1 LEU         0.0232
     52 H28         8.7999   -3.9220   -5.9435 H         1 LEU         0.0232
     53 H29         8.0451    0.0146   -7.4855 H         1 LEU         0.0232
     54 H30         7.1463   -1.3950   -8.1425 H         1 LEU         0.0232
     55 H31         8.8958   -1.1996   -8.4997 H         1 LEU         0.0232
     56 N           5.6150    0.7390   -4.5010 N.am      1 PRO        -0.2498
     57 CA          4.3680    1.2580   -3.9130 C.3       1 PRO         0.1340
     58 C           3.4520    0.0970   -3.5020 C.2       1 PRO         0.2066
     59 O           3.3510   -0.8860   -4.2100 O.2       1 PRO        -0.3942
     60 CB          3.7210    2.0820   -5.0280 C.3       1 PRO        -0.0104
     61 CG          4.6090    1.9470   -6.2930 C.3       1 PRO        -0.0281
     62 CD          5.8270    1.0870   -5.9180 C.3       1 PRO         0.0369
     63 H32         4.5822    1.8884   -3.0374 H         1 PRO         0.0802
     64 H33         3.6588    3.1377   -4.7253 H         1 PRO         0.0313
     65 H34         2.7108    1.7004   -5.2374 H         1 PRO         0.0313
     66 H35         4.9406    2.9415   -6.6261 H         1 PRO         0.0287
     67 H36         4.0409    1.4607   -7.0997 H         1 PRO         0.0287
     68 H37         5.8676    0.1798   -6.5387 H         1 PRO         0.0524
     69 H38         6.7587    1.6584   -6.0423 H         1 PRO         0.0524
     70 N           2.8110    0.2430   -2.3680 N.am      1 PRO        -0.2498
     71 CA          1.8980   -0.7890   -1.8460 C.3       1 PRO         0.1338
     72 C           0.7100   -0.9690   -2.7950 C.2       1 PRO         0.2041
     73 O           0.1920   -0.0170   -3.3450 O.2       1 PRO        -0.3944
     74 CB          1.4240   -0.2490   -0.4910 C.3       1 PRO        -0.0104
     75 CG          2.0660    1.1480   -0.2900 C.3       1 PRO        -0.0281
     76 CD          2.9490    1.4370   -1.5150 C.3       1 PRO         0.0369
     77 H39         2.4222   -1.7480   -1.7214 H         1 PRO         0.0802
     78 H40         1.7422   -0.9270    0.3147 H         1 PRO         0.0313
     79 H41         0.3275   -0.1618   -0.4852 H         1 PRO         0.0313
     80 H42         2.6795    1.1506    0.6230 H         1 PRO         0.0287
     81 H43         1.2800    1.9130   -0.2059 H         1 PRO         0.0287
     82 H44         2.5959    2.3343   -2.0442 H         1 PRO         0.0524
     83 H45         3.9971    1.5783   -1.2126 H         1 PRO         0.0524
     84 N           0.2760   -2.1830   -2.9920 N.am      1 LEU        -0.2637
     85 CA         -0.8770   -2.4220   -3.9050 C.3       1 LEU         0.1314
     86 C          -2.1230   -1.7300   -3.3400 C.2       1 LEU         0.2064
     87 O          -2.1740   -1.4130   -2.1690 O.2       1 LEU        -0.3942
     88 CB         -1.1300   -3.9260   -4.0160 C.3       1 LEU        -0.0101
     89 CG         -0.0750   -4.5520   -4.9310 C.3       1 LEU        -0.0425
     90 CD1        -0.2670   -6.0690   -4.9680 C.3       1 LEU        -0.0625
     91 CD2        -0.2240   -3.9840   -6.3440 C.3       1 LEU        -0.0625
     92 H46         0.7168   -2.9529   -2.5306 H         1 LEU         0.1883
     93 H47        -0.6496   -2.0134   -4.9006 H         1 LEU         0.0800
     94 H48        -2.1311   -4.0998   -4.4374 H         1 LEU         0.0315
     95 H49        -1.0680   -4.3834   -3.0176 H         1 LEU         0.0315
     96 H50         0.9288   -4.3189   -4.5462 H         1 LEU         0.0298
     97 H51         0.4914   -6.5186   -5.6257 H         1 LEU         0.0232
     98 H52        -1.2707   -6.3023   -5.3528 H         1 LEU         0.0232
     99 H53        -0.1597   -6.4771   -3.9522 H         1 LEU         0.0232
    100 H54        -0.0859   -2.8930   -6.3171 H         1 LEU         0.0232
    101 H55        -1.2277   -4.2171   -6.7289 H         1 LEU         0.0232
    102 H56         0.5345   -4.4335   -7.0018 H         1 LEU         0.0232
    103 N          -3.0930   -1.5140   -4.1950 N.am      1 PRO        -0.2498
    104 CA         -4.3530   -0.8580   -3.8000 C.3       1 PRO         0.1338
    105 C          -5.0290   -1.6400   -2.6700 C.2       1 PRO         0.2041
    106 O          -4.5900   -2.7090   -2.2940 O.2       1 PRO        -0.3944
    107 CB         -5.2190   -0.8750   -5.0670 C.3       1 PRO        -0.0104
    108 CG         -4.3740   -1.5030   -6.2070 C.3       1 PRO        -0.0281
    109 CD         -3.0130   -1.9060   -5.6150 C.3       1 PRO         0.0369
    110 H57        -4.1671    0.1753   -3.4719 H         1 PRO         0.0802
    111 H58        -5.5084    0.1513   -5.3369 H         1 PRO         0.0313
    112 H59        -6.1230   -1.4777   -4.8950 H         1 PRO         0.0313
    113 H60        -4.2289   -0.7690   -7.0133 H         1 PRO         0.0287
    114 H61        -4.8858   -2.3907   -6.6069 H         1 PRO         0.0287
    115 H62        -2.8542   -2.9903   -5.7100 H         1 PRO         0.0524
    116 H63        -2.1960   -1.3701   -6.1202 H         1 PRO         0.0524
    117 N          -6.0930   -1.1150   -2.1230 N.am      1 ARG        -0.2637
    118 CA         -6.7900   -1.8320   -1.0180 C.3       1 ARG         0.1311
    119 C          -6.9150   -3.3150   -1.3710 C.2       1 ARG         0.2035
    120 O          -7.4590   -3.6760   -2.3960 O.2       1 ARG        -0.3944
    121 CB         -8.1860   -1.2380   -0.8150 C.3       1 ARG        -0.0092
    122 CG         -8.6780   -1.5790    0.5940 C.3       1 ARG        -0.0156
    123 CD        -10.2060   -1.6670    0.6060 C.3       1 ARG         0.0627
    124 NE        -10.7880   -0.3280    0.2890 N.pl3     1 ARG        -0.2723
    125 CZ        -11.2080   -0.0380   -0.9190 C.cat     1 ARG         0.2882
    126 NH1       -11.1090   -0.9030   -1.8960 N.pl3     1 ARG        -0.2849
    127 NH2       -11.7260    1.1370   -1.1530 N.pl3     1 ARG        -0.2849
    128 H64        -6.4390   -0.2338   -2.4452 H         1 ARG         0.1883
    129 H65        -6.2092   -1.7244   -0.0900 H         1 ARG         0.0800
    130 H66        -8.8775   -1.6610   -1.5585 H         1 ARG         0.0313
    131 H67        -8.1420   -0.1455   -0.9349 H         1 ARG         0.0313
    132 H68        -8.3525   -0.7950    1.2936 H         1 ARG         0.0301
    133 H69        -8.2547   -2.5458    0.9040 H         1 ARG         0.0301
    134 H70       -10.5464   -1.9876    1.6017 H         1 ARG         0.0689
    135 H71       -10.5365   -2.3973   -0.1472 H         1 ARG         0.0689
    136 H72       -10.8607    0.3805    1.0331 H         1 ARG         0.2642
    137 H73       -11.4447   -0.6565   -2.8381 H         1 ARG         0.2615
    138 H74       -10.6954   -1.8303   -1.7229 H         1 ARG         0.2615
    139 H75       -11.8082    1.8247   -0.3906 H         1 ARG         0.2615
    140 H76       -12.0525    1.3765   -2.1000 H         1 ARG         0.2615
    141 N          -6.4150   -4.1770   -0.5290 N.am      1 TYR        -0.2679
    142 CA         -6.5040   -5.6360   -0.8160 C.3       1 TYR         0.1025
    143 C          -6.4560   -6.4160    0.4990 C.2       1 TYR         0.0619
    144 O          -6.6760   -7.6160    0.4620 O.co2     1 TYR        -0.5665
    145 CB         -5.3290   -6.0550   -1.7020 C.3       1 TYR         0.0108
    146 CG         -5.8270   -6.3010   -3.1270 C.ar      1 TYR        -0.0499
    147 CD1        -6.0430   -5.2420   -3.9870 C.ar      1 TYR        -0.0686
    148 CD2        -6.0690   -7.5840   -3.5730 C.ar      1 TYR        -0.0686
    149 CE1        -6.4930   -5.4650   -5.2720 C.ar      1 TYR        -0.0398
    150 CE2        -6.5200   -7.8060   -4.8580 C.ar      1 TYR        -0.0398
    151 CZ         -6.7350   -6.7480   -5.7180 C.ar      1 TYR         0.0805
    152 OH         -7.1840   -6.9700   -7.0030 O.3       1 TYR        -0.3376
    153 OXT        -6.1990   -5.8010    1.5200 O.co2     1 TYR        -0.5665
    154 H77        -5.9720   -3.8583    0.3090 H         1 TYR         0.1877
    155 H78        -7.4494   -5.8507   -1.3356 H         1 TYR         0.0747
    156 H79        -4.8818   -6.9784   -1.3054 H         1 TYR         0.0446
    157 H80        -4.5731   -5.2559   -1.7107 H         1 TYR         0.0446
    158 H81        -5.8577   -4.2285   -3.6499 H         1 TYR         0.0530
    159 H82        -5.9035   -8.4244   -2.9086 H         1 TYR         0.0530
    160 H83        -6.6579   -4.6249   -5.9370 H         1 TYR         0.0525
    161 H84        -6.7069   -8.8193   -5.1948 H         1 TYR         0.0525
    162 H85        -7.2768   -6.1384   -7.4529 H         1 TYR         0.2458
@<TRIPOS>BOND
     1    1    2 1  
     2    1   12 1  
     3    1   13 1  
     4    1   14 1  
     5    2    3 1  
     6    2    5 1  
     7    2   15 1  
     8    3    4 2  
     9    3   27 am 
    10    5    6 1  
    11    5   16 1  
    12    5   17 1  
    13    6    7 1  
    14    6   18 1  
    15    6   19 1  
    16    7    8 1  
    17    7   20 1  
    18    7   21 1  
    19    8    9 ar 
    20    8   22 1  
    21    9   10 ar 
    22    9   11 ar 
    23   10   23 1  
    24   10   24 1  
    25   11   25 1  
    26   11   26 1  
    27   27   28 1  
    28   27   32 1  
    29   28   29 1  
    30   28   31 1  
    31   28   33 1  
    32   29   30 2  
    33   29   37 am 
    34   31   34 1  
    35   31   35 1  
    36   31   36 1  
    37   37   38 1  
    38   37   45 1  
    39   38   39 1  
    40   38   41 1  
    41   38   46 1  
    42   39   40 2  
    43   39   56 am 
    44   41   42 1  
    45   41   47 1  
    46   41   48 1  
    47   42   43 1  
    48   42   44 1  
    49   42   49 1  
    50   43   50 1  
    51   43   51 1  
    52   43   52 1  
    53   44   53 1  
    54   44   54 1  
    55   44   55 1  
    56   56   57 1  
    57   56   62 1  
    58   57   58 1  
    59   57   60 1  
    60   57   63 1  
    61   58   59 2  
    62   58   70 am 
    63   60   61 1  
    64   60   64 1  
    65   60   65 1  
    66   61   62 1  
    67   61   66 1  
    68   61   67 1  
    69   62   68 1  
    70   62   69 1  
    71   70   71 1  
    72   70   76 1  
    73   71   72 1  
    74   71   74 1  
    75   71   77 1  
    76   72   73 2  
    77   72   84 am 
    78   74   75 1  
    79   74   78 1  
    80   74   79 1  
    81   75   76 1  
    82   75   80 1  
    83   75   81 1  
    84   76   82 1  
    85   76   83 1  
    86   84   85 1  
    87   84   92 1  
    88   85   86 1  
    89   85   88 1  
    90   85   93 1  
    91   86   87 2  
    92   86  103 am 
    93   88   89 1  
    94   88   94 1  
    95   88   95 1  
    96   89   90 1  
    97   89   91 1  
    98   89   96 1  
    99   90   97 1  
   100   90   98 1  
   101   90   99 1  
   102   91  100 1  
   103   91  101 1  
   104   91  102 1  
   105  103  104 1  
   106  103  109 1  
   107  104  105 1  
   108  104  107 1  
   109  104  110 1  
   110  105  106 2  
   111  105  117 am 
   112  107  108 1  
   113  107  111 1  
   114  107  112 1  
   115  108  109 1  
   116  108  113 1  
   117  108  114 1  
   118  109  115 1  
   119  109  116 1  
   120  117  118 1  
   121  117  128 1  
   122  118  119 1  
   123  118  121 1  
   124  118  129 1  
   125  119  120 2  
   126  119  141 am 
   127  121  122 1  
   128  121  130 1  
   129  121  131 1  
   130  122  123 1  
   131  122  132 1  
   132  122  133 1  
   133  123  124 1  
   134  123  134 1  
   135  123  135 1  
   136  124  125 ar 
   137  124  136 1  
   138  125  126 ar 
   139  125  127 ar 
   140  126  137 1  
   141  126  138 1  
   142  127  139 1  
   143  127  140 1  
   144  141  142 1  
   145  141  154 1  
   146  142  143 1  
   147  142  145 1  
   148  142  155 1  
   149  143  144 ar 
   150  143  153 ar 
   151  145  146 1  
   152  145  156 1  
   153  145  157 1  
   154  146  147 ar 
   155  146  148 ar 
   156  147  149 ar 
   157  147  158 1  
   158  148  150 ar 
   159  148  159 1  
   160  149  151 ar 
   161  149  160 1  
   162  150  151 ar 
   163  150  161 1  
   164  151  152 1  
   165  152  162 1  
@<TRIPOS>SUBSTRUCTURE
     1 ARG         1

