3cwj_ligand
  -I-interpret- 

 59 62  0  0  0  0  0  0  0  0999 V2000
   96.5110    7.0590   61.9250 O   0  0  0  0  0
   97.0080    8.4050   62.1440 S   0  0  0  0  0
   96.9420    9.0150   63.4540 O   0  0  0  0  0
   98.7340    8.4720   61.7140 C   0  0  0  0  0
   96.2890    9.4970   61.0230 N   0  0  0  0  0
   96.2290    9.2790   59.6070 C   0  0  0  0  0
   95.6680   10.3150   58.8560 C   0  0  0  0  0
   96.6880    8.1140   58.9620 C   0  0  0  0  0
   96.5820    8.0070   57.5620 C   0  0  0  0  0
   97.1450    6.5410   56.7240 S   0  0  0  0  0
   96.2700    5.4570   57.1220 O   0  0  0  0  0
   98.5790    6.4320   56.9120 O   0  0  0  0  0
   96.8500    6.8070   55.0480 C   0  0  0  0  0
   96.2750    7.9470   54.6230 C   0  0  0  0  0
   95.8900    8.9960   55.4260 N   0  0  0  0  0
   96.0150    9.0540   56.8120 C   0  0  0  0  0
   95.5640   10.2060   57.4690 C   0  0  0  0  0
   96.0530    8.1330   53.2040 C   0  0  0  0  0
   96.6560    7.4100   52.2340 C   0  0  0  0  0
   97.3750    6.2520   52.4760 O   0  0  0  0  0
   95.1310    9.2490   52.7820 C   0  0  0  0  0
   94.4730    9.8750   53.6280 O   0  0  0  0  0
   95.0750    9.5260   51.4160 N   0  0  0  0  0
   94.3680   10.7040   50.9280 C   0  0  0  0  0
   92.8780   10.4470   50.6920 C   0  0  0  0  0
   92.5170    9.1910   49.8640 C   0  0  0  0  0
   91.0430    8.8000   49.9780 C   0  0  0  0  0
   92.8740    9.3670   48.3810 C   0  0  0  0  0
   95.8970    8.9430   50.4920 N   0  0  0  0  0
   96.5630    7.8820   50.8290 C   0  0  0  0  0
   97.4570    7.2760   49.8390 C   0  0  0  0  0
   97.9510    5.9920   49.7800 C   0  0  0  0  0
   98.0300    8.2470   48.5570 S   0  0  0  0  0
   98.9400    6.9530   47.9100 C   0  0  0  0  0
   98.8050    5.8080   48.6590 C   0  0  0  0  0
   99.2898    7.7713   62.3370 H   0  0  0  0  0
   98.8564    8.2034   60.6647 H   0  0  0  0  0
   99.1090    9.4823   61.8779 H   0  0  0  0  0
   95.8788   10.3555   61.3906 H   0  0  0  0  0
   95.3093   11.2142   59.3569 H   0  0  0  0  0
   97.1225    7.3005   59.5429 H   0  0  0  0  0
   97.1323    6.0432   54.3234 H   0  0  0  0  0
   95.4751    9.8052   54.9640 H   0  0  0  0  0
   95.1290   11.0226   56.8928 H   0  0  0  0  0
   97.7130    5.9073   51.6462 H   0  0  0  0  0
   94.8125   10.9885   49.9743 H   0  0  0  0  0
   94.4562   11.4833   51.6850 H   0  0  0  0  0
   92.5111   11.3003   50.1216 H   0  0  0  0  0
   92.4380   10.2955   51.6777 H   0  0  0  0  0
   93.1147    8.3859   50.2914 H   0  0  0  0  0
   90.8040    8.5888   51.0203 H   0  0  0  0  0
   90.4219    9.6214   49.6207 H   0  0  0  0  0
   90.8562    7.9121   49.3740 H   0  0  0  0  0
   92.3247   10.2163   47.9747 H   0  0  0  0  0
   93.9449    9.5459   48.2852 H   0  0  0  0  0
   92.6049    8.4633   47.8341 H   0  0  0  0  0
   97.7158    5.2122   50.5044 H   0  0  0  0  0
   99.5534    7.0266   47.0120 H   0  0  0  0  0
   99.2974    4.8654   48.4200 H   0  0  0  0  0
  1  2  2  0  0  0
  2  3  2  0  0  0
  2  4  1  0  0  0
  2  5  1  0  0  0
  5  6  1  0  0  0
  6  7  4  0  0  0
  6  8  4  0  0  0
  7 17  4  0  0  0
  8  9  4  0  0  0
  9 10  1  0  0  0
  9 16  4  0  0  0
 10 11  2  0  0  0
 10 12  2  0  0  0
 10 13  1  0  0  0
 13 14  2  0  0  0
 14 15  1  0  0  0
 14 18  1  0  0  0
 15 16  1  0  0  0
 16 17  4  0  0  0
 18 19  2  0  0  0
 18 21  1  0  0  0
 19 20  1  0  0  0
 19 30  1  0  0  0
 21 22  2  0  0  0
 21 23  1  0  0  0
 23 24  1  0  0  0
 23 29  1  0  0  0
 24 25  1  0  0  0
 25 26  1  0  0  0
 26 27  1  0  0  0
 26 28  1  0  0  0
 29 30  2  0  0  0
 30 31  1  0  0  0
 31 32  4  0  0  0
 31 33  4  0  0  0
 32 35  4  0  0  0
 33 34  4  0  0  0
 34 35  4  0  0  0
  4 36  1  0  0  0
  4 37  1  0  0  0
  4 38  1  0  0  0
  5 39  1  0  0  0
  7 40  1  0  0  0
  8 41  1  0  0  0
 13 42  1  0  0  0
 15 43  1  0  0  0
 17 44  1  0  0  0
 20 45  1  0  0  0
 24 46  1  0  0  0
 24 47  1  0  0  0
 25 48  1  0  0  0
 25 49  1  0  0  0
 26 50  1  0  0  0
 27 51  1  0  0  0
 27 52  1  0  0  0
 27 53  1  0  0  0
 28 54  1  0  0  0
 28 55  1  0  0  0
 28 56  1  0  0  0
 32 57  1  0  0  0
 34 58  1  0  0  0
 35 59  1  0  0  0
M  END
$$$$
