6mnc_ligand
  -I-interpret- 

 42 45  0  0  0  0  0  0  0  0999 V2000
   22.7240   -4.3490  -29.8300 C   0  0  0  0  0
   23.1790   -2.5750  -31.6890 C   0  0  0  0  0
   24.2900   -2.0080  -30.8090 C   0  0  0  0  0
   23.7460   -0.8240  -29.9980 C   0  0  0  0  0
   25.5520   -0.9100  -32.5350 O   0  0  0  0  0
   19.2390   -7.2200  -26.3080 O   0  0  0  0  0
   25.5560   -1.5480  -31.5010 C   0  0  0  0  0
   26.8180   -1.9180  -30.7360 C   0  0  0  0  0
   26.2460   -2.5820  -29.4920 C   0  0  0  0  0
   24.8980   -3.1300  -29.9700 C   0  0  0  0  0
   23.8710   -3.7220  -28.9920 C   0  0  0  0  0
   22.1270   -3.3790  -30.8820 C   0  0  0  0  0
   24.5000   -4.6420  -27.9230 C   0  0  0  0  0
   23.7570   -5.9660  -27.8060 C   0  0  0  0  0
   22.2490   -5.8680  -27.8720 C   0  0  0  0  0
   21.6900   -5.0120  -28.9450 C   0  0  0  0  0
   21.4160   -6.5960  -27.0270 C   0  0  0  0  0
   20.0260   -6.5090  -27.1760 C   0  0  0  0  0
   19.4600   -5.6990  -28.1840 C   0  0  0  0  0
   20.2780   -4.9650  -29.0680 C   0  0  0  0  0
   23.1669   -5.1444  -30.4294 H   0  0  0  0  0
   23.6364   -3.2523  -32.4102 H   0  0  0  0  0
   22.6678   -1.7374  -32.1635 H   0  0  0  0  0
   24.4901   -0.5160  -29.2634 H   0  0  0  0  0
   23.5313    0.0069  -30.6700 H   0  0  0  0  0
   22.8317   -1.1250  -29.4866 H   0  0  0  0  0
   18.3148   -7.0714  -26.5208 H   0  0  0  0  0
   27.4571   -1.0630  -30.5155 H   0  0  0  0  0
   27.4927   -2.5624  -31.2995 H   0  0  0  0  0
   26.1438   -1.8889  -28.6569 H   0  0  0  0  0
   26.8978   -3.3607  -29.0958 H   0  0  0  0  0
   25.1417   -4.0552  -30.4922 H   0  0  0  0  0
   23.4397   -2.9356  -28.3726 H   0  0  0  0  0
   21.5210   -2.6541  -30.3386 H   0  0  0  0  0
   21.5738   -3.9872  -31.5977 H   0  0  0  0  0
   24.4468   -4.1337  -26.9602 H   0  0  0  0  0
   25.5290   -4.8519  -28.2150 H   0  0  0  0  0
   24.0009   -6.3755  -26.8257 H   0  0  0  0  0
   24.0680   -6.5748  -28.6550 H   0  0  0  0  0
   21.8441   -7.2317  -26.2519 H   0  0  0  0  0
   18.3759   -5.6400  -28.2805 H   0  0  0  0  0
   19.8222   -4.3581  -29.8503 H   0  0  0  0  0
  1 11  1  0  0  0
  1 12  1  0  0  0
 16  1  1  0  0  0
  2  3  1  0  0  0
 12  2  1  0  0  0
  3  4  1  0  0  0
  3  7  1  0  0  0
 10  3  1  0  0  0
  7  5  2  0  0  0
 18  6  1  0  0  0
  7  8  1  0  0  0
  9  8  1  0  0  0
 10  9  1  0  0  0
 11 10  1  0  0  0
 13 11  1  0  0  0
 14 13  1  0  0  0
 15 14  1  0  0  0
 15 16  4  0  0  0
 17 15  4  0  0  0
 16 20  4  0  0  0
 17 18  4  0  0  0
 18 19  4  0  0  0
 19 20  4  0  0  0
  1 21  1  0  0  0
  2 22  1  0  0  0
  2 23  1  0  0  0
  4 24  1  0  0  0
  4 25  1  0  0  0
  4 26  1  0  0  0
  6 27  1  0  0  0
  8 28  1  0  0  0
  8 29  1  0  0  0
  9 30  1  0  0  0
  9 31  1  0  0  0
 10 32  1  0  0  0
 11 33  1  0  0  0
 12 34  1  0  0  0
 12 35  1  0  0  0
 13 36  1  0  0  0
 13 37  1  0  0  0
 14 38  1  0  0  0
 14 39  1  0  0  0
 17 40  1  0  0  0
 19 41  1  0  0  0
 20 42  1  0  0  0
M  END
$$$$
