3t03_ligand
  -I-interpret- 

 43 45  0  0  0  0  0  0  0  0999 V2000
  -17.7410   22.0290  -17.4400 C   0  0  0  0  0
  -15.1420   20.3890   -7.7010 C   0  0  0  0  0
  -18.7080   26.4060  -10.3380 O   0  0  0  0  0
  -19.7640   22.4480  -12.8040 O   0  0  0  0  0
  -21.4580   27.8980  -18.7520 Br  0  0  0  0  0
  -19.3750   23.9980  -14.9160 C   0  0  0  0  0
  -16.4810   21.2160   -9.8760 C   0  0  0  0  0
  -17.2540   21.8640   -7.5540 C   0  0  0  0  0
  -19.4870   25.7140  -18.9040 C   0  0  0  0  0
  -17.5650   22.0150  -10.4880 C   0  0  0  0  0
  -18.3790   22.6620   -8.1600 C   0  0  0  0  0
  -18.7290   24.5370  -18.4930 C   0  0  0  0  0
  -20.4800   26.0290  -16.4870 C   0  0  0  0  0
  -19.6440   23.5260  -10.1130 C   0  0  0  0  0
  -18.0710   23.0630  -16.5940 O   0  0  0  0  0
  -18.6260   26.1050  -12.9910 S   0  0  0  0  0
  -16.2880   21.1430   -8.3900 C   0  0  0  0  0
  -20.3900   26.4300  -18.0100 C   0  0  0  0  0
  -18.5020   22.7440   -9.5960 C   0  0  0  0  0
  -19.7120   24.8060  -16.1050 C   0  0  0  0  0
  -18.8220   24.1030  -17.0690 C   0  0  0  0  0
  -18.9100   25.6910  -11.2910 C   0  0  0  0  0
  -19.4140   23.6720  -12.5180 C   0  0  0  0  0
  -19.1530   24.5850  -13.5890 C   0  0  0  0  0
  -19.3140   24.3230  -11.2880 N   0  0  0  0  0
  -18.6522   21.5587  -17.8096 H   0  0  0  0  0
  -17.1650   22.4180  -18.2797 H   0  0  0  0  0
  -17.1453   21.2942  -16.8985 H   0  0  0  0  0
  -15.1906   19.3335   -7.9686 H   0  0  0  0  0
  -14.1882   20.8041   -8.0265 H   0  0  0  0  0
  -15.2364   20.4959   -6.6204 H   0  0  0  0  0
  -18.4012   23.5783  -15.1684 H   0  0  0  0  0
  -20.2648   23.3854  -14.7713 H   0  0  0  0  0
  -15.8015   20.6632  -10.5247 H   0  0  0  0  0
  -17.1556   21.8214   -6.4693 H   0  0  0  0  0
  -19.3732   26.0748  -19.9262 H   0  0  0  0  0
  -17.6737   22.0676  -11.5713 H   0  0  0  0  0
  -19.0957   23.1743   -7.5181 H   0  0  0  0  0
  -18.1122   23.9904  -19.2064 H   0  0  0  0  0
  -21.0609   26.6031  -15.7652 H   0  0  0  0  0
  -19.9552   24.2132   -9.3262 H   0  0  0  0  0
  -20.4221   22.8197  -10.4026 H   0  0  0  0  0
  -19.0359   25.2566  -14.4395 H   0  0  0  0  0
 15  1  1  0  0  0
 17  2  1  0  0  0
 22  3  2  0  0  0
 23  4  2  0  0  0
 18  5  1  0  0  0
  6 20  1  0  0  0
 24  6  1  0  0  0
 10  7  4  0  0  0
  7 17  4  0  0  0
 11  8  4  0  0  0
  8 17  4  0  0  0
 12  9  4  0  0  0
 18  9  4  0  0  0
 19 10  4  0  0  0
 19 11  4  0  0  0
 21 12  4  0  0  0
 13 18  4  0  0  0
 20 13  4  0  0  0
 14 19  1  0  0  0
 25 14  1  0  0  0
 21 15  1  0  0  0
 16 22  1  0  0  0
 24 16  1  0  0  0
 20 21  4  0  0  0
 22 25  1  0  0  0
 23 24  1  0  0  0
 23 25  1  0  0  0
  1 26  1  0  0  0
  1 27  1  0  0  0
  1 28  1  0  0  0
  2 29  1  0  0  0
  2 30  1  0  0  0
  2 31  1  0  0  0
  6 32  1  0  0  0
  6 33  1  0  0  0
  7 34  1  0  0  0
  8 35  1  0  0  0
  9 36  1  0  0  0
 10 37  1  0  0  0
 11 38  1  0  0  0
 12 39  1  0  0  0
 13 40  1  0  0  0
 14 41  1  0  0  0
 14 42  1  0  0  0
 24 43  1  0  0  0
M  END
$$$$
