5w0i_ligand
  -I-interpret- 

 66 71  0  0  0  0  0  0  0  0999 V2000
   -0.5240    2.1960   -7.1510 C   0  0  0  0  0
    5.5370    0.9380   -4.4500 C   0  0  0  0  0
    4.4900    1.7300   -5.1890 C   0  0  0  0  0
    3.2390    1.7830   -4.3710 C   0  0  0  0  0
    3.1700    1.4970   -3.0360 C   0  0  0  0  0
    1.8270    1.7030   -2.6750 C   0  0  0  0  0
    1.6520    2.5360   -6.1750 C   0  0  0  0  0
    0.7660    1.4310   -6.7810 C   0  0  0  0  0
    6.8260    2.1670   -1.0640 C   0  0  0  0  0
    0.7520    3.7810   -6.1400 C   0  0  0  0  0
    1.4770    0.3350   -0.6360 C   0  0  0  0  0
    0.1970   -0.0490    0.1150 C   0  0  0  0  0
    6.7040    1.8480   -2.5440 C   0  0  0  0  0
   -0.2530    1.0880    1.0320 C   0  0  0  0  0
   -0.3340    2.3900    0.2770 C   0  0  0  0  0
    0.4060    2.5760   -0.8900 C   0  0  0  0  0
    0.3110    3.8130   -1.5250 C   0  0  0  0  0
   -0.4740    4.8290   -1.0520 C   0  0  0  0  0
   -1.1960    4.6600    0.1210 C   0  0  0  0  0
   -1.1310    3.4180    0.7660 C   0  0  0  0  0
   -2.1010    5.7190    0.6610 C   0  0  0  0  0
   -1.9600    7.1300    0.7410 C   0  0  0  0  0
   -3.3590    5.4620    1.1320 C   0  0  0  0  0
   -5.2630    6.7910    2.0810 C   0  0  0  0  0
   -0.5170    6.1330   -1.8240 C   0  0  0  0  0
    4.3790    1.0370   -2.1930 C   0  0  0  0  0
    0.0560    5.9190   -3.0770 F   0  0  0  0  0
    0.2990    7.0800   -1.1870 F   0  0  0  0  0
    1.1260    2.0790   -3.7400 N   0  0  0  0  0
    2.0260    2.1500   -4.8050 N   0  0  0  0  0
    1.2150    1.5600   -1.4230 N   0  0  0  0  0
   -3.0430    7.6610    1.2400 N   0  0  0  0  0
   -3.9320    6.6320    1.5100 N   0  0  0  0  0
    5.5690    1.2930   -3.0330 N   0  0  0  0  0
   -0.5940    3.2800   -6.1910 O   0  0  0  0  0
    7.6550    2.0950   -3.2880 O   0  0  0  0  0
   -1.4047    1.5552   -7.1073 H   0  0  0  0  0
   -0.5009    2.5615   -8.1776 H   0  0  0  0  0
    6.5114    1.1597   -4.8854 H   0  0  0  0  0
    5.2963   -0.1215   -4.5370 H   0  0  0  0  0
    4.2796    1.2520   -6.1458 H   0  0  0  0  0
    4.8546    2.7424   -5.3631 H   0  0  0  0  0
    2.5677    2.7071   -6.7409 H   0  0  0  0  0
    1.2275    0.9366   -7.6358 H   0  0  0  0  0
    0.5879    0.6038   -6.0939 H   0  0  0  0  0
    7.6590    1.6061   -0.6402 H   0  0  0  0  0
    7.0035    3.2349   -0.9373 H   0  0  0  0  0
    5.9027    1.8881   -0.5562 H   0  0  0  0  0
    0.9620    4.4504   -6.9742 H   0  0  0  0  0
    0.9245    4.3747   -5.2423 H   0  0  0  0  0
    1.7740   -0.4761   -1.3009 H   0  0  0  0  0
    2.2832    0.5166    0.0747 H   0  0  0  0  0
    0.3958   -0.9329    0.7211 H   0  0  0  0  0
   -0.5910   -0.2490   -0.6111 H   0  0  0  0  0
    0.4727    1.1955    1.8381 H   0  0  0  0  0
   -1.2411    0.8498    1.4258 H   0  0  0  0  0
    0.8859    3.9779   -2.4363 H   0  0  0  0  0
   -1.7177    3.2547    1.6700 H   0  0  0  0  0
   -1.0765    7.6880    0.4310 H   0  0  0  0  0
   -3.8248    4.4784    1.1935 H   0  0  0  0  0
   -6.0064    6.4208    1.3751 H   0  0  0  0  0
   -5.3285    6.2246    3.0100 H   0  0  0  0  0
   -5.4463    7.8462    2.2836 H   0  0  0  0  0
   -1.5497    6.4756   -1.8894 H   0  0  0  0  0
    4.2999   -0.0163   -1.9240 H   0  0  0  0  0
    4.4345    1.5769   -1.2477 H   0  0  0  0  0
  8  1  1  0  0  0
 35  1  1  0  0  0
  2  3  1  0  0  0
 34  2  1  0  0  0
  3  4  1  0  0  0
  4  5  4  0  0  0
  4 30  4  0  0  0
  5  6  4  0  0  0
  5 26  1  0  0  0
  6 29  4  0  0  0
  6 31  1  0  0  0
  7  8  1  0  0  0
  7 10  1  0  0  0
 30  7  1  0  0  0
 13  9  1  0  0  0
 10 35  1  0  0  0
 11 12  1  0  0  0
 31 11  1  0  0  0
 12 14  1  0  0  0
 13 34  1  0  0  0
 13 36  2  0  0  0
 14 15  1  0  0  0
 15 16  4  0  0  0
 15 20  4  0  0  0
 16 17  4  0  0  0
 16 31  1  0  0  0
 17 18  4  0  0  0
 18 19  4  0  0  0
 18 25  1  0  0  0
 19 20  4  0  0  0
 19 21  1  0  0  0
 21 22  4  0  0  0
 21 23  4  0  0  0
 22 32  4  0  0  0
 23 33  4  0  0  0
 33 24  1  0  0  0
 25 27  1  0  0  0
 25 28  1  0  0  0
 26 34  1  0  0  0
 29 30  4  0  0  0
 32 33  4  0  0  0
  1 37  1  0  0  0
  1 38  1  0  0  0
  2 39  1  0  0  0
  2 40  1  0  0  0
  3 41  1  0  0  0
  3 42  1  0  0  0
  7 43  1  0  0  0
  8 44  1  0  0  0
  8 45  1  0  0  0
  9 46  1  0  0  0
  9 47  1  0  0  0
  9 48  1  0  0  0
 10 49  1  0  0  0
 10 50  1  0  0  0
 11 51  1  0  0  0
 11 52  1  0  0  0
 12 53  1  0  0  0
 12 54  1  0  0  0
 14 55  1  0  0  0
 14 56  1  0  0  0
 17 57  1  0  0  0
 20 58  1  0  0  0
 22 59  1  0  0  0
 23 60  1  0  0  0
 24 61  1  0  0  0
 24 62  1  0  0  0
 24 63  1  0  0  0
 25 64  1  0  0  0
 26 65  1  0  0  0
 26 66  1  0  0  0
M  END
$$$$
