2xyd_ligand
  -I-interpret- 

 89 93  0  0  0  0  0  0  0  0999 V2000
   -4.2380  -20.7740  -19.6950 C   0  0  0  0  0
   -4.8750  -21.1870  -18.5260 C   0  0  0  0  0
   -6.0060  -22.0010  -18.5980 C   0  0  0  0  0
   -6.5070  -22.3980  -19.8380 C   0  0  0  0  0
   -5.8700  -21.9860  -21.0110 C   0  0  0  0  0
   -4.7280  -21.1790  -20.9420 C   0  0  0  0  0
   -4.0870  -20.7390  -22.1060 C   0  0  0  0  0
   -3.9620  -19.3240  -22.2000 O   0  0  0  0  0
   -3.1410  -18.7200  -23.1020 C   0  0  0  0  0
   -3.0410  -19.1490  -24.2590 O   0  0  0  0  0
   -2.5440  -17.6100  -22.6370 N   0  0  0  0  0
   -1.6890  -16.7170  -23.4100 C   0  0  0  0  0
   -2.0690  -15.2510  -23.0420 C   0  0  0  0  0
   -3.5740  -14.9090  -23.2840 C   0  0  0  0  0
   -4.0160  -14.4710  -24.5350 C   0  0  0  0  0
   -5.3650  -14.1650  -24.7730 C   0  0  0  0  0
   -6.3080  -14.2820  -23.7520 C   0  0  0  0  0
   -5.8730  -14.7250  -22.5010 C   0  0  0  0  0
   -4.5180  -15.0330  -22.2640 C   0  0  0  0  0
    0.0520  -17.1250  -22.9570 P   0  0  0  0  0
    0.2800  -18.5920  -23.5140 O   0  0  0  0  0
    0.1470  -17.0600  -21.4720 O   0  0  0  0  0
    3.3170  -14.6010  -21.2770 N   0  0  0  0  0
    3.3060  -13.5740  -20.2050 C   0  0  0  0  0
    3.8150  -12.2630  -20.8240 C   0  0  0  0  0
    4.1950  -12.3140  -22.0150 O   0  0  0  0  0
    3.8170  -11.2390  -20.1070 O   0  0  0  0  0
    4.1300  -13.9500  -18.9570 C   0  0  0  0  0
    5.2840  -14.9350  -19.1830 C   0  0  0  0  0
    6.5890  -14.4800  -19.3850 C   0  0  0  0  0
    7.6320  -15.3950  -19.5740 C   0  0  0  0  0
    7.3640  -16.7680  -19.5560 C   0  0  0  0  0
    8.3610  -17.6890  -19.7430 O   0  0  0  0  0
    6.0610  -17.2190  -19.3480 C   0  0  0  0  0
    5.0270  -16.3040  -19.1580 C   0  0  0  0  0
    1.0820  -15.9920  -23.9430 C   0  0  0  0  0
    2.4780  -15.6550  -23.3490 C   0  0  0  0  0
    2.3310  -14.6410  -22.1900 C   0  0  0  0  0
    1.3830  -13.8510  -22.1830 O   0  0  0  0  0
    3.2460  -16.9300  -22.9680 C   0  0  0  0  0
    4.7880  -16.8590  -23.0110 C   0  0  0  0  0
    5.6460  -15.8430  -23.1300 C   0  0  0  0  0
    5.5150  -18.0000  -22.8770 O   0  0  0  0  0
    6.8740  -17.6490  -22.9220 N   0  0  0  0  0
    6.9060  -16.3290  -23.0860 C   0  0  0  0  0
    8.0940  -15.6140  -23.1530 C   0  0  0  0  0
    8.0940  -14.2300  -23.3470 C   0  0  0  0  0
    9.3140  -13.5440  -23.3900 C   0  0  0  0  0
   10.5160  -14.2360  -23.2210 C   0  0  0  0  0
   10.5230  -15.6190  -23.0190 C   0  0  0  0  0
    9.3080  -16.3090  -22.9780 C   0  0  0  0  0
   -3.3570  -20.1347  -19.6380 H   0  0  0  0  0
   -4.4896  -20.8741  -17.5556 H   0  0  0  0  0
   -6.4995  -22.3277  -17.6827 H   0  0  0  0  0
   -7.3943  -23.0288  -19.8915 H   0  0  0  0  0
   -6.2623  -22.2930  -21.9805 H   0  0  0  0  0
   -4.6921  -21.0666  -22.9513 H   0  0  0  0  0
   -3.0784  -21.1522  -22.0951 H   0  0  0  0  0
   -2.7026  -17.3712  -21.6581 H   0  0  0  0  0
   -1.8099  -16.8309  -24.4873 H   0  0  0  0  0
   -1.4797  -14.5928  -23.6805 H   0  0  0  0  0
   -1.8740  -15.1225  -21.9773 H   0  0  0  0  0
   -3.2956  -14.3643  -25.3460 H   0  0  0  0  0
   -5.6780  -13.8335  -25.7631 H   0  0  0  0  0
   -7.3553  -14.0346  -23.9256 H   0  0  0  0  0
   -6.5953  -14.8347  -21.6921 H   0  0  0  0  0
   -4.2052  -15.3707  -21.2760 H   0  0  0  0  0
    0.2097  -18.5841  -24.4714 H   0  0  0  0  0
    4.0769  -15.2800  -21.3211 H   0  0  0  0  0
    2.2849  -13.4776  -19.8359 H   0  0  0  0  0
    4.0948  -13.2104  -22.3436 H   0  0  0  0  0
    3.4393  -14.4407  -18.2712 H   0  0  0  0  0
    4.5831  -13.0252  -18.6000 H   0  0  0  0  0
    6.7961  -13.4099  -19.3955 H   0  0  0  0  0
    8.6495  -15.0386  -19.7346 H   0  0  0  0  0
    7.9906  -18.5735  -19.6979 H   0  0  0  0  0
    5.8509  -18.2885  -19.3340 H   0  0  0  0  0
    4.0113  -16.6616  -18.9889 H   0  0  0  0  0
    0.5362  -15.0502  -23.9987 H   0  0  0  0  0
    1.2652  -16.4921  -24.8940 H   0  0  0  0  0
    3.0891  -15.1705  -24.1106 H   0  0  0  0  0
    2.9620  -17.6801  -23.7061 H   0  0  0  0  0
    2.9864  -17.1345  -21.9293 H   0  0  0  0  0
    5.3745  -14.7935  -23.2440 H   0  0  0  0  0
    7.1542  -13.6902  -23.4636 H   0  0  0  0  0
    9.3260  -12.4668  -23.5558 H   0  0  0  0  0
   11.4595  -13.6908  -23.2470 H   0  0  0  0  0
   11.4649  -16.1533  -22.8949 H   0  0  0  0  0
    9.2992  -17.3860  -22.8105 H   0  0  0  0  0
  1  2  4  0  0  0
  6  1  4  0  0  0
  2  3  4  0  0  0
  4  3  4  0  0  0
  5  4  4  0  0  0
  6  5  4  0  0  0
  7  6  1  0  0  0
  8  7  1  0  0  0
  9  8  1  0  0  0
  9 10  2  0  0  0
 11  9  1  0  0  0
 12 11  1  0  0  0
 12 13  1  0  0  0
 20 12  1  0  0  0
 13 14  1  0  0  0
 14 15  4  0  0  0
 14 19  4  0  0  0
 15 16  4  0  0  0
 16 17  4  0  0  0
 18 17  4  0  0  0
 19 18  4  0  0  0
 20 21  1  0  0  0
 20 22  2  0  0  0
 36 20  1  0  0  0
 23 24  1  0  0  0
 38 23  1  0  0  0
 24 25  1  0  0  0
 24 28  1  0  0  0
 25 26  1  0  0  0
 25 27  2  0  0  0
 28 29  1  0  0  0
 29 30  4  0  0  0
 29 35  4  0  0  0
 30 31  4  0  0  0
 31 32  4  0  0  0
 32 33  1  0  0  0
 34 32  4  0  0  0
 35 34  4  0  0  0
 37 36  1  0  0  0
 37 38  1  0  0  0
 37 40  1  0  0  0
 38 39  2  0  0  0
 40 41  1  0  0  0
 41 42  4  0  0  0
 41 43  4  0  0  0
 42 45  4  0  0  0
 43 44  4  0  0  0
 44 45  4  0  0  0
 45 46  1  0  0  0
 46 47  4  0  0  0
 46 51  4  0  0  0
 47 48  4  0  0  0
 48 49  4  0  0  0
 49 50  4  0  0  0
 50 51  4  0  0  0
  1 52  1  0  0  0
  2 53  1  0  0  0
  3 54  1  0  0  0
  4 55  1  0  0  0
  5 56  1  0  0  0
  7 57  1  0  0  0
  7 58  1  0  0  0
 11 59  1  0  0  0
 12 60  1  0  0  0
 13 61  1  0  0  0
 13 62  1  0  0  0
 15 63  1  0  0  0
 16 64  1  0  0  0
 17 65  1  0  0  0
 18 66  1  0  0  0
 19 67  1  0  0  0
 21 68  1  0  0  0
 23 69  1  0  0  0
 24 70  1  0  0  0
 26 71  1  0  0  0
 28 72  1  0  0  0
 28 73  1  0  0  0
 30 74  1  0  0  0
 31 75  1  0  0  0
 33 76  1  0  0  0
 34 77  1  0  0  0
 35 78  1  0  0  0
 36 79  1  0  0  0
 36 80  1  0  0  0
 37 81  1  0  0  0
 40 82  1  0  0  0
 40 83  1  0  0  0
 42 84  1  0  0  0
 47 85  1  0  0  0
 48 86  1  0  0  0
 49 87  1  0  0  0
 50 88  1  0  0  0
 51 89  1  0  0  0
M  END
$$$$
