### 
### Created by X-TOOL on Mon Sep 10 21:13:10 2018
### 

@<TRIPOS>MOLECULE
4flh_ligand
   64    67     1     0     0
SMALL
GAST_HUCK


@<TRIPOS>ATOM
      1 C15        29.3230   11.2700   20.8310 C.3       1 14K         0.0597
      2 O14        28.4600   12.0220   19.9620 O.3       1 14K        -0.3098
      3 C11        27.2920   12.4610   20.5450 C.ar      1 14K         0.1873
      4 C12        26.3370   13.1070   19.7630 C.ar      1 14K         0.1801
      5 C13        25.1490   13.5520   20.3260 C.ar      1 14K         0.0067
      6 F16        26.5480   13.2850   18.4510 F         1 14K        -0.1832
      7 N10        27.0470   12.2860   21.8560 N.ar      1 14K        -0.2882
      8 C9         25.9270   12.7040   22.4200 C.ar      1 14K         0.0178
      9 C8         24.9390   13.3580   21.6850 C.ar      1 14K         0.0766
     10 N7         23.8090   13.7500   22.2890 N.pl3     1 14K        -0.2590
     11 C2         23.2930   14.9900   22.2100 C.ar      1 14K         0.1448
     12 N1         23.9600   15.9410   21.5340 N.ar      1 14K        -0.2811
     13 C6         23.5160   17.1780   21.3970 C.ar      1 14K         0.0022
     14 C5         22.3040   17.5440   21.9790 C.ar      1 14K        -0.0395
     15 C25        21.7690   18.9850   21.8440 C.3       1 14K        -0.0651
     16 C36        22.9330   20.0040   21.9350 C.3       1 14K        -0.0717
     17 N26        21.0380   19.0270   20.5690 N.4       1 14K         0.4118
     18 C31        21.3800   20.1550   19.7050 C.3       1 14K        -0.0926
     19 C30        20.6410   19.9720   18.3830 C.3       1 14K         0.0109
     20 C27        19.5990   19.0830   20.8410 C.3       1 14K        -0.0926
     21 C28        18.8600   18.8380   19.5200 C.3       1 14K         0.0109
     22 N29        19.1870   19.9350   18.6080 N.am      1 14K        -0.2426
     23 S32        18.4330   19.7660   17.1550 S.o2      1 14K         0.0384
     24 C33        17.6330   21.3090   16.7730 C.3       1 14K         0.0734
     25 O35        17.4040   18.6670   17.1450 O.2       1 14K        -0.1556
     26 O34        19.4760   19.4610   16.1270 O.2       1 14K        -0.1556
     27 C4         21.5670   16.5970   22.6890 C.ar      1 14K        -0.0348
     28 C3         22.0560   15.3030   22.8060 C.ar      1 14K         0.0664
     29 C17        21.3250   14.3700   23.5440 C.ar      1 14K         0.1140
     30 N22        20.0290   14.5640   23.8490 N.ar      1 14K        -0.2363
     31 N18        21.9460   13.2720   24.0150 N.ar      1 14K        -0.2567
     32 C19        21.2810   12.3600   24.7390 C.ar      1 14K         0.0930
     33 C23        22.0130   11.1260   25.2360 C.3       1 14K         0.0047
     34 N20        19.9870   12.5350   25.0200 N.ar      1 14K        -0.2329
     35 C21        19.3640   13.6490   24.5810 C.ar      1 14K         0.1879
     36 N24        18.0790   13.8280   24.8560 N.pl3     1 14K        -0.2993
     37 H          29.6093   11.8891   21.6812 H         1 14K         0.0577
     38 H          28.7965   10.3841   21.1860 H         1 14K         0.0577
     39 H          30.2154   10.9685   20.2826 H         1 14K         0.0577
     40 H          24.3946   14.0448   19.7127 H         1 14K         0.0612
     41 H          25.7721   12.5333   23.4853 H         1 14K         0.0665
     42 H          23.3052   13.0608   22.8472 H         1 14K         0.2129
     43 H          24.0949   17.9083   20.8316 H         1 14K         0.0765
     44 H          21.0944   19.2633   22.6537 H         1 14K         0.0207
     45 H          23.4319   19.8987   22.8984 H         1 14K         0.0233
     46 H          23.6454   19.8125   21.1326 H         1 14K         0.0233
     47 H          22.5375   21.0151   21.8378 H         1 14K         0.0233
     48 H          22.4562   20.1883   19.5351 H         1 14K         0.0036
     49 H          21.0869   21.0937   20.1751 H         1 14K         0.0036
     50 H          20.9537   19.0317   17.9290 H         1 14K         0.0458
     51 H          20.8771   20.8089   17.7258 H         1 14K         0.0458
     52 H          19.3296   20.0570   21.2493 H         1 14K         0.0036
     53 H          19.3235   18.3248   21.5740 H         1 14K         0.0036
     54 H          17.7843   18.7995   19.6920 H         1 14K         0.0458
     55 H          19.1668   17.8854   19.0882 H         1 14K         0.0458
     56 H          17.1725   21.2438   15.7872 H         1 14K         0.0482
     57 H          16.8667   21.5143   17.5205 H         1 14K         0.0482
     58 H          18.3715   22.1107   16.7781 H         1 14K         0.0482
     59 H          20.6165   16.8699   23.1475 H         1 14K         0.0695
     60 H          22.3986   10.5661   24.3840 H         1 14K         0.0484
     61 H          22.8403   11.4296   25.8774 H         1 14K         0.0484
     62 H          21.3236   10.4996   25.8021 H         1 14K         0.0484
     63 H          17.5703   13.1271   25.3949 H         1 14K         0.1862
     64 H          17.5994   14.6666   24.5286 H         1 14K         0.1862
@<TRIPOS>BOND
     1    1    2 1  
     2    2    3 1  
     3    3    4 ar 
     4    3    7 ar 
     5    4    5 ar 
     6    4    6 1  
     7    5    9 ar 
     8    7    8 ar 
     9    8    9 ar 
    10    9   10 1  
    11   10   11 1  
    12   11   12 ar 
    13   11   28 ar 
    14   12   13 ar 
    15   13   14 ar 
    16   14   15 1  
    17   14   27 ar 
    18   15   16 1  
    19   15   17 1  
    20   17   18 1  
    21   17   20 1  
    22   18   19 1  
    23   19   22 1  
    24   20   21 1  
    25   21   22 1  
    26   22   23 am 
    27   23   24 1  
    28   23   25 2  
    29   23   26 2  
    30   27   28 ar 
    31   28   29 1  
    32   29   30 ar 
    33   29   31 ar 
    34   30   35 ar 
    35   31   32 ar 
    36   32   33 1  
    37   32   34 ar 
    38   34   35 ar 
    39   35   36 1  
    40    1   37 1  
    41    1   38 1  
    42    1   39 1  
    43    5   40 1  
    44    8   41 1  
    45   10   42 1  
    46   13   43 1  
    47   15   44 1  
    48   16   45 1  
    49   16   46 1  
    50   16   47 1  
    51   18   48 1  
    52   18   49 1  
    53   19   50 1  
    54   19   51 1  
    55   20   52 1  
    56   20   53 1  
    57   21   54 1  
    58   21   55 1  
    59   24   56 1  
    60   24   57 1  
    61   24   58 1  
    62   27   59 1  
    63   33   60 1  
    64   33   61 1  
    65   33   62 1  
    66   36   63 1  
    67   36   64 1  
@<TRIPOS>SUBSTRUCTURE
     1 14K         1

