4flh_ligand
  -I-interpret- 

 65 68  0  0  0  0  0  0  0  0999 V2000
   29.3230   11.2700   20.8310 C   0  0  0  0  0
   28.4600   12.0220   19.9620 O   0  0  0  0  0
   27.2920   12.4610   20.5450 C   0  0  0  0  0
   26.3370   13.1070   19.7630 C   0  0  0  0  0
   25.1490   13.5520   20.3260 C   0  0  0  0  0
   26.5480   13.2850   18.4510 F   0  0  0  0  0
   27.0470   12.2860   21.8560 N   0  0  0  0  0
   25.9270   12.7040   22.4200 C   0  0  0  0  0
   24.9390   13.3580   21.6850 C   0  0  0  0  0
   23.8090   13.7500   22.2890 N   0  0  0  0  0
   23.2930   14.9900   22.2100 C   0  0  0  0  0
   23.9600   15.9410   21.5340 N   0  0  0  0  0
   23.5160   17.1780   21.3970 C   0  0  0  0  0
   22.3040   17.5440   21.9790 C   0  0  0  0  0
   21.7690   18.9850   21.8440 C   0  0  0  0  0
   22.9330   20.0040   21.9350 C   0  0  0  0  0
   21.0380   19.0270   20.5690 N   0  3  0  0  0
   21.3800   20.1550   19.7050 C   0  0  0  0  0
   20.6410   19.9720   18.3830 C   0  0  0  0  0
   19.5990   19.0830   20.8410 C   0  0  0  0  0
   18.8600   18.8380   19.5200 C   0  0  0  0  0
   19.1870   19.9350   18.6080 N   0  0  0  0  0
   18.4330   19.7660   17.1550 S   0  0  0  0  0
   17.6330   21.3090   16.7730 C   0  0  0  0  0
   17.4040   18.6670   17.1450 O   0  0  0  0  0
   19.4760   19.4610   16.1270 O   0  0  0  0  0
   21.5670   16.5970   22.6890 C   0  0  0  0  0
   22.0560   15.3030   22.8060 C   0  0  0  0  0
   21.3250   14.3700   23.5440 C   0  0  0  0  0
   20.0290   14.5640   23.8490 N   0  0  0  0  0
   21.9460   13.2720   24.0150 N   0  0  0  0  0
   21.2810   12.3600   24.7390 C   0  0  0  0  0
   22.0130   11.1260   25.2360 C   0  0  0  0  0
   19.9870   12.5350   25.0200 N   0  0  0  0  0
   19.3640   13.6490   24.5810 C   0  0  0  0  0
   18.0790   13.8280   24.8560 N   0  0  0  0  0
   29.6093   11.8891   21.6812 H   0  0  0  0  0
   28.7965   10.3841   21.1860 H   0  0  0  0  0
   30.2154   10.9685   20.2826 H   0  0  0  0  0
   24.3946   14.0448   19.7127 H   0  0  0  0  0
   25.7721   12.5333   23.4853 H   0  0  0  0  0
   23.3052   13.0608   22.8472 H   0  0  0  0  0
   24.0949   17.9083   20.8316 H   0  0  0  0  0
   21.0944   19.2633   22.6537 H   0  0  0  0  0
   23.4319   19.8987   22.8984 H   0  0  0  0  0
   23.6454   19.8125   21.1326 H   0  0  0  0  0
   22.5375   21.0151   21.8378 H   0  0  0  0  0
   21.3096   18.1805   20.0690 H   0  0  0  0  0
   22.4562   20.1883   19.5351 H   0  0  0  0  0
   21.0869   21.0937   20.1751 H   0  0  0  0  0
   20.9537   19.0317   17.9290 H   0  0  0  0  0
   20.8771   20.8089   17.7258 H   0  0  0  0  0
   19.3296   20.0570   21.2493 H   0  0  0  0  0
   19.3235   18.3248   21.5740 H   0  0  0  0  0
   17.7843   18.7995   19.6920 H   0  0  0  0  0
   19.1668   17.8854   19.0882 H   0  0  0  0  0
   17.1725   21.2438   15.7872 H   0  0  0  0  0
   16.8667   21.5143   17.5205 H   0  0  0  0  0
   18.3715   22.1107   16.7781 H   0  0  0  0  0
   20.6165   16.8699   23.1475 H   0  0  0  0  0
   22.3986   10.5661   24.3840 H   0  0  0  0  0
   22.8403   11.4296   25.8774 H   0  0  0  0  0
   21.3236   10.4996   25.8021 H   0  0  0  0  0
   17.5949   14.6579   24.5134 H   0  0  0  0  0
   17.5748   13.1358   25.4101 H   0  0  0  0  0
  1  2  1  0  0  0
  2  3  1  0  0  0
  3  4  4  0  0  0
  3  7  4  0  0  0
  4  5  4  0  0  0
  4  6  1  0  0  0
  5  9  4  0  0  0
  7  8  4  0  0  0
  8  9  4  0  0  0
  9 10  1  0  0  0
 10 11  1  0  0  0
 11 12  4  0  0  0
 11 28  4  0  0  0
 12 13  4  0  0  0
 13 14  4  0  0  0
 14 15  1  0  0  0
 14 27  4  0  0  0
 15 16  1  0  0  0
 15 17  1  0  0  0
 17 18  1  0  0  0
 17 20  1  0  0  0
 18 19  1  0  0  0
 19 22  1  0  0  0
 20 21  1  0  0  0
 21 22  1  0  0  0
 22 23  1  0  0  0
 23 24  1  0  0  0
 23 25  2  0  0  0
 23 26  2  0  0  0
 27 28  4  0  0  0
 28 29  1  0  0  0
 29 30  4  0  0  0
 29 31  4  0  0  0
 30 35  4  0  0  0
 31 32  4  0  0  0
 32 33  1  0  0  0
 32 34  4  0  0  0
 34 35  4  0  0  0
 35 36  1  0  0  0
  1 37  1  0  0  0
  1 38  1  0  0  0
  1 39  1  0  0  0
  5 40  1  0  0  0
  8 41  1  0  0  0
 10 42  1  0  0  0
 13 43  1  0  0  0
 15 44  1  0  0  0
 16 45  1  0  0  0
 16 46  1  0  0  0
 16 47  1  0  0  0
 17 48  1  0  0  0
 18 49  1  0  0  0
 18 50  1  0  0  0
 19 51  1  0  0  0
 19 52  1  0  0  0
 20 53  1  0  0  0
 20 54  1  0  0  0
 21 55  1  0  0  0
 21 56  1  0  0  0
 24 57  1  0  0  0
 24 58  1  0  0  0
 24 59  1  0  0  0
 27 60  1  0  0  0
 33 61  1  0  0  0
 33 62  1  0  0  0
 33 63  1  0  0  0
 36 64  1  0  0  0
 36 65  1  0  0  0
M  END
$$$$
