4gzx_ligand
  -I-interpret- 

 61 62  0  0  0  0  0  0  0  0999 V2000
   10.0520   85.3280   29.7040 C   0  0  0  0  0
    9.8930   84.7280   31.0980 C   0  0  0  0  0
   10.5620   83.3360   31.0910 C   0  0  0  0  0
   11.4180   82.9230   32.2880 C   0  0  0  0  0
   11.2880   83.8750   33.4560 C   0  0  0  0  0
   11.4560   85.3060   32.9600 C   0  0  0  0  0
   11.5320   86.3500   34.1070 C   0  0  0  0  0
   12.2070   87.6300   33.5980 C   0  0  0  0  0
   11.8740   88.8970   34.3860 C   0  0  0  0  0
   11.9980   82.9990   35.6410 C   0  0  0  0  0
   13.2050   82.7170   36.4980 C   0  0  0  0  0
   12.2930   83.5280   34.4490 N   0  0  0  0  0
    9.9020   84.5700   28.7170 O   0  0  0  0  0
   10.3190   86.5490   29.5740 O   0  0  0  0  0
   11.0170   81.6390   32.7660 O   0  0  0  0  0
   10.3840   85.6670   32.0850 O   0  0  0  0  0
   10.2000   86.5560   34.6140 O   0  0  0  0  0
   13.6200   87.4280   33.6470 O   0  0  0  0  0
   12.3420   88.7980   35.7310 O   0  0  0  0  0
   10.8530   82.7530   36.0170 O   0  0  0  0  0
    4.7880   85.3710   33.2510 C   0  0  0  0  0
    3.8210   86.2910   32.4850 C   0  0  0  0  0
    4.0040   86.1640   30.9630 C   0  0  0  0  0
    4.7390   84.8810   30.5370 C   0  0  0  0  0
    6.0120   84.5840   31.3690 C   0  0  0  0  0
    7.3170   84.8580   30.5950 C   0  0  0  0  0
    5.0020   85.8500   34.5640 O   0  0  0  0  0
    2.4680   86.0550   32.8470 O   0  0  0  0  0
    4.7020   87.3010   30.4870 O   0  0  0  0  0
    5.0210   84.9320   29.1440 O   0  0  0  0  0
    6.0310   85.3380   32.5710 O   0  0  0  0  0
    8.4760   84.6330   31.4130 O   0  0  0  0  0
   11.2505   83.3583   30.2463 H   0  0  0  0  0
    9.7352   82.6258   31.0772 H   0  0  0  0  0
   12.4470   82.9227   31.9284 H   0  0  0  0  0
   10.3034   83.7961   33.9169 H   0  0  0  0  0
   12.4078   85.3228   32.4291 H   0  0  0  0  0
   12.1474   85.9982   34.9351 H   0  0  0  0  0
   11.8279   87.7982   32.5900 H   0  0  0  0  0
   10.7919   89.0269   34.4000 H   0  0  0  0  0
   12.3614   89.7461   33.9068 H   0  0  0  0  0
   13.1296   83.2824   37.4269 H   0  0  0  0  0
   13.2487   81.6512   36.7224 H   0  0  0  0  0
   14.1067   83.0141   35.9625 H   0  0  0  0  0
   13.2735   83.6970   34.2242 H   0  0  0  0  0
   10.3939   86.9532   30.4416 H   0  0  0  0  0
   11.0838   80.9986   32.0540 H   0  0  0  0  0
    9.8398   85.7182   34.9138 H   0  0  0  0  0
   14.0661   88.2177   33.3324 H   0  0  0  0  0
   12.1220   89.6032   36.2052 H   0  0  0  0  0
    4.3512   84.3738   33.3044 H   0  0  0  0  0
    4.0688   87.3132   32.7710 H   0  0  0  0  0
    3.0087   86.1039   30.5228 H   0  0  0  0  0
    4.0703   84.0448   30.7414 H   0  0  0  0  0
    5.9668   83.5188   31.5959 H   0  0  0  0  0
    7.3166   85.9011   30.2789 H   0  0  0  0  0
    7.3604   84.1793   29.7432 H   0  0  0  0  0
    5.6068   85.2626   35.0231 H   0  0  0  0  0
    1.8973   86.6457   32.3500 H   0  0  0  0  0
    4.8198   87.2283   29.5370 H   0  0  0  0  0
    5.4794   84.1303   28.8819 H   0  0  0  0  0
  2  1  1  0  0  0
  1 13  2  0  0  0
  1 14  1  0  0  0
  2  3  1  0  0  0
  2 16  1  0  0  0
 32  2  1  0  0  0
  3  4  1  0  0  0
  4  5  1  0  0  0
  4 15  1  0  0  0
  6  5  1  0  0  0
  5 12  1  0  0  0
  6  7  1  0  0  0
 16  6  1  0  0  0
  7  8  1  0  0  0
  7 17  1  0  0  0
  8  9  1  0  0  0
  8 18  1  0  0  0
  9 19  1  0  0  0
 10 11  1  0  0  0
 12 10  1  0  0  0
 10 20  2  0  0  0
 21 22  1  0  0  0
 21 27  1  0  0  0
 31 21  1  0  0  0
 23 22  1  0  0  0
 22 28  1  0  0  0
 24 23  1  0  0  0
 23 29  1  0  0  0
 25 24  1  0  0  0
 24 30  1  0  0  0
 26 25  1  0  0  0
 25 31  1  0  0  0
 26 32  1  0  0  0
  3 33  1  0  0  0
  3 34  1  0  0  0
  4 35  1  0  0  0
  5 36  1  0  0  0
  6 37  1  0  0  0
  7 38  1  0  0  0
  8 39  1  0  0  0
  9 40  1  0  0  0
  9 41  1  0  0  0
 11 42  1  0  0  0
 11 43  1  0  0  0
 11 44  1  0  0  0
 12 45  1  0  0  0
 14 46  1  0  0  0
 15 47  1  0  0  0
 17 48  1  0  0  0
 18 49  1  0  0  0
 19 50  1  0  0  0
 21 51  1  0  0  0
 22 52  1  0  0  0
 23 53  1  0  0  0
 24 54  1  0  0  0
 25 55  1  0  0  0
 26 56  1  0  0  0
 26 57  1  0  0  0
 27 58  1  0  0  0
 28 59  1  0  0  0
 29 60  1  0  0  0
 30 61  1  0  0  0
M  END
$$$$
