1ida_ligand
  -I-interpret- 

105109  0  0  0  0  0  0  0  0999 V2000
   47.8780   24.8580    8.9010 N   0  0  0  0  0
   48.9630   25.5910    9.2450 C   0  0  0  0  0
   48.6900   26.8800    9.6820 C   0  0  0  0  0
   47.3710   27.3240    9.7940 C   0  0  0  0  0
   44.9760   26.9170    9.5120 C   0  0  0  0  0
   43.9390   26.0770    9.1660 C   0  0  0  0  0
   44.2400   24.8150    8.7260 C   0  0  0  0  0
   45.5720   24.4010    8.5860 C   0  0  0  0  0
   46.3170   26.4950    9.4140 C   0  0  0  0  0
   46.5990   25.2460    8.9670 C   0  0  0  0  0
   50.3060   25.1110    9.0520 C   0  0  0  0  0
   51.3430   25.7060    9.4470 O   0  0  0  0  0
   50.3850   23.9520    8.3540 N   0  0  0  0  0
   51.6110   23.2770    7.9600 C   0  0  0  0  0
   51.5490   23.1620    6.4610 C   0  0  0  0  0
   50.9440   22.2480    5.9090 O   0  0  0  0  0
   51.9010   21.9640    8.6910 C   0  0  0  0  0
   53.1100   21.2670    8.0860 C   0  0  0  0  0
   52.1190   22.2390   10.1900 C   0  0  0  0  0
   53.5850   23.4420    2.3560 C   0  0  0  0  0
   53.4760   23.8610    3.8000 C   0  0  0  0  0
   52.0770   24.1240    4.3100 C   0  0  0  0  0
   51.4160   25.4160    3.7840 C   0  0  0  0  0
   50.0830   25.6760    4.4390 C   0  0  0  0  0
   48.9840   24.8750    4.1350 C   0  0  0  0  0
   47.7280   25.0780    4.7250 C   0  0  0  0  0
   47.5730   26.0640    5.6970 C   0  0  0  0  0
   48.6470   26.9110    5.9710 C   0  0  0  0  0
   49.8930   26.7020    5.3640 C   0  0  0  0  0
   54.3140   25.0130    3.9610 O   0  0  0  0  0
   52.0990   24.1560    5.7720 N   0  0  0  0  0
   53.4340   22.0090    2.2870 N   0  3  0  0  0
   52.9690   21.5890    0.9340 C   0  0  0  0  0
   52.8120   20.0880    0.9100 C   0  0  0  0  0
   53.8300   19.2190    1.6500 C   0  0  0  0  0
   54.0890   19.7600    3.0150 C   0  0  0  0  0
   54.5560   21.1930    2.8130 C   0  0  0  0  0
   51.6990   22.2850    0.4860 C   0  0  0  0  0
   50.7620   22.3690    1.3240 O   0  0  0  0  0
   51.7940   22.7030   -0.8470 N   0  0  0  0  0
   50.7680   23.3700   -1.5610 C   0  0  0  0  0
   51.2960   23.7250   -2.9430 C   0  0  0  0  0
   50.3780   24.6280   -0.8370 C   0  0  0  0  0
   49.5390   22.4760   -1.7710 C   0  0  0  0  0
   54.8030   15.2850   -1.5790 N   0  0  0  0  0
   54.1660   16.3480   -1.0320 C   0  0  0  0  0
   52.7850   16.2890   -0.7470 C   0  0  0  0  0
   52.0640   15.1290   -0.9970 C   0  0  0  0  0
   52.7490   14.0460   -1.5650 C   0  0  0  0  0
   54.1210   14.1720   -1.8590 C   0  0  0  0  0
   52.1960   17.4370   -0.0230 C   0  0  0  0  0
   53.1650   17.5350    1.5340 S   0  0  0  0  0
   49.5106   27.5498    9.9393 H   0  0  0  0  0
   47.1649   28.3223   10.1799 H   0  0  0  0  0
   44.7551   27.9236    9.8670 H   0  0  0  0  0
   42.9036   26.4093    9.2408 H   0  0  0  0  0
   43.4333   24.1239    8.4816 H   0  0  0  0  0
   45.7979   23.4158    8.1780 H   0  0  0  0  0
   49.5054   23.5139    8.0805 H   0  0  0  0  0
   52.4769   23.8627    8.2685 H   0  0  0  0  0
   51.0437   21.3003    8.5782 H   0  0  0  0  0
   52.9150   21.0504    7.0357 H   0  0  0  0  0
   53.9814   21.9166    8.1686 H   0  0  0  0  0
   53.2970   20.3363    8.6217 H   0  0  0  0  0
   52.9641   22.9160   10.3147 H   0  0  0  0  0
   51.2218   22.6948   10.6087 H   0  0  0  0  0
   52.3249   21.3002   10.7041 H   0  0  0  0  0
   54.5547   23.7354    1.9540 H   0  0  0  0  0
   52.8082   23.9284    1.7661 H   0  0  0  0  0
   53.7991   23.0188    4.4119 H   0  0  0  0  0
   51.4661   23.3069    3.9263 H   0  0  0  0  0
   51.2527   25.3032    2.7122 H   0  0  0  0  0
   52.0761   26.2532    4.0109 H   0  0  0  0  0
   49.1044   24.0649    3.4158 H   0  0  0  0  0
   46.8768   24.4670    4.4244 H   0  0  0  0  0
   46.6302   26.1716    6.2333 H   0  0  0  0  0
   48.5161   27.7427    6.6633 H   0  0  0  0  0
   50.7287   27.3534    5.6197 H   0  0  0  0  0
   54.2724   25.3127    4.8721 H   0  0  0  0  0
   52.5348   24.9381    6.2606 H   0  0  0  0  0
   52.7004   21.7929    2.9619 H   0  0  0  0  0
   53.7289   21.8950    0.2150 H   0  0  0  0  0
   52.9206   19.8129   -0.1391 H   0  0  0  0  0
   51.8645   19.8985    1.4144 H   0  0  0  0  0
   54.8319   19.2157    1.2208 H   0  0  0  0  0
   54.8401   19.1690    3.5391 H   0  0  0  0  0
   53.1925   19.7193    3.6336 H   0  0  0  0  0
   54.8891   21.6044    3.7658 H   0  0  0  0  0
   55.3819   21.2093    2.1018 H   0  0  0  0  0
   52.6663   22.5133   -1.3405 H   0  0  0  0  0
   52.1645   24.3759   -2.8426 H   0  0  0  0  0
   51.5825   22.8128   -3.4664 H   0  0  0  0  0
   50.5179   24.2397   -3.5067 H   0  0  0  0  0
   50.0178   24.3750    0.1602 H   0  0  0  0  0
   51.2456   25.2829   -0.7560 H   0  0  0  0  0
   49.5888   25.1353   -1.3919 H   0  0  0  0  0
   49.8279   21.5904   -2.3370 H   0  0  0  0  0
   49.1401   22.1754   -0.8022 H   0  0  0  0  0
   48.7788   23.0292   -2.3225 H   0  0  0  0  0
   54.7250   17.2570   -0.8100 H   0  0  0  0  0
   51.0022   15.0629   -0.7598 H   0  0  0  0  0
   52.2246   13.1143   -1.7774 H   0  0  0  0  0
   54.6406   13.3368   -2.3286 H   0  0  0  0  0
   51.1307   17.3020    0.1639 H   0  0  0  0  0
   52.2523   18.3596   -0.6007 H   0  0  0  0  0
 14 13  1  0  0  0
 14 17  1  0  0  0
 15 14  1  0  0  0
 15 16  2  0  0  0
 17 19  1  0  0  0
 17 18  1  0  0  0
  2  1  4  0  0  0
  1 10  4  0  0  0
  2  3  4  0  0  0
 11  2  1  0  0  0
  3  4  4  0  0  0
  4  9  4  0  0  0
  5  6  4  0  0  0
  9  5  4  0  0  0
  7  6  4  0  0  0
  8  7  4  0  0  0
 10  8  4  0  0  0
 10  9  4  0  0  0
 11 12  2  0  0  0
 13 11  1  0  0  0
 20 21  1  0  0  0
 32 20  1  0  0  0
 21 22  1  0  0  0
 21 30  1  0  0  0
 22 23  1  0  0  0
 22 31  1  0  0  0
 23 24  1  0  0  0
 24 25  4  0  0  0
 24 29  4  0  0  0
 25 26  4  0  0  0
 26 27  4  0  0  0
 28 27  4  0  0  0
 29 28  4  0  0  0
 31 15  1  0  0  0
 33 32  1  0  0  0
 37 32  1  0  0  0
 34 33  1  0  0  0
 33 38  1  0  0  0
 35 34  1  0  0  0
 35 36  1  0  0  0
 36 37  1  0  0  0
 38 39  2  0  0  0
 38 40  1  0  0  0
 40 41  1  0  0  0
 41 42  1  0  0  0
 41 43  1  0  0  0
 41 44  1  0  0  0
 46 45  4  0  0  0
 45 50  4  0  0  0
 47 46  4  0  0  0
 47 48  4  0  0  0
 51 47  1  0  0  0
 48 49  4  0  0  0
 49 50  4  0  0  0
 52 51  1  0  0  0
 52 35  1  0  0  0
  3 53  1  0  0  0
  4 54  1  0  0  0
  5 55  1  0  0  0
  6 56  1  0  0  0
  7 57  1  0  0  0
  8 58  1  0  0  0
 13 59  1  0  0  0
 14 60  1  0  0  0
 17 61  1  0  0  0
 18 62  1  0  0  0
 18 63  1  0  0  0
 18 64  1  0  0  0
 19 65  1  0  0  0
 19 66  1  0  0  0
 19 67  1  0  0  0
 20 68  1  0  0  0
 20 69  1  0  0  0
 21 70  1  0  0  0
 22 71  1  0  0  0
 23 72  1  0  0  0
 23 73  1  0  0  0
 25 74  1  0  0  0
 26 75  1  0  0  0
 27 76  1  0  0  0
 28 77  1  0  0  0
 29 78  1  0  0  0
 30 79  1  0  0  0
 31 80  1  0  0  0
 32 81  1  0  0  0
 33 82  1  0  0  0
 34 83  1  0  0  0
 34 84  1  0  0  0
 35 85  1  0  0  0
 36 86  1  0  0  0
 36 87  1  0  0  0
 37 88  1  0  0  0
 37 89  1  0  0  0
 40 90  1  0  0  0
 42 91  1  0  0  0
 42 92  1  0  0  0
 42 93  1  0  0  0
 43 94  1  0  0  0
 43 95  1  0  0  0
 43 96  1  0  0  0
 44 97  1  0  0  0
 44 98  1  0  0  0
 44 99  1  0  0  0
 46100  1  0  0  0
 48101  1  0  0  0
 49102  1  0  0  0
 50103  1  0  0  0
 51104  1  0  0  0
 51105  1  0  0  0
M  END
$$$$
