6djd_ligand
  -I-interpret- 

 21 22  0  0  0  0  0  0  0  0999 V2000
   -6.8730  -14.9300   32.0990 C   0  0  0  0  0
   -6.7770  -15.9340   31.1100 C   0  0  0  0  0
   -7.4860  -15.8130   29.9250 C   0  0  0  0  0
   -8.2900  -14.6970   29.7000 C   0  0  0  0  0
   -8.3870  -13.7060   30.6710 C   0  0  0  0  0
   -7.6700  -13.8320   31.8780 C   0  0  0  0  0
   -7.7490  -12.8370   32.8740 C   0  0  0  0  0
   -6.2430  -14.1460   34.2040 C   0  0  0  0  0
   -6.1840  -15.0580   33.2470 N   0  0  0  0  0
   -7.0750  -11.9560   35.1770 C   0  0  0  0  0
   -7.0150  -12.9970   34.0570 C   0  0  0  0  0
   -6.9770  -12.3030   36.3940 O   0  0  0  0  0
   -7.2590  -10.7500   34.8850 O   0  0  0  0  0
   -8.5540  -11.7050   32.6480 O   0  0  0  0  0
   -6.1443  -16.8054   31.2789 H   0  0  0  0  0
   -7.4145  -16.5930   29.1669 H   0  0  0  0  0
   -8.8417  -14.6011   28.7648 H   0  0  0  0  0
   -9.0166  -12.8331   30.4988 H   0  0  0  0  0
   -5.6773  -14.2971   35.1234 H   0  0  0  0  0
   -6.8394  -13.2517   36.4450 H   0  0  0  0  0
   -8.5063  -11.1226   33.4096 H   0  0  0  0  0
  1  2  4  0  0  0
  1  6  4  0  0  0
  1  9  4  0  0  0
  2  3  4  0  0  0
  3  4  4  0  0  0
  4  5  4  0  0  0
  5  6  4  0  0  0
  6  7  4  0  0  0
  7 11  4  0  0  0
  7 14  1  0  0  0
  9  8  4  0  0  0
  8 11  4  0  0  0
 11 10  1  0  0  0
 10 12  1  0  0  0
 10 13  2  0  0  0
  2 15  1  0  0  0
  3 16  1  0  0  0
  4 17  1  0  0  0
  5 18  1  0  0  0
  8 19  1  0  0  0
 12 20  1  0  0  0
 14 21  1  0  0  0
M  END
$$$$
