4p6w_ligand
  -I-interpret- 

 67 71  0  0  0  0  0  0  0  0999 V2000
   27.7810  -56.1620  -42.1150 O   0  0  0  0  0
   27.3110  -55.1350  -41.5820 C   0  0  0  0  0
   28.0430  -53.9490  -41.5800 C   0  0  0  0  0
   26.1440  -55.2530  -40.8530 C   0  0  0  0  0
   25.6110  -54.1600  -40.2020 C   0  0  0  0  0
   24.3320  -54.3510  -39.4150 C   0  0  0  0  0
   26.3030  -52.8240  -40.1800 C   0  0  0  0  0
   27.5680  -52.8300  -40.9100 C   0  0  0  0  0
   25.3550  -51.8680  -40.9250 C   0  0  0  0  0
   26.6120  -52.5510  -38.6890 C   0  0  0  0  0
   27.6440  -53.9090  -38.0680 Cl  0  0  0  0  0
   27.5150  -51.3330  -38.4140 C   0  0  0  0  0
   27.1190  -50.1310  -39.0860 O   0  0  0  0  0
   25.2970  -52.5640  -37.8770 C   0  0  0  0  0
   24.5770  -53.9060  -37.9780 C   0  0  0  0  0
   25.5960  -52.3060  -36.4060 C   0  0  0  0  0
   24.4490  -52.3130  -35.4070 C   0  0  0  0  0
   25.0530  -51.5950  -34.2050 C   0  0  0  0  0
   24.8040  -52.5060  -33.0070 C   0  0  0  0  0
   26.3470  -51.0120  -36.1420 C   0  0  0  0  0
   27.6710  -51.0570  -36.9170 C   0  0  0  0  0
   25.5320  -49.7410  -36.4600 C   0  0  0  0  0
   26.4900  -51.1550  -34.6200 C   0  0  0  0  0
   26.9710  -49.8350  -34.0450 C   0  0  0  0  0
   26.0960  -49.0300  -33.4680 O   0  0  0  0  0
   28.3950  -49.3150  -34.0740 C   0  0  0  0  0
   28.5190  -47.5560  -34.6420 Cl  0  0  0  0  0
   27.4720  -52.1920  -34.3780 O   0  0  0  0  0
   28.2140  -52.5770  -33.1610 C   0  0  0  0  0
   28.2420  -51.9330  -32.1120 O   0  0  0  0  0
   28.9810  -53.8210  -33.1680 C   0  0  0  0  0
   29.2080  -54.7700  -34.1220 C   0  0  0  0  0
   30.0290  -55.6740  -33.4900 C   0  0  0  0  0
   30.2510  -55.2580  -32.1950 C   0  0  0  0  0
   29.5940  -54.0780  -31.9870 O   0  0  0  0  0
   28.9952  -53.8998  -42.1083 H   0  0  0  0  0
   25.6401  -56.2176  -40.7916 H   0  0  0  0  0
   24.0365  -55.4000  -39.4343 H   0  0  0  0  0
   23.5313  -53.7578  -39.8567 H   0  0  0  0  0
   28.1640  -51.9176  -40.9295 H   0  0  0  0  0
   25.7915  -50.8694  -40.9468 H   0  0  0  0  0
   25.2092  -52.2245  -41.9447 H   0  0  0  0  0
   24.3952  -51.8352  -40.4094 H   0  0  0  0  0
   28.4785  -51.6229  -38.8332 H   0  0  0  0  0
   27.7297  -49.4248  -38.8627 H   0  0  0  0  0
   24.6579  -51.7849  -38.2927 H   0  0  0  0  0
   25.2098  -54.6562  -37.5038 H   0  0  0  0  0
   23.6053  -53.7959  -37.4967 H   0  0  0  0  0
   26.1964  -53.1982  -36.2280 H   0  0  0  0  0
   24.0947  -53.3164  -35.1710 H   0  0  0  0  0
   23.5496  -51.8278  -35.7863 H   0  0  0  0  0
   24.6172  -50.6498  -33.8813 H   0  0  0  0  0
   23.7314  -52.6540  -32.8815 H   0  0  0  0  0
   25.2874  -53.4680  -33.1771 H   0  0  0  0  0
   25.2159  -52.0446  -32.1095 H   0  0  0  0  0
   28.1340  -50.0752  -36.8183 H   0  0  0  0  0
   28.2594  -51.8742  -36.4997 H   0  0  0  0  0
   25.2530  -49.7440  -37.5137 H   0  0  0  0  0
   24.6324  -49.7243  -35.8447 H   0  0  0  0  0
   26.1368  -48.8600  -36.2455 H   0  0  0  0  0
   27.4071  -50.7395  -34.4691 H   0  0  0  0  0
   26.5457  -48.2414  -33.1559 H   0  0  0  0  0
   28.9565  -49.9295  -34.7777 H   0  0  0  0  0
   28.7842  -49.3617  -33.0569 H   0  0  0  0  0
   28.8284  -54.8035  -35.1432 H   0  0  0  0  0
   30.4394  -56.5770  -33.9419 H   0  0  0  0  0
   30.8537  -55.7854  -31.4556 H   0  0  0  0  0
  1  2  2  0  0  0
  2  3  1  0  0  0
  2  4  1  0  0  0
  3  8  2  0  0  0
  4  5  2  0  0  0
  5  6  1  0  0  0
  5  7  1  0  0  0
  6 15  1  0  0  0
  7  8  1  0  0  0
  7  9  1  0  0  0
  7 10  1  0  0  0
 10 11  1  0  0  0
 10 12  1  0  0  0
 10 14  1  0  0  0
 12 13  1  0  0  0
 12 21  1  0  0  0
 14 15  1  0  0  0
 14 16  1  0  0  0
 16 17  1  0  0  0
 16 20  1  0  0  0
 17 18  1  0  0  0
 18 19  1  0  0  0
 18 23  1  0  0  0
 20 21  1  0  0  0
 20 22  1  0  0  0
 20 23  1  0  0  0
 23 24  1  0  0  0
 23 28  1  0  0  0
 24 25  1  0  0  0
 24 26  1  0  0  0
 26 27  1  0  0  0
 28 29  1  0  0  0
 29 30  2  0  0  0
 29 31  1  0  0  0
 31 32  4  0  0  0
 31 35  4  0  0  0
 32 33  4  0  0  0
 33 34  4  0  0  0
 34 35  4  0  0  0
  3 36  1  0  0  0
  4 37  1  0  0  0
  6 38  1  0  0  0
  6 39  1  0  0  0
  8 40  1  0  0  0
  9 41  1  0  0  0
  9 42  1  0  0  0
  9 43  1  0  0  0
 12 44  1  0  0  0
 13 45  1  0  0  0
 14 46  1  0  0  0
 15 47  1  0  0  0
 15 48  1  0  0  0
 16 49  1  0  0  0
 17 50  1  0  0  0
 17 51  1  0  0  0
 18 52  1  0  0  0
 19 53  1  0  0  0
 19 54  1  0  0  0
 19 55  1  0  0  0
 21 56  1  0  0  0
 21 57  1  0  0  0
 22 58  1  0  0  0
 22 59  1  0  0  0
 22 60  1  0  0  0
 24 61  1  0  0  0
 25 62  1  0  0  0
 26 63  1  0  0  0
 26 64  1  0  0  0
 32 65  1  0  0  0
 33 66  1  0  0  0
 34 67  1  0  0  0
M  END
$$$$
