5d21_ligand
  -I-interpret- 

 34 35  0  0  0  0  0  0  0  0999 V2000
    1.9990  -16.8250  -51.2290 O   0  0  0  0  0
    2.3080  -18.5370  -48.9210 O   0  0  0  0  0
    0.5350  -17.4880  -47.2860 O   0  0  0  0  0
   -1.1960  -16.5580  -49.5460 O   0  0  0  0  0
   -0.3180  -16.5630  -50.6520 C   0  0  0  0  0
    1.0800  -16.8640  -50.1480 C   0  0  0  0  0
    1.0500  -18.2250  -49.4860 C   0  0  0  0  0
    0.0260  -18.2540  -48.3710 C   0  0  0  0  0
   -1.3330  -17.7820  -48.8660 C   0  0  0  0  0
   -2.3240  -17.6340  -47.7320 C   0  0  0  0  0
   -3.5920  -17.2960  -48.2630 O   0  0  0  0  0
   -0.3100  -15.3100  -51.2720 O   0  0  0  0  0
   -1.3440  -15.1390  -52.2100 C   0  0  0  0  0
   -2.2250  -16.1630  -52.5630 C   0  0  0  0  0
   -3.2210  -15.9190  -53.4980 C   0  0  0  0  0
   -3.3310  -14.6550  -54.0730 C   0  0  0  0  0
   -2.4550  -13.6420  -53.7180 C   0  0  0  0  0
   -1.4620  -13.8850  -52.7870 C   0  0  0  0  0
    1.9909  -15.9496  -51.6230 H   0  0  0  0  0
    2.9780  -18.5256  -49.6085 H   0  0  0  0  0
   -0.1003  -17.4932  -46.5663 H   0  0  0  0  0
   -0.6455  -17.3136  -51.3714 H   0  0  0  0  0
    1.4056  -16.1194  -49.4216 H   0  0  0  0  0
    0.7928  -18.9519  -50.2564 H   0  0  0  0  0
   -0.1394  -19.2727  -48.0202 H   0  0  0  0  0
   -1.7199  -18.5397  -49.5474 H   0  0  0  0  0
   -1.9899  -16.8482  -47.0545 H   0  0  0  0  0
   -2.3956  -18.5734  -47.1838 H   0  0  0  0  0
   -4.2231  -17.2014  -47.5458 H   0  0  0  0  0
   -2.1310  -17.1485  -52.1068 H   0  0  0  0  0
   -3.9133  -16.7119  -53.7809 H   0  0  0  0  0
   -4.1123  -14.4614  -54.8079 H   0  0  0  0  0
   -2.5484  -12.6554  -54.1718 H   0  0  0  0  0
   -0.7716  -13.0894  -52.5069 H   0  0  0  0  0
  6  1  1  0  0  0
  7  2  1  0  0  0
  8  3  1  0  0  0
  5  4  1  0  0  0
  4  9  1  0  0  0
  6  5  1  0  0  0
  5 12  1  0  0  0
  7  6  1  0  0  0
  7  8  1  0  0  0
  8  9  1  0  0  0
  9 10  1  0  0  0
 10 11  1  0  0  0
 12 13  1  0  0  0
 13 14  4  0  0  0
 13 18  4  0  0  0
 14 15  4  0  0  0
 15 16  4  0  0  0
 16 17  4  0  0  0
 17 18  4  0  0  0
  1 19  1  0  0  0
  2 20  1  0  0  0
  3 21  1  0  0  0
  5 22  1  0  0  0
  6 23  1  0  0  0
  7 24  1  0  0  0
  8 25  1  0  0  0
  9 26  1  0  0  0
 10 27  1  0  0  0
 10 28  1  0  0  0
 11 29  1  0  0  0
 14 30  1  0  0  0
 15 31  1  0  0  0
 16 32  1  0  0  0
 17 33  1  0  0  0
 18 34  1  0  0  0
M  END
$$$$
