2h65_ligand
  -I-interpret- 

 75 74  0  0  0  0  0  0  0  0999 V2000
   22.3830   15.1160   48.1030 C   0  0  0  0  0
   21.4390   15.7720   47.7070 O   0  0  0  0  0
   22.1980   14.1880   49.2800 C   0  0  0  0  0
   23.6200   15.1790   47.4920 N   0  0  0  0  0
   23.7840   15.8400   46.1940 C   0  0  0  0  0
   23.4200   14.8960   45.0550 C   0  0  0  0  0
   23.2870   13.6840   45.2480 O   0  0  0  0  0
   25.2560   16.2940   45.9980 C   0  0  0  0  0
   25.6760   17.2440   47.1110 C   0  0  0  0  0
   26.1670   15.0810   45.9560 C   0  0  0  0  0
   23.2630   15.4590   43.8650 N   0  0  0  0  0
   22.9250   14.6730   42.6950 C   0  0  0  0  0
   24.1810   14.4130   41.8730 C   0  0  0  0  0
   25.0250   15.2920   41.7170 O   0  0  0  0  0
   21.8810   15.4220   41.8730 C   0  0  0  0  0
   20.6000   15.6790   42.6600 C   0  0  0  0  0
   19.9780   14.6840   43.1200 O   0  0  0  0  0
   20.2160   16.8680   42.8240 O   0  0  0  0  0
   24.3160   13.1960   41.3640 N   0  0  0  0  0
   25.4700   12.8470   40.5520 C   0  0  0  0  0
   24.9970   12.2030   39.2580 C   0  0  0  0  0
   23.8870   11.6870   39.1900 O   0  0  0  0  0
   26.4160   11.8900   41.3100 C   0  0  0  0  0
   27.0100   12.6010   42.5220 C   0  0  0  0  0
   25.6640   10.6500   41.7560 C   0  0  0  0  0
   25.8400   12.2450   38.2330 N   0  0  0  0  0
   25.4810   11.6810   36.9430 C   0  0  0  0  0
   25.8120   10.1970   36.8530 C   0  0  0  0  0
   26.6060    9.6800   37.6350 O   0  0  0  0  0
   26.1730   12.4450   35.8340 C   0  0  0  0  0
   25.1610    9.5190   35.9120 N   0  0  0  0  0
   25.3630    8.0930   35.6700 C   0  0  0  0  0
   25.8750    7.8790   34.2340 C   0  0  0  0  0
   25.8190    6.4900   33.8680 O   0  0  0  0  0
   24.0390    7.3380   35.8430 C   0  0  0  0  0
   23.9810    6.5340   37.1300 C   0  0  0  0  0
   25.0250    6.0260   37.5850 O   0  0  0  0  0
   22.8770    6.4020   37.6910 O   0  0  0  0  0
   21.8854   14.7650   50.1503 H   0  0  0  0  0
   21.4352   13.4471   49.0405 H   0  0  0  0  0
   23.1404   13.6844   49.4956 H   0  0  0  0  0
   24.4297   14.7603   47.9497 H   0  0  0  0  0
   23.1205   16.7047   46.1810 H   0  0  0  0  0
   25.3379   16.8277   45.0511 H   0  0  0  0  0
   25.6196   16.7269   48.0689 H   0  0  0  0  0
   26.6991   17.5769   46.9360 H   0  0  0  0  0
   25.0090   18.1060   47.1222 H   0  0  0  0  0
   27.1923   15.4043   45.7759 H   0  0  0  0  0
   26.1128   14.5543   46.9088 H   0  0  0  0  0
   25.8480   14.4162   45.1532 H   0  0  0  0  0
   23.3827   16.4676   43.7707 H   0  0  0  0  0
   22.5092   13.7118   42.9973 H   0  0  0  0  0
   21.6289   14.8094   41.0074 H   0  0  0  0  0
   22.3025   16.3862   41.5888 H   0  0  0  0  0
   20.4422   13.8788   42.8797 H   0  0  0  0  0
   23.5988   12.4937   41.5451 H   0  0  0  0  0
   26.0276   13.7562   40.3272 H   0  0  0  0  0
   27.2216   11.5892   40.6402 H   0  0  0  0  0
   27.5710   13.4747   42.1902 H   0  0  0  0  0
   26.2059   12.9152   43.1875 H   0  0  0  0  0
   27.6760   11.9194   43.0512 H   0  0  0  0  0
   24.8466   10.9401   42.4162 H   0  0  0  0  0
   25.2624   10.1364   40.8825 H   0  0  0  0  0
   26.3446    9.9858   42.2886 H   0  0  0  0  0
   26.7546   12.6803   38.3532 H   0  0  0  0  0
   24.4011   11.7766   36.8301 H   0  0  0  0  0
   25.8652   13.4901   35.8676 H   0  0  0  0  0
   27.2527   12.3784   35.9676 H   0  0  0  0  0
   25.8975   12.0146   34.8712 H   0  0  0  0  0
   24.4881   10.0192   35.3312 H   0  0  0  0  0
   26.0940    7.7157   36.3851 H   0  0  0  0  0
   26.2326    8.6753   33.5812 H   0  0  0  0  0
   23.9419    6.6412   35.0105 H   0  0  0  0  0
   23.2369    8.0754   35.8747 H   0  0  0  0  0
   25.7622    6.2430   37.0097 H   0  0  0  0  0
  1  2  2  0  0  0
  1  3  1  0  0  0
  1  4  1  0  0  0
  4  5  1  0  0  0
  5  6  1  0  0  0
  5  8  1  0  0  0
  6  7  2  0  0  0
  6 11  1  0  0  0
  8  9  1  0  0  0
  8 10  1  0  0  0
 11 12  1  0  0  0
 12 13  1  0  0  0
 12 15  1  0  0  0
 13 14  2  0  0  0
 13 19  1  0  0  0
 15 16  1  0  0  0
 16 17  1  0  0  0
 16 18  2  0  0  0
 19 20  1  0  0  0
 20 21  1  0  0  0
 20 23  1  0  0  0
 21 22  2  0  0  0
 21 26  1  0  0  0
 23 24  1  0  0  0
 23 25  1  0  0  0
 26 27  1  0  0  0
 27 28  1  0  0  0
 27 30  1  0  0  0
 28 29  2  0  0  0
 28 31  1  0  0  0
 31 32  1  0  0  0
 32 33  1  0  0  0
 32 35  1  0  0  0
 33 34  2  0  0  0
 35 36  1  0  0  0
 36 37  1  0  0  0
 36 38  2  0  0  0
  3 39  1  0  0  0
  3 40  1  0  0  0
  3 41  1  0  0  0
  4 42  1  0  0  0
  5 43  1  0  0  0
  8 44  1  0  0  0
  9 45  1  0  0  0
  9 46  1  0  0  0
  9 47  1  0  0  0
 10 48  1  0  0  0
 10 49  1  0  0  0
 10 50  1  0  0  0
 11 51  1  0  0  0
 12 52  1  0  0  0
 15 53  1  0  0  0
 15 54  1  0  0  0
 17 55  1  0  0  0
 19 56  1  0  0  0
 20 57  1  0  0  0
 23 58  1  0  0  0
 24 59  1  0  0  0
 24 60  1  0  0  0
 24 61  1  0  0  0
 25 62  1  0  0  0
 25 63  1  0  0  0
 25 64  1  0  0  0
 26 65  1  0  0  0
 27 66  1  0  0  0
 30 67  1  0  0  0
 30 68  1  0  0  0
 30 69  1  0  0  0
 31 70  1  0  0  0
 32 71  1  0  0  0
 33 72  1  0  0  0
 35 73  1  0  0  0
 35 74  1  0  0  0
 37 75  1  0  0  0
M  END
$$$$
