4imz_ligand
  -I-interpret- 

 80 81  0  0  0  0  0  0  0  0999 V2000
   35.2720   38.4570   18.0520 C   0  0  0  0  0
   35.6890   39.5720   18.2830 O   0  0  0  0  0
   34.1070   38.0750   18.4750 O   0  0  0  0  0
   33.2080   39.0800   18.2820 C   0  0  0  0  0
   31.8530   38.8130   18.2840 C   0  0  0  0  0
   31.3790   37.6800   17.7210 C   0  0  0  0  0
   30.0660   37.3830   17.6890 C   0  0  0  0  0
   29.1730   38.2740   18.1860 C   0  0  0  0  0
   29.6350   39.4120   18.7610 C   0  0  0  0  0
   30.9520   39.7030   18.8030 C   0  0  0  0  0
   35.9420   37.5690   17.4130 N   0  0  0  0  0
   37.2390   37.8640   16.9080 C   0  0  0  0  0
   37.1770   37.5950   15.4100 C   0  0  0  0  0
   36.5700   36.6270   14.9750 O   0  0  0  0  0
   38.2680   36.9350   17.4980 C   0  0  0  0  0
   38.2960   36.9350   19.0160 C   0  0  0  0  0
   38.9380   35.6540   19.4520 C   0  0  0  0  0
   39.1030   38.1100   19.4430 C   0  0  0  0  0
   37.8110   38.5020   14.6950 N   0  0  0  0  0
   37.8760   38.4130   13.2300 C   0  0  0  0  0
   38.5570   37.0990   12.8830 C   0  0  0  0  0
   39.5380   36.7360   13.4890 O   0  0  0  0  0
   38.6460   39.5930   12.6210 C   0  0  0  0  0
   37.7890   40.8930   12.5810 C   0  0  0  0  0
   38.1240   42.0320   13.3200 C   0  0  0  0  0
   36.6520   40.9670   11.8190 C   0  0  0  0  0
   37.3220   43.1680   13.2870 C   0  0  0  0  0
   35.8740   42.0970   11.7730 C   0  0  0  0  0
   36.2070   43.2270   12.5130 C   0  0  0  0  0
   39.1160   35.2080   10.0550 C   0  0  0  0  0
   37.0360   32.4780   13.8150 C   0  0  0  0  0
   37.5440   33.8500   13.3520 C   0  0  0  0  0
   38.0260   36.4390   11.8760 N   0  0  0  0  0
   36.3720   31.7930   13.0870 O   0  0  0  0  0
   37.3300   32.1100   15.0510 N   0  0  0  0  0
   38.0600   32.9910   15.9550 C   0  0  0  0  0
   36.8580   30.8290   15.4770 C   0  0  0  0  0
   38.5880   35.1670   11.5130 C   0  0  0  0  0
   37.5570   34.0790   11.8670 C   0  0  0  0  0
   39.9130   36.0150    9.6040 O   0  0  0  0  0
   33.4119   39.4342   17.2715 H   0  0  0  0  0
   33.3542   39.7408   19.1365 H   0  0  0  0  0
   32.0861   36.9800   17.2759 H   0  0  0  0  0
   29.7249   36.4371   17.2683 H   0  0  0  0  0
   28.1024   38.0790   18.1245 H   0  0  0  0  0
   28.9233   40.1105   19.2011 H   0  0  0  0  0
   31.2950   40.6380   19.2460 H   0  0  0  0  0
   35.5411   36.6427   17.2656 H   0  0  0  0  0
   37.5152   38.8901   17.1509 H   0  0  0  0  0
   39.2457   37.2736   17.1552 H   0  0  0  0  0
   38.0146   35.9244   17.1779 H   0  0  0  0  0
   37.3013   37.0036   19.4564 H   0  0  0  0  0
   38.3544   34.8117   19.0804 H   0  0  0  0  0
   39.9502   35.6015   19.0510 H   0  0  0  0  0
   38.9750   35.6198   20.5408 H   0  0  0  0  0
   40.1123   38.0214   19.0409 H   0  0  0  0  0
   38.6400   39.0228   19.0681 H   0  0  0  0  0
   39.1458   38.1435   20.5316 H   0  0  0  0  0
   38.2663   39.2823   15.1685 H   0  0  0  0  0
   36.8685   38.4520   12.8159 H   0  0  0  0  0
   38.9155   39.3316   11.5977 H   0  0  0  0  0
   39.5230   39.7826   13.2398 H   0  0  0  0  0
   39.0268   42.0295   13.9308 H   0  0  0  0  0
   36.3556   40.0993   11.2297 H   0  0  0  0  0
   37.5942   44.0302   13.8958 H   0  0  0  0  0
   34.9817   42.1091   11.1471 H   0  0  0  0  0
   35.5949   44.1280   12.4732 H   0  0  0  0  0
   38.7411   34.4467    9.3709 H   0  0  0  0  0
   38.5803   33.9207   13.6823 H   0  0  0  0  0
   36.8591   34.5877   13.7701 H   0  0  0  0  0
   37.2318   36.8223   11.3635 H   0  0  0  0  0
   39.0346   33.2232   15.5257 H   0  0  0  0  0
   37.4953   33.9124   16.0971 H   0  0  0  0  0
   38.1939   32.4936   16.9156 H   0  0  0  0  0
   35.7701   30.8049   15.4145 H   0  0  0  0  0
   37.2775   30.0561   14.8330 H   0  0  0  0  0
   37.1680   30.6531   16.5071 H   0  0  0  0  0
   39.4825   34.9123   12.0813 H   0  0  0  0  0
   36.5675   34.4031   11.5447 H   0  0  0  0  0
   37.8263   33.1510   11.3626 H   0  0  0  0  0
  1  2  2  0  0  0
  1  3  1  0  0  0
 11  1  1  0  0  0
  3  4  1  0  0  0
  4  5  1  0  0  0
  5  6  4  0  0  0
  5 10  4  0  0  0
  6  7  4  0  0  0
  7  8  4  0  0  0
  9  8  4  0  0  0
 10  9  4  0  0  0
 12 11  1  0  0  0
 13 12  1  0  0  0
 12 15  1  0  0  0
 13 14  2  0  0  0
 19 13  1  0  0  0
 15 16  1  0  0  0
 16 17  1  0  0  0
 16 18  1  0  0  0
 20 19  1  0  0  0
 21 20  1  0  0  0
 20 23  1  0  0  0
 21 22  2  0  0  0
 33 21  1  0  0  0
 23 24  1  0  0  0
 24 25  4  0  0  0
 24 26  4  0  0  0
 25 27  4  0  0  0
 26 28  4  0  0  0
 27 29  4  0  0  0
 28 29  4  0  0  0
 38 30  1  0  0  0
 30 40  2  0  0  0
 32 31  1  0  0  0
 31 34  2  0  0  0
 31 35  1  0  0  0
 39 32  1  0  0  0
 38 33  1  0  0  0
 35 36  1  0  0  0
 35 37  1  0  0  0
 38 39  1  0  0  0
  4 41  1  0  0  0
  4 42  1  0  0  0
  6 43  1  0  0  0
  7 44  1  0  0  0
  8 45  1  0  0  0
  9 46  1  0  0  0
 10 47  1  0  0  0
 11 48  1  0  0  0
 12 49  1  0  0  0
 15 50  1  0  0  0
 15 51  1  0  0  0
 16 52  1  0  0  0
 17 53  1  0  0  0
 17 54  1  0  0  0
 17 55  1  0  0  0
 18 56  1  0  0  0
 18 57  1  0  0  0
 18 58  1  0  0  0
 19 59  1  0  0  0
 20 60  1  0  0  0
 23 61  1  0  0  0
 23 62  1  0  0  0
 25 63  1  0  0  0
 26 64  1  0  0  0
 27 65  1  0  0  0
 28 66  1  0  0  0
 29 67  1  0  0  0
 30 68  1  0  0  0
 32 69  1  0  0  0
 32 70  1  0  0  0
 33 71  1  0  0  0
 36 72  1  0  0  0
 36 73  1  0  0  0
 36 74  1  0  0  0
 37 75  1  0  0  0
 37 76  1  0  0  0
 37 77  1  0  0  0
 38 78  1  0  0  0
 39 79  1  0  0  0
 39 80  1  0  0  0
M  END
$$$$
