5d1s_ligand
  -I-interpret- 

 34 34  0  0  0  0  0  0  0  0999 V2000
   11.7940   18.8150   26.5780 C   0  0  0  0  0
   12.5830   18.9060   27.8900 C   0  0  0  0  0
   14.2890   20.2710   28.9340 O   0  0  0  0  0
   10.2970   18.8840   26.5350 N   0  0  0  0  0
    9.2170   20.8300   27.8560 C   0  0  0  0  0
    8.1740   20.3590   28.6740 C   0  0  0  0  0
    7.9830   20.9050   29.9490 C   0  0  0  0  0
    8.8350   21.9060   30.3910 C   0  0  0  0  0
    9.8680   22.3810   29.5890 C   0  0  0  0  0
   10.0570   21.8410   28.3230 C   0  0  0  0  0
    9.5680   17.6180   26.6050 C   0  0  0  0  0
   12.3020   17.5590   25.8640 C   0  0  0  0  0
   13.4320   19.9330   27.8980 N   0  0  0  0  0
   12.5090   18.1110   28.8310 O   0  0  0  0  0
    9.4640   20.2080   26.3860 S   0  0  0  0  0
    8.1600   20.0470   25.7780 O   0  0  0  0  0
   10.2030   21.1460   25.5830 O   0  0  0  0  0
    8.6570   22.4370   31.6070 F   0  0  0  0  0
    6.8690   20.4170   30.8580 C   0  0  0  0  0
   11.9978   19.7710   26.0957 H   0  0  0  0  0
   14.7932   21.0504   28.6893 H   0  0  0  0  0
    7.5144   19.5689   28.3152 H   0  0  0  0  0
   10.5248   23.1717   29.9517 H   0  0  0  0  0
   10.8656   22.2091   27.6916 H   0  0  0  0  0
    8.9004   17.6318   27.4666 H   0  0  0  0  0
    8.9847   17.4853   25.6939 H   0  0  0  0  0
   10.2775   16.7968   26.7066 H   0  0  0  0  0
   11.8949   16.6744   26.3538 H   0  0  0  0  0
   11.9806   17.5795   24.8227 H   0  0  0  0  0
   13.3907   17.5322   25.9091 H   0  0  0  0  0
   13.4533   20.5238   27.0668 H   0  0  0  0  0
    5.9075   20.5767   30.3701 H   0  0  0  0  0
    7.0043   19.3541   31.0580 H   0  0  0  0  0
    6.8983   20.9711   31.7962 H   0  0  0  0  0
  1  2  1  0  0  0
  4  1  1  0  0  0
  1 12  1  0  0  0
  2 13  1  0  0  0
  2 14  2  0  0  0
 13  3  1  0  0  0
  4 11  1  0  0  0
 15  4  1  0  0  0
  5  6  4  0  0  0
  5 10  4  0  0  0
  5 15  1  0  0  0
  6  7  4  0  0  0
  7  8  4  0  0  0
  7 19  1  0  0  0
  8  9  4  0  0  0
  8 18  1  0  0  0
  9 10  4  0  0  0
 15 16  2  0  0  0
 15 17  2  0  0  0
  1 20  1  0  0  0
  3 21  1  0  0  0
  6 22  1  0  0  0
  9 23  1  0  0  0
 10 24  1  0  0  0
 11 25  1  0  0  0
 11 26  1  0  0  0
 11 27  1  0  0  0
 12 28  1  0  0  0
 12 29  1  0  0  0
 12 30  1  0  0  0
 13 31  1  0  0  0
 19 32  1  0  0  0
 19 33  1  0  0  0
 19 34  1  0  0  0
M  END
$$$$
