5c6p_ligand
  -I-interpret- 

 72 73  0  0  0  0  0  0  0  0999 V2000
   23.2190  -49.0180   34.9930 C   0  0  0  0  0
   24.4020  -48.6950   34.2440 O   0  0  0  0  0
   24.2500  -47.5700   33.4790 C   0  0  0  0  0
   24.4830  -46.2900   33.9760 C   0  0  0  0  0
   23.8520  -47.7360   32.1490 C   0  0  0  0  0
   23.6480  -49.0210   31.7180 O   0  0  0  0  0
   22.2960  -49.3010   31.3150 C   0  0  0  0  0
   23.6870  -46.6220   31.3210 C   0  0  0  0  0
   23.9220  -45.3430   31.8160 C   0  0  0  0  0
   24.3260  -45.1700   33.1440 C   0  0  0  0  0
   24.5600  -43.8900   33.6550 C   0  0  0  0  0
   26.0900  -43.5340   33.6950 C   0  0  0  0  0
   27.0420  -44.6620   33.1530 C   0  0  0  0  0
   26.5340  -43.1740   35.1410 C   0  0  0  0  0
   23.9310  -43.8600   35.0290 C   0  0  0  0  0
   23.1870  -43.8520   35.9690 N   0  0  0  0  0
   23.8600  -42.8570   32.7230 C   0  0  0  0  0
   23.3940  -41.5540   33.4030 C   0  0  0  0  0
   21.9060  -41.6030   33.8060 C   0  0  0  0  0
   20.9230  -41.5000   32.7020 N   0  3  0  0  0
   21.1230  -40.3540   31.7970 C   0  0  0  0  0
   20.7320  -42.7660   31.9590 C   0  0  0  0  0
   19.2430  -43.1110   31.7460 C   0  0  0  0  0
   19.0110  -44.4980   31.7800 C   0  0  0  0  0
   19.1020  -45.2010   32.9810 C   0  0  0  0  0
   18.6650  -45.1990   30.6180 C   0  0  0  0  0
   18.4260  -46.5850   30.6520 C   0  0  0  0  0
   18.5120  -47.2960   31.8610 C   0  0  0  0  0
   18.3070  -48.6670   31.9630 O   0  0  0  0  0
   16.9510  -49.1410   31.9520 C   0  0  0  0  0
   18.8660  -46.5820   33.0210 C   0  0  0  0  0
   18.9680  -47.2590   34.1960 O   0  0  0  0  0
   19.8830  -46.5680   35.0680 C   0  0  0  0  0
   22.9748  -48.1903   35.6588 H   0  0  0  0  0
   22.3907  -49.1895   34.3055 H   0  0  0  0  0
   23.3973  -49.9184   35.5809 H   0  0  0  0  0
   24.7881  -46.1573   35.0140 H   0  0  0  0  0
   21.6253  -49.1359   32.1582 H   0  0  0  0  0
   22.0188  -48.6401   30.4938 H   0  0  0  0  0
   22.2230  -50.3384   30.9887 H   0  0  0  0  0
   23.3736  -46.7555   30.2856 H   0  0  0  0  0
   23.7913  -44.4757   31.1688 H   0  0  0  0  0
   26.1890  -42.6805   33.0243 H   0  0  0  0  0
   26.9121  -45.5638   33.7513 H   0  0  0  0  0
   26.7948  -44.8756   32.1131 H   0  0  0  0  0
   28.0767  -44.3257   33.2202 H   0  0  0  0  0
   25.9628  -42.3145   35.4917 H   0  0  0  0  0
   26.3527  -44.0248   35.7978 H   0  0  0  0  0
   27.5966  -42.9313   35.1436 H   0  0  0  0  0
   22.9632  -43.3439   32.3400 H   0  0  0  0  0
   24.5964  -42.5683   31.9730 H   0  0  0  0  0
   23.5252  -40.7370   32.6936 H   0  0  0  0  0
   23.9849  -41.4153   34.3084 H   0  0  0  0  0
   21.7361  -40.7368   34.4455 H   0  0  0  0  0
   21.7475  -42.5796   34.2634 H   0  0  0  0  0
   20.0466  -41.3075   33.1871 H   0  0  0  0  0
   21.0537  -39.4269   32.3660 H   0  0  0  0  0
   22.1075  -40.4253   31.3346 H   0  0  0  0  0
   20.3552  -40.3652   31.0234 H   0  0  0  0  0
   21.1818  -43.5687   32.5433 H   0  0  0  0  0
   21.1933  -42.6518   30.9780 H   0  0  0  0  0
   18.9451  -42.7404   30.7652 H   0  0  0  0  0
   18.6689  -42.6505   32.5500 H   0  0  0  0  0
   19.3593  -44.6710   33.8981 H   0  0  0  0  0
   18.5796  -44.6626   29.6730 H   0  0  0  0  0
   18.1719  -47.1120   29.7323 H   0  0  0  0  0
   16.4086  -48.7062   32.7916 H   0  0  0  0  0
   16.4725  -48.8477   31.0176 H   0  0  0  0  0
   16.9466  -50.2276   32.0385 H   0  0  0  0  0
   20.8626  -46.5114   34.5934 H   0  0  0  0  0
   19.5113  -45.5611   35.2582 H   0  0  0  0  0
   19.9650  -47.1104   36.0099 H   0  0  0  0  0
  1  2  1  0  0  0
  2  3  1  0  0  0
  3  4  4  0  0  0
  3  5  4  0  0  0
  4 10  4  0  0  0
  5  6  1  0  0  0
  5  8  4  0  0  0
  6  7  1  0  0  0
  8  9  4  0  0  0
  9 10  4  0  0  0
 10 11  1  0  0  0
 11 12  1  0  0  0
 11 15  1  0  0  0
 11 17  1  0  0  0
 12 13  1  0  0  0
 12 14  1  0  0  0
 15 16  3  0  0  0
 17 18  1  0  0  0
 18 19  1  0  0  0
 19 20  1  0  0  0
 20 21  1  0  0  0
 20 22  1  0  0  0
 22 23  1  0  0  0
 23 24  1  0  0  0
 24 25  4  0  0  0
 24 26  4  0  0  0
 25 31  4  0  0  0
 26 27  4  0  0  0
 27 28  4  0  0  0
 28 29  1  0  0  0
 28 31  4  0  0  0
 29 30  1  0  0  0
 31 32  1  0  0  0
 32 33  1  0  0  0
  1 34  1  0  0  0
  1 35  1  0  0  0
  1 36  1  0  0  0
  4 37  1  0  0  0
  7 38  1  0  0  0
  7 39  1  0  0  0
  7 40  1  0  0  0
  8 41  1  0  0  0
  9 42  1  0  0  0
 12 43  1  0  0  0
 13 44  1  0  0  0
 13 45  1  0  0  0
 13 46  1  0  0  0
 14 47  1  0  0  0
 14 48  1  0  0  0
 14 49  1  0  0  0
 17 50  1  0  0  0
 17 51  1  0  0  0
 18 52  1  0  0  0
 18 53  1  0  0  0
 19 54  1  0  0  0
 19 55  1  0  0  0
 20 56  1  0  0  0
 21 57  1  0  0  0
 21 58  1  0  0  0
 21 59  1  0  0  0
 22 60  1  0  0  0
 22 61  1  0  0  0
 23 62  1  0  0  0
 23 63  1  0  0  0
 25 64  1  0  0  0
 26 65  1  0  0  0
 27 66  1  0  0  0
 30 67  1  0  0  0
 30 68  1  0  0  0
 30 69  1  0  0  0
 33 70  1  0  0  0
 33 71  1  0  0  0
 33 72  1  0  0  0
M  END
$$$$
