1ec3_ligand
  -I-interpret- 

108111  0  0  0  0  0  0  0  0999 V2000
   16.2580   22.0690    9.0200 C   0  0  0  0  0
   17.2040   20.9620    8.8780 C   0  0  0  0  0
   16.9140   19.7040    9.5810 C   0  0  0  0  0
   15.7160   19.5770   10.3940 C   0  0  0  0  0
   14.7770   20.6800   10.5380 C   0  0  0  0  0
   15.0370   21.9420    9.8500 C   0  0  0  0  0
   10.4100   23.8130    2.2450 C   0  0  0  0  0
    9.4040   22.8200    2.6310 C   0  0  0  0  0
    8.0210   23.1350    2.5040 C   0  0  0  0  0
    7.6300   24.4420    1.9920 C   0  0  0  0  0
    8.6190   25.4440    1.6050 C   0  0  0  0  0
   10.0230   25.1140    1.7390 C   0  0  0  0  0
   11.8450   23.4500    2.4080 C   0  0  0  0  0
   12.1250   23.1500    3.7970 O   0  0  0  0  0
   12.2080   24.3230    4.6820 C   0  0  0  0  0
   13.3310   24.1430    5.6680 C   0  0  0  0  0
   14.6550   23.8250    5.0060 C   0  0  0  0  0
   15.5920   23.0810    5.9630 C   0  0  0  0  0
   15.4570   21.5490    5.7820 C   0  0  0  0  0
   14.4400   20.9420    6.1090 O   0  0  0  0  0
   16.5820   20.9290    5.2320 N   0  0  0  0  0
   16.7610   19.5050    4.9450 C   0  0  0  0  0
   16.5350   19.1420    3.4090 C   0  0  0  0  0
   16.7320   17.6340    3.0590 C   0  0  0  0  0
   15.1190   19.4960    2.9270 C   0  0  0  0  0
   18.1860   19.1630    5.4220 C   0  0  0  0  0
   19.1530   19.7580    4.9570 O   0  0  0  0  0
   18.2680   18.1630    6.3790 N   0  0  0  0  0
   19.7630   17.7430    6.9210 C   0  0  0  0  0
   15.3830   23.4530    7.3890 O   0  0  0  0  0
   16.4990   23.3290    8.3300 C   0  0  0  0  0
   15.1810   25.0700    4.5250 O   0  0  0  0  0
   13.4490   25.3190    6.5620 O   0  0  0  0  0
   10.9830   24.4830    5.5140 C   0  0  0  0  0
   10.5450   23.5130    6.1670 O   0  0  0  0  0
   10.3910   25.7350    5.5150 N   0  0  0  0  0
    9.1760   26.0730    6.2960 C   0  0  0  0  0
    9.4930   26.8710    7.6470 C   0  0  0  0  0
    8.2210   27.2190    8.4920 C   0  0  0  0  0
   10.4960   26.1380    8.5530 C   0  0  0  0  0
    8.2830   26.9130    5.3820 C   0  0  0  0  0
    8.7040   27.9590    4.9540 O   0  0  0  0  0
    7.0430   26.3810    5.1240 N   0  0  0  0  0
    6.0610   27.0570    4.2700 C   0  0  0  0  0
    4.9800   26.1070    3.7940 C   0  0  0  0  0
    4.5590   26.1220    2.4130 C   0  0  0  0  0
    3.5060   25.1750    2.0040 C   0  0  0  0  0
    2.8930   24.2380    2.9630 C   0  0  0  0  0
    3.4020   24.3200    4.3310 C   0  0  0  0  0
    4.4050   25.2220    4.7190 N   0  0  0  0  0
   19.9980   18.0340    8.4200 C   0  0  0  0  0
   20.4810   19.3140    8.8350 C   0  0  0  0  0
   20.6980   19.5820   10.2450 C   0  0  0  0  0
   20.4220   18.5510   11.1980 C   0  0  0  0  0
   19.9380   17.2790   10.7380 C   0  0  0  0  0
   19.7390   17.0490    9.3780 N   0  0  0  0  0
   18.1004   21.0673    8.2669 H   0  0  0  0  0
   17.6008   18.8623    9.4921 H   0  0  0  0  0
   15.5164   18.6360   10.9067 H   0  0  0  0  0
   13.8859   20.5649   11.1551 H   0  0  0  0  0
   14.3435   22.7775    9.9456 H   0  0  0  0  0
    9.7122   21.8467    3.0128 H   0  0  0  0  0
    7.2622   22.4054    2.7871 H   0  0  0  0  0
    6.5703   24.6781    1.8953 H   0  0  0  0  0
    8.3082   26.4170    1.2244 H   0  0  0  0  0
   10.7852   25.8416    1.4602 H   0  0  0  0  0
   12.4654   24.2879    2.0898 H   0  0  0  0  0
   12.0643   22.5722    1.8001 H   0  0  0  0  0
   12.3494   25.1848    4.0298 H   0  0  0  0  0
   13.0737   23.2734    6.2728 H   0  0  0  0  0
   14.5351   23.1405    4.1663 H   0  0  0  0  0
   16.6049   23.3873    5.7017 H   0  0  0  0  0
   17.3679   21.5381    5.0047 H   0  0  0  0  0
   16.0102   18.9102    5.4653 H   0  0  0  0  0
   17.3000   19.7374    2.9106 H   0  0  0  0  0
   17.7502   17.3347    3.3075 H   0  0  0  0  0
   16.0254   17.0339    3.6323 H   0  0  0  0  0
   16.5575   17.4838    1.9936 H   0  0  0  0  0
   14.3873   18.9430    3.5160 H   0  0  0  0  0
   14.9519   20.5661    3.0493 H   0  0  0  0  0
   15.0173   19.2290    1.8751 H   0  0  0  0  0
   17.4297   17.7035    6.7348 H   0  0  0  0  0
   20.4863   18.3357    6.3611 H   0  0  0  0  0
   19.8646   16.6666    6.7826 H   0  0  0  0  0
   17.4636   23.3382    7.8224 H   0  0  0  0  0
   16.5451   24.1704    9.0214 H   0  0  0  0  0
   16.0253   24.9147    4.0953 H   0  0  0  0  0
   14.1706   25.1790    7.1795 H   0  0  0  0  0
   10.8151   26.4673    4.9456 H   0  0  0  0  0
    8.6887   25.1504    6.6113 H   0  0  0  0  0
    9.9357   27.8027    7.2947 H   0  0  0  0  0
    7.5512   27.8414    7.8986 H   0  0  0  0  0
    7.7098   26.2982    8.7729 H   0  0  0  0  0
    8.5198   27.7588    9.3906 H   0  0  0  0  0
   10.0905   25.1645    8.8288 H   0  0  0  0  0
   11.4359   26.0031    8.0178 H   0  0  0  0  0
   10.6701   26.7285    9.4525 H   0  0  0  0  0
    6.7965   25.4836    5.5414 H   0  0  0  0  0
    6.5803   27.4505    3.3961 H   0  0  0  0  0
    5.5892   27.8491    4.8514 H   0  0  0  0  0
    5.0053   26.8112    1.6961 H   0  0  0  0  0
    3.1722   25.1673    0.9664 H   0  0  0  0  0
    2.1142   23.5330    2.6722 H   0  0  0  0  0
    2.9840   23.6509    5.0831 H   0  0  0  0  0
   20.6858   20.0869    8.0943 H   0  0  0  0  0
   21.0658   20.5543   10.5730 H   0  0  0  0  0
   20.5774   18.7289   12.2621 H   0  0  0  0  0
   19.7250   16.4885   11.4576 H   0  0  0  0  0
  1  2  4  0  0  0
  1  6  4  0  0  0
 31  1  1  0  0  0
  2  3  4  0  0  0
  3  4  4  0  0  0
  5  4  4  0  0  0
  6  5  4  0  0  0
  7  8  4  0  0  0
  7 12  4  0  0  0
 13  7  1  0  0  0
  8  9  4  0  0  0
  9 10  4  0  0  0
 11 10  4  0  0  0
 12 11  4  0  0  0
 14 13  1  0  0  0
 15 14  1  0  0  0
 16 15  1  0  0  0
 17 16  1  0  0  0
 18 17  1  0  0  0
 18 19  1  0  0  0
 30 18  1  0  0  0
 19 20  2  0  0  0
 19 21  1  0  0  0
 21 22  1  0  0  0
 22 23  1  0  0  0
 22 26  1  0  0  0
 23 24  1  0  0  0
 23 25  1  0  0  0
 26 27  2  0  0  0
 26 28  1  0  0  0
 28 29  1  0  0  0
 31 30  1  0  0  0
 17 32  1  0  0  0
 16 33  1  0  0  0
 15 34  1  0  0  0
 34 35  2  0  0  0
 34 36  1  0  0  0
 36 37  1  0  0  0
 37 38  1  0  0  0
 37 41  1  0  0  0
 38 39  1  0  0  0
 38 40  1  0  0  0
 41 42  2  0  0  0
 41 43  1  0  0  0
 43 44  1  0  0  0
 44 45  1  0  0  0
 45 46  4  0  0  0
 45 50  4  0  0  0
 46 47  4  0  0  0
 47 48  4  0  0  0
 48 49  4  0  0  0
 49 50  4  0  0  0
 29 51  1  0  0  0
 51 52  4  0  0  0
 51 56  4  0  0  0
 52 53  4  0  0  0
 53 54  4  0  0  0
 54 55  4  0  0  0
 55 56  4  0  0  0
  2 57  1  0  0  0
  3 58  1  0  0  0
  4 59  1  0  0  0
  5 60  1  0  0  0
  6 61  1  0  0  0
  8 62  1  0  0  0
  9 63  1  0  0  0
 10 64  1  0  0  0
 11 65  1  0  0  0
 12 66  1  0  0  0
 13 67  1  0  0  0
 13 68  1  0  0  0
 15 69  1  0  0  0
 16 70  1  0  0  0
 17 71  1  0  0  0
 18 72  1  0  0  0
 21 73  1  0  0  0
 22 74  1  0  0  0
 23 75  1  0  0  0
 24 76  1  0  0  0
 24 77  1  0  0  0
 24 78  1  0  0  0
 25 79  1  0  0  0
 25 80  1  0  0  0
 25 81  1  0  0  0
 28 82  1  0  0  0
 29 83  1  0  0  0
 29 84  1  0  0  0
 31 85  1  0  0  0
 31 86  1  0  0  0
 32 87  1  0  0  0
 33 88  1  0  0  0
 36 89  1  0  0  0
 37 90  1  0  0  0
 38 91  1  0  0  0
 39 92  1  0  0  0
 39 93  1  0  0  0
 39 94  1  0  0  0
 40 95  1  0  0  0
 40 96  1  0  0  0
 40 97  1  0  0  0
 43 98  1  0  0  0
 44 99  1  0  0  0
 44100  1  0  0  0
 46101  1  0  0  0
 47102  1  0  0  0
 48103  1  0  0  0
 49104  1  0  0  0
 52105  1  0  0  0
 53106  1  0  0  0
 54107  1  0  0  0
 55108  1  0  0  0
M  END
$$$$
