6f9g_ligand
  -I-interpret- 

 20 19  0  0  0  0  0  0  0  0999 V2000
   53.7720   71.5710   41.4200 N   0  3  0  0  0
   53.0160   71.0060   40.3170 C   0  0  0  0  0
   51.7070   71.7730   40.1420 C   0  0  0  0  0
   51.9940   73.1930   39.6600 C   0  0  0  0  0
   52.5850   73.1470   38.2520 C   0  0  0  0  0
   53.3450   74.3600   38.0100 N   0  3  0  0  0
   54.6447   71.0550   41.5321 H   0  0  0  0  0
   53.9776   72.5505   41.2232 H   0  0  0  0  0
   53.2230   71.5031   42.2770 H   0  0  0  0  0
   52.7956   69.9598   40.5291 H   0  0  0  0  0
   53.6030   71.0805   39.4016 H   0  0  0  0  0
   51.1868   71.8174   41.0988 H   0  0  0  0  0
   51.0880   71.2622   39.4044 H   0  0  0  0  0
   52.7052   73.6680   40.3358 H   0  0  0  0  0
   51.0660   73.7646   39.6447 H   0  0  0  0  0
   51.7801   73.0691   37.5211 H   0  0  0  0  0
   53.2409   72.2813   38.1600 H   0  0  0  0  0
   53.7401   74.3304   37.0701 H   0  0  0  0  0
   52.7291   75.1685   38.0959 H   0  0  0  0  0
   54.0979   74.4303   38.6946 H   0  0  0  0  0
  1  2  1  0  0  0
  2  3  1  0  0  0
  3  4  1  0  0  0
  4  5  1  0  0  0
  5  6  1  0  0  0
  1  7  1  0  0  0
  1  8  1  0  0  0
  1  9  1  0  0  0
  2 10  1  0  0  0
  2 11  1  0  0  0
  3 12  1  0  0  0
  3 13  1  0  0  0
  4 14  1  0  0  0
  4 15  1  0  0  0
  5 16  1  0  0  0
  5 17  1  0  0  0
  6 18  1  0  0  0
  6 19  1  0  0  0
  6 20  1  0  0  0
M  END
$$$$
