2p95_ligand
  -I-interpret- 

 50 53  0  0  0  0  0  0  0  0999 V2000
    8.5460   44.9450   63.3800 C   0  0  0  0  0
    9.2960   43.8860   65.5000 C   0  0  0  0  0
    9.5640   44.5380   64.2590 C   0  0  0  0  0
    7.1490   42.1470   59.3580 C   0  0  0  0  0
    5.0430   45.6160   63.4870 C   0  0  0  0  0
    4.3840   44.5050   64.2690 C   0  0  0  0  0
    4.9380   43.4190   63.3770 C   0  0  0  0  0
    5.3910   43.9790   62.0470 C   0  0  0  0  0
    8.2100   41.1690   57.3330 C   0  0  0  0  0
    9.8560   38.1880   57.5390 C   0  0  0  0  0
    8.0650   39.8260   57.9090 C   0  0  0  0  0
    6.2320   45.1160   62.6690 C   0  0  0  0  0
    7.9520   38.3560   55.9760 C   0  0  0  0  0
    6.9270   40.8070   59.9310 C   0  0  0  0  0
    8.5610   37.3230   55.0740 C   0  0  0  0  0
    6.5160   43.2810   60.0360 C   0  0  0  0  0
    7.7670   42.3340   58.0690 C   0  0  0  0  0
    8.6440   38.7530   57.1830 N   0  0  0  0  0
    7.3760   39.6420   59.1940 C   0  0  0  0  0
   10.4500   37.1960   56.6830 C   0  0  0  0  0
    9.8230   36.7760   55.4800 C   0  0  0  0  0
    6.8730   38.8870   55.7130 O   0  0  0  0  0
    6.1040   42.9900   61.2850 N   0  0  0  0  0
    6.3440   44.3830   59.5350 O   0  0  0  0  0
    7.2460   44.5470   63.6360 N   0  0  0  0  0
    8.8650   45.6540   62.4180 O   0  0  0  0  0
   10.5370   43.6020   66.1500 C   0  0  0  0  0
   11.2170   44.7820   63.9130 S   0  0  0  0  0
   11.6830   44.0440   65.3680 C   0  0  0  0  0
   13.4130   43.8570   65.7830 Cl  0  0  0  0  0
    8.3067   43.6442   65.8886 H   0  0  0  0  0
    5.4066   46.3607   64.1950 H   0  0  0  0  0
    4.3066   46.0301   62.7983 H   0  0  0  0  0
    3.3039   44.5498   64.4084 H   0  0  0  0  0
    4.5887   44.4418   65.3377 H   0  0  0  0  0
    4.1531   42.6848   63.1954 H   0  0  0  0  0
    5.7962   42.9660   63.8734 H   0  0  0  0  0
    4.6594   44.2972   61.3043 H   0  0  0  0  0
    8.6541   41.2893   56.3449 H   0  0  0  0  0
   10.3557   38.4916   58.4589 H   0  0  0  0  0
    6.7875   45.7844   62.0112 H   0  0  0  0  0
    6.4321   40.6936   60.8955 H   0  0  0  0  0
    8.0685   37.0041   54.1554 H   0  0  0  0  0
    7.8982   43.3343   57.6563 H   0  0  0  0  0
    7.2044   38.6406   59.5887 H   0  0  0  0  0
   11.4062   36.7553   56.9651 H   0  0  0  0  0
   10.3085   36.0261   54.8554 H   0  0  0  0  0
    6.2968   42.0730   61.6880 H   0  0  0  0  0
    6.9946   43.9270   64.4059 H   0  0  0  0  0
   10.6164   43.1109   67.1198 H   0  0  0  0  0
  1  3  1  0  0  0
 25  1  1  0  0  0
  1 26  2  0  0  0
  3  2  4  0  0  0
  2 27  4  0  0  0
  3 28  4  0  0  0
  4 14  4  0  0  0
 16  4  1  0  0  0
  4 17  4  0  0  0
  5  6  1  0  0  0
 12  5  1  0  0  0
  7  6  1  0  0  0
  8  7  1  0  0  0
  8 12  1  0  0  0
 23  8  1  0  0  0
  9 11  4  0  0  0
 17  9  4  0  0  0
 18 10  1  0  0  0
 10 20  2  0  0  0
 11 18  1  0  0  0
 19 11  4  0  0  0
 12 25  1  0  0  0
 13 15  1  0  0  0
 18 13  1  0  0  0
 13 22  2  0  0  0
 14 19  4  0  0  0
 15 21  2  0  0  0
 16 23  1  0  0  0
 16 24  2  0  0  0
 20 21  1  0  0  0
 27 29  4  0  0  0
 28 29  4  0  0  0
 29 30  1  0  0  0
  2 31  1  0  0  0
  5 32  1  0  0  0
  5 33  1  0  0  0
  6 34  1  0  0  0
  6 35  1  0  0  0
  7 36  1  0  0  0
  7 37  1  0  0  0
  8 38  1  0  0  0
  9 39  1  0  0  0
 10 40  1  0  0  0
 12 41  1  0  0  0
 14 42  1  0  0  0
 15 43  1  0  0  0
 17 44  1  0  0  0
 19 45  1  0  0  0
 20 46  1  0  0  0
 21 47  1  0  0  0
 23 48  1  0  0  0
 25 49  1  0  0  0
 27 50  1  0  0  0
M  END
$$$$
