2nn8_ligand
  -I-interpret- 

 45 46  0  0  0  0  0  0  0  0999 V2000
   20.2520   37.6300   32.8210 C   0  0  0  0  0
   18.7740   38.0010   32.7830 C   0  0  0  0  0
   17.9010   36.7820   33.0530 C   0  0  0  0  0
   18.2970   35.6230   32.1550 C   0  0  0  0  0
   19.7890   35.3500   32.3000 C   0  0  0  0  0
   20.2490   34.2170   31.3990 C   0  0  0  0  0
   21.0060   38.7560   32.3800 O   0  0  0  0  0
   18.5190   38.9840   33.7920 O   0  0  0  0  0
   16.5300   37.1130   32.8200 O   0  0  0  0  0
   17.9690   35.9540   30.7930 O   0  0  0  0  0
   20.5220   36.5290   31.9490 O   0  0  0  0  0
   21.6570   34.0580   31.5740 O   0  0  0  0  0
   25.0600   39.8950   32.7080 C   0  0  0  0  0
   24.6360   39.0970   31.4720 C   0  0  0  0  0
   23.1200   39.1070   31.3010 C   0  0  0  0  0
   22.4180   38.6520   32.5770 C   0  0  0  0  0
   22.8980   39.5070   33.7630 C   0  0  0  0  0
   22.3130   39.0650   35.1050 C   0  0  0  0  0
   26.4560   39.6730   32.9310 O   0  0  0  0  0
   25.2510   39.6350   30.2970 O   0  0  0  0  0
   22.7690   38.2560   30.2060 O   0  0  0  0  0
   24.3300   39.4410   33.8570 O   0  0  0  0  0
   22.5920   37.6770   35.3410 O   0  0  0  0  0
   20.5231   37.3460   33.8378 H   0  0  0  0  0
   18.5356   38.3904   31.7932 H   0  0  0  0  0
   18.0407   36.4825   34.0917 H   0  0  0  0  0
   17.7542   34.7225   32.4423 H   0  0  0  0  0
   19.9716   35.0652   33.3362 H   0  0  0  0  0
   20.0226   34.4480   30.3581 H   0  0  0  0  0
   19.7305   33.2943   31.6597 H   0  0  0  0  0
   19.0653   39.7566   33.6298 H   0  0  0  0  0
   16.2780   37.8456   33.3870 H   0  0  0  0  0
   17.0263   36.1219   30.7238 H   0  0  0  0  0
   21.9696   33.3451   31.0122 H   0  0  0  0  0
   24.8574   40.9541   32.5487 H   0  0  0  0  0
   24.9631   38.0672   31.6154 H   0  0  0  0  0
   22.7935   40.1261   31.0938 H   0  0  0  0  0
   22.6597   37.6139   32.8049 H   0  0  0  0  0
   22.5533   40.5223   33.5666 H   0  0  0  0  0
   21.2330   39.2114   35.0865 H   0  0  0  0  0
   22.7641   39.6576   35.9009 H   0  0  0  0  0
   26.7380   40.1674   33.7040 H   0  0  0  0  0
   24.9762   39.1252   29.5314 H   0  0  0  0  0
   21.8156   38.2581   30.0933 H   0  0  0  0  0
   22.2186   37.4159   36.1860 H   0  0  0  0  0
  1  2  1  0  0  0
  7  1  1  0  0  0
  1 11  1  0  0  0
  2  3  1  0  0  0
  2  8  1  0  0  0
  3  4  1  0  0  0
  3  9  1  0  0  0
  5  4  1  0  0  0
  4 10  1  0  0  0
  5  6  1  0  0  0
 11  5  1  0  0  0
  6 12  1  0  0  0
 16  7  1  0  0  0
 14 13  1  0  0  0
 13 19  1  0  0  0
 13 22  1  0  0  0
 15 14  1  0  0  0
 14 20  1  0  0  0
 15 16  1  0  0  0
 15 21  1  0  0  0
 16 17  1  0  0  0
 17 18  1  0  0  0
 17 22  1  0  0  0
 18 23  1  0  0  0
  1 24  1  0  0  0
  2 25  1  0  0  0
  3 26  1  0  0  0
  4 27  1  0  0  0
  5 28  1  0  0  0
  6 29  1  0  0  0
  6 30  1  0  0  0
  8 31  1  0  0  0
  9 32  1  0  0  0
 10 33  1  0  0  0
 12 34  1  0  0  0
 13 35  1  0  0  0
 14 36  1  0  0  0
 15 37  1  0  0  0
 16 38  1  0  0  0
 17 39  1  0  0  0
 18 40  1  0  0  0
 18 41  1  0  0  0
 19 42  1  0  0  0
 20 43  1  0  0  0
 21 44  1  0  0  0
 23 45  1  0  0  0
M  END
$$$$
