4nrb_ligand
  -I-interpret- 

 34 35  0  0  0  0  0  0  0  0999 V2000
   25.1110   11.3590    0.3980 C   0  0  0  0  0
   26.2190   10.3390    0.4200 N   0  0  0  0  0
   25.8590    8.9020    0.8110 C   0  0  0  0  0
   26.9650    7.8870    0.8310 C   0  0  0  0  0
   26.5710    6.5400    1.2560 C   0  0  0  0  0
   27.5480    5.5010    1.4040 C   0  0  0  0  0
   28.9260    5.7900    1.0130 C   0  0  0  0  0
   29.3580    7.0530    0.5520 C   0  0  0  0  0
   28.4130    8.1320    0.4610 C   0  0  0  0  0
   28.7950    9.3760    0.0180 O   0  0  0  0  0
   30.0170    9.8770   -0.2090 C   0  0  0  0  0
   29.9150   11.1030   -1.0370 C   0  0  0  0  0
   31.2920   11.7180   -1.2790 C   0  0  0  0  0
   31.8770   12.0040   -0.0060 O   0  0  0  0  0
   32.0340   10.7950    0.9620 C   0  0  0  0  0
   30.7210   10.0870    1.1070 C   0  0  0  0  0
   24.5650    8.6000    1.1280 O   0  0  0  0  0
   24.3488   11.0503   -0.3174 H   0  0  0  0  0
   24.6691   11.4350    1.3915 H   0  0  0  0  0
   25.5161   12.3273    0.1041 H   0  0  0  0  0
   27.1770   10.5963    0.1825 H   0  0  0  0  0
   25.5223    6.3259    1.4620 H   0  0  0  0  0
   27.2706    4.5230    1.7972 H   0  0  0  0  0
   29.6602    4.9873    1.0808 H   0  0  0  0  0
   30.3988    7.2081    0.2678 H   0  0  0  0  0
   30.6246    9.1764   -0.7818 H   0  0  0  0  0
   29.2958   11.8294   -0.5106 H   0  0  0  0  0
   29.4765   10.8389   -1.9993 H   0  0  0  0  0
   31.1988   12.6323   -1.8650 H   0  0  0  0  0
   31.9219   11.0245   -1.8361 H   0  0  0  0  0
   32.3592   11.1547    1.9382 H   0  0  0  0  0
   32.7736   10.1036    0.5582 H   0  0  0  0  0
   30.9187    9.1057    1.5383 H   0  0  0  0  0
   30.0776   10.7053    1.7329 H   0  0  0  0  0
  1  2  1  0  0  0
  2  3  1  0  0  0
  3  4  1  0  0  0
  3 17  2  0  0  0
  4  5  4  0  0  0
  4  9  4  0  0  0
  5  6  4  0  0  0
  6  7  4  0  0  0
  7  8  4  0  0  0
  8  9  4  0  0  0
  9 10  1  0  0  0
 10 11  1  0  0  0
 11 12  1  0  0  0
 11 16  1  0  0  0
 12 13  1  0  0  0
 13 14  1  0  0  0
 14 15  1  0  0  0
 15 16  1  0  0  0
  1 18  1  0  0  0
  1 19  1  0  0  0
  1 20  1  0  0  0
  2 21  1  0  0  0
  5 22  1  0  0  0
  6 23  1  0  0  0
  7 24  1  0  0  0
  8 25  1  0  0  0
 11 26  1  0  0  0
 12 27  1  0  0  0
 12 28  1  0  0  0
 13 29  1  0  0  0
 13 30  1  0  0  0
 15 31  1  0  0  0
 15 32  1  0  0  0
 16 33  1  0  0  0
 16 34  1  0  0  0
M  END
$$$$
