2qnz_ligand
  -I-interpret- 

 35 34  0  0  0  0  0  0  0  0999 V2000
   35.2460   44.3170   33.6920 C   0  0  0  0  0
   34.0010   43.4680   33.8700 C   0  0  0  0  0
   33.8850   42.9120   35.2880 C   0  0  0  0  0
   32.7410   41.9110   35.4370 C   0  0  0  0  0
   33.1880   40.4840   35.1430 C   0  0  0  0  0
   32.0870   39.4710   35.4340 C   0  0  0  0  0
   32.2860   38.8280   36.8020 C   0  0  0  0  0
   31.5050   37.5280   36.9090 C   0  0  0  0  0
   31.9750   36.7130   38.1040 C   0  0  0  0  0
   30.7860   36.1710   38.8820 C   0  0  0  0  0
   31.1720   34.9650   39.5380 O   0  0  0  0  0
   30.1810   34.0780   40.1270 C   0  0  0  0  0
   29.3750   34.5390   40.9120 O   0  0  0  0  0
   35.2137   45.1570   34.3859 H   0  0  0  0  0
   36.1293   43.7111   33.8939 H   0  0  0  0  0
   35.2862   44.6906   32.6688 H   0  0  0  0  0
   34.0599   42.6277   33.1783 H   0  0  0  0  0
   33.1305   44.0952   33.6777 H   0  0  0  0  0
   33.6883   43.7474   35.9600 H   0  0  0  0  0
   34.8153   42.3942   35.5216 H   0  0  0  0  0
   31.9606   42.1771   34.7241 H   0  0  0  0  0
   32.3853   41.9512   36.4665 H   0  0  0  0  0
   34.0405   40.2547   35.7824 H   0  0  0  0  0
   33.4426   40.4171   34.0853 H   0  0  0  0  0
   32.1181   38.6915   34.6727 H   0  0  0  0  0
   31.1262   39.9857   35.4253 H   0  0  0  0  0
   31.9283   39.5159   37.5681 H   0  0  0  0  0
   33.3459   38.6124   36.9372 H   0  0  0  0  0
   31.6651   36.9459   36.0015 H   0  0  0  0  0
   30.4482   37.7622   37.0368 H   0  0  0  0  0
   32.5639   37.3543   38.7597 H   0  0  0  0  0
   32.5752   35.8760   37.7471 H   0  0  0  0  0
   29.9603   35.9703   38.1993 H   0  0  0  0  0
   30.4645   36.9050   39.6209 H   0  0  0  0  0
   30.1613   33.0191   39.8693 H   0  0  0  0  0
  1  2  1  0  0  0
  2  3  1  0  0  0
  3  4  1  0  0  0
  4  5  1  0  0  0
  5  6  1  0  0  0
  6  7  1  0  0  0
  7  8  1  0  0  0
  8  9  1  0  0  0
  9 10  1  0  0  0
 10 11  1  0  0  0
 11 12  1  0  0  0
 12 13  2  0  0  0
  1 14  1  0  0  0
  1 15  1  0  0  0
  1 16  1  0  0  0
  2 17  1  0  0  0
  2 18  1  0  0  0
  3 19  1  0  0  0
  3 20  1  0  0  0
  4 21  1  0  0  0
  4 22  1  0  0  0
  5 23  1  0  0  0
  5 24  1  0  0  0
  6 25  1  0  0  0
  6 26  1  0  0  0
  7 27  1  0  0  0
  7 28  1  0  0  0
  8 29  1  0  0  0
  8 30  1  0  0  0
  9 31  1  0  0  0
  9 32  1  0  0  0
 10 33  1  0  0  0
 10 34  1  0  0  0
 12 35  1  0  0  0
M  END
$$$$
