4yz9_ligand
  -I-interpret- 

 60 63  0  0  0  0  0  0  0  0999 V2000
  -72.1360   17.4250  -18.1970 C   0  0  0  0  0
  -70.4360   18.9130  -17.3040 C   0  0  0  0  0
  -72.8920   18.5340  -18.5940 C   0  0  0  0  0
  -71.1920   20.0210  -17.7030 C   0  0  0  0  0
  -67.2500   22.9080  -14.5350 C   0  0  0  0  0
  -66.8930   21.5550  -14.5080 C   0  0  0  0  0
  -67.7600   22.7250  -16.8880 C   0  0  0  0  0
  -70.9090   17.6220  -17.5550 C   0  0  0  0  0
  -72.4180   19.8310  -18.3510 C   0  0  0  0  0
  -67.6890   23.4980  -15.7250 C   0  0  0  0  0
  -66.9690   20.7830  -15.6740 C   0  0  0  0  0
  -67.4050   21.3730  -16.8630 C   0  0  0  0  0
  -73.3730   22.1020  -16.5870 C   0  0  0  0  0
  -73.6020   24.3150  -13.5690 C   0  0  0  0  0
  -72.2920   25.1180  -13.6870 C   0  0  0  0  0
  -71.4120   26.5310  -15.6070 C   0  0  0  0  0
  -73.5790   22.9940  -14.3420 C   0  0  0  0  0
  -72.6520   24.4510  -16.1400 C   0  0  0  0  0
  -69.8910   26.5370  -15.8620 C   0  0  0  0  0
  -70.3450   24.3450  -15.1300 C   0  0  0  0  0
  -71.6980   25.0980  -15.1160 C   0  0  0  0  0
  -70.0900   16.4420  -17.1170 C   0  0  0  0  0
  -73.2420   21.0200  -18.7790 C   0  0  0  0  0
  -68.0800   24.9640  -15.7510 C   0  0  0  0  0
  -73.2090   23.1380  -15.7550 N   0  0  0  0  0
  -73.0330   22.1650  -17.8760 N   0  0  0  0  0
  -69.5180   25.1260  -16.0550 N   0  3  0  0  0
  -73.8660   21.0470  -16.1290 O   0  0  0  0  0
  -66.5300   19.1010  -15.6510 Cl  0  0  0  0  0
  -67.5120   20.4350  -18.3210 Cl  0  0  0  0  0
  -72.5007   16.4155  -18.3867 H   0  0  0  0  0
  -69.4808   19.0564  -16.7988 H   0  0  0  0  0
  -73.8504   18.3892  -19.0927 H   0  0  0  0  0
  -70.8269   21.0297  -17.5096 H   0  0  0  0  0
  -67.1857   23.5045  -13.6250 H   0  0  0  0  0
  -66.5548   21.1008  -13.5767 H   0  0  0  0  0
  -68.0944   23.1796  -17.8205 H   0  0  0  0  0
  -74.4006   24.9267  -13.9887 H   0  0  0  0  0
  -73.7464   24.0760  -12.5154 H   0  0  0  0  0
  -71.5620   24.6633  -13.0173 H   0  0  0  0  0
  -72.5137   26.1547  -13.4338 H   0  0  0  0  0
  -71.9831   26.7850  -16.5000 H   0  0  0  0  0
  -71.7137   27.2860  -14.8810 H   0  0  0  0  0
  -74.5881   22.5830  -14.3114 H   0  0  0  0  0
  -72.8283   22.3574  -13.8736 H   0  0  0  0  0
  -72.0675   24.2853  -17.0450 H   0  0  0  0  0
  -73.5000   25.1281  -16.2430 H   0  0  0  0  0
  -69.3484   26.9827  -15.0283 H   0  0  0  0  0
  -69.6348   27.1402  -16.7330 H   0  0  0  0  0
  -70.4516   23.3069  -15.4449 H   0  0  0  0  0
  -69.9008   24.2724  -14.1373 H   0  0  0  0  0
  -70.6647   15.8453  -16.4087 H   0  0  0  0  0
  -69.8377   15.8339  -17.9857 H   0  0  0  0  0
  -69.1752   16.7933  -16.6398 H   0  0  0  0  0
  -74.2955   20.7419  -18.7505 H   0  0  0  0  0
  -72.9385   21.3100  -19.7849 H   0  0  0  0  0
  -67.5009   25.4658  -16.5262 H   0  0  0  0  0
  -67.8800   25.3958  -14.7704 H   0  0  0  0  0
  -72.6204   23.0226  -18.2430 H   0  0  0  0  0
  -69.6716   24.8128  -17.0135 H   0  0  0  0  0
  3  1  4  0  0  0
  1  8  4  0  0  0
  4  2  4  0  0  0
  2  8  4  0  0  0
  9  3  4  0  0  0
  9  4  4  0  0  0
  5  6  4  0  0  0
 10  5  4  0  0  0
  6 11  4  0  0  0
 10  7  4  0  0  0
  7 12  4  0  0  0
  8 22  1  0  0  0
 23  9  1  0  0  0
 24 10  1  0  0  0
 12 11  4  0  0  0
 11 29  1  0  0  0
 12 30  1  0  0  0
 25 13  1  0  0  0
 13 26  1  0  0  0
 13 28  2  0  0  0
 15 14  1  0  0  0
 14 17  1  0  0  0
 21 15  1  0  0  0
 19 16  1  0  0  0
 21 16  1  0  0  0
 25 17  1  0  0  0
 21 18  1  0  0  0
 18 25  1  0  0  0
 27 19  1  0  0  0
 20 21  1  0  0  0
 27 20  1  0  0  0
 26 23  1  0  0  0
 24 27  1  0  0  0
  1 31  1  0  0  0
  2 32  1  0  0  0
  3 33  1  0  0  0
  4 34  1  0  0  0
  5 35  1  0  0  0
  6 36  1  0  0  0
  7 37  1  0  0  0
 14 38  1  0  0  0
 14 39  1  0  0  0
 15 40  1  0  0  0
 15 41  1  0  0  0
 16 42  1  0  0  0
 16 43  1  0  0  0
 17 44  1  0  0  0
 17 45  1  0  0  0
 18 46  1  0  0  0
 18 47  1  0  0  0
 19 48  1  0  0  0
 19 49  1  0  0  0
 20 50  1  0  0  0
 20 51  1  0  0  0
 22 52  1  0  0  0
 22 53  1  0  0  0
 22 54  1  0  0  0
 23 55  1  0  0  0
 23 56  1  0  0  0
 24 57  1  0  0  0
 24 58  1  0  0  0
 26 59  1  0  0  0
 27 60  1  0  0  0
M  END
$$$$
