6htz_ligand
  -I-interpret- 

 38 39  0  0  0  0  0  0  0  0999 V2000
   43.3030   35.8250   84.7480 C   0  0  0  0  0
   45.2510   34.0450   85.6240 C   0  0  0  0  0
   44.8380   34.0500   84.2920 C   0  0  0  0  0
   44.7030   34.9630   86.5170 C   0  0  0  0  0
   41.8090   36.6920   83.0990 C   0  0  0  0  0
   43.6570   37.7790   87.6620 C   0  0  0  0  0
   42.7070   38.4870   88.6080 C   0  0  0  0  0
   43.4020   39.4740   89.5190 C   0  0  0  0  0
   43.2440   40.8410   89.3350 C   0  0  0  0  0
   43.9100   41.7470   90.1440 C   0  0  0  0  0
   44.7410   41.2990   91.1490 C   0  0  0  0  0
   44.9000   39.9440   91.3470 C   0  0  0  0  0
   44.2340   39.0370   90.5400 C   0  0  0  0  0
   46.1940   32.9830   86.0940 C   0  0  0  0  0
   43.8650   34.9300   83.8530 C   0  0  0  0  0
   43.7250   35.8560   86.0860 C   0  0  0  0  0
   43.0930   36.7850   86.9440 N   0  0  0  0  0
   46.3210   31.9610   85.2500 N   0  0  0  0  0
   46.9880   30.7900   85.6070 O   0  0  0  0  0
   42.3030   36.7020   84.4390 O   0  0  0  0  0
   44.8420   38.0880   87.5830 O   0  0  0  0  0
   46.7530   33.0510   87.1910 O   0  0  0  0  0
   45.2880   33.3509   83.5871 H   0  0  0  0  0
   45.0398   34.9824   87.5535 H   0  0  0  0  0
   42.6219   36.9264   82.4117 H   0  0  0  0  0
   41.4094   35.7046   82.8678 H   0  0  0  0  0
   41.0201   37.4374   82.9984 H   0  0  0  0  0
   42.2396   37.7289   89.2364 H   0  0  0  0  0
   41.9905   39.0427   88.0031 H   0  0  0  0  0
   42.5881   41.2057   88.5445 H   0  0  0  0  0
   43.7768   42.8172   89.9857 H   0  0  0  0  0
   45.2688   42.0116   91.7828 H   0  0  0  0  0
   45.5530   39.5849   92.1425 H   0  0  0  0  0
   44.3647   37.9681   90.7086 H   0  0  0  0  0
   43.5434   34.9190   82.8116 H   0  0  0  0  0
   42.0810   36.6922   87.0317 H   0  0  0  0  0
   45.9189   32.0370   84.3157 H   0  0  0  0  0
   46.9729   30.1767   84.8686 H   0  0  0  0  0
  1 15  4  0  0  0
 16  1  4  0  0  0
  1 20  1  0  0  0
  2  3  4  0  0  0
  4  2  4  0  0  0
  2 14  1  0  0  0
 15  3  4  0  0  0
 16  4  4  0  0  0
 20  5  1  0  0  0
  6  7  1  0  0  0
 17  6  1  0  0  0
  6 21  2  0  0  0
  7  8  1  0  0  0
  8  9  4  0  0  0
  8 13  4  0  0  0
  9 10  4  0  0  0
 10 11  4  0  0  0
 12 11  4  0  0  0
 13 12  4  0  0  0
 14 18  1  0  0  0
 14 22  2  0  0  0
 16 17  1  0  0  0
 18 19  1  0  0  0
  3 23  1  0  0  0
  4 24  1  0  0  0
  5 25  1  0  0  0
  5 26  1  0  0  0
  5 27  1  0  0  0
  7 28  1  0  0  0
  7 29  1  0  0  0
  9 30  1  0  0  0
 10 31  1  0  0  0
 11 32  1  0  0  0
 12 33  1  0  0  0
 13 34  1  0  0  0
 15 35  1  0  0  0
 17 36  1  0  0  0
 18 37  1  0  0  0
 19 38  1  0  0  0
M  END
$$$$
