3pe1_ligand
  -I-interpret- 

 37 40  0  0  0  0  0  0  0  0999 V2000
   22.8240  -31.1000   13.9140 C   0  0  0  0  0
   22.9680  -30.9530   12.5510 C   0  0  0  0  0
   23.0140  -32.1010   11.7110 C   0  0  0  0  0
   22.9010  -33.3760   12.2760 C   0  0  0  0  0
   22.7470  -33.5340   13.6650 C   0  0  0  0  0
   22.7120  -32.4030   14.4840 C   0  0  0  0  0
   23.0290  -28.5330   12.8630 C   0  0  0  0  0
   23.0820  -29.6040   11.9900 C   0  0  0  0  0
   22.7630  -29.9970   14.7610 N   0  0  0  0  0
   22.8630  -28.7490   14.2670 C   0  0  0  0  0
   23.2860  -27.0390   10.9500 C   0  0  0  0  0
   23.3340  -28.1060   10.1210 N   0  0  0  0  0
   23.2310  -29.3630   10.5980 C   0  0  0  0  0
   23.1340  -27.2130   12.3230 C   0  0  0  0  0
   22.7820  -27.5810   15.0880 N   0  0  0  0  0
   22.6370  -27.5510   16.5100 C   0  0  0  0  0
   23.0770  -28.5820   17.3350 C   0  0  0  0  0
   22.9160  -28.4710   18.7120 C   0  0  0  0  0
   22.3210  -27.3460   19.2560 C   0  0  0  0  0
   21.8940  -26.3220   18.4330 C   0  0  0  0  0
   22.0500  -26.4220   17.0650 C   0  0  0  0  0
   23.4190  -29.7360   19.7820 Cl  0  0  0  0  0
   22.5630  -34.9060   14.2460 C   0  0  0  0  0
   22.7240  -34.9030   15.4900 O   0  0  0  0  0
   22.1500  -35.6830   13.3550 O   0  0  0  0  0
   23.1365  -31.9876   10.6339 H   0  0  0  0  0
   22.9326  -34.2557   11.6332 H   0  0  0  0  0
   22.5987  -32.5164   15.5622 H   0  0  0  0  0
   23.3671  -26.0326   10.5394 H   0  0  0  0  0
   23.2625  -30.2050    9.9066 H   0  0  0  0  0
   23.0952  -26.3468   12.9835 H   0  0  0  0  0
   22.8327  -26.6803   14.6121 H   0  0  0  0  0
   23.5436  -29.4686   16.9057 H   0  0  0  0  0
   22.1892  -27.2679   20.3352 H   0  0  0  0  0
   21.4331  -25.4335   18.8645 H   0  0  0  0  0
   21.7113  -25.6122   16.4188 H   0  0  0  0  0
   23.0844  -34.0561   15.7628 H   0  0  0  0  0
  2  1  4  0  0  0
  1  6  4  0  0  0
  9  1  4  0  0  0
  2  3  4  0  0  0
  8  2  4  0  0  0
  3  4  4  0  0  0
  4  5  4  0  0  0
  6  5  4  0  0  0
  5 23  1  0  0  0
  7  8  4  0  0  0
  7 10  4  0  0  0
 14  7  4  0  0  0
  8 13  4  0  0  0
 10  9  4  0  0  0
 10 15  1  0  0  0
 11 12  4  0  0  0
 11 14  4  0  0  0
 12 13  4  0  0  0
 15 16  1  0  0  0
 16 17  4  0  0  0
 16 21  4  0  0  0
 17 18  4  0  0  0
 18 19  4  0  0  0
 18 22  1  0  0  0
 19 20  4  0  0  0
 20 21  4  0  0  0
 23 24  1  0  0  0
 23 25  2  0  0  0
  3 26  1  0  0  0
  4 27  1  0  0  0
  6 28  1  0  0  0
 11 29  1  0  0  0
 13 30  1  0  0  0
 14 31  1  0  0  0
 15 32  1  0  0  0
 17 33  1  0  0  0
 19 34  1  0  0  0
 20 35  1  0  0  0
 21 36  1  0  0  0
 24 37  1  0  0  0
M  END
$$$$
