5c42_ligand
  -I-interpret- 

 45 48  0  0  0  0  0  0  0  0999 V2000
  497.0250  -24.4730   26.0140 C   0  0  0  0  0
  496.3820  -22.8030   27.4040 C   0  0  0  0  0
  497.0660  -23.9860   27.3500 C   0  0  0  0  0
  497.7590  -24.7000   28.4040 C   0  0  0  0  0
  494.5860  -24.6430   19.7380 C   0  0  0  0  0
  495.5740  -24.0590   18.9140 C   0  0  0  0  0
  496.7790  -23.5910   19.4790 C   0  0  0  0  0
  496.9990  -23.7060   20.8650 C   0  0  0  0  0
  496.0110  -24.2920   21.6980 C   0  0  0  0  0
  494.7890  -24.7680   21.1460 C   0  0  0  0  0
  496.2420  -24.3960   23.0510 O   0  0  0  0  0
  495.8580  -23.3880   23.9080 C   0  0  0  0  0
  496.2810  -23.5310   25.2640 C   0  0  0  0  0
  495.8960  -22.5130   26.1350 N   0  0  0  0  0
  495.1540  -21.4000   25.7960 C   0  0  0  0  0
  494.7350  -21.2250   24.5260 C   0  0  0  0  0
  495.0880  -22.2330   23.5470 C   0  0  0  0  0
  498.3060  -25.2760   29.2430 N   0  0  0  0  0
  493.8850  -25.3250   22.0320 O   0  0  0  0  0
  492.5510  -25.6120   21.6700 C   0  0  0  0  0
  491.9360  -26.4880   22.7370 C   0  0  0  0  0
  492.6580  -27.7520   23.0350 N   0  0  0  0  0
  492.6930  -28.8700   22.2200 C   0  0  0  0  0
  493.4180  -29.9250   22.6770 N   0  0  0  0  0
  494.1180  -30.0250   23.8350 C   0  0  0  0  0
  494.0710  -28.8320   24.6810 C   0  0  0  0  0
  493.3600  -27.7480   24.2740 C   0  0  0  0  0
  492.1200  -28.9630   21.1380 O   0  0  0  0  0
  494.7350  -31.0470   24.1220 O   0  0  0  0  0
  497.4778  -25.3916   25.6410 H   0  0  0  0  0
  496.2415  -22.1898   28.2941 H   0  0  0  0  0
  493.6578  -25.0024   19.2937 H   0  0  0  0  0
  495.4051  -23.9700   17.8409 H   0  0  0  0  0
  497.5402  -23.1401   18.8422 H   0  0  0  0  0
  497.9309  -23.3439   21.2993 H   0  0  0  0  0
  494.9058  -20.6601   26.5569 H   0  0  0  0  0
  494.1480  -20.3508   24.2444 H   0  0  0  0  0
  494.7615  -22.1110   22.5142 H   0  0  0  0  0
  492.5311  -26.1287   20.7104 H   0  0  0  0  0
  491.9844  -24.6851   21.5805 H   0  0  0  0  0
  490.9519  -26.7765   22.3676 H   0  0  0  0  0
  491.9469  -25.9041   23.6573 H   0  0  0  0  0
  493.4384  -30.7462   22.0723 H   0  0  0  0  0
  494.6032  -28.8130   25.6321 H   0  0  0  0  0
  493.3264  -26.8607   24.9063 H   0  0  0  0  0
  1  3  4  0  0  0
 13  1  4  0  0  0
  3  2  4  0  0  0
  2 14  4  0  0  0
  3  4  1  0  0  0
  4 18  3  0  0  0
  5  6  4  0  0  0
 10  5  4  0  0  0
  7  6  4  0  0  0
  8  7  4  0  0  0
  9  8  4  0  0  0
  9 10  4  0  0  0
 11  9  1  0  0  0
 10 19  1  0  0  0
 12 11  1  0  0  0
 12 13  4  0  0  0
 12 17  4  0  0  0
 13 14  4  0  0  0
 14 15  4  0  0  0
 15 16  4  0  0  0
 16 17  4  0  0  0
 19 20  1  0  0  0
 20 21  1  0  0  0
 21 22  1  0  0  0
 22 23  1  0  0  0
 22 27  1  0  0  0
 23 24  1  0  0  0
 23 28  2  0  0  0
 24 25  1  0  0  0
 25 26  1  0  0  0
 25 29  2  0  0  0
 26 27  2  0  0  0
  1 30  1  0  0  0
  2 31  1  0  0  0
  5 32  1  0  0  0
  6 33  1  0  0  0
  7 34  1  0  0  0
  8 35  1  0  0  0
 15 36  1  0  0  0
 16 37  1  0  0  0
 17 38  1  0  0  0
 20 39  1  0  0  0
 20 40  1  0  0  0
 21 41  1  0  0  0
 21 42  1  0  0  0
 24 43  1  0  0  0
 26 44  1  0  0  0
 27 45  1  0  0  0
M  END
$$$$
