1oiq_ligand
  -I-interpret- 

 33 35  0  0  0  0  0  0  0  0999 V2000
   10.9720   -9.7210   10.7170 O   0  0  0  0  0
   10.3520  -10.5520   11.3910 C   0  0  0  0  0
    9.1160  -11.1830   10.8190 C   0  0  0  0  0
   10.7340  -10.9250   12.6190 N   0  0  0  0  0
   11.9030  -10.3940   13.2890 C   0  0  0  0  0
   12.8410   -9.5420   12.6240 N   0  0  0  0  0
   12.1840  -10.6980   14.6630 N   0  0  0  0  0
   13.2600  -10.1780   15.2460 C   0  0  0  0  0
   14.0960   -9.3960   14.5860 C   0  0  0  0  0
   13.9020   -9.0800   13.2850 C   0  0  0  0  0
   14.8400   -8.1500   12.5670 C   0  0  0  0  0
   14.5850   -7.5080   11.2960 N   0  0  0  0  0
   15.6850   -6.6890   11.0130 C   0  0  0  0  0
   16.6130   -6.7830   12.0620 N   0  0  0  0  0
   16.1650   -7.6280   13.0200 C   0  0  0  0  0
   16.9440   -7.9520   14.2620 C   0  0  0  0  0
   15.7110   -5.9470    9.8340 C   0  0  0  0  0
   14.6450   -6.0130    8.9250 C   0  0  0  0  0
   13.5530   -6.8240    9.2270 C   0  0  0  0  0
   13.5550   -7.5600   10.4250 C   0  0  0  0  0
    8.3818  -10.4077   10.6001 H   0  0  0  0  0
    9.3715  -11.7128    9.9013 H   0  0  0  0  0
    8.7003  -11.8851   11.5417 H   0  0  0  0  0
   10.1714  -11.6206   13.1089 H   0  0  0  0  0
   13.4573  -10.4024   16.2943 H   0  0  0  0  0
   14.9665   -8.9942   15.1045 H   0  0  0  0  0
   16.3525   -7.6896   15.1391 H   0  0  0  0  0
   17.1696   -9.0182   14.2800 H   0  0  0  0  0
   17.8734   -7.3825   14.2653 H   0  0  0  0  0
   16.5677   -5.3093    9.6161 H   0  0  0  0  0
   14.6703   -5.4397    7.9983 H   0  0  0  0  0
   12.7071   -6.8871    8.5425 H   0  0  0  0  0
   12.6982   -8.1923   10.6577 H   0  0  0  0  0
  1  2  2  0  0  0
  2  3  1  0  0  0
  2  4  1  0  0  0
  4  5  1  0  0  0
  5  6  4  0  0  0
  5  7  4  0  0  0
  6 10  4  0  0  0
  7  8  4  0  0  0
  8  9  4  0  0  0
  9 10  4  0  0  0
 10 11  1  0  0  0
 11 12  4  0  0  0
 11 15  4  0  0  0
 12 13  4  0  0  0
 12 20  4  0  0  0
 13 14  4  0  0  0
 13 17  4  0  0  0
 14 15  4  0  0  0
 15 16  1  0  0  0
 17 18  4  0  0  0
 18 19  4  0  0  0
 19 20  4  0  0  0
  3 21  1  0  0  0
  3 22  1  0  0  0
  3 23  1  0  0  0
  4 24  1  0  0  0
  8 25  1  0  0  0
  9 26  1  0  0  0
 16 27  1  0  0  0
 16 28  1  0  0  0
 16 29  1  0  0  0
 17 30  1  0  0  0
 18 31  1  0  0  0
 19 32  1  0  0  0
 20 33  1  0  0  0
M  END
$$$$
