4iva_ligand
  -I-interpret- 

 41 44  0  0  0  0  0  0  0  0999 V2000
  -18.8070  -11.7080  -11.9520 C   0  0  0  0  0
  -17.3040  -11.5290  -12.1850 C   0  0  0  0  0
  -16.9600  -12.0540  -13.4550 O   0  0  0  0  0
  -16.8930  -10.0720  -12.1260 C   0  0  0  0  0
  -15.7090   -9.6050  -11.6210 N   0  0  0  0  0
  -15.7340   -8.2230  -11.7360 C   0  0  0  0  0
  -16.9680   -7.9100  -12.3450 C   0  0  0  0  0
  -17.6140   -9.0800  -12.5570 N   0  0  0  0  0
  -17.3070   -6.5800  -12.6070 C   0  0  0  0  0
  -16.4960   -5.5890  -12.3140 N   0  0  0  0  0
  -15.3160   -5.8200  -11.7370 C   0  0  0  0  0
  -14.8850   -7.1320  -11.4300 C   0  0  0  0  0
  -13.5590   -6.9670  -10.8100 C   0  0  0  0  0
  -13.2890   -5.6470  -10.8010 C   0  0  0  0  0
  -14.3410   -4.9480  -11.3510 N   0  0  0  0  0
  -14.6430  -10.4730  -11.0710 C   0  0  0  0  0
  -13.3240  -10.2600  -11.8410 C   0  0  0  0  0
  -12.2680  -11.2480  -11.3050 C   0  0  0  0  0
  -12.1140  -11.0580   -9.7820 C   0  0  0  0  0
  -13.4360  -11.2770   -9.0290 C   0  0  0  0  0
  -14.4960  -10.2910   -9.5540 C   0  0  0  0  0
  -11.1200  -11.9960   -9.2280 C   0  0  0  0  0
  -10.3860  -12.7500   -8.7930 N   0  0  0  0  0
  -19.0699  -11.3180  -10.9687 H   0  0  0  0  0
  -19.3595  -11.1654  -12.7191 H   0  0  0  0  0
  -19.0576  -12.7676  -12.0029 H   0  0  0  0  0
  -16.7789  -12.0619  -11.3923 H   0  0  0  0  0
  -17.2180  -12.9776  -13.4988 H   0  0  0  0  0
  -18.2702   -6.3589  -13.0668 H   0  0  0  0  0
  -12.9176   -7.7623  -10.4303 H   0  0  0  0  0
  -12.3734   -5.1984  -10.4155 H   0  0  0  0  0
  -14.9287  -11.5148  -11.2163 H   0  0  0  0  0
  -12.9762   -9.2366  -11.7004 H   0  0  0  0  0
  -13.4858  -10.4346  -12.9047 H   0  0  0  0  0
  -11.3121  -11.0592  -11.7936 H   0  0  0  0  0
  -12.5864  -12.2693  -11.5138 H   0  0  0  0  0
  -11.7873  -10.0275   -9.6428 H   0  0  0  0  0
  -13.2793  -11.1083   -7.9636 H   0  0  0  0  0
  -13.7799  -12.2989   -9.1888 H   0  0  0  0  0
  -15.4514  -10.4859   -9.0669 H   0  0  0  0  0
  -14.1865   -9.2690   -9.3355 H   0  0  0  0  0
  1  2  1  0  0  0
  2  3  1  0  0  0
  2  4  1  0  0  0
  4  5  4  0  0  0
  4  8  4  0  0  0
  5  6  4  0  0  0
  5 16  1  0  0  0
  6  7  4  0  0  0
  6 12  4  0  0  0
  7  8  4  0  0  0
  7  9  4  0  0  0
  9 10  4  0  0  0
 10 11  4  0  0  0
 11 12  4  0  0  0
 11 15  4  0  0  0
 12 13  4  0  0  0
 13 14  4  0  0  0
 14 15  4  0  0  0
 16 17  1  0  0  0
 16 21  1  0  0  0
 17 18  1  0  0  0
 18 19  1  0  0  0
 19 20  1  0  0  0
 19 22  1  0  0  0
 20 21  1  0  0  0
 22 23  3  0  0  0
  1 24  1  0  0  0
  1 25  1  0  0  0
  1 26  1  0  0  0
  2 27  1  0  0  0
  3 28  1  0  0  0
  9 29  1  0  0  0
 13 30  1  0  0  0
 14 31  1  0  0  0
 16 32  1  0  0  0
 17 33  1  0  0  0
 17 34  1  0  0  0
 18 35  1  0  0  0
 18 36  1  0  0  0
 19 37  1  0  0  0
 20 38  1  0  0  0
 20 39  1  0  0  0
 21 40  1  0  0  0
 21 41  1  0  0  0
M  END
$$$$
