3sl4_ligand
  -I-interpret- 

 54 56  0  0  0  0  0  0  0  0999 V2000
  -21.7120   10.4640   27.7740 C   0  0  0  0  0
  -21.7410    9.7030   26.5330 N   0  0  0  0  0
  -21.1610    8.3330   26.5270 C   0  0  0  0  0
  -21.4000    7.4820   27.7960 C   0  0  0  0  0
  -21.7940    8.1610   29.0070 C   0  0  0  0  0
  -21.9350    9.6800   29.0650 C   0  0  0  0  0
  -22.6440   10.1420   25.5060 C   0  0  0  0  0
  -22.7430    9.5140   24.4640 O   0  0  0  0  0
  -23.2570   11.4360   25.6380 N   0  0  0  0  0
  -24.0290   12.0100   24.5690 C   0  0  0  0  0
  -24.1120   13.4980   24.4980 C   0  0  0  0  0
  -21.3460    5.7780   28.1250 S   0  0  0  0  0
  -21.7480    5.6130   29.6500 C   0  0  0  0  0
  -22.0300    7.0110   30.2250 C   0  0  0  0  0
  -22.4590    7.3070   31.6300 C   0  0  0  0  0
  -22.8000    8.4910   31.9310 O   0  0  0  0  0
  -23.1150    8.7870   33.2470 C   0  0  0  0  0
  -21.9690    8.9500   34.1920 C   0  0  0  0  0
  -22.5810    6.3720   32.4740 O   0  0  0  0  0
  -21.9060    4.4320   30.4830 N   0  0  0  0  0
  -21.8150    3.0730   30.0170 C   0  0  0  0  0
  -22.1060    1.9560   30.9860 C   0  0  0  0  0
  -22.4100    2.3650   32.4140 C   0  0  0  0  0
  -23.6540    2.8230   32.7630 C   0  0  0  0  0
  -21.3640    2.2930   33.4340 C   0  0  0  0  0
  -21.6250    2.6700   34.7640 C   0  0  0  0  0
  -22.9100    3.1450   35.1180 C   0  0  0  0  0
  -23.9250    3.2200   34.1310 C   0  0  0  0  0
  -21.3700    2.8560   28.9110 O   0  0  0  0  0
  -22.5352   11.1755   27.7090 H   0  0  0  0  0
  -20.7079   10.8819   27.8463 H   0  0  0  0  0
  -20.0815    8.4608   26.4462 H   0  0  0  0  0
  -21.6471    7.8013   25.7090 H   0  0  0  0  0
  -22.9723    9.8659   29.3434 H   0  0  0  0  0
  -21.1576   10.0189   29.7497 H   0  0  0  0  0
  -23.1420   11.9572   26.5072 H   0  0  0  0  0
  -25.0512   11.6674   24.7297 H   0  0  0  0  0
  -23.5313   11.7006   23.6499 H   0  0  0  0  0
  -24.5614   13.8797   25.4147 H   0  0  0  0  0
  -23.1100   13.9115   24.3836 H   0  0  0  0  0
  -24.7250   13.7861   23.6440 H   0  0  0  0  0
  -23.6896    7.9375   33.6162 H   0  0  0  0  0
  -23.6242    9.7505   33.2241 H   0  0  0  0  0
  -21.3933    8.0250   34.2260 H   0  0  0  0  0
  -21.3305    9.7644   33.8498 H   0  0  0  0  0
  -22.3501    9.1790   35.1872 H   0  0  0  0  0
  -22.0961    4.5776   31.4745 H   0  0  0  0  0
  -21.2009    1.3503   31.0306 H   0  0  0  0  0
  -23.0030    1.4598   30.6156 H   0  0  0  0  0
  -24.4405    2.8888   32.0112 H   0  0  0  0  0
  -20.3689    1.9425   33.1599 H   0  0  0  0  0
  -20.8413    2.5966   35.5180 H   0  0  0  0  0
  -23.1182    3.4513   36.1431 H   0  0  0  0  0
  -24.9176    3.5792   34.4029 H   0  0  0  0  0
  1  2  1  0  0  0
  1  6  1  0  0  0
  2  3  1  0  0  0
  2  7  1  0  0  0
  3  4  1  0  0  0
  4  5  4  0  0  0
  4 12  4  0  0  0
  5  6  1  0  0  0
  5 14  4  0  0  0
  7  8  2  0  0  0
  7  9  1  0  0  0
  9 10  1  0  0  0
 10 11  1  0  0  0
 12 13  4  0  0  0
 13 14  4  0  0  0
 13 20  1  0  0  0
 14 15  1  0  0  0
 15 16  1  0  0  0
 15 19  2  0  0  0
 16 17  1  0  0  0
 17 18  1  0  0  0
 20 21  1  0  0  0
 21 22  1  0  0  0
 21 29  2  0  0  0
 22 23  1  0  0  0
 23 24  4  0  0  0
 23 25  4  0  0  0
 24 28  4  0  0  0
 25 26  4  0  0  0
 26 27  4  0  0  0
 27 28  4  0  0  0
  1 30  1  0  0  0
  1 31  1  0  0  0
  3 32  1  0  0  0
  3 33  1  0  0  0
  6 34  1  0  0  0
  6 35  1  0  0  0
  9 36  1  0  0  0
 10 37  1  0  0  0
 10 38  1  0  0  0
 11 39  1  0  0  0
 11 40  1  0  0  0
 11 41  1  0  0  0
 17 42  1  0  0  0
 17 43  1  0  0  0
 18 44  1  0  0  0
 18 45  1  0  0  0
 18 46  1  0  0  0
 20 47  1  0  0  0
 22 48  1  0  0  0
 22 49  1  0  0  0
 24 50  1  0  0  0
 25 51  1  0  0  0
 26 52  1  0  0  0
 27 53  1  0  0  0
 28 54  1  0  0  0
M  END
$$$$
