5mtv_ligand
  -I-interpret- 

 47 49  0  0  0  0  0  0  0  0999 V2000
   60.8920  162.3860   61.2220 P   0  0  0  0  0
   62.1560  162.3340   62.6980 S   0  0  0  0  0
   61.2520  163.6940   60.4490 O   0  0  0  0  0
   59.4280  162.4560   61.7570 O   0  0  0  0  0
   59.8880  160.0100   60.1980 P   0  0  0  0  0
   59.0530  160.3380   59.0190 O   0  0  0  0  0
   59.1200  160.0550   61.5220 O   0  0  0  0  0
   61.0550  161.0960   60.3400 O   0  0  0  0  0
   61.8440  158.0830   60.6770 P   0  0  0  0  0
   62.8320  158.0750   59.5070 O   0  0  0  0  0
   62.2100  158.9440   61.8150 O   0  0  0  0  0
   60.4180  158.5000   60.0930 O   0  0  0  0  0
   61.7670  156.6260   61.2550 O   0  0  0  0  0
   60.5740  155.9930   61.7130 C   0  0  0  0  0
   60.9110  154.5420   61.9250 C   0  0  0  0  0
   60.9270  153.8710   60.6470 O   0  0  0  0  0
   62.2720  154.2900   62.5790 C   0  0  0  0  0
   62.1550  153.4020   63.6830 O   0  0  0  0  0
   63.1330  153.7110   61.4480 C   0  0  0  0  0
   64.0310  152.7170   61.9320 O   0  0  0  0  0
   62.0930  153.0870   60.5220 C   0  0  0  0  0
   62.4850  153.0720   59.1130 N   0  0  0  0  0
   62.9570  154.1260   58.3770 C   0  0  0  0  0
   63.2220  153.8270   57.1270 N   0  0  0  0  0
   62.8930  152.4850   57.0340 C   0  0  0  0  0
   62.9440  151.5670   55.9660 C   0  0  0  0  0
   63.3600  151.8830   54.7360 N   0  0  0  0  0
   62.5420  150.2990   56.2070 N   0  0  0  0  0
   62.1200  149.9810   57.4350 C   0  0  0  0  0
   62.0300  150.7580   58.5180 N   0  0  0  0  0
   62.4340  152.0040   58.2500 C   0  0  0  0  0
   60.6642  163.7916   59.6963 H   0  0  0  0  0
   58.8185  162.4809   61.0157 H   0  0  0  0  0
   59.7142  159.8342   62.2430 H   0  0  0  0  0
   62.5076  157.4885   58.8197 H   0  0  0  0  0
   59.7706  156.1035   60.9847 H   0  0  0  0  0
   60.2215  156.4498   62.6378 H   0  0  0  0  0
   60.1460  154.1631   62.6027 H   0  0  0  0  0
   62.7150  155.1938   62.9973 H   0  0  0  0  0
   63.0210  153.2622   64.0729 H   0  0  0  0  0
   63.7612  154.4599   60.9657 H   0  0  0  0  0
   64.5531  152.3763   61.2020 H   0  0  0  0  0
   61.9588  152.0455   60.8143 H   0  0  0  0  0
   63.0998  155.1237   58.7922 H   0  0  0  0  0
   63.6637  152.8345   54.5291 H   0  0  0  0  0
   63.3738  151.1727   54.0041 H   0  0  0  0  0
   61.8064  148.9460   57.5713 H   0  0  0  0  0
  1  2  2  0  0  0
  1  3  1  0  0  0
  1  4  1  0  0  0
  8  1  1  0  0  0
  5  6  2  0  0  0
  5  7  1  0  0  0
  5  8  1  0  0  0
 12  5  1  0  0  0
  9 10  1  0  0  0
  9 11  2  0  0  0
  9 12  1  0  0  0
  9 13  1  0  0  0
 13 14  1  0  0  0
 14 15  1  0  0  0
 15 16  1  0  0  0
 15 17  1  0  0  0
 16 21  1  0  0  0
 17 18  1  0  0  0
 17 19  1  0  0  0
 19 20  1  0  0  0
 19 21  1  0  0  0
 21 22  1  0  0  0
 22 23  4  0  0  0
 22 31  4  0  0  0
 23 24  4  0  0  0
 24 25  4  0  0  0
 25 26  4  0  0  0
 25 31  4  0  0  0
 26 27  1  0  0  0
 26 28  4  0  0  0
 28 29  4  0  0  0
 29 30  4  0  0  0
 30 31  4  0  0  0
  3 32  1  0  0  0
  4 33  1  0  0  0
  7 34  1  0  0  0
 10 35  1  0  0  0
 14 36  1  0  0  0
 14 37  1  0  0  0
 15 38  1  0  0  0
 17 39  1  0  0  0
 18 40  1  0  0  0
 19 41  1  0  0  0
 20 42  1  0  0  0
 21 43  1  0  0  0
 23 44  1  0  0  0
 27 45  1  0  0  0
 27 46  1  0  0  0
 29 47  1  0  0  0
M  END
$$$$
