### 
### Created by X-TOOL on Mon Sep 10 21:13:34 2018
### 

@<TRIPOS>MOLECULE
5mtv_ligand
   45    47     1     0     0
SMALL
GAST_HUCK


@<TRIPOS>ATOM
      1 PG         60.8920  162.3860   61.2220 P.3       1 AGS         0.3378
      2 S1G        62.1560  162.3340   62.6980 S.2       1 AGS        -0.4527
      3 O2G        61.2520  163.6940   60.4490 O.3       1 AGS        -0.2262
      4 O3G        59.4280  162.4560   61.7570 O.3       1 AGS        -0.2262
      5 PB         59.8880  160.0100   60.1980 P.3       1 AGS         0.3523
      6 O1B        59.0530  160.3380   59.0190 O.co2     1 AGS        -0.6053
      7 O2B        59.1200  160.0550   61.5220 O.co2     1 AGS        -0.6053
      8 O3B        61.0550  161.0960   60.3400 O.3       1 AGS        -0.0885
      9 PA         61.8440  158.0830   60.6770 P.3       1 AGS         0.2981
     10 O1A        62.8320  158.0750   59.5070 O.co2     1 AGS        -0.6127
     11 O2A        62.2100  158.9440   61.8150 O.co2     1 AGS        -0.6127
     12 O3A        60.4180  158.5000   60.0930 O.3       1 AGS        -0.1239
     13 O5'        61.7670  156.6260   61.2550 O.3       1 AGS        -0.2476
     14 C5'        60.5740  155.9930   61.7130 C.3       1 AGS         0.1128
     15 C4'        60.9110  154.5420   61.9250 C.3       1 AGS         0.1189
     16 O4'        60.9270  153.8710   60.6470 O.3       1 AGS        -0.3364
     17 C3'        62.2720  154.2900   62.5790 C.3       1 AGS         0.1149
     18 O3'        62.1550  153.4020   63.6830 O.3       1 AGS        -0.3864
     19 C2'        63.1330  153.7110   61.4480 C.3       1 AGS         0.1385
     20 O2'        64.0310  152.7170   61.9320 O.3       1 AGS        -0.3836
     21 C1'        62.0930  153.0870   60.5220 C.3       1 AGS         0.2010
     22 N9         62.4850  153.0720   59.1130 N.pl3     1 AGS        -0.1919
     23 C8         62.9570  154.1260   58.3770 C.2       1 AGS         0.1123
     24 N7         63.2220  153.8270   57.1270 N.2       1 AGS        -0.2958
     25 C5         62.8930  152.4850   57.0340 C.ar      1 AGS         0.1045
     26 C6         62.9440  151.5670   55.9660 C.ar      1 AGS         0.1298
     27 N6         63.3600  151.8830   54.7360 N.pl3     1 AGS        -0.3152
     28 N1         62.5420  150.2990   56.2070 N.ar      1 AGS        -0.2698
     29 C2         62.1200  149.9810   57.4350 C.ar      1 AGS         0.0533
     30 N3         62.0300  150.7580   58.5180 N.ar      1 AGS        -0.2714
     31 C4         62.4340  152.0040   58.2500 C.ar      1 AGS         0.1613
     32 H1         62.1509  163.6441   60.1458 H         1 AGS         0.2854
     33 H2         59.2496  161.6897   62.2895 H         1 AGS         0.2854
     34 H3         59.7787  156.0917   60.9595 H         1 AGS         0.0648
     35 H4         60.2421  156.4474   62.6581 H         1 AGS         0.0648
     36 H5         60.1314  154.1010   62.5634 H         1 AGS         0.0651
     37 H6         62.7051  155.2368   62.9340 H         1 AGS         0.0648
     38 H7         63.0120  153.2636   64.0689 H         1 AGS         0.2100
     39 H8         63.7003  154.5026   60.9366 H         1 AGS         0.0676
     40 H9         63.5353  152.0088   62.3259 H         1 AGS         0.2101
     41 H10        61.8954  152.0544   60.8456 H         1 AGS         0.0996
     42 H11        63.0996  155.1228   58.7918 H         1 AGS         0.1349
     43 H12        63.3740  151.1657   53.9969 H         1 AGS         0.1820
     44 H13        63.6667  152.8438   54.5270 H         1 AGS         0.1820
     45 H14        61.8081  148.9517   57.5705 H         1 AGS         0.0996
@<TRIPOS>BOND
     1    1    2 2  
     2    1    3 1  
     3    1    4 1  
     4    8    1 1  
     5    5    6 ar 
     6    5    7 ar 
     7    5    8 1  
     8   12    5 1  
     9    9   10 ar 
    10    9   11 ar 
    11    9   12 1  
    12    9   13 1  
    13   13   14 1  
    14   14   15 1  
    15   15   16 1  
    16   15   17 1  
    17   16   21 1  
    18   17   18 1  
    19   17   19 1  
    20   19   20 1  
    21   19   21 1  
    22   21   22 1  
    23   22   23 1  
    24   22   31 1  
    25   23   24 2  
    26   24   25 1  
    27   25   26 ar 
    28   25   31 ar 
    29   26   27 1  
    30   26   28 ar 
    31   28   29 ar 
    32   29   30 ar 
    33   30   31 ar 
    34    3   32 1  
    35    4   33 1  
    36   14   34 1  
    37   14   35 1  
    38   15   36 1  
    39   17   37 1  
    40   18   38 1  
    41   19   39 1  
    42   20   40 1  
    43   21   41 1  
    44   23   42 1  
    45   27   43 1  
    46   27   44 1  
    47   29   45 1  
@<TRIPOS>SUBSTRUCTURE
     1 AGS         1

