1ebg_ligand
  -I-interpret- 

 15 14  0  0  0  0  0  0  0  0999 V2000
   19.0210    5.9830   20.2950 C   0  0  0  0  0
   17.7620    5.8330   19.4860 C   0  0  0  0  0
   17.3630    4.6280   19.1280 N   0  0  0  0  0
   16.2540    4.6250   18.3140 O   0  0  0  0  0
   17.0760    6.8690   19.1150 O   0  0  0  0  0
   18.5520    4.6090   22.6930 O   0  0  0  0  0
   17.4850    6.8780   22.4460 O   0  0  0  0  0
   19.9640    6.6900   22.8510 O   0  0  0  0  0
   18.7340    6.0360   22.1400 P   0  0  0  0  0
   19.4777    6.9310   20.0108 H   0  0  0  0  0
   19.6442    5.1128   20.0889 H   0  0  0  0  0
   17.8345    3.7747   19.4278 H   0  0  0  0  0
   16.0219    3.7197   18.0947 H   0  0  0  0  0
   19.3353    4.0893   22.4984 H   0  0  0  0  0
   20.7512    6.1722   22.6669 H   0  0  0  0  0
  2  1  1  0  0  0
  1  9  1  0  0  0
  2  3  1  0  0  0
  2  5  2  0  0  0
  3  4  1  0  0  0
  9  8  1  0  0  0
  9  7  2  0  0  0
  9  6  1  0  0  0
  1 10  1  0  0  0
  1 11  1  0  0  0
  3 12  1  0  0  0
  4 13  1  0  0  0
  6 14  1  0  0  0
  8 15  1  0  0  0
M  END
$$$$
