### 
### Created by X-TOOL on Mon Sep 10 21:12:45 2018
### 

@<TRIPOS>MOLECULE
1ebg_ligand
   13    12     1     0     0
SMALL
GAST_HUCK


@<TRIPOS>ATOM
      1 C1         19.0210    5.9830   20.2950 C.3       1 PAH         0.1101
      2 C2         17.7620    5.8330   19.4860 C.2       1 PAH         0.2153
      3 N3         17.3630    4.6280   19.1280 N.am      1 PAH        -0.1631
      4 O3         16.2540    4.6250   18.3140 O.3       1 PAH        -0.2717
      5 O2         17.0760    6.8690   19.1150 O.2       1 PAH        -0.3954
      6 O1P        18.5520    4.6090   22.6930 O.co2     1 PAH        -0.5606
      7 O2P        17.4850    6.8780   22.4460 O.co2     1 PAH        -0.5606
      8 O3P        19.9640    6.6900   22.8510 O.co2     1 PAH        -0.5606
      9 P          18.7340    6.0360   22.1400 P.3       1 PAH         0.0776
     10 H1         19.5162    6.9182   19.9947 H         1 PAH         0.0691
     11 H2         19.6798    5.1310   20.0715 H         1 PAH         0.0691
     12 H3         17.8252    3.7914   19.4220 H         1 PAH         0.2217
     13 H4         16.4460    5.1057   17.5174 H         1 PAH         0.2490
@<TRIPOS>BOND
     1    2    1 1  
     2    1    9 1  
     3    2    3 am 
     4    2    5 2  
     5    3    4 1  
     6    9    8 ar 
     7    9    7 ar 
     8    9    6 ar 
     9    1   10 1  
    10    1   11 1  
    11    3   12 1  
    12    4   13 1  
@<TRIPOS>SUBSTRUCTURE
     1 PAH         1

