2nnd_ligand
  -I-interpret- 

 26 26  0  0  0  0  0  0  0  0999 V2000
   50.2220   22.7330   42.6440 N   0  0  0  0  0
   50.2270   23.4220   41.4790 C   0  0  0  0  0
   51.3990   23.4670   40.7230 C   0  0  0  0  0
   52.4990   22.8350   41.1810 N   0  0  0  0  0
   52.4750   22.1470   42.3280 C   0  0  0  0  0
   51.3130   22.1010   43.0850 C   0  0  0  0  0
   48.9370   24.0740   41.0140 C   0  0  0  0  0
   48.8530   25.5790   41.1280 C   0  0  0  0  0
   48.6560   26.0310   42.5680 C   0  0  0  0  0
   47.6780   26.0350   40.2720 C   0  0  0  0  0
   51.4490   24.1800   39.5540 O   0  0  0  0  0
   52.6300   24.2120   38.7450 C   0  0  0  0  0
   53.3681   21.6226   42.6679 H   0  0  0  0  0
   51.2908   21.5555   44.0284 H   0  0  0  0  0
   48.1532   23.6810   41.6616 H   0  0  0  0  0
   48.8553   23.8498   39.9504 H   0  0  0  0  0
   49.7887   26.0212   40.7860 H   0  0  0  0  0
   47.7302   25.6071   42.9571 H   0  0  0  0  0
   49.4960   25.6893   43.1728 H   0  0  0  0  0
   48.6012   27.1191   42.6017 H   0  0  0  0  0
   47.8476   25.7386   39.2369 H   0  0  0  0  0
   46.7619   25.5719   40.6384 H   0  0  0  0  0
   47.5869   27.1196   40.3305 H   0  0  0  0  0
   53.4546   24.6271   39.3244 H   0  0  0  0  0
   52.8799   23.1992   38.4290 H   0  0  0  0  0
   52.4513   24.8340   37.8679 H   0  0  0  0  0
  1  2  4  0  0  0
  1  6  4  0  0  0
  2  3  4  0  0  0
  2  7  1  0  0  0
  3  4  4  0  0  0
  3 11  1  0  0  0
  4  5  4  0  0  0
  5  6  4  0  0  0
  7  8  1  0  0  0
  8  9  1  0  0  0
  8 10  1  0  0  0
 11 12  1  0  0  0
  5 13  1  0  0  0
  6 14  1  0  0  0
  7 15  1  0  0  0
  7 16  1  0  0  0
  8 17  1  0  0  0
  9 18  1  0  0  0
  9 19  1  0  0  0
  9 20  1  0  0  0
 10 21  1  0  0  0
 10 22  1  0  0  0
 10 23  1  0  0  0
 12 24  1  0  0  0
 12 25  1  0  0  0
 12 26  1  0  0  0
M  END
$$$$
