1nnb_ligand
  -I-interpret- 

 37 37  0  0  0  0  0  0  0  0999 V2000
   24.0190   20.0630   65.6820 C   0  0  0  0  0
   24.6550   18.9790   64.8050 C   0  0  0  0  0
   24.2020   17.5460   64.5910 C   0  0  0  0  0
   24.7070   16.8560   63.3620 C   0  0  0  0  0
   26.2460   17.0260   63.5020 C   0  0  0  0  0
   26.6180   18.4840   63.2660 C   0  0  0  0  0
   28.0300   18.7620   63.8170 C   0  0  0  0  0
   28.3280   20.2690   63.4890 C   0  0  0  0  0
   29.8090   20.7070   63.8860 C   0  0  0  0  0
   27.4130   14.9770   62.5940 C   0  0  0  0  0
   28.0820   14.3340   61.3760 C   0  0  0  0  0
   27.0090   16.2420   62.5280 N   0  0  0  0  0
   24.6110   21.1830   65.6650 O   0  0  0  0  0
   22.7940   19.9580   65.9750 O   0  0  0  0  0
   24.2850   15.5240   63.0100 O   0  0  0  0  0
   25.7110   19.4370   63.9400 O   0  0  0  0  0
   28.1170   18.4490   65.2350 O   0  0  0  0  0
   28.1600   20.2920   62.0880 O   0  0  0  0  0
   30.7360   19.9700   63.0690 O   0  0  0  0  0
   27.4470   14.3400   63.6480 O   0  0  0  0  0
   23.5413   17.0439   65.2977 H   0  0  0  0  0
   24.2381   17.3177   62.4931 H   0  0  0  0  0
   26.4940   16.6811   64.5058 H   0  0  0  0  0
   26.5529   18.6311   62.1879 H   0  0  0  0  0
   28.7840   18.1245   63.3552 H   0  0  0  0  0
   27.6887   20.9582   64.0407 H   0  0  0  0  0
   29.9905   20.4947   64.9396 H   0  0  0  0  0
   29.9375   21.7770   63.7227 H   0  0  0  0  0
   29.1385   14.1698   61.5879 H   0  0  0  0  0
   27.6008   13.3801   61.1602 H   0  0  0  0  0
   27.9812   14.9960   60.5160 H   0  0  0  0  0
   27.2680   16.7385   61.6755 H   0  0  0  0  0
   25.5304   21.0540   65.4209 H   0  0  0  0  0
   23.3276   15.5001   62.9429 H   0  0  0  0  0
   27.9252   17.5179   65.3684 H   0  0  0  0  0
   28.3194   21.1809   61.7623 H   0  0  0  0  0
   31.6334   20.2235   63.2970 H   0  0  0  0  0
  2  1  1  0  0  0
  1 13  1  0  0  0
  1 14  2  0  0  0
  3  2  2  0  0  0
 16  2  1  0  0  0
  4  3  1  0  0  0
  5  4  1  0  0  0
  4 15  1  0  0  0
  5  6  1  0  0  0
 12  5  1  0  0  0
  6  7  1  0  0  0
  6 16  1  0  0  0
  7  8  1  0  0  0
  7 17  1  0  0  0
  8  9  1  0  0  0
  8 18  1  0  0  0
  9 19  1  0  0  0
 10 11  1  0  0  0
 10 12  1  0  0  0
 10 20  2  0  0  0
  3 21  1  0  0  0
  4 22  1  0  0  0
  5 23  1  0  0  0
  6 24  1  0  0  0
  7 25  1  0  0  0
  8 26  1  0  0  0
  9 27  1  0  0  0
  9 28  1  0  0  0
 11 29  1  0  0  0
 11 30  1  0  0  0
 11 31  1  0  0  0
 12 32  1  0  0  0
 13 33  1  0  0  0
 15 34  1  0  0  0
 17 35  1  0  0  0
 18 36  1  0  0  0
 19 37  1  0  0  0
M  END
$$$$
