1f4x_ligand
  -I-interpret- 

 43 43  0  0  0  0  0  0  0  0999 V2000
   -7.8070  -21.7350   18.3110 C   0  0  0  0  0
   -8.3470  -21.8120   19.6040 O   0  0  0  0  0
   -8.2540  -23.1530   20.1440 C   0  0  0  0  0
   -8.2330  -20.4470   17.6300 C   0  0  0  0  0
   -7.5690  -20.2700   16.3690 O   0  0  0  0  0
   -6.1850  -19.9980   16.6490 C   0  0  0  0  0
   -9.7530  -20.4310   17.3620 C   0  0  0  0  0
  -10.0820  -19.3010   16.5180 O   0  0  0  0  0
  -10.1110  -21.7190   16.6250 C   0  0  0  0  0
  -11.5860  -21.9050   16.4020 N   0  0  0  0  0
  -11.8900  -21.6680   15.1410 C   0  0  0  0  0
  -10.9450  -21.3860   14.4220 O   0  0  0  0  0
   -9.5410  -22.9810   17.2830 C   0  0  0  0  0
   -8.0930  -22.8950   17.5250 O   0  0  0  0  0
   -9.8510  -24.2360   16.4340 C   0  0  0  0  0
  -15.1280  -23.0140   13.6980 C   0  0  0  0  0
  -16.0240  -22.9060   14.8070 O   0  0  0  0  0
  -13.8460  -23.0380   14.4390 C   0  0  0  0  0
  -13.1310  -21.6910   14.2410 C   0  0  0  0  0
  -13.8570  -20.4940   14.2140 O   0  0  0  0  0
   -6.7215  -21.7131   18.4074 H   0  0  0  0  0
   -8.8024  -23.8412   19.5008 H   0  0  0  0  0
   -7.2071  -23.4529   20.1901 H   0  0  0  0  0
   -8.6828  -23.1704   21.1460 H   0  0  0  0  0
   -7.9602  -19.6404   18.3105 H   0  0  0  0  0
   -6.1087  -19.0935   17.2525 H   0  0  0  0  0
   -5.7541  -20.8377   17.1944 H   0  0  0  0  0
   -5.6468  -19.8574   15.7116 H   0  0  0  0  0
  -10.3030  -20.3533   18.2999 H   0  0  0  0  0
   -9.8596  -18.4864   16.9747 H   0  0  0  0  0
   -9.6342  -21.5878   15.6536 H   0  0  0  0  0
  -12.2554  -22.1756   17.1225 H   0  0  0  0  0
  -10.0324  -23.0646   18.2524 H   0  0  0  0  0
  -10.9307  -24.3491   16.3358 H   0  0  0  0  0
   -9.4048  -24.1239   15.4459 H   0  0  0  0  0
   -9.4353  -25.1164   16.9241 H   0  0  0  0  0
  -15.3005  -23.8725   13.0489 H   0  0  0  0  0
  -15.2160  -22.2202   12.9563 H   0  0  0  0  0
  -16.9280  -22.8778   14.4850 H   0  0  0  0  0
  -14.0365  -23.2017   15.4997 H   0  0  0  0  0
  -13.2188  -23.8468   14.0641 H   0  0  0  0  0
  -12.8668  -21.6818   13.1835 H   0  0  0  0  0
  -14.6131  -20.5927   13.6307 H   0  0  0  0  0
  1 14  1  0  0  0
  1  4  1  0  0  0
  1  2  1  0  0  0
  2  3  1  0  0  0
  4  7  1  0  0  0
  4  5  1  0  0  0
  5  6  1  0  0  0
  7  9  1  0  0  0
  7  8  1  0  0  0
  9 13  1  0  0  0
  9 10  1  0  0  0
 10 11  1  0  0  0
 11 19  1  0  0  0
 11 12  2  0  0  0
 19 20  1  0  0  0
 19 18  1  0  0  0
 18 16  1  0  0  0
 16 17  1  0  0  0
 13 15  1  0  0  0
 13 14  1  0  0  0
  1 21  1  0  0  0
  3 22  1  0  0  0
  3 23  1  0  0  0
  3 24  1  0  0  0
  4 25  1  0  0  0
  6 26  1  0  0  0
  6 27  1  0  0  0
  6 28  1  0  0  0
  7 29  1  0  0  0
  8 30  1  0  0  0
  9 31  1  0  0  0
 10 32  1  0  0  0
 13 33  1  0  0  0
 15 34  1  0  0  0
 15 35  1  0  0  0
 15 36  1  0  0  0
 16 37  1  0  0  0
 16 38  1  0  0  0
 17 39  1  0  0  0
 18 40  1  0  0  0
 18 41  1  0  0  0
 19 42  1  0  0  0
 20 43  1  0  0  0
M  END
$$$$
