2g83_ligand
  -I-interpret- 

 43 45  0  0  0  0  0  0  0  0999 V2000
  -47.8950   27.1140   35.9390 P   0  0  0  0  0
  -49.2200   26.8930   35.9560 O   0  0  0  0  0
  -47.5670   25.8900   36.3520 O   0  0  0  0  0
  -47.2060   27.5800   34.6850 O   0  0  0  0  0
  -47.8260   27.7890   37.2410 O   0  0  0  0  0
  -48.4950   29.0410   37.7140 P   0  0  0  0  0
  -47.4670   29.8200   38.0930 O   0  0  0  0  0
  -49.1850   29.8080   36.8630 O   0  0  0  0  0
  -49.2600   29.0910   38.9510 O   0  0  0  0  0
  -50.4990   29.5900   38.7360 C   0  0  0  0  0
  -51.1570   30.5340   39.7230 C   0  0  0  0  0
  -51.1220   30.2470   41.0630 O   0  0  0  0  0
  -50.6460   31.8780   39.6520 C   0  0  0  0  0
  -51.6690   32.7310   39.8180 O   0  0  0  0  0
  -49.8910   31.8830   40.8540 C   0  0  0  0  0
  -49.8680   33.1660   41.1780 O   0  0  0  0  0
  -50.7050   31.2660   41.8370 C   0  0  0  0  0
  -49.8730   30.5840   42.7850 N   0  0  0  0  0
  -48.9210   29.8210   42.4570 C   0  0  0  0  0
  -48.3550   29.3030   43.4650 N   0  0  0  0  0
  -48.9600   29.7430   44.4930 C   0  0  0  0  0
  -48.8770   29.5700   45.8820 C   0  0  0  0  0
  -48.1050   28.8720   46.4400 O   0  0  0  0  0
  -49.6710   30.1440   46.6260 N   0  0  0  0  0
  -50.5480   30.9060   46.1680 C   0  0  0  0  0
  -51.2920   31.4390   47.0760 N   0  0  0  0  0
  -50.7300   31.1300   44.9300 N   0  0  0  0  0
  -49.9580   30.5710   44.0550 C   0  0  0  0  0
  -49.6796   27.6885   35.6773 H   0  0  0  0  0
  -47.5043   28.4663   34.4678 H   0  0  0  0  0
  -46.9141   29.3390   38.7131 H   0  0  0  0  0
  -51.1403   28.7087   38.7526 H   0  0  0  0  0
  -50.3829   30.1946   37.8365 H   0  0  0  0  0
  -52.1818   30.4063   39.3743 H   0  0  0  0  0
  -50.1198   32.1429   38.7349 H   0  0  0  0  0
  -51.3428   33.6328   39.7730 H   0  0  0  0  0
  -48.9140   31.4068   40.7719 H   0  0  0  0  0
  -49.3723   33.2805   41.9921 H   0  0  0  0  0
  -51.4073   31.9292   42.3421 H   0  0  0  0  0
  -48.6214   29.6305   41.4264 H   0  0  0  0  0
  -49.6120   29.9951   47.6334 H   0  0  0  0  0
  -52.0545   32.0620   46.8097 H   0  0  0  0  0
  -51.1182   31.2377   48.0607 H   0  0  0  0  0
  1  2  1  0  0  0
  1  3  2  0  0  0
  1  4  1  0  0  0
  1  5  1  0  0  0
  5  6  1  0  0  0
  6  7  1  0  0  0
  6  8  2  0  0  0
  6  9  1  0  0  0
  9 10  1  0  0  0
 10 11  1  0  0  0
 11 12  1  0  0  0
 11 13  1  0  0  0
 12 17  1  0  0  0
 13 14  1  0  0  0
 13 15  1  0  0  0
 15 16  1  0  0  0
 15 17  1  0  0  0
 17 18  1  0  0  0
 18 19  4  0  0  0
 18 28  4  0  0  0
 19 20  4  0  0  0
 20 21  4  0  0  0
 21 22  1  0  0  0
 21 28  4  0  0  0
 22 23  2  0  0  0
 22 24  1  0  0  0
 24 25  1  0  0  0
 25 26  1  0  0  0
 25 27  2  0  0  0
 27 28  1  0  0  0
  2 29  1  0  0  0
  4 30  1  0  0  0
  7 31  1  0  0  0
 10 32  1  0  0  0
 10 33  1  0  0  0
 11 34  1  0  0  0
 13 35  1  0  0  0
 14 36  1  0  0  0
 15 37  1  0  0  0
 16 38  1  0  0  0
 17 39  1  0  0  0
 19 40  1  0  0  0
 24 41  1  0  0  0
 26 42  1  0  0  0
 26 43  1  0  0  0
M  END
$$$$
