### 
### Created by X-TOOL on Mon Sep 10 21:12:55 2018
### 

@<TRIPOS>MOLECULE
2g83_ligand
   40    42     1     0     0
SMALL
GAST_HUCK


@<TRIPOS>ATOM
      1 PB        -47.8950   27.1140   35.9390 P.3       1 GDP         0.2069
      2 O1B       -49.2200   26.8930   35.9560 O.co2     1 GDP        -0.5891
      3 O2B       -47.5670   25.8900   36.3520 O.co2     1 GDP        -0.5891
      4 O3B       -47.2060   27.5800   34.6850 O.co2     1 GDP        -0.5891
      5 O3A       -47.8260   27.7890   37.2410 O.3       1 GDP        -0.1548
      6 PA        -48.4950   29.0410   37.7140 P.3       1 GDP         0.3276
      7 O1A       -47.4670   29.8200   38.0930 O.co2     1 GDP        -0.5556
      8 O2A       -49.1850   29.8080   36.8630 O.co2     1 GDP        -0.5556
      9 O5        -49.2600   29.0910   38.9510 O.3       1 GDP        -0.2436
     10 C5        -50.4990   29.5900   38.7360 C.3       1 GDP         0.1132
     11 C4        -51.1570   30.5340   39.7230 C.3       1 GDP         0.1189
     12 O4        -51.1220   30.2470   41.0630 O.3       1 GDP        -0.3363
     13 C3        -50.6460   31.8780   39.6520 C.3       1 GDP         0.1150
     14 O3        -51.6690   32.7310   39.8180 O.3       1 GDP        -0.3864
     15 C2        -49.8910   31.8830   40.8540 C.3       1 GDP         0.1387
     16 O2        -49.8680   33.1660   41.1780 O.3       1 GDP        -0.3836
     17 C1        -50.7050   31.2660   41.8370 C.3       1 GDP         0.1992
     18 N9        -49.8730   30.5840   42.7850 N.pl3     1 GDP        -0.2101
     19 C8        -48.9210   29.8210   42.4570 C.2       1 GDP         0.0957
     20 N7        -48.3550   29.3030   43.4650 N.2       1 GDP        -0.3235
     21 C5        -48.9600   29.7430   44.4930 C.2       1 GDP         0.0926
     22 C6        -48.8770   29.5700   45.8820 C.2       1 GDP         0.2135
     23 O6        -48.1050   28.8720   46.4400 O.2       1 GDP        -0.4091
     24 N1        -49.6710   30.1440   46.6260 N.am      1 GDP        -0.1839
     25 C2        -50.5480   30.9060   46.1680 C.2       1 GDP         0.2340
     26 N2        -51.2920   31.4390   47.0760 N.pl3     1 GDP        -0.2807
     27 N3        -50.7300   31.1300   44.9300 N.2       1 GDP        -0.2765
     28 C4        -49.9580   30.5710   44.0550 C.2       1 GDP         0.1159
     29 H1        -51.1700   28.7235   38.6414 H         1 GDP         0.0648
     30 H2        -50.4550   30.1262   37.7765 H         1 GDP         0.0648
     31 H3        -52.2173   30.5560   39.4309 H         1 GDP         0.0651
     32 H4        -50.0616   32.0923   38.7451 H         1 GDP         0.0648
     33 H5        -51.3462   33.6234   39.7734 H         1 GDP         0.2100
     34 H6        -48.8959   31.4241   40.7586 H         1 GDP         0.0676
     35 H7        -50.7574   33.4764   41.3012 H         1 GDP         0.2101
     36 H8        -51.4769   31.9083   42.2859 H         1 GDP         0.0998
     37 H9        -48.6217   29.6307   41.4274 H         1 GDP         0.1179
     38 H10       -49.6132   29.9980   47.6136 H         1 GDP         0.2515
     39 H11       -52.0483   32.0850   46.8083 H         1 GDP         0.1897
     40 H12       -51.1301   31.2189   48.0691 H         1 GDP         0.1897
@<TRIPOS>BOND
     1    1    2 ar 
     2    1    3 ar 
     3    1    4 ar 
     4    1    5 1  
     5    5    6 1  
     6    6    7 ar 
     7    6    8 ar 
     8    6    9 1  
     9    9   10 1  
    10   10   11 1  
    11   11   12 1  
    12   11   13 1  
    13   12   17 1  
    14   13   14 1  
    15   13   15 1  
    16   15   16 1  
    17   15   17 1  
    18   17   18 1  
    19   18   19 1  
    20   18   28 1  
    21   19   20 2  
    22   20   21 1  
    23   21   22 1  
    24   21   28 2  
    25   22   23 2  
    26   22   24 am 
    27   24   25 am 
    28   25   26 1  
    29   25   27 2  
    30   27   28 1  
    31   10   29 1  
    32   10   30 1  
    33   11   31 1  
    34   13   32 1  
    35   14   33 1  
    36   15   34 1  
    37   16   35 1  
    38   17   36 1  
    39   19   37 1  
    40   24   38 1  
    41   26   39 1  
    42   26   40 1  
@<TRIPOS>SUBSTRUCTURE
     1 GDP         1

