5c7c_ligand
  -I-interpret- 

 48 50  0  0  0  0  0  0  0  0999 V2000
  -15.2520  -21.3420   -0.6490 C   0  0  0  0  0
  -15.6980  -19.9800   -1.1620 C   0  0  0  0  0
  -15.6570  -19.8880   -2.6840 C   0  0  0  0  0
  -16.0320  -18.5500   -3.1630 N   0  3  0  0  0
  -16.1670  -18.4730   -4.6270 C   0  0  0  0  0
  -14.9210  -18.7960   -5.4400 C   0  0  0  0  0
  -15.9480  -18.4970   -9.0110 C   0  0  0  0  0
  -16.9030  -19.2620   -9.9190 C   0  0  0  0  0
  -15.9450  -17.0320   -9.4230 C   0  0  0  0  0
  -14.5400  -19.0640   -9.0320 C   0  0  0  0  0
  -13.7460  -19.4040  -10.1130 C   0  0  0  0  0
  -12.4720  -19.9130   -9.9010 C   0  0  0  0  0
  -12.0050  -20.0770   -8.6120 C   0  0  0  0  0
  -14.0560  -19.2350   -7.7420 C   0  0  0  0  0
  -15.1720  -17.5550   -1.0820 C   0  0  0  0  0
  -13.8530  -19.0250   -4.8890 O   0  0  0  0  0
  -15.0450  -18.8200   -6.8180 N   0  0  0  0  0
  -16.3400  -18.6540   -7.5290 C   0  0  0  0  0
  -10.4060  -20.7160   -8.3560 Cl  0  0  0  0  0
  -12.7840  -19.7430   -7.5210 C   0  0  0  0  0
  -15.1470  -17.5190   -2.6020 C   0  0  0  0  0
  -14.8060  -18.9120   -0.5960 N   0  3  0  0  0
  -14.2233  -21.5265   -0.9587 H   0  0  0  0  0
  -15.3134  -21.3569    0.4392 H   0  0  0  0  0
  -15.9010  -22.1145   -1.0614 H   0  0  0  0  0
  -16.7303  -19.8405   -0.8411 H   0  0  0  0  0
  -16.3685  -20.6076   -3.0890 H   0  0  0  0  0
  -14.6381  -20.0949   -3.0114 H   0  0  0  0  0
  -16.9701  -18.3580   -2.8114 H   0  0  0  0  0
  -16.4159  -17.4363   -4.8538 H   0  0  0  0  0
  -16.9102  -19.2214   -4.9021 H   0  0  0  0  0
  -17.9065  -18.8482   -9.8197 H   0  0  0  0  0
  -16.5713  -19.1697  -10.9532 H   0  0  0  0  0
  -16.9120  -20.3133   -9.6314 H   0  0  0  0  0
  -15.6168  -16.9479  -10.4590 H   0  0  0  0  0
  -16.9520  -16.6264   -9.3255 H   0  0  0  0  0
  -15.2641  -16.4761   -8.7785 H   0  0  0  0  0
  -14.1199  -19.2725  -11.1284 H   0  0  0  0  0
  -11.8425  -20.1823  -10.7491 H   0  0  0  0  0
  -16.1758  -17.3099   -0.7352 H   0  0  0  0  0
  -14.4543  -16.8313   -0.6955 H   0  0  0  0  0
  -17.0056  -19.5024   -7.3698 H   0  0  0  0  0
  -16.9012  -17.7950   -7.1613 H   0  0  0  0  0
  -12.4069  -19.8759   -6.5070 H   0  0  0  0  0
  -15.4914  -16.5403   -2.9362 H   0  0  0  0  0
  -14.1285  -17.7074   -2.9414 H   0  0  0  0  0
  -13.8501  -19.1076   -0.8935 H   0  0  0  0  0
  -14.9052  -18.9220    0.4191 H   0  0  0  0  0
  2  1  1  0  0  0
  3  2  1  0  0  0
  2 22  1  0  0  0
  4  3  1  0  0  0
  5  4  1  0  0  0
  4 21  1  0  0  0
  6  5  1  0  0  0
  6 16  2  0  0  0
 17  6  1  0  0  0
  7  8  1  0  0  0
  7  9  1  0  0  0
 10  7  1  0  0  0
  7 18  1  0  0  0
 10 11  4  0  0  0
 14 10  4  0  0  0
 11 12  4  0  0  0
 12 13  4  0  0  0
 13 19  1  0  0  0
 13 20  4  0  0  0
 14 17  1  0  0  0
 14 20  4  0  0  0
 21 15  1  0  0  0
 15 22  1  0  0  0
 17 18  1  0  0  0
  1 23  1  0  0  0
  1 24  1  0  0  0
  1 25  1  0  0  0
  2 26  1  0  0  0
  3 27  1  0  0  0
  3 28  1  0  0  0
  4 29  1  0  0  0
  5 30  1  0  0  0
  5 31  1  0  0  0
  8 32  1  0  0  0
  8 33  1  0  0  0
  8 34  1  0  0  0
  9 35  1  0  0  0
  9 36  1  0  0  0
  9 37  1  0  0  0
 11 38  1  0  0  0
 12 39  1  0  0  0
 15 40  1  0  0  0
 15 41  1  0  0  0
 18 42  1  0  0  0
 18 43  1  0  0  0
 20 44  1  0  0  0
 21 45  1  0  0  0
 21 46  1  0  0  0
 22 47  1  0  0  0
 22 48  1  0  0  0
M  END
$$$$
