1ikt_ligand
  -I-interpret- 

 61 61  0  0  0  0  0  0  0  0999 V2000
   29.5530   28.8300   15.9440 C   0  0  0  0  0
   30.2890   28.7900   17.2730 C   0  0  0  0  0
   29.3270   28.4350   18.4150 C   0  0  0  0  0
   31.3090   27.6510   17.1890 C   0  0  0  0  0
   31.0540   30.0570   17.7100 C   0  0  0  0  0
   29.8430   29.2540   14.4720 C   0  0  0  0  0
   30.4160   30.6950   14.3880 C   0  0  0  0  0
   30.7990   28.2770   13.7980 C   0  0  0  0  0
   28.5370   29.2090   13.6820 C   0  0  0  0  0
   29.5790   31.8340   14.6420 C   0  0  0  0  0
   30.1000   33.1770   14.5860 C   0  0  0  0  0
   31.4620   33.3240   14.2710 C   0  0  0  0  0
   32.3410   32.2670   14.0150 C   0  0  0  0  0
   31.7970   30.9260   14.0760 C   0  0  0  0  0
   31.9870   34.6660   14.1200 O   0  0  0  0  0
   31.7630   35.5090   15.2590 C   0  0  0  0  0
   31.5560   36.9420   14.8090 C   0  0  0  0  0
   32.8010   37.6480   14.7910 O   0  0  0  0  0
   32.6720   38.9270   14.1580 C   0  0  0  0  0
   33.6100   39.9300   14.8010 C   0  0  0  0  0
   32.9430   40.6310   15.8510 O   0  0  0  0  0
   33.5260   41.9120   16.1060 C   0  0  0  0  0
   32.8960   42.5390   17.3490 C   0  0  0  0  0
   33.5580   42.0700   18.5240 O   0  0  0  0  0
   33.3050   42.9050   19.6530 C   0  0  0  0  0
   29.5113   27.7541   15.7744 H   0  0  0  0  0
   28.8640   29.6382   16.1895 H   0  0  0  0  0
   28.8351   27.4880   18.1928 H   0  0  0  0  0
   29.8873   28.3453   19.3457 H   0  0  0  0  0
   28.5779   29.2205   18.5147 H   0  0  0  0  0
   31.8423   27.5720   18.1363 H   0  0  0  0  0
   30.7901   26.7147   16.9835 H   0  0  0  0  0
   32.0181   27.8584   16.3876 H   0  0  0  0  0
   30.3447   30.8661   17.8842 H   0  0  0  0  0
   31.6033   29.8496   18.6284 H   0  0  0  0  0
   31.7524   30.3470   16.9250 H   0  0  0  0  0
   30.3678   27.2761   13.8186 H   0  0  0  0  0
   30.9605   28.5832   12.7644 H   0  0  0  0  0
   31.7500   28.2754   14.3306 H   0  0  0  0  0
   28.7278   29.5031   12.6499 H   0  0  0  0  0
   28.1352   28.1960   13.7041 H   0  0  0  0  0
   27.8190   29.8959   14.1300 H   0  0  0  0  0
   28.5271   31.6797   14.8823 H   0  0  0  0  0
   29.4650   34.0415   14.7796 H   0  0  0  0  0
   33.3904   32.4446   13.7797 H   0  0  0  0  0
   32.4500   30.0753   13.8809 H   0  0  0  0  0
   32.6304   35.4611   15.9174 H   0  0  0  0  0
   30.8743   35.1672   15.7895 H   0  0  0  0  0
   30.8788   37.4369   15.5051 H   0  0  0  0  0
   31.1363   36.9396   13.8031 H   0  0  0  0  0
   31.6459   39.2773   14.2698 H   0  0  0  0  0
   32.9257   38.8287   13.1025 H   0  0  0  0  0
   33.9362   40.6460   14.0467 H   0  0  0  0  0
   34.4672   39.3998   15.2160 H   0  0  0  0  0
   33.3490   42.5621   15.2492 H   0  0  0  0  0
   34.5967   41.7909   16.2705 H   0  0  0  0  0
   31.8433   42.2602   17.3960 H   0  0  0  0  0
   32.9940   43.6231   17.2917 H   0  0  0  0  0
   33.6591   43.9143   19.4434 H   0  0  0  0  0
   32.2338   42.9286   19.8530 H   0  0  0  0  0
   33.8295   42.5077   20.5220 H   0  0  0  0  0
  1  6  1  0  0  0
  1  2  1  0  0  0
  2  5  1  0  0  0
  2  4  1  0  0  0
  2  3  1  0  0  0
  6  9  1  0  0  0
  6  8  1  0  0  0
  6  7  1  0  0  0
  7 14  4  0  0  0
  7 10  4  0  0  0
 10 11  4  0  0  0
 11 12  4  0  0  0
 12 15  1  0  0  0
 12 13  4  0  0  0
 13 14  4  0  0  0
 15 16  1  0  0  0
 16 17  1  0  0  0
 17 18  1  0  0  0
 18 19  1  0  0  0
 19 20  1  0  0  0
 20 21  1  0  0  0
 21 22  1  0  0  0
 22 23  1  0  0  0
 23 24  1  0  0  0
 24 25  1  0  0  0
  1 26  1  0  0  0
  1 27  1  0  0  0
  3 28  1  0  0  0
  3 29  1  0  0  0
  3 30  1  0  0  0
  4 31  1  0  0  0
  4 32  1  0  0  0
  4 33  1  0  0  0
  5 34  1  0  0  0
  5 35  1  0  0  0
  5 36  1  0  0  0
  8 37  1  0  0  0
  8 38  1  0  0  0
  8 39  1  0  0  0
  9 40  1  0  0  0
  9 41  1  0  0  0
  9 42  1  0  0  0
 10 43  1  0  0  0
 11 44  1  0  0  0
 13 45  1  0  0  0
 14 46  1  0  0  0
 16 47  1  0  0  0
 16 48  1  0  0  0
 17 49  1  0  0  0
 17 50  1  0  0  0
 19 51  1  0  0  0
 19 52  1  0  0  0
 20 53  1  0  0  0
 20 54  1  0  0  0
 22 55  1  0  0  0
 22 56  1  0  0  0
 23 57  1  0  0  0
 23 58  1  0  0  0
 25 59  1  0  0  0
 25 60  1  0  0  0
 25 61  1  0  0  0
M  END
$$$$
