5t97_ligand
  -I-interpret- 

 61 64  0  0  0  0  0  0  0  0999 V2000
  -42.0250   10.5610  -23.7780 C   0  0  0  0  0
  -41.1510   11.1690  -22.8490 C   0  0  0  0  0
  -39.9440   10.5260  -22.4650 C   0  0  0  0  0
  -41.4940   12.3890  -22.3470 O   0  0  0  0  0
  -40.4290    7.4510  -33.3440 O   0  0  0  0  0
  -42.4590    8.4280  -33.1340 O   0  0  0  0  0
  -37.7840    5.3870  -26.0920 C   0  0  0  0  0
  -37.4430    4.1350  -26.6390 C   0  0  0  0  0
  -37.5720    2.9740  -25.8420 C   0  0  0  0  0
  -38.0760    3.1060  -24.5100 C   0  0  0  0  0
  -38.4200    4.3660  -23.9680 C   0  0  0  0  0
  -37.1780    1.6190  -26.4430 C   0  0  0  0  0
  -36.3080    0.7400  -25.5230 C   0  0  0  0  0
  -38.3930    0.8630  -26.9960 C   0  0  0  0  0
  -40.4860    7.1380  -26.0620 C   0  0  0  0  0
  -41.3830    6.2280  -26.6890 C   0  0  0  0  0
  -41.5960    6.2510  -28.0920 C   0  0  0  0  0
  -40.9160    7.1840  -28.9110 C   0  0  0  0  0
  -39.9500    8.0270  -28.3050 C   0  0  0  0  0
  -39.7680    8.0170  -26.9080 C   0  0  0  0  0
  -41.0930    6.2160  -23.7230 C   0  0  0  0  0
  -41.0940    7.1650  -30.3750 C   0  0  0  0  0
  -41.1350    8.2250  -31.2090 C   0  0  0  0  0
  -41.2750    7.9900  -32.6310 C   0  0  0  0  0
  -39.6200    9.2540  -23.0140 C   0  0  0  0  0
  -40.4970    8.6080  -23.9590 C   0  0  0  0  0
  -41.7120    9.2920  -24.3160 C   0  0  0  0  0
  -38.3060    8.6110  -22.6040 C   0  0  0  0  0
  -38.1680    7.1340  -23.0010 C   0  0  0  0  0
  -38.7010    6.8390  -24.3500 N   0  0  0  0  0
  -40.1640    7.1780  -24.5360 C   0  0  0  0  0
  -38.2790    5.5380  -24.7640 C   0  0  0  0  0
  -42.9402   11.0704  -24.0796 H   0  0  0  0  0
  -39.2701   11.0041  -21.7541 H   0  0  0  0  0
  -40.8172   12.6828  -21.7328 H   0  0  0  0  0
  -42.9810    8.8166  -32.4283 H   0  0  0  0  0
  -37.6645    6.2772  -26.7096 H   0  0  0  0  0
  -37.0836    4.0616  -27.6654 H   0  0  0  0  0
  -38.1980    2.2129  -23.8972 H   0  0  0  0  0
  -38.7913    4.4396  -22.9458 H   0  0  0  0  0
  -36.5288    1.8597  -27.2849 H   0  0  0  0  0
  -35.3818    1.2655  -25.2902 H   0  0  0  0  0
  -36.8511    0.5325  -24.6010 H   0  0  0  0  0
  -36.0780   -0.1974  -26.0295 H   0  0  0  0  0
  -39.1061    0.6855  -26.1910 H   0  0  0  0  0
  -38.8655    1.4589  -27.7769 H   0  0  0  0  0
  -38.0676   -0.0906  -27.4117 H   0  0  0  0  0
  -41.9170    5.4989  -26.0795 H   0  0  0  0  0
  -42.2906    5.5427  -28.5436 H   0  0  0  0  0
  -39.3437    8.6877  -28.9247 H   0  0  0  0  0
  -39.0514    8.7082  -26.4644 H   0  0  0  0  0
  -42.1325    6.5126  -23.8628 H   0  0  0  0  0
  -40.9546    5.1943  -24.0768 H   0  0  0  0  0
  -40.8366    6.2734  -22.6651 H   0  0  0  0  0
  -41.2050    6.1833  -30.8355 H   0  0  0  0  0
  -41.0640    9.2404  -30.8191 H   0  0  0  0  0
  -42.4042    8.8223  -25.0148 H   0  0  0  0  0
  -38.2554    8.6548  -21.5161 H   0  0  0  0  0
  -37.5118    9.1543  -23.1160 H   0  0  0  0  0
  -38.7403    6.5450  -22.2843 H   0  0  0  0  0
  -37.1053    6.8918  -23.0061 H   0  0  0  0  0
  1  2  4  0  0  0
 27  1  4  0  0  0
  3  2  4  0  0  0
  2  4  1  0  0  0
 25  3  4  0  0  0
 24  5  2  0  0  0
 24  6  1  0  0  0
  7  8  4  0  0  0
 32  7  4  0  0  0
  8  9  4  0  0  0
 10  9  4  0  0  0
  9 12  1  0  0  0
 11 10  4  0  0  0
 32 11  4  0  0  0
 12 13  1  0  0  0
 12 14  1  0  0  0
 15 16  4  0  0  0
 15 20  4  0  0  0
 31 15  1  0  0  0
 16 17  4  0  0  0
 17 18  4  0  0  0
 19 18  4  0  0  0
 18 22  1  0  0  0
 20 19  4  0  0  0
 31 21  1  0  0  0
 22 23  2  0  0  0
 23 24  1  0  0  0
 26 25  4  0  0  0
 28 25  1  0  0  0
 26 27  4  0  0  0
 31 26  1  0  0  0
 29 28  1  0  0  0
 30 29  1  0  0  0
 30 31  1  0  0  0
 30 32  1  0  0  0
  1 33  1  0  0  0
  3 34  1  0  0  0
  4 35  1  0  0  0
  6 36  1  0  0  0
  7 37  1  0  0  0
  8 38  1  0  0  0
 10 39  1  0  0  0
 11 40  1  0  0  0
 12 41  1  0  0  0
 13 42  1  0  0  0
 13 43  1  0  0  0
 13 44  1  0  0  0
 14 45  1  0  0  0
 14 46  1  0  0  0
 14 47  1  0  0  0
 16 48  1  0  0  0
 17 49  1  0  0  0
 19 50  1  0  0  0
 20 51  1  0  0  0
 21 52  1  0  0  0
 21 53  1  0  0  0
 21 54  1  0  0  0
 22 55  1  0  0  0
 23 56  1  0  0  0
 27 57  1  0  0  0
 28 58  1  0  0  0
 28 59  1  0  0  0
 29 60  1  0  0  0
 29 61  1  0  0  0
M  END
$$$$
