4m3d_ligand
  -I-interpret- 

 45 46  0  0  0  0  0  0  0  0999 V2000
   27.4340   -2.5410   -5.2470 O   0  0  0  0  0
   26.3100   -3.4180   -4.9850 S   0  0  0  0  0
   25.9110   -4.1490   -6.1800 O   0  0  0  0  0
   25.0290   -2.5640   -4.4750 C   0  0  0  0  0
   23.7440   -2.8120   -4.9940 C   0  0  0  0  0
   22.6420   -2.0820   -4.5220 C   0  0  0  0  0
   22.7860   -1.1000   -3.5460 C   0  0  0  0  0
   24.0700   -0.8580   -3.0370 C   0  0  0  0  0
   25.1900   -1.5730   -3.4910 C   0  0  0  0  0
   26.7680   -4.4500   -3.8780 N   0  0  0  0  0
   25.8330   -5.5470   -3.6230 C   0  0  0  0  0
   26.2540   -6.9080   -4.1040 C   0  0  0  0  0
   26.5550   -7.9980   -4.4570 C   0  0  0  0  0
   26.8590   -9.2090   -4.8560 C   0  0  0  0  0
   27.2690  -10.1840   -3.9640 C   0  0  0  0  0
   27.4990  -11.4770   -4.4450 C   0  0  0  0  0
   26.5660   -9.5370   -6.1880 C   0  0  0  0  0
   26.7810  -10.7910   -6.6980 C   0  0  0  0  0
   27.2610  -11.7730   -5.8260 C   0  0  0  0  0
   27.5320  -13.1460   -6.3550 C   0  0  0  0  0
   27.4340  -13.3070   -7.5690 O   0  0  0  0  0
   27.9260  -14.1330   -5.5150 N   0  0  0  0  0
   28.2360  -15.4500   -5.9830 C   0  0  0  0  0
   29.6830  -15.4350   -6.5360 C   0  0  0  0  0
   30.0760  -16.6270   -7.3910 C   0  0  0  0  0
   29.9410  -17.7930   -6.7770 F   0  0  0  0  0
   29.3150  -16.6310   -8.4470 F   0  0  0  0  0
   31.3210  -16.4820   -7.8020 F   0  0  0  0  0
   23.6048   -3.5717   -5.7632 H   0  0  0  0  0
   21.6520   -2.2885   -4.9285 H   0  0  0  0  0
   21.9253   -0.5353   -3.1876 H   0  0  0  0  0
   24.2020   -0.0955   -2.2694 H   0  0  0  0  0
   26.1782   -1.3609   -3.0829 H   0  0  0  0  0
   27.6519   -4.3579   -3.3773 H   0  0  0  0  0
   24.9216   -5.3014   -4.1681 H   0  0  0  0  0
   25.7430   -5.6229   -2.5394 H   0  0  0  0  0
   27.4097   -9.9494   -2.9089 H   0  0  0  0  0
   27.8577  -12.2558   -3.7720 H   0  0  0  0  0
   26.1529   -8.7677   -6.8404 H   0  0  0  0  0
   26.5847  -11.0148   -7.7465 H   0  0  0  0  0
   28.0042  -13.9316   -4.5181 H   0  0  0  0  0
   27.5373  -15.7450   -6.7659 H   0  0  0  0  0
   28.1526  -16.1682   -5.1674 H   0  0  0  0  0
   30.3439  -15.4465   -5.6693 H   0  0  0  0  0
   29.7581  -14.5574   -7.1781 H   0  0  0  0  0
  1  2  2  0  0  0
  2  3  2  0  0  0
  2  4  1  0  0  0
  2 10  1  0  0  0
  4  5  4  0  0  0
  4  9  4  0  0  0
  5  6  4  0  0  0
  6  7  4  0  0  0
  7  8  4  0  0  0
  8  9  4  0  0  0
 10 11  1  0  0  0
 11 12  1  0  0  0
 12 13  3  0  0  0
 13 14  1  0  0  0
 14 15  4  0  0  0
 14 17  4  0  0  0
 15 16  4  0  0  0
 16 19  4  0  0  0
 17 18  4  0  0  0
 18 19  4  0  0  0
 19 20  1  0  0  0
 20 21  2  0  0  0
 20 22  1  0  0  0
 22 23  1  0  0  0
 23 24  1  0  0  0
 24 25  1  0  0  0
 25 26  1  0  0  0
 25 27  1  0  0  0
 25 28  1  0  0  0
  5 29  1  0  0  0
  6 30  1  0  0  0
  7 31  1  0  0  0
  8 32  1  0  0  0
  9 33  1  0  0  0
 10 34  1  0  0  0
 11 35  1  0  0  0
 11 36  1  0  0  0
 15 37  1  0  0  0
 16 38  1  0  0  0
 17 39  1  0  0  0
 18 40  1  0  0  0
 22 41  1  0  0  0
 23 42  1  0  0  0
 23 43  1  0  0  0
 24 44  1  0  0  0
 24 45  1  0  0  0
M  END
$$$$
