2o48_ligand
  -I-interpret- 

 18 18  0  0  0  0  0  0  0  0999 V2000
  -15.4010  -47.0530    3.6450 C   0  0  0  0  0
  -16.3860  -46.1510    3.3250 C   0  0  0  0  0
  -16.0910  -44.7990    3.3040 C   0  0  0  0  0
  -14.8030  -44.3350    3.6310 C   0  0  0  0  0
  -13.8020  -45.2800    3.9530 C   0  0  0  0  0
  -14.1020  -46.6570    3.9590 C   0  0  0  0  0
  -15.6970  -48.3480    3.6690 O   0  0  0  0  0
  -15.3410  -42.0860    3.1170 O   0  0  0  0  0
  -14.4840  -42.8510    3.5470 C   0  0  0  0  0
  -13.1010  -42.3510    3.8530 C   0  0  0  0  0
  -17.3923  -46.4973    3.0894 H   0  0  0  0  0
  -16.8667  -44.0837    3.0305 H   0  0  0  0  0
  -12.7948  -44.9424    4.1974 H   0  0  0  0  0
  -13.3371  -47.3941    4.2032 H   0  0  0  0  0
  -14.9139  -48.8497    3.9069 H   0  0  0  0  0
  -12.6541  -41.9442    2.9458 H   0  0  0  0  0
  -13.1577  -41.5714    4.6127 H   0  0  0  0  0
  -12.4912  -43.1758    4.2217 H   0  0  0  0  0
  1  2  4  0  0  0
  1  6  4  0  0  0
  1  7  1  0  0  0
  2  3  4  0  0  0
  3  4  4  0  0  0
  4  5  4  0  0  0
  4  9  1  0  0  0
  5  6  4  0  0  0
  9  8  2  0  0  0
  9 10  1  0  0  0
  2 11  1  0  0  0
  3 12  1  0  0  0
  5 13  1  0  0  0
  6 14  1  0  0  0
  7 15  1  0  0  0
 10 16  1  0  0  0
 10 17  1  0  0  0
 10 18  1  0  0  0
M  END
$$$$
