5eko_ligand
  -I-interpret- 

 46 49  0  0  0  0  0  0  0  0999 V2000
  -13.1760   12.4390  -26.4470 O   0  0  0  0  0
  -13.9890   11.5510  -26.2600 C   0  0  0  0  0
  -14.7970   11.6150  -24.9930 C   0  0  0  0  0
  -15.1650   12.8490  -24.4820 C   0  0  0  0  0
  -15.9120   12.9100  -23.3160 C   0  0  0  0  0
  -16.2840   11.7410  -22.6680 C   0  0  0  0  0
  -15.1910   10.4580  -24.3300 C   0  0  0  0  0
  -15.9400   10.4770  -23.1450 C   0  0  0  0  0
  -16.3010    9.3490  -22.5260 N   0  0  0  0  0
  -15.9470    8.1660  -23.0150 C   0  0  0  0  0
  -17.0270    9.3230  -21.4020 C   0  0  0  0  0
  -17.1590    8.0020  -21.1080 N   0  0  0  0  0
  -16.5120    7.3190  -22.0820 C   0  0  0  0  0
  -16.2800    5.8610  -22.3650 C   0  0  0  0  0
  -14.1980   10.5490  -27.1220 N   0  0  0  0  0
  -13.5370   10.3660  -28.3020 C   0  0  0  0  0
  -12.1790   10.6470  -28.4470 C   0  0  0  0  0
  -11.5250   10.4310  -29.6580 C   0  0  0  0  0
  -12.2250    9.9140  -30.7410 C   0  0  0  0  0
  -13.5690    9.5960  -30.5980 C   0  0  0  0  0
  -14.2190    9.8220  -29.3870 C   0  0  0  0  0
  -11.5920    9.6740  -31.9310 O   0  0  0  0  0
  -11.1440   10.6670  -32.7590 C   0  0  0  0  0
  -11.7210   11.9330  -32.7530 C   0  0  0  0  0
  -11.2260   12.9070  -33.6120 C   0  0  0  0  0
  -10.2130   12.6260  -34.4470 N   0  0  0  0  0
   -9.6440   11.4170  -34.4770 C   0  0  0  0  0
  -10.0940   10.4030  -33.6320 C   0  0  0  0  0
  -14.8693   13.7652  -24.9931 H   0  0  0  0  0
  -16.2073   13.8767  -22.9081 H   0  0  0  0  0
  -16.8678   11.8137  -21.7504 H   0  0  0  0  0
  -14.9049    9.4937  -24.7501 H   0  0  0  0  0
  -15.3689    7.9287  -23.9081 H   0  0  0  0  0
  -17.4242   10.1721  -20.8458 H   0  0  0  0  0
  -16.7094    5.6075  -23.3342 H   0  0  0  0  0
  -15.2087    5.6606  -22.3772 H   0  0  0  0  0
  -16.7543    5.2614  -21.5880 H   0  0  0  0  0
  -14.9122    9.8635  -26.8762 H   0  0  0  0  0
  -11.6199   11.0422  -27.5989 H   0  0  0  0  0
  -10.4654   10.6673  -29.7557 H   0  0  0  0  0
  -14.1177    9.1678  -31.4369 H   0  0  0  0  0
  -15.2748    9.5698  -29.2876 H   0  0  0  0  0
  -12.5508   12.1581  -32.0830 H   0  0  0  0  0
  -11.6631   13.9055  -33.6077 H   0  0  0  0  0
   -8.8227   11.2223  -35.1666 H   0  0  0  0  0
   -9.6293    9.4173  -33.6554 H   0  0  0  0  0
  1  2  2  0  0  0
  2  3  1  0  0  0
  2 15  1  0  0  0
  3  4  4  0  0  0
  3  7  4  0  0  0
  4  5  4  0  0  0
  5  6  4  0  0  0
  6  8  4  0  0  0
  7  8  4  0  0  0
  8  9  1  0  0  0
  9 10  4  0  0  0
  9 11  4  0  0  0
 10 13  4  0  0  0
 11 12  4  0  0  0
 12 13  4  0  0  0
 13 14  1  0  0  0
 15 16  1  0  0  0
 16 17  4  0  0  0
 16 21  4  0  0  0
 17 18  4  0  0  0
 18 19  4  0  0  0
 19 20  4  0  0  0
 19 22  1  0  0  0
 20 21  4  0  0  0
 22 23  1  0  0  0
 23 24  4  0  0  0
 23 28  4  0  0  0
 24 25  4  0  0  0
 25 26  4  0  0  0
 26 27  4  0  0  0
 27 28  4  0  0  0
  4 29  1  0  0  0
  5 30  1  0  0  0
  6 31  1  0  0  0
  7 32  1  0  0  0
 10 33  1  0  0  0
 11 34  1  0  0  0
 14 35  1  0  0  0
 14 36  1  0  0  0
 14 37  1  0  0  0
 15 38  1  0  0  0
 17 39  1  0  0  0
 18 40  1  0  0  0
 20 41  1  0  0  0
 21 42  1  0  0  0
 24 43  1  0  0  0
 25 44  1  0  0  0
 27 45  1  0  0  0
 28 46  1  0  0  0
M  END
$$$$
