5fsx_ligand
  -I-interpret- 

 42 44  0  0  0  0  0  0  0  0999 V2000
   64.1490    5.9810   86.4030 P   0  0  0  0  0
   62.7420    6.5460   86.4150 O   0  0  0  0  0
   65.1610    6.8500   87.1210 O   0  0  0  0  0
   64.2550    4.5240   86.7670 O   0  0  0  0  0
   63.6210    5.8420   83.5690 P   0  0  0  0  0
   62.3800    5.0600   83.9520 O   0  0  0  0  0
   64.4570    5.3700   82.4070 O   0  0  0  0  0
   64.5880    6.0340   84.8500 O   0  0  0  0  0
   63.2250    7.3580   83.2060 O   0  0  0  0  0
   64.1520    8.4260   83.4190 C   0  0  0  0  0
   64.2030    9.3410   82.2010 C   0  0  0  0  0
   64.6360    8.5630   81.0880 O   0  0  0  0  0
   62.8490    9.9160   81.8190 C   0  0  0  0  0
   62.9780   11.2710   81.3740 O   0  0  0  0  0
   62.4030    9.0820   80.6400 C   0  0  0  0  0
   61.5090    9.8170   79.7910 O   0  0  0  0  0
   63.7530    8.7550   79.9930 C   0  0  0  0  0
   63.7000    7.5740   79.0980 N   0  0  0  0  0
   63.0010    6.4380   79.3180 C   0  0  0  0  0
   63.1580    5.5810   78.2840 N   0  0  0  0  0
   63.9570    6.1740   77.3790 C   0  0  0  0  0
   64.5210    5.7970   76.0680 C   0  0  0  0  0
   64.2240    4.5930   75.5350 N   0  0  0  0  0
   65.3130    6.6910   75.4410 N   0  0  0  0  0
   65.6060    7.8960   75.9830 C   0  0  0  0  0
   65.1360    8.2960   77.1800 N   0  0  0  0  0
   64.3190    7.4910   77.9140 C   0  0  0  0  0
   62.7691    7.4745   86.1724 H   0  0  0  0  0
   65.0457    7.7638   86.8503 H   0  0  0  0  0
   61.9574    5.4808   84.7043 H   0  0  0  0  0
   65.1435    8.0055   83.5873 H   0  0  0  0  0
   63.8306    9.0061   84.2840 H   0  0  0  0  0
   64.8698   10.1660   82.4515 H   0  0  0  0  0
   62.1594    9.8998   82.6630 H   0  0  0  0  0
   62.1125   11.6131   81.1385 H   0  0  0  0  0
   61.8238    8.1916   80.8846 H   0  0  0  0  0
   61.2431    9.2637   79.0529 H   0  0  0  0  0
   64.0825    9.5579   79.3336 H   0  0  0  0  0
   62.3966    6.2409   80.2034 H   0  0  0  0  0
   63.6129    3.9494   76.0378 H   0  0  0  0  0
   64.6106    4.3267   74.6295 H   0  0  0  0  0
   66.2520    8.5739   75.4251 H   0  0  0  0  0
  1  2  1  0  0  0
  1  3  1  0  0  0
  1  4  2  0  0  0
  8  1  1  0  0  0
  5  6  1  0  0  0
  5  7  2  0  0  0
  5  8  1  0  0  0
  5  9  1  0  0  0
  9 10  1  0  0  0
 10 11  1  0  0  0
 11 12  1  0  0  0
 11 13  1  0  0  0
 12 17  1  0  0  0
 13 14  1  0  0  0
 13 15  1  0  0  0
 15 16  1  0  0  0
 15 17  1  0  0  0
 17 18  1  0  0  0
 18 19  4  0  0  0
 18 27  4  0  0  0
 19 20  4  0  0  0
 20 21  4  0  0  0
 21 22  4  0  0  0
 21 27  4  0  0  0
 22 23  1  0  0  0
 22 24  4  0  0  0
 24 25  4  0  0  0
 25 26  4  0  0  0
 26 27  4  0  0  0
  2 28  1  0  0  0
  3 29  1  0  0  0
  6 30  1  0  0  0
 10 31  1  0  0  0
 10 32  1  0  0  0
 11 33  1  0  0  0
 13 34  1  0  0  0
 14 35  1  0  0  0
 15 36  1  0  0  0
 16 37  1  0  0  0
 17 38  1  0  0  0
 19 39  1  0  0  0
 23 40  1  0  0  0
 23 41  1  0  0  0
 25 42  1  0  0  0
M  END
$$$$
