1i9n_ligand
  -I-interpret- 

 34 35  0  0  0  0  0  0  0  0999 V2000
   -3.8580    2.6650   14.6340 C   0  0  0  0  0
   -4.2550    1.6000   15.4550 C   0  0  0  0  0
   -5.6300    1.5110   15.8800 C   0  0  0  0  0
   -6.5210    2.5060   15.4670 C   0  0  0  0  0
   -6.0910    3.5650   14.6510 C   0  0  0  0  0
   -4.7660    3.6560   14.2180 C   0  0  0  0  0
   -4.2940    4.7950   13.3100 C   0  0  0  0  0
   -5.1660    5.6310   12.9800 O   0  0  0  0  0
   -2.9430    4.9470   12.8050 N   0  0  0  0  0
   -2.5340    6.2940   12.4270 C   0  0  0  0  0
   -6.0970    0.1220   16.9150 S   0  0  0  0  0
   -5.6460   -1.3760   16.2760 N   0  0  0  0  0
   -7.5310    0.3470   17.0640 O   0  0  0  0  0
   -5.4160    0.4830   18.1730 O   0  0  0  0  0
   -1.8730    7.1420   13.3370 C   0  0  0  0  0
   -2.1550    7.0100   14.7610 C   0  0  0  0  0
   -1.4740    7.8960   15.7000 C   0  0  0  0  0
   -0.5340    8.8880   15.2000 C   0  0  0  0  0
   -0.2600    9.0020   13.7600 C   0  0  0  0  0
   -0.9230    8.1380   12.8340 C   0  0  0  0  0
   -0.6810    8.2560   11.6550 F   0  0  0  0  0
   -1.7210    7.7970   17.0360 F   0  0  0  0  0
   -2.8192    2.7268   14.3097 H   0  0  0  0  0
   -3.5318    0.8472   15.7687 H   0  0  0  0  0
   -7.5633    2.4592   15.7825 H   0  0  0  0  0
   -6.8053    4.3311   14.3495 H   0  0  0  0  0
   -2.3108    4.1512   12.7187 H   0  0  0  0  0
   -3.4751    6.8068   12.2282 H   0  0  0  0  0
   -1.7985    6.1323   11.6389 H   0  0  0  0  0
   -4.9536   -1.9487   16.7586 H   0  0  0  0  0
   -6.0662   -1.7074   15.4077 H   0  0  0  0  0
   -2.8627    6.2621   15.1187 H   0  0  0  0  0
   -0.0281    9.5530   15.8999 H   0  0  0  0  0
    0.4495    9.7462   13.3981 H   0  0  0  0  0
  1  6  4  0  0  0
  1  2  4  0  0  0
  2  3  4  0  0  0
  3 11  1  0  0  0
  3  4  4  0  0  0
  4  5  4  0  0  0
  5  6  4  0  0  0
  6  7  1  0  0  0
  7  9  1  0  0  0
  7  8  2  0  0  0
  9 10  1  0  0  0
 10 15  1  0  0  0
 15 20  4  0  0  0
 15 16  4  0  0  0
 16 17  4  0  0  0
 17 18  4  0  0  0
 18 19  4  0  0  0
 19 20  4  0  0  0
 11 14  2  0  0  0
 11 13  2  0  0  0
 11 12  1  0  0  0
 20 21  1  0  0  0
 17 22  1  0  0  0
  1 23  1  0  0  0
  2 24  1  0  0  0
  4 25  1  0  0  0
  5 26  1  0  0  0
  9 27  1  0  0  0
 10 28  1  0  0  0
 10 29  1  0  0  0
 12 30  1  0  0  0
 12 31  1  0  0  0
 16 32  1  0  0  0
 18 33  1  0  0  0
 19 34  1  0  0  0
M  END
$$$$
