2h8h_ligand
  -I-interpret- 

 72 77  0  0  0  0  0  0  0  0999 V2000
   27.1610   14.9190   60.1170 C   0  0  0  0  0
   27.1230   16.3700   59.8410 N   0  3  0  0  0
   26.4230   16.5910   58.5480 C   0  0  0  0  0
   26.3740   18.1100   58.2720 C   0  0  0  0  0
   25.7090   18.8430   59.3760 N   0  3  0  0  0
   26.0190   20.2400   59.1190 C   0  0  0  0  0
   24.7550   21.0440   58.8870 C   0  0  0  0  0
   23.6390   20.2030   59.0860 O   0  0  0  0  0
   22.5160   20.8860   58.7490 C   0  0  0  0  0
   21.3050   20.1870   58.7360 C   0  0  0  0  0
   20.1260   20.8250   58.3890 C   0  0  0  0  0
   18.9230   20.1760   58.3460 O   0  0  0  0  0
   18.8930   18.9970   59.1450 C   0  0  0  0  0
   17.6710   19.1530   60.0500 C   0  0  0  0  0
   17.2150   17.8250   60.6710 C   0  0  0  0  0
   17.1820   16.7620   59.7110 O   0  0  0  0  0
   18.3720   16.5510   58.9550 C   0  0  0  0  0
   18.7040   17.8370   58.1730 C   0  0  0  0  0
   20.1480   22.2020   58.0760 C   0  0  0  0  0
   18.9680   22.9450   57.7350 C   0  0  0  0  0
   17.7110   22.3300   57.6890 N   0  0  0  0  0
   16.5270   23.0070   57.2880 C   0  0  0  0  0
   16.4740   23.7090   56.0740 C   0  0  0  0  0
   17.3970   23.9430   55.0710 O   0  0  0  0  0
   16.9720   25.1470   54.4240 C   0  0  0  0  0
   15.5540   24.9650   54.4830 O   0  0  0  0  0
   15.2960   24.3470   55.6850 C   0  0  0  0  0
   14.1760   24.3080   56.4990 C   0  0  0  0  0
   14.2070   23.6040   57.6940 C   0  0  0  0  0
   15.3640   22.9490   58.0830 C   0  0  0  0  0
   15.3560   22.0940   59.6070 Cl  0  0  0  0  0
   19.1010   24.2560   57.4940 N   0  0  0  0  0
   20.2600   24.8470   57.5280 C   0  0  0  0  0
   21.3810   24.2100   57.8210 N   0  0  0  0  0
   21.3850   22.9060   58.1070 C   0  0  0  0  0
   22.5640   22.2410   58.4410 C   0  0  0  0  0
   26.3440   18.5430   60.6840 C   0  0  0  0  0
   26.3870   17.0280   60.9570 C   0  0  0  0  0
   27.6730   14.7437   61.0632 H   0  0  0  0  0
   26.1426   14.5351   60.1769 H   0  0  0  0  0
   27.6953   14.4115   59.3138 H   0  0  0  0  0
   28.0624   16.7619   59.7748 H   0  0  0  0  0
   25.4112   16.1888   58.5987 H   0  0  0  0  0
   26.9562   16.0834   57.7442 H   0  0  0  0  0
   25.8060   18.2760   57.3566 H   0  0  0  0  0
   27.3963   18.4771   58.1810 H   0  0  0  0  0
   24.7184   18.6026   59.4127 H   0  0  0  0  0
   26.6410   20.3013   58.2260 H   0  0  0  0  0
   26.5383   20.6479   59.9862 H   0  0  0  0  0
   24.7468   21.4345   57.8694 H   0  0  0  0  0
   24.7161   21.8810   59.5841 H   0  0  0  0  0
   21.2889   19.1300   59.0015 H   0  0  0  0  0
   19.7870   18.8294   59.7456 H   0  0  0  0  0
   16.8517   19.5346   59.4407 H   0  0  0  0  0
   17.9427   19.8254   60.8637 H   0  0  0  0  0
   16.2063   17.9615   61.0608 H   0  0  0  0  0
   17.9251   17.5544   61.4524 H   0  0  0  0  0
   18.2239   15.7254   58.2590 H   0  0  0  0  0
   19.1953   16.3058   59.6260 H   0  0  0  0  0
   19.6231   17.6876   57.6064 H   0  0  0  0  0
   17.8846   18.0668   57.4919 H   0  0  0  0  0
   17.6414   21.3481   57.9563 H   0  0  0  0  0
   17.3696   25.2857   53.4186 H   0  0  0  0  0
   17.3310   26.0638   54.8917 H   0  0  0  0  0
   13.2680   24.8317   56.1999 H   0  0  0  0  0
   13.3205   23.5662   58.3271 H   0  0  0  0  0
   20.3087   25.9129   57.3054 H   0  0  0  0  0
   23.5127   22.7773   58.4604 H   0  0  0  0  0
   25.7570   19.0186   61.4697 H   0  0  0  0  0
   27.3668   18.9194   60.6654 H   0  0  0  0  0
   26.8923   16.8336   61.9030 H   0  0  0  0  0
   25.3737   16.6315   61.0206 H   0  0  0  0  0
  1  2  1  0  0  0
  2  3  1  0  0  0
  2 38  1  0  0  0
  3  4  1  0  0  0
  4  5  1  0  0  0
  5  6  1  0  0  0
  5 37  1  0  0  0
  6  7  1  0  0  0
  7  8  1  0  0  0
  8  9  1  0  0  0
  9 10  4  0  0  0
  9 36  4  0  0  0
 10 11  4  0  0  0
 11 12  1  0  0  0
 11 19  4  0  0  0
 12 13  1  0  0  0
 13 14  1  0  0  0
 13 18  1  0  0  0
 14 15  1  0  0  0
 15 16  1  0  0  0
 16 17  1  0  0  0
 17 18  1  0  0  0
 19 20  4  0  0  0
 19 35  4  0  0  0
 20 21  1  0  0  0
 20 32  4  0  0  0
 21 22  1  0  0  0
 22 23  4  0  0  0
 22 30  4  0  0  0
 23 24  1  0  0  0
 23 27  4  0  0  0
 24 25  1  0  0  0
 25 26  1  0  0  0
 26 27  1  0  0  0
 27 28  4  0  0  0
 28 29  4  0  0  0
 29 30  4  0  0  0
 30 31  1  0  0  0
 32 33  4  0  0  0
 33 34  4  0  0  0
 34 35  4  0  0  0
 35 36  4  0  0  0
 37 38  1  0  0  0
  1 39  1  0  0  0
  1 40  1  0  0  0
  1 41  1  0  0  0
  2 42  1  0  0  0
  3 43  1  0  0  0
  3 44  1  0  0  0
  4 45  1  0  0  0
  4 46  1  0  0  0
  5 47  1  0  0  0
  6 48  1  0  0  0
  6 49  1  0  0  0
  7 50  1  0  0  0
  7 51  1  0  0  0
 10 52  1  0  0  0
 13 53  1  0  0  0
 14 54  1  0  0  0
 14 55  1  0  0  0
 15 56  1  0  0  0
 15 57  1  0  0  0
 17 58  1  0  0  0
 17 59  1  0  0  0
 18 60  1  0  0  0
 18 61  1  0  0  0
 21 62  1  0  0  0
 25 63  1  0  0  0
 25 64  1  0  0  0
 28 65  1  0  0  0
 29 66  1  0  0  0
 33 67  1  0  0  0
 36 68  1  0  0  0
 37 69  1  0  0  0
 37 70  1  0  0  0
 38 71  1  0  0  0
 38 72  1  0  0  0
M  END
$$$$
