5mpn_ligand
  -I-interpret- 

 38 40  0  0  0  0  0  0  0  0999 V2000
  -15.7340  -14.7960   -2.4620 C   0  0  0  0  0
   -9.3790  -12.0150    2.8870 C   0  0  0  0  0
  -11.3270  -17.9100    1.0940 C   0  0  0  0  0
  -11.2070  -16.5780    0.7040 C   0  0  0  0  0
  -12.5370  -18.3700    1.6020 C   0  0  0  0  0
  -11.6320  -11.6040   -0.1540 C   0  0  0  0  0
  -12.5940  -12.3320   -0.8550 C   0  0  0  0  0
  -13.5030  -16.1910    1.3320 C   0  0  0  0  0
  -11.1470  -13.5610    1.1420 C   0  0  0  0  0
  -14.6720  -13.7770   -2.0440 C   0  0  0  0  0
   -9.9610  -11.4380    1.5950 C   0  0  0  0  0
  -10.8940  -12.2080    0.8650 C   0  0  0  0  0
  -12.2890  -15.6930    0.8170 C   0  0  0  0  0
  -13.6480  -17.5350    1.7290 C   0  0  0  0  0
  -12.8270  -13.6760   -0.5390 C   0  0  0  0  0
  -12.1050  -14.3270    0.4580 C   0  0  0  0  0
  -14.7920  -18.0480    2.2700 C   0  0  0  0  0
  -16.6960  -18.2500    3.2230 N   0  0  0  0  0
  -15.8280  -17.3650    2.7590 N   0  0  0  0  0
  -15.0610  -19.3360    2.4830 N   0  0  0  0  0
  -16.2210  -19.4170    3.0520 N   0  0  0  0  0
   -9.7280  -10.2540    1.3280 O   0  0  0  0  0
  -13.7490  -14.4460   -1.1760 O   0  0  0  0  0
  -15.2550  -15.6256   -2.9821 H   0  0  0  0  0
  -16.2468  -15.1689   -1.5754 H   0  0  0  0  0
  -16.4542  -14.3170   -3.1253 H   0  0  0  0  0
   -8.2919  -11.9405    2.8593 H   0  0  0  0  0
   -9.7614  -11.4529    3.7390 H   0  0  0  0  0
   -9.6705  -13.0612    2.9799 H   0  0  0  0  0
  -10.4779  -18.5872    1.0016 H   0  0  0  0  0
  -10.2584  -16.2185    0.3053 H   0  0  0  0  0
  -12.6201  -19.4123    1.9097 H   0  0  0  0  0
  -11.4559  -10.5577   -0.4036 H   0  0  0  0  0
  -13.1654  -11.8534   -1.6503 H   0  0  0  0  0
  -14.3543  -15.5167    1.4258 H   0  0  0  0  0
  -10.5687  -14.0428    1.9304 H   0  0  0  0  0
  -15.1346  -12.9340   -1.5306 H   0  0  0  0  0
  -14.1550  -13.3851   -2.9199 H   0  0  0  0  0
 10  1  1  0  0  0
 11  2  1  0  0  0
  4  3  4  0  0  0
  3  5  4  0  0  0
 13  4  4  0  0  0
 14  5  4  0  0  0
  7  6  4  0  0  0
  6 12  4  0  0  0
 15  7  4  0  0  0
 13  8  4  0  0  0
  8 14  4  0  0  0
  9 12  4  0  0  0
 16  9  4  0  0  0
 23 10  1  0  0  0
 12 11  1  0  0  0
 11 22  2  0  0  0
 16 13  1  0  0  0
 14 17  1  0  0  0
 15 16  4  0  0  0
 15 23  1  0  0  0
 17 19  4  0  0  0
 17 20  4  0  0  0
 19 18  4  0  0  0
 18 21  4  0  0  0
 20 21  4  0  0  0
  1 24  1  0  0  0
  1 25  1  0  0  0
  1 26  1  0  0  0
  2 27  1  0  0  0
  2 28  1  0  0  0
  2 29  1  0  0  0
  3 30  1  0  0  0
  4 31  1  0  0  0
  5 32  1  0  0  0
  6 33  1  0  0  0
  7 34  1  0  0  0
  8 35  1  0  0  0
  9 36  1  0  0  0
 10 37  1  0  0  0
 10 38  1  0  0  0
M  END
$$$$
