6i5y_ligand
  -I-interpret- 

 59 62  0  0  0  0  0  0  0  0999 V2000
  -49.7020    1.0290  -44.6500 C   0  0  0  0  0
  -48.4710    0.3930  -44.6960 C   0  0  0  0  0
  -48.1600   -0.5760  -43.7520 C   0  0  0  0  0
  -46.9300   -1.1530  -43.7310 O   0  0  0  0  0
  -49.0990   -0.9310  -42.7930 C   0  0  0  0  0
  -50.3390   -0.3200  -42.7820 C   0  0  0  0  0
  -50.6560    0.6740  -43.7000 C   0  0  0  0  0
  -52.0060    1.3440  -43.6650 C   0  0  0  0  0
  -51.9450    2.8590  -43.4680 C   0  0  0  0  0
  -51.1840    3.2170  -42.2660 N   0  3  0  0  0
  -53.3800    3.3010  -43.2510 C   0  0  0  0  0
  -53.8940    3.4270  -42.1400 O   0  0  0  0  0
  -54.1000    3.5490  -44.3980 N   0  0  0  0  0
  -55.6830    3.4480  -44.5870 S   0  0  0  0  0
  -56.2570    4.5210  -43.8580 O   0  0  0  0  0
  -56.1690    2.1240  -44.4490 O   0  0  0  0  0
  -55.8370    3.8290  -46.1250 O   0  0  0  0  0
  -55.2200    2.9230  -47.1010 C   0  0  0  0  0
  -54.5790    3.7850  -48.1630 C   0  0  0  0  0
  -55.5890    4.5720  -48.8370 O   0  0  0  0  0
  -53.5250    4.7800  -47.6620 C   0  0  0  0  0
  -52.4010    4.7800  -48.5390 O   0  0  0  0  0
  -54.2760    6.1060  -47.6910 C   0  0  0  0  0
  -53.4450    7.2380  -47.8540 O   0  0  0  0  0
  -55.1180    5.8990  -48.9390 C   0  0  0  0  0
  -56.2540    6.8070  -49.0670 N   0  0  0  0  0
  -57.3030    6.9810  -48.1990 C   0  0  0  0  0
  -58.1300    7.9400  -48.5440 N   0  0  0  0  0
  -57.5910    8.4300  -49.7240 C   0  0  0  0  0
  -56.4430    7.7290  -50.0680 C   0  0  0  0  0
  -55.6760    7.9280  -51.1470 N   0  0  0  0  0
  -56.1400    8.9400  -51.8900 C   0  0  0  0  0
  -57.2220    9.7010  -51.6840 N   0  0  0  0  0
  -57.9810    9.4740  -50.5870 C   0  0  0  0  0
  -59.0140   10.2920  -50.3430 N   0  0  0  0  0
  -49.9262    1.8181  -45.3677 H   0  0  0  0  0
  -47.7498    0.6530  -45.4708 H   0  0  0  0  0
  -46.8912   -1.7953  -43.0186 H   0  0  0  0  0
  -48.8587   -1.6908  -42.0494 H   0  0  0  0  0
  -51.0796   -0.6226  -42.0417 H   0  0  0  0  0
  -52.5501    0.9297  -42.8162 H   0  0  0  0  0
  -52.4815    1.1627  -44.6289 H   0  0  0  0  0
  -51.4641    3.3281  -44.3264 H   0  0  0  0  0
  -51.1645    4.2320  -42.1671 H   0  0  0  0  0
  -51.6294    2.8029  -41.4472 H   0  0  0  0  0
  -50.2308    2.8641  -42.3509 H   0  0  0  0  0
  -53.5626    3.8284  -45.2187 H   0  0  0  0  0
  -55.9682    2.2633  -47.5405 H   0  0  0  0  0
  -54.4761    2.2878  -46.6200 H   0  0  0  0  0
  -54.0775    3.0680  -48.8130 H   0  0  0  0  0
  -53.1227    4.5528  -46.6748 H   0  0  0  0  0
  -51.7465    5.4049  -48.2185 H   0  0  0  0  0
  -54.8085    6.3138  -46.7629 H   0  0  0  0  0
  -53.9852    8.0315  -47.8628 H   0  0  0  0  0
  -54.5081    6.0978  -49.8203 H   0  0  0  0  0
  -57.4374    6.3761  -47.3023 H   0  0  0  0  0
  -55.5594    9.1760  -52.7818 H   0  0  0  0  0
  -59.5666   10.1762  -49.4935 H   0  0  0  0  0
  -59.2477   11.0304  -51.0067 H   0  0  0  0  0
  1  2  4  0  0  0
  1  7  4  0  0  0
  2  3  4  0  0  0
  3  4  1  0  0  0
  3  5  4  0  0  0
  5  6  4  0  0  0
  6  7  4  0  0  0
  7  8  1  0  0  0
  8  9  1  0  0  0
  9 10  1  0  0  0
  9 11  1  0  0  0
 11 12  2  0  0  0
 11 13  1  0  0  0
 13 14  1  0  0  0
 14 15  2  0  0  0
 14 16  2  0  0  0
 14 17  1  0  0  0
 17 18  1  0  0  0
 18 19  1  0  0  0
 19 20  1  0  0  0
 19 21  1  0  0  0
 20 25  1  0  0  0
 21 22  1  0  0  0
 21 23  1  0  0  0
 23 24  1  0  0  0
 23 25  1  0  0  0
 25 26  1  0  0  0
 26 27  4  0  0  0
 26 30  4  0  0  0
 27 28  4  0  0  0
 28 29  4  0  0  0
 29 30  4  0  0  0
 29 34  4  0  0  0
 30 31  4  0  0  0
 31 32  4  0  0  0
 32 33  4  0  0  0
 33 34  4  0  0  0
 34 35  1  0  0  0
  1 36  1  0  0  0
  2 37  1  0  0  0
  4 38  1  0  0  0
  5 39  1  0  0  0
  6 40  1  0  0  0
  8 41  1  0  0  0
  8 42  1  0  0  0
  9 43  1  0  0  0
 10 44  1  0  0  0
 10 45  1  0  0  0
 10 46  1  0  0  0
 13 47  1  0  0  0
 18 48  1  0  0  0
 18 49  1  0  0  0
 19 50  1  0  0  0
 21 51  1  0  0  0
 22 52  1  0  0  0
 23 53  1  0  0  0
 24 54  1  0  0  0
 25 55  1  0  0  0
 27 56  1  0  0  0
 32 57  1  0  0  0
 35 58  1  0  0  0
 35 59  1  0  0  0
M  END
$$$$
