1au0_ligand
  -I-interpret- 

 86 87  0  0  0  0  0  0  0  0999 V2000
    0.1300   37.0370   62.7980 C   0  0  0  0  0
    0.1770   38.1890   63.5960 C   0  0  0  0  0
    1.3730   38.8940   63.7360 C   0  0  0  0  0
    2.5250   38.4630   63.0900 C   0  0  0  0  0
    2.4630   37.3170   62.2950 C   0  0  0  0  0
    1.2740   36.6030   62.1480 C   0  0  0  0  0
    3.8290   39.1950   63.2760 C   0  0  0  0  0
    4.4150   39.0790   64.5860 O   0  0  0  0  0
    5.7520   38.6560   64.6190 C   0  0  0  0  0
    6.6190   39.2640   63.9820 O   0  0  0  0  0
    7.3000   36.9030   65.4950 C   0  0  0  0  0
    8.2250   37.1880   64.3040 C   0  0  0  0  0
    8.2630   36.1550   63.1750 C   0  0  0  0  0
    9.5650   36.3100   62.4070 C   0  0  0  0  0
    8.1000   34.7130   63.6930 C   0  0  0  0  0
    8.1020   36.9950   66.7950 C   0  0  0  0  0
    8.4740   35.9560   67.3540 O   0  0  0  0  0
    8.4100   38.1960   67.2870 N   0  0  0  0  0
    9.2040   38.3940   68.5110 C   0  0  0  0  0
    5.9860   37.5620   65.3510 N   0  0  0  0  0
    8.4860   39.1680   69.5950 C   0  0  0  0  0
    7.6040   39.8630   69.0990 O   0  0  0  0  0
   18.5740   35.2160   73.8060 C   0  0  0  0  0
   17.2110   35.3850   73.5800 C   0  0  0  0  0
   16.7800   36.3930   72.7340 C   0  0  0  0  0
   17.6880   37.2480   72.1000 C   0  0  0  0  0
   19.0470   37.0740   72.3350 C   0  0  0  0  0
   19.4980   36.0650   73.1820 C   0  0  0  0  0
   17.2100   38.3240   71.1590 C   0  0  0  0  0
   16.1370   38.0570   70.2410 O   0  0  0  0  0
   14.8290   37.7800   70.7060 C   0  0  0  0  0
   14.3690   36.6360   70.7060 O   0  0  0  0  0
   12.7400   38.5980   71.6500 C   0  0  0  0  0
   12.6760   38.7120   73.1710 C   0  0  0  0  0
   12.8410   37.4320   73.9700 C   0  0  0  0  0
   12.5570   36.2090   73.0970 C   0  0  0  0  0
   14.2560   37.4030   74.4850 C   0  0  0  0  0
   11.7710   39.5920   71.0350 C   0  0  0  0  0
   12.1680   40.6910   70.6630 O   0  0  0  0  0
   10.5020   39.2030   70.9360 N   0  0  0  0  0
    9.4300   40.0210   70.3680 C   0  0  0  0  0
   14.1070   38.8040   71.1590 N   0  0  0  0  0
   -0.8034   36.4848   62.6894 H   0  0  0  0  0
   -0.7216   38.5341   64.1074 H   0  0  0  0  0
    1.4037   39.7894   64.3568 H   0  0  0  0  0
    3.3602   36.9740   61.7798 H   0  0  0  0  0
    1.2449   35.7088   61.5254 H   0  0  0  0  0
    3.6193   40.2531   63.1193 H   0  0  0  0  0
    4.5383   38.7542   62.5755 H   0  0  0  0  0
    6.9468   35.8724   65.5307 H   0  0  0  0  0
    9.2342   37.2101   64.7153 H   0  0  0  0  0
    7.8457   38.1039   63.8508 H   0  0  0  0  0
    7.4171   36.3402   62.5130 H   0  0  0  0  0
    9.6212   37.3150   61.9888 H   0  0  0  0  0
   10.4052   36.1486   63.0824 H   0  0  0  0  0
    9.5993   35.5772   61.6008 H   0  0  0  0  0
    8.9086   34.4841   64.3871 H   0  0  0  0  0
    7.1423   34.6182   64.2049 H   0  0  0  0  0
    8.1341   34.0202   62.8522 H   0  0  0  0  0
    8.0776   39.0215   66.7885 H   0  0  0  0  0
   10.0861   38.9710   68.2333 H   0  0  0  0  0
    9.4269   37.4061   68.9140 H   0  0  0  0  0
    5.1962   37.1507   65.8484 H   0  0  0  0  0
    8.0396   38.4499   70.2829 H   0  0  0  0  0
    7.1539   40.3502   69.7930 H   0  0  0  0  0
   18.9226   34.4235   74.4682 H   0  0  0  0  0
   16.4884   34.7289   74.0653 H   0  0  0  0  0
   15.7121   36.5229   72.5585 H   0  0  0  0  0
   19.7669   37.7342   71.8513 H   0  0  0  0  0
   20.5658   35.9360   73.3590 H   0  0  0  0  0
   18.0694   38.5262   70.5198 H   0  0  0  0  0
   16.8187   39.1025   71.8140 H   0  0  0  0  0
   12.4485   37.5906   71.3528 H   0  0  0  0  0
   11.6741   39.0759   73.3986 H   0  0  0  0  0
   13.5137   39.3486   73.4556 H   0  0  0  0  0
   12.1333   37.4054   74.7986 H   0  0  0  0  0
   11.5349   36.2614   72.7219 H   0  0  0  0  0
   13.2529   36.1934   72.2582 H   0  0  0  0  0
   12.6814   35.3035   73.6909 H   0  0  0  0  0
   14.9481   37.4204   73.6431 H   0  0  0  0  0
   14.4291   38.2738   75.1174 H   0  0  0  0  0
   14.4113   36.4939   75.0659 H   0  0  0  0  0
   10.2608   38.2731   71.2788 H   0  0  0  0  0
    8.8877   40.5100   71.1773 H   0  0  0  0  0
    9.8649   40.7659   69.7016 H   0  0  0  0  0
   14.5091   39.7414   71.1645 H   0  0  0  0  0
  2  1  4  0  0  0
  6  1  4  0  0  0
  3  2  4  0  0  0
  4  3  4  0  0  0
  4  5  4  0  0  0
  7  4  1  0  0  0
  5  6  4  0  0  0
  8  7  1  0  0  0
  9  8  1  0  0  0
  9 10  2  0  0  0
 20  9  1  0  0  0
 11 12  1  0  0  0
 16 11  1  0  0  0
 11 20  1  0  0  0
 12 13  1  0  0  0
 13 14  1  0  0  0
 13 15  1  0  0  0
 16 17  2  0  0  0
 18 16  1  0  0  0
 19 18  1  0  0  0
 21 19  1  0  0  0
 21 22  1  0  0  0
 41 21  1  0  0  0
 24 23  4  0  0  0
 28 23  4  0  0  0
 25 24  4  0  0  0
 26 25  4  0  0  0
 26 27  4  0  0  0
 29 26  1  0  0  0
 27 28  4  0  0  0
 30 29  1  0  0  0
 31 30  1  0  0  0
 31 32  2  0  0  0
 42 31  1  0  0  0
 33 34  1  0  0  0
 38 33  1  0  0  0
 33 42  1  0  0  0
 34 35  1  0  0  0
 35 36  1  0  0  0
 35 37  1  0  0  0
 38 39  2  0  0  0
 40 38  1  0  0  0
 40 41  1  0  0  0
  1 43  1  0  0  0
  2 44  1  0  0  0
  3 45  1  0  0  0
  5 46  1  0  0  0
  6 47  1  0  0  0
  7 48  1  0  0  0
  7 49  1  0  0  0
 11 50  1  0  0  0
 12 51  1  0  0  0
 12 52  1  0  0  0
 13 53  1  0  0  0
 14 54  1  0  0  0
 14 55  1  0  0  0
 14 56  1  0  0  0
 15 57  1  0  0  0
 15 58  1  0  0  0
 15 59  1  0  0  0
 18 60  1  0  0  0
 19 61  1  0  0  0
 19 62  1  0  0  0
 20 63  1  0  0  0
 21 64  1  0  0  0
 22 65  1  0  0  0
 23 66  1  0  0  0
 24 67  1  0  0  0
 25 68  1  0  0  0
 27 69  1  0  0  0
 28 70  1  0  0  0
 29 71  1  0  0  0
 29 72  1  0  0  0
 33 73  1  0  0  0
 34 74  1  0  0  0
 34 75  1  0  0  0
 35 76  1  0  0  0
 36 77  1  0  0  0
 36 78  1  0  0  0
 36 79  1  0  0  0
 37 80  1  0  0  0
 37 81  1  0  0  0
 37 82  1  0  0  0
 40 83  1  0  0  0
 41 84  1  0  0  0
 41 85  1  0  0  0
 42 86  1  0  0  0
M  END
$$$$
