5znl_ligand
  -I-interpret- 

 54 58  0  0  0  0  0  0  0  0999 V2000
  -19.0140  -10.0530   37.9460 C   0  0  0  0  0
  -18.3920  -10.3270   39.2880 C   0  0  0  0  0
  -16.2470   -9.8500   38.4450 C   0  0  0  0  0
  -21.5240  -15.3840   38.7470 C   0  0  0  0  0
  -20.6130  -18.5220   40.5060 N   0  0  0  0  0
  -20.6960  -18.8340   41.8590 C   0  0  0  0  0
  -21.2990  -17.8560   42.6600 C   0  0  0  0  0
  -20.3570  -20.1800   43.8240 C   0  0  0  0  0
  -21.4470  -18.0400   44.0310 C   0  0  0  0  0
  -21.9240  -15.4200   32.9050 C   0  0  0  0  0
  -20.4920  -14.2400   34.4260 C   0  0  0  0  0
  -20.1890  -14.0570   35.8050 C   0  0  0  0  0
  -19.5710  -12.9130   36.2240 C   0  0  0  0  0
  -19.1830  -11.9150   35.2920 C   0  0  0  0  0
  -19.4570  -12.1190   33.9150 C   0  0  0  0  0
  -20.1160  -13.3000   33.5070 C   0  0  0  0  0
  -18.4860  -10.6820   35.6060 C   0  0  0  0  0
  -18.1700   -9.7550   34.6190 N   0  0  0  0  0
  -18.5230  -10.1020   33.3760 C   0  0  0  0  0
  -19.1240  -11.2070   32.9440 N   0  0  0  0  0
  -18.0510  -10.3950   36.8990 N   0  0  0  0  0
  -17.1970   -9.5680   39.4760 O   0  0  0  0  0
  -16.8190   -9.6180   37.0660 C   0  0  0  0  0
  -20.4690  -15.1400   36.6040 O   0  0  0  0  0
  -21.7390  -15.1890   37.2670 C   0  0  0  0  0
  -21.1080  -16.7420   39.0810 N   0  0  0  0  0
  -21.1210  -17.3430   40.2880 C   0  0  0  0  0
  -21.7650  -16.4970   41.6830 S   0  0  0  0  0
  -20.2200  -20.0040   42.4530 C   0  0  0  0  0
  -20.9790  -19.2140   44.6030 C   0  0  0  0  0
  -21.1930  -15.3790   34.1350 O   0  0  0  0  0
  -19.2805   -8.9987   37.8716 H   0  0  0  0  0
  -19.9157  -10.6540   37.8280 H   0  0  0  0  0
  -18.1403  -11.3862   39.3420 H   0  0  0  0  0
  -19.1051  -10.0457   40.0629 H   0  0  0  0  0
  -15.9623  -10.8993   38.5228 H   0  0  0  0  0
  -15.3949   -9.1830   38.5762 H   0  0  0  0  0
  -22.4707  -15.1902   39.2513 H   0  0  0  0  0
  -20.7327  -14.7042   39.0628 H   0  0  0  0  0
  -19.9723  -21.0857   44.2928 H   0  0  0  0  0
  -21.9224  -17.2751   44.6450 H   0  0  0  0  0
  -22.6644  -14.6201   32.8970 H   0  0  0  0  0
  -21.2357  -15.2881   32.0702 H   0  0  0  0  0
  -22.4266  -16.3829   32.8145 H   0  0  0  0  0
  -19.3736  -12.7649   37.2857 H   0  0  0  0  0
  -20.3266  -13.4634   32.4501 H   0  0  0  0  0
  -18.2826   -9.3715   32.6036 H   0  0  0  0  0
  -16.0916   -9.9326   36.3177 H   0  0  0  0  0
  -17.0431   -8.5583   36.9436 H   0  0  0  0  0
  -22.2748  -14.2551   37.0969 H   0  0  0  0  0
  -22.3243  -16.0192   36.8716 H   0  0  0  0  0
  -20.7645  -17.3073   38.3046 H   0  0  0  0  0
  -19.7443  -20.7739   41.8455 H   0  0  0  0  0
  -21.1008  -19.3793   45.6735 H   0  0  0  0  0
  1  2  1  0  0  0
 21  1  1  0  0  0
  2 22  1  0  0  0
  3 22  1  0  0  0
 23  3  1  0  0  0
  4 25  1  0  0  0
 26  4  1  0  0  0
  5  6  4  0  0  0
 27  5  4  0  0  0
  6  7  4  0  0  0
  6 29  4  0  0  0
  7  9  4  0  0  0
  7 28  4  0  0  0
 29  8  4  0  0  0
  8 30  4  0  0  0
  9 30  4  0  0  0
 31 10  1  0  0  0
 12 11  4  0  0  0
 11 16  4  0  0  0
 11 31  1  0  0  0
 12 13  4  0  0  0
 24 12  1  0  0  0
 13 14  4  0  0  0
 14 15  4  0  0  0
 14 17  4  0  0  0
 16 15  4  0  0  0
 15 20  4  0  0  0
 17 18  4  0  0  0
 17 21  1  0  0  0
 18 19  4  0  0  0
 20 19  4  0  0  0
 21 23  1  0  0  0
 25 24  1  0  0  0
 26 27  1  0  0  0
 27 28  4  0  0  0
  1 32  1  0  0  0
  1 33  1  0  0  0
  2 34  1  0  0  0
  2 35  1  0  0  0
  3 36  1  0  0  0
  3 37  1  0  0  0
  4 38  1  0  0  0
  4 39  1  0  0  0
  8 40  1  0  0  0
  9 41  1  0  0  0
 10 42  1  0  0  0
 10 43  1  0  0  0
 10 44  1  0  0  0
 13 45  1  0  0  0
 16 46  1  0  0  0
 19 47  1  0  0  0
 23 48  1  0  0  0
 23 49  1  0  0  0
 25 50  1  0  0  0
 25 51  1  0  0  0
 26 52  1  0  0  0
 29 53  1  0  0  0
 30 54  1  0  0  0
M  END
$$$$
