6huq_ligand
  -I-interpret- 

 82 83  0  0  0  0  0  0  0  0999 V2000
   55.3190 -133.2070   32.9480 C   0  0  0  0  0
   58.8590 -134.6940   33.2830 C   0  0  0  0  0
   60.0900 -134.8460   33.7540 C   0  0  0  0  0
   61.5690 -133.7180   36.5990 C   0  0  0  0  0
   63.2330 -135.1070   39.5500 C   0  0  0  0  0
   64.1890 -134.7390   41.7990 C   0  0  0  0  0
   64.7560 -132.3080   41.9560 C   0  0  0  0  0
   65.8560 -130.0070   40.7510 C   0  0  0  0  0
   66.4230 -128.8950   40.1220 C   0  0  0  0  0
   65.3870 -132.3700   40.6980 C   0  0  0  0  0
   62.4530 -136.1140   43.0450 C   0  0  0  0  0
   62.0300 -138.9610   42.0680 C   0  0  0  0  0
   56.6530 -133.9510   32.8990 C   0  0  0  0  0
   57.9020 -133.5180   33.8670 S   0  0  0  0  0
   56.9720 -135.0050   32.1220 N   0  0  0  0  0
   58.2320 -135.4310   32.3430 C   0  0  0  0  0
   60.7010 -135.9070   33.6120 O   0  0  0  0  0
   60.5230 -133.7980   34.4760 N   0  0  0  0  0
   61.8310 -133.7840   35.1080 C   0  0  0  0  0
   62.5690 -132.5740   34.5540 C   0  0  0  0  0
   64.0750 -132.5610   34.8810 C   0  0  0  0  0
   64.6780 -131.2870   34.2610 C   0  0  0  0  0
   64.7840 -133.8080   34.3250 C   0  0  0  0  0
   60.7830 -132.8870   37.0620 O   0  0  0  0  0
   62.2110 -134.6660   37.3030 N   0  0  0  0  0
   61.9700 -134.8650   38.7260 C   0  0  0  0  0
   61.0990 -136.1260   38.7490 C   0  0  0  0  0
   60.7500 -136.5150   40.0880 O   0  0  0  0  0
   59.5500 -137.3160   40.1290 C   0  0  0  0  0
   64.1850 -135.7500   39.1100 O   0  0  0  0  0
   63.1410 -134.5980   40.7800 N   0  0  0  0  0
   63.9480 -136.0110   42.6530 C   0  0  0  0  0
   61.8160 -137.7870   43.3900 S   0  0  0  0  0
   60.3170 -137.6470   43.6270 O   0  0  0  0  0
   62.4410 -138.3130   44.6630 O   0  0  0  0  0
   64.1970 -133.4180   42.6280 C   0  0  0  0  0
   64.6960 -131.0670   42.6010 C   0  0  0  0  0
   65.2410 -129.9240   42.0100 C   0  0  0  0  0
   65.5380 -127.7350   40.1130 N   0  3  0  0  0
   65.9240 -131.2370   40.1060 C   0  0  0  0  0
   54.8989 -133.2826   33.9509 H   0  0  0  0  0
   55.4799 -132.1583   32.6983 H   0  0  0  0  0
   54.6300 -133.6513   32.2296 H   0  0  0  0  0
   65.1749 -134.8792   41.3559 H   0  0  0  0  0
   66.6267 -129.1664   39.0861 H   0  0  0  0  0
   67.3226 -128.6230   40.6741 H   0  0  0  0  0
   65.4544 -133.3268   40.1802 H   0  0  0  0  0
   61.8899 -135.7477   42.1866 H   0  0  0  0  0
   62.3449 -135.5525   43.9730 H   0  0  0  0  0
   61.5955 -139.9173   42.3592 H   0  0  0  0  0
   61.5315 -138.5918   41.1717 H   0  0  0  0  0
   63.0935 -139.0899   41.8669 H   0  0  0  0  0
   58.6903 -136.2723   31.8231 H   0  0  0  0  0
   59.9139 -132.9869   34.5835 H   0  0  0  0  0
   62.4516 -134.6586   34.9130 H   0  0  0  0  0
   62.1293 -131.6876   35.0112 H   0  0  0  0  0
   62.4722 -132.6029   33.4687 H   0  0  0  0  0
   64.2131 -132.5703   35.9622 H   0  0  0  0  0
   64.5240 -131.3016   33.1820 H   0  0  0  0  0
   64.1895 -130.4108   34.6872 H   0  0  0  0  0
   65.7459 -131.2500   34.4764 H   0  0  0  0  0
   64.3426 -134.7020   34.7655 H   0  0  0  0  0
   64.6660 -133.8388   33.2418 H   0  0  0  0  0
   65.8440 -133.7635   34.5752 H   0  0  0  0  0
   62.8868 -135.2637   36.8270 H   0  0  0  0  0
   61.5234 -133.9756   39.1706 H   0  0  0  0  0
   61.6646 -136.9393   38.2943 H   0  0  0  0  0
   60.1786 -135.9145   38.2047 H   0  0  0  0  0
   58.7192 -136.7449   39.7147 H   0  0  0  0  0
   59.6990 -138.2217   39.5411 H   0  0  0  0  0
   59.3288 -137.5842   41.1621 H   0  0  0  0  0
   62.2960 -134.0824   41.0261 H   0  0  0  0  0
   64.5520 -135.9535   43.5585 H   0  0  0  0  0
   64.2267 -136.8900   42.0718 H   0  0  0  0  0
   64.8107 -133.5989   43.5105 H   0  0  0  0  0
   63.1576 -133.1702   42.8434 H   0  0  0  0  0
   64.2177 -130.9912   43.5775 H   0  0  0  0  0
   65.1884 -128.9662   42.5277 H   0  0  0  0  0
   66.0028 -126.9579   39.6434 H   0  0  0  0  0
   64.6782 -127.9687   39.6165 H   0  0  0  0  0
   65.3165 -127.4704   41.0729 H   0  0  0  0  0
   66.4022 -131.3109   39.1293 H   0  0  0  0  0
 13  1  1  0  0  0
  3  2  1  0  0  0
  2 14  4  0  0  0
  2 16  4  0  0  0
  3 17  2  0  0  0
 18  3  1  0  0  0
  4 19  1  0  0  0
  4 24  2  0  0  0
 25  4  1  0  0  0
 26  5  1  0  0  0
  5 30  2  0  0  0
  5 31  1  0  0  0
 31  6  1  0  0  0
  6 32  1  0  0  0
  6 36  1  0  0  0
  7 10  4  0  0  0
 36  7  1  0  0  0
  7 37  4  0  0  0
  8  9  1  0  0  0
  8 38  4  0  0  0
 40  8  4  0  0  0
  9 39  1  0  0  0
 10 40  4  0  0  0
 32 11  1  0  0  0
 11 33  1  0  0  0
 33 12  1  0  0  0
 14 13  4  0  0  0
 15 13  4  0  0  0
 16 15  4  0  0  0
 19 18  1  0  0  0
 19 20  1  0  0  0
 20 21  1  0  0  0
 21 22  1  0  0  0
 21 23  1  0  0  0
 25 26  1  0  0  0
 26 27  1  0  0  0
 27 28  1  0  0  0
 28 29  1  0  0  0
 33 34  2  0  0  0
 33 35  2  0  0  0
 37 38  4  0  0  0
  1 41  1  0  0  0
  1 42  1  0  0  0
  1 43  1  0  0  0
  6 44  1  0  0  0
  9 45  1  0  0  0
  9 46  1  0  0  0
 10 47  1  0  0  0
 11 48  1  0  0  0
 11 49  1  0  0  0
 12 50  1  0  0  0
 12 51  1  0  0  0
 12 52  1  0  0  0
 16 53  1  0  0  0
 18 54  1  0  0  0
 19 55  1  0  0  0
 20 56  1  0  0  0
 20 57  1  0  0  0
 21 58  1  0  0  0
 22 59  1  0  0  0
 22 60  1  0  0  0
 22 61  1  0  0  0
 23 62  1  0  0  0
 23 63  1  0  0  0
 23 64  1  0  0  0
 25 65  1  0  0  0
 26 66  1  0  0  0
 27 67  1  0  0  0
 27 68  1  0  0  0
 29 69  1  0  0  0
 29 70  1  0  0  0
 29 71  1  0  0  0
 31 72  1  0  0  0
 32 73  1  0  0  0
 32 74  1  0  0  0
 36 75  1  0  0  0
 36 76  1  0  0  0
 37 77  1  0  0  0
 38 78  1  0  0  0
 39 79  1  0  0  0
 39 80  1  0  0  0
 39 81  1  0  0  0
 40 82  1  0  0  0
M  END
$$$$
