5npb_ligand
  -I-interpret- 

 30 30  0  0  0  0  0  0  0  0999 V2000
   82.8920   15.6040   37.1010 C   0  0  0  0  0
   83.6930   14.2880   37.0100 C   0  0  0  0  0
   83.5100   13.5490   35.6670 C   0  0  0  0  0
   83.2200   16.4450   35.8690 C   0  0  0  0  0
   82.6040   15.7800   34.6370 C   0  0  0  0  0
   82.6480   14.2480   34.6240 C   0  0  0  0  0
   83.4360   13.3510   38.2010 C   0  0  0  0  0
   84.7870   13.1840   35.0930 O   0  0  0  0  0
   82.1040   12.8510   38.2600 O   0  0  0  0  0
   83.2610   16.3010   38.2910 O   0  0  0  0  0
   82.6590   17.7680   35.9660 O   0  0  0  0  0
   83.1830   16.2920   33.4240 O   0  0  0  0  0
   85.3660   11.7750   35.4950 S   0  0  0  0  0
   86.0340   11.3320   34.2490 O   0  0  0  0  0
   84.3250   10.8060   35.9760 O   0  0  0  0  0
   86.2960   11.9820   36.6350 O   0  0  0  0  0
   81.8212   15.4031   37.1356 H   0  0  0  0  0
   84.7381   14.5939   37.0569 H   0  0  0  0  0
   82.9447   12.6585   35.9419 H   0  0  0  0  0
   84.3051   16.5170   35.7952 H   0  0  0  0  0
   81.5482   16.0444   34.6957 H   0  0  0  0  0
   81.6269   13.9275   34.8307 H   0  0  0  0  0
   83.0835   13.9793   33.6616 H   0  0  0  0  0
   83.6086   13.9260   39.1108 H   0  0  0  0  0
   84.1008   12.4943   38.0906 H   0  0  0  0  0
   82.0128   12.2758   39.0232 H   0  0  0  0  0
   83.0491   15.7607   39.0557 H   0  0  0  0  0
   83.0263   18.2147   36.7323 H   0  0  0  0  0
   83.1532   17.2515   33.4367 H   0  0  0  0  0
   83.9259   11.1409   36.7823 H   0  0  0  0  0
  1  2  1  0  0  0
  1  4  1  0  0  0
  1 10  1  0  0  0
  2  3  1  0  0  0
  2  7  1  0  0  0
  3  6  1  0  0  0
  3  8  1  0  0  0
  4  5  1  0  0  0
  4 11  1  0  0  0
  5  6  1  0  0  0
  5 12  1  0  0  0
  7  9  1  0  0  0
  8 13  1  0  0  0
 13 14  2  0  0  0
 13 15  1  0  0  0
 13 16  2  0  0  0
  1 17  1  0  0  0
  2 18  1  0  0  0
  3 19  1  0  0  0
  4 20  1  0  0  0
  5 21  1  0  0  0
  6 22  1  0  0  0
  6 23  1  0  0  0
  7 24  1  0  0  0
  7 25  1  0  0  0
  9 26  1  0  0  0
 10 27  1  0  0  0
 11 28  1  0  0  0
 12 29  1  0  0  0
 15 30  1  0  0  0
M  END
$$$$
