3dln_ligand
  -I-interpret- 

 20 19  0  0  0  0  0  0  0  0999 V2000
   20.8060   20.6780   13.3580 N   0  3  0  0  0
   20.5700   19.3760   14.0530 C   0  0  0  0  0
   19.0780   19.0650   14.1280 C   0  0  0  0  0
   18.7220   18.0340   14.7270 O   0  0  0  0  0
   21.1630   19.4190   15.4660 C   0  0  0  0  0
   22.6820   19.3170   15.5080 C   0  0  0  0  0
   23.1860   17.9140   15.2380 C   0  0  0  0  0
   24.3900   17.7610   14.9340 O   0  0  0  0  0
   22.3870   16.9570   15.3430 O   0  0  0  0  0
   18.2850   19.8640   13.5810 O   0  0  0  0  0
   20.4078   20.6383   12.4198 H   0  0  0  0  0
   20.3615   21.4292   13.8858 H   0  0  0  0  0
   21.8091   20.8519   13.2958 H   0  0  0  0  0
   21.0603   18.5888   13.4803 H   0  0  0  0  0
   20.7676   18.5595   16.0073 H   0  0  0  0  0
   20.8929   20.3820   15.8993 H   0  0  0  0  0
   23.0073   19.6009   16.5088 H   0  0  0  0  0
   23.0812   19.9695   14.7315 H   0  0  0  0  0
   24.8235   18.6171   14.9078 H   0  0  0  0  0
   18.7810   20.5829   13.1825 H   0  0  0  0  0
  1  2  1  0  0  0
  2  3  1  0  0  0
  2  5  1  0  0  0
  3  4  2  0  0  0
  3 10  1  0  0  0
  5  6  1  0  0  0
  6  7  1  0  0  0
  7  8  1  0  0  0
  7  9  2  0  0  0
  1 11  1  0  0  0
  1 12  1  0  0  0
  1 13  1  0  0  0
  2 14  1  0  0  0
  5 15  1  0  0  0
  5 16  1  0  0  0
  6 17  1  0  0  0
  6 18  1  0  0  0
  8 19  1  0  0  0
 10 20  1  0  0  0
M  END
$$$$
