6nsp_ligand
  -I-interpret- 

 51 55  0  0  0  0  0  0  0  0999 V2000
    6.0660   14.6910   26.3300 C   0  0  0  0  0
    7.0510   13.5620   26.1810 C   0  0  0  0  0
    6.7280   12.2720   26.5840 C   0  0  0  0  0
    7.6220   11.1980   26.4240 C   0  0  0  0  0
    8.8150   11.3980   25.8330 C   0  0  0  0  0
    8.2720   13.7410   25.5400 C   0  0  0  0  0
   11.6430   14.9310   22.7070 C   0  0  0  0  0
   12.3860   15.8010   21.9340 C   0  0  0  0  0
   10.7850   16.7700   23.9730 C   0  0  0  0  0
   10.2580   13.1500   24.7350 C   0  0  0  0  0
   12.4730   12.0810   24.8310 C   0  0  0  0  0
   14.5560   12.6160   22.5110 C   0  0  0  0  0
   15.2090   13.2350   21.4460 C   0  0  0  0  0
   16.5360   11.3030   22.9510 C   0  0  0  0  0
   15.2080   10.4940   25.4540 C   0  0  0  0  0
    9.1320   12.6610   25.3810 N   0  0  0  0  0
    8.8100   14.8410   25.0120 N   0  0  0  0  0
   10.0220   14.4730   24.4970 C   0  0  0  0  0
   10.8560   15.4060   23.7450 C   0  0  0  0  0
   12.3510   17.1510   22.2110 C   0  0  0  0  0
   11.5600   17.6400   23.2320 C   0  0  0  0  0
   11.3130   12.3840   24.2780 N   0  0  0  0  0
   13.0170   12.7640   25.6770 O   0  0  0  0  0
   13.1280   10.8390   24.2580 C   0  0  0  0  0
   14.5770   10.9820   24.3330 N   0  0  0  0  0
   15.2270   11.6680   23.2790 C   0  0  0  0  0
   16.5230   12.9100   21.1400 C   0  0  0  0  0
   17.1750   11.9320   21.8780 C   0  0  0  0  0
   17.3220   10.0380   23.8860 S   0  0  0  0  0
   16.7040   10.5500   25.4790 C   0  0  0  0  0
   14.5850   10.0790   26.4140 O   0  0  0  0  0
    5.1661   14.4642   25.7583 H   0  0  0  0  0
    5.8089   14.8106   27.3825 H   0  0  0  0  0
    6.5125   15.6126   25.9567 H   0  0  0  0  0
    5.7540   12.0871   27.0371 H   0  0  0  0  0
    7.3490   10.2040   26.7784 H   0  0  0  0  0
    9.5189   10.5744   25.7139 H   0  0  0  0  0
   11.6754   13.8614   22.4994 H   0  0  0  0  0
   12.9947   15.4238   21.1122 H   0  0  0  0  0
   10.1150   17.1583   24.7401 H   0  0  0  0  0
   13.5224   12.8736   22.7419 H   0  0  0  0  0
   14.6833   13.9801   20.8490 H   0  0  0  0  0
   12.9536   17.8393   21.6183 H   0  0  0  0  0
   11.5475   18.7075   23.4518 H   0  0  0  0  0
   11.1709   11.9823   23.3513 H   0  0  0  0  0
   12.8265   10.7136   23.2181 H   0  0  0  0  0
   12.8170    9.9648   24.8300 H   0  0  0  0  0
   17.0392   13.4191   20.3261 H   0  0  0  0  0
   18.1958   11.6513   21.6185 H   0  0  0  0  0
   17.0865    9.8871   26.2551 H   0  0  0  0  0
   17.0330   11.5666   25.6945 H   0  0  0  0  0
  2  1  1  0  0  0
  2  3  4  0  0  0
  6  2  4  0  0  0
  4  3  4  0  0  0
  5  4  4  0  0  0
 16  5  4  0  0  0
 16  6  4  0  0  0
 17  6  4  0  0  0
  7  8  4  0  0  0
 19  7  4  0  0  0
  8 20  4  0  0  0
 19  9  4  0  0  0
  9 21  4  0  0  0
 10 16  4  0  0  0
 10 18  4  0  0  0
 22 10  1  0  0  0
 11 22  1  0  0  0
 11 23  2  0  0  0
 24 11  1  0  0  0
 12 13  4  0  0  0
 26 12  4  0  0  0
 13 27  4  0  0  0
 26 14  4  0  0  0
 14 28  4  0  0  0
 14 29  1  0  0  0
 25 15  1  0  0  0
 15 30  1  0  0  0
 15 31  2  0  0  0
 18 17  4  0  0  0
 18 19  1  0  0  0
 21 20  4  0  0  0
 25 24  1  0  0  0
 25 26  1  0  0  0
 27 28  4  0  0  0
 29 30  1  0  0  0
  1 32  1  0  0  0
  1 33  1  0  0  0
  1 34  1  0  0  0
  3 35  1  0  0  0
  4 36  1  0  0  0
  5 37  1  0  0  0
  7 38  1  0  0  0
  8 39  1  0  0  0
  9 40  1  0  0  0
 12 41  1  0  0  0
 13 42  1  0  0  0
 20 43  1  0  0  0
 21 44  1  0  0  0
 22 45  1  0  0  0
 24 46  1  0  0  0
 24 47  1  0  0  0
 27 48  1  0  0  0
 28 49  1  0  0  0
 30 50  1  0  0  0
 30 51  1  0  0  0
M  END
$$$$
