4eon_ligand
  -I-interpret- 

 37 40  0  0  0  0  0  0  0  0999 V2000
  -37.2300   12.8930   39.6430 O   0  0  0  0  0
  -37.2240   11.8510   40.2680 C   0  0  0  0  0
  -37.7530   11.9210   41.4350 N   0  0  0  0  0
  -37.6810   10.7340   41.9590 C   0  0  0  0  0
  -38.1770   10.6690   43.1780 N   0  0  0  0  0
  -38.2390   11.8820   43.9730 C   0  0  0  0  0
  -37.5940   13.1170   43.3920 C   0  0  0  0  0
  -38.0360   14.1620   42.6400 C   0  0  0  0  0
  -37.0610   15.0860   42.3460 C   0  0  0  0  0
  -35.8020   14.8550   42.8390 C   0  0  0  0  0
  -35.9580   13.4100   43.6990 S   0  0  0  0  0
  -36.9720    9.5050   41.0050 S   0  0  0  0  0
  -36.6970   10.6140   39.7590 C   0  0  0  0  0
  -36.0660   10.3400   38.4620 C   0  0  0  0  0
  -35.9530   11.4600   37.5270 C   0  0  0  0  0
  -36.1070   11.2500   36.1840 C   0  0  0  0  0
  -36.0210   12.2670   35.2590 C   0  0  0  0  0
  -35.7730   13.5390   35.6700 C   0  0  0  0  0
  -35.6730   14.5430   34.8160 N   0  0  0  0  0
  -35.4270   15.7700   35.2560 C   0  0  0  0  0
  -35.2700   16.0540   36.5910 C   0  0  0  0  0
  -35.3530   15.0510   37.5310 C   0  0  0  0  0
  -35.6020   13.7800   37.0960 C   0  0  0  0  0
  -35.6860   12.7300   37.9650 C   0  0  0  0  0
  -38.5113    9.7826   43.5561 H   0  0  0  0  0
  -37.6919   11.6645   44.8903 H   0  0  0  0  0
  -39.2984   12.1186   44.0722 H   0  0  0  0  0
  -39.0678   14.2576   42.3020 H   0  0  0  0  0
  -37.2802   15.9681   41.7443 H   0  0  0  0  0
  -34.9075   15.4635   42.7063 H   0  0  0  0  0
  -35.6980    9.3463   38.2068 H   0  0  0  0  0
  -36.3056   10.2377   35.8319 H   0  0  0  0  0
  -36.1517   12.0522   34.1984 H   0  0  0  0  0
  -35.3466   16.5816   34.5328 H   0  0  0  0  0
  -35.0786   17.0792   36.9080 H   0  0  0  0  0
  -35.2237   15.2651   38.5919 H   0  0  0  0  0
  -35.5373   12.9064   39.0303 H   0  0  0  0  0
  1  2  2  0  0  0
  2  3  1  0  0  0
  2 13  1  0  0  0
  3  4  2  0  0  0
  4  5  1  0  0  0
  4 12  1  0  0  0
  5  6  1  0  0  0
  6  7  1  0  0  0
  7  8  4  0  0  0
  7 11  4  0  0  0
  8  9  4  0  0  0
  9 10  4  0  0  0
 10 11  4  0  0  0
 12 13  1  0  0  0
 13 14  2  0  0  0
 14 15  1  0  0  0
 15 16  4  0  0  0
 15 24  4  0  0  0
 16 17  4  0  0  0
 17 18  4  0  0  0
 18 19  4  0  0  0
 18 23  4  0  0  0
 19 20  4  0  0  0
 20 21  4  0  0  0
 21 22  4  0  0  0
 22 23  4  0  0  0
 23 24  4  0  0  0
  5 25  1  0  0  0
  6 26  1  0  0  0
  6 27  1  0  0  0
  8 28  1  0  0  0
  9 29  1  0  0  0
 10 30  1  0  0  0
 14 31  1  0  0  0
 16 32  1  0  0  0
 17 33  1  0  0  0
 20 34  1  0  0  0
 21 35  1  0  0  0
 22 36  1  0  0  0
 24 37  1  0  0  0
M  END
$$$$
