1sm3_ligand
  -I-interpret- 

125127  0  0  0  0  0  0  0  0999 V2000
   32.3380   -5.7780   -6.1170 N   0  3  0  0  0
   31.1590   -6.5260   -6.6770 C   0  0  0  0  0
   29.8630   -5.8680   -6.1700 C   0  0  0  0  0
   29.8090   -5.4610   -5.0150 O   0  0  0  0  0
   31.2370   -7.9930   -6.2540 C   0  0  0  0  0
   28.8440   -5.7880   -7.0370 N   0  0  0  0  0
   27.6000   -5.0820   -6.7360 C   0  0  0  0  0
   26.4980   -5.9550   -6.1320 C   0  0  0  0  0
   26.5230   -7.2020   -6.2120 O   0  0  0  0  0
   27.0640   -4.4600   -8.0210 C   0  0  0  0  0
   25.5310   -5.2800   -5.4710 N   0  0  0  0  0
   24.3650   -5.9150   -4.8780 C   0  0  0  0  0
   23.3500   -6.1580   -5.9980 C   0  0  0  0  0
   23.7200   -6.0840   -7.1470 O   0  0  0  0  0
   23.9120   -4.8710   -3.8710 C   0  0  0  0  0
   24.1580   -3.6240   -4.6220 C   0  0  0  0  0
   25.5690   -3.8410   -5.1200 C   0  0  0  0  0
   22.1100   -6.4360   -5.7070 N   0  0  0  0  0
   21.1870   -6.6990   -6.7480 C   0  0  0  0  0
   20.7340   -5.3850   -7.3860 C   0  0  0  0  0
   19.8760   -4.7070   -6.8670 O   0  0  0  0  0
   19.9760   -7.4980   -6.2310 C   0  0  0  0  0
   18.9470   -7.8300   -7.3220 C   0  0  0  0  0
   19.2860   -7.8120   -8.5520 O   0  0  0  0  0
   17.7870   -8.0990   -6.9710 O   0  0  0  0  0
   21.3100   -5.0450   -8.5420 N   0  0  0  0  0
   20.9840   -3.7970   -9.2020 C   0  0  0  0  0
   19.9440   -3.9520  -10.2960 C   0  0  0  0  0
   19.7890   -3.0500  -11.1220 O   0  0  0  0  0
   22.2630   -3.1370   -9.7740 C   0  0  0  0  0
   22.8960   -4.0010  -10.7310 O   0  0  0  0  0
   23.2630   -2.8840   -8.6510 C   0  0  0  0  0
   19.2130   -5.0650  -10.3380 N   0  0  0  0  0
   18.2040   -5.1900  -11.3720 C   0  0  0  0  0
   17.0540   -4.2420  -11.0850 C   0  0  0  0  0
   16.7300   -3.9910   -9.9080 O   0  0  0  0  0
   17.6790   -6.6250  -11.5290 C   0  0  0  0  0
   16.4160   -6.6940  -12.3780 C   0  0  0  0  0
   15.7410   -8.0450  -12.3830 C   0  0  0  0  0
   16.5210   -8.9850  -13.1320 N   0  0  0  0  0
   16.0620   -9.6670  -14.1640 C   0  0  0  0  0
   14.8070   -9.5470  -14.5760 N   0  0  0  0  0
   16.8770  -10.4890  -14.7800 N   0  0  0  0  0
   16.4450   -3.6360  -12.1510 N   0  0  0  0  0
   15.3320   -2.7250  -11.9930 C   0  0  0  0  0
   14.0990   -3.4430  -11.4260 C   0  0  0  0  0
   13.7310   -4.5780  -11.8240 O   0  0  0  0  0
   15.0820   -2.1630  -13.4180 C   0  0  0  0  0
   16.3980   -2.3720  -14.1130 C   0  0  0  0  0
   16.8480   -3.7230  -13.5960 C   0  0  0  0  0
   13.5130   -2.7540  -10.4520 N   0  0  0  0  0
   12.3180   -3.1740   -9.7660 C   0  0  0  0  0
   11.1430   -3.1850  -10.7270 C   0  0  0  0  0
   11.1970   -2.5260  -11.7600 O   0  0  0  0  0
   12.0350   -2.1410   -8.6390 C   0  0  0  0  0
   10.1360   -4.0110  -10.4810 N   0  0  0  0  0
    8.9500   -3.9990  -11.2920 C   0  0  0  0  0
    8.2800   -2.5850  -11.2460 C   0  0  0  0  0
    8.6630   -1.7610  -10.3740 O   0  0  0  0  0
    8.0880   -5.1040  -10.6800 C   0  0  0  0  0
    8.7080   -5.3840   -9.3670 C   0  0  0  0  0
   10.1490   -5.1760   -9.5800 C   0  0  0  0  0
   33.2011   -6.2086   -6.4488 H   0  0  0  0  0
   32.3007   -4.8066   -6.4258 H   0  0  0  0  0
   32.3088   -5.8135   -5.0980 H   0  0  0  0  0
   31.1670   -6.4871   -7.7663 H   0  0  0  0  0
   31.2162   -8.0577   -5.1661 H   0  0  0  0  0
   30.3865   -8.5348   -6.6678 H   0  0  0  0  0
   32.1637   -8.4287   -6.6275 H   0  0  0  0  0
   28.9408   -6.2395   -7.9465 H   0  0  0  0  0
   27.8545   -4.3373   -5.9818 H   0  0  0  0  0
   26.7873   -5.2509   -8.7181 H   0  0  0  0  0
   26.1880   -3.8533   -7.7916 H   0  0  0  0  0
   27.8349   -3.8327   -8.4686 H   0  0  0  0  0
   24.5245   -6.8817   -4.4004 H   0  0  0  0  0
   24.4391   -4.9215   -2.9182 H   0  0  0  0  0
   22.8784   -4.9923   -3.5470 H   0  0  0  0  0
   23.4372   -3.4476   -5.4204 H   0  0  0  0  0
   24.0432   -2.7232   -4.0191 H   0  0  0  0  0
   25.8462   -3.1929   -5.9514 H   0  0  0  0  0
   26.3369   -3.5869   -4.3894 H   0  0  0  0  0
   21.8061   -6.4639   -4.7337 H   0  0  0  0  0
   21.6846   -7.3071   -7.5035 H   0  0  0  0  0
   19.4736   -6.8832   -5.4842 H   0  0  0  0  0
   20.3516   -8.4427   -5.8377 H   0  0  0  0  0
   20.2161   -7.5850   -8.6231 H   0  0  0  0  0
   21.9907   -5.6744   -8.9673 H   0  0  0  0  0
   20.5455   -3.1523   -8.4403 H   0  0  0  0  0
   21.9693   -2.2019  -10.2509 H   0  0  0  0  0
   23.6851   -3.5743  -11.0729 H   0  0  0  0  0
   22.8158   -2.2208   -7.9106 H   0  0  0  0  0
   23.5262   -3.8313   -8.1803 H   0  0  0  0  0
   24.1594   -2.4197   -9.0622 H   0  0  0  0  0
   19.3596   -5.8117   -9.6588 H   0  0  0  0  0
   18.6805   -4.9263  -12.3162 H   0  0  0  0  0
   17.4384   -7.0057  -10.5364 H   0  0  0  0  0
   18.4507   -7.2132  -12.0255 H   0  0  0  0  0
   16.7091   -6.4790  -13.4056 H   0  0  0  0  0
   15.7064   -5.9834  -11.9543 H   0  0  0  0  0
   14.7574   -7.9507  -12.8431 H   0  0  0  0  0
   15.6441   -8.3993  -11.3567 H   0  0  0  0  0
   17.4896   -9.1361  -12.8504 H   0  0  0  0  0
   14.4768  -10.0938  -15.3712 H   0  0  0  0  0
   14.1721   -8.9079  -14.0976 H   0  0  0  0  0
   17.8398  -10.5889  -14.4585 H   0  0  0  0  0
   15.5433   -1.9282  -11.2798 H   0  0  0  0  0
   14.7767   -1.1167  -13.4070 H   0  0  0  0  0
   14.2572   -2.6631  -13.9257 H   0  0  0  0  0
   16.3104   -2.3440  -15.1991 H   0  0  0  0  0
   17.1163   -1.5795  -13.9029 H   0  0  0  0  0
   16.4015   -4.5650  -14.1250 H   0  0  0  0  0
   17.9106   -3.9162  -13.7432 H   0  0  0  0  0
   13.9374   -1.8698  -10.1719 H   0  0  0  0  0
   12.4517   -4.1766   -9.3597 H   0  0  0  0  0
   12.8798   -2.1156   -7.9507 H   0  0  0  0  0
   11.8938   -1.1541   -9.0796 H   0  0  0  0  0
   11.1337   -2.4317   -8.0994 H   0  0  0  0  0
    9.1272   -4.1828  -12.3517 H   0  0  0  0  0
    7.4966   -2.3185  -11.9555 H   0  0  0  0  0
    8.0578   -5.9917  -11.3118 H   0  0  0  0  0
    7.0468   -4.7975  -10.5798 H   0  0  0  0  0
    8.3152   -4.7334   -8.5857 H   0  0  0  0  0
    8.4904   -6.3951   -9.0228 H   0  0  0  0  0
   10.7116   -5.0154   -8.6603 H   0  0  0  0  0
   10.6635   -6.0448   -9.9907 H   0  0  0  0  0
  2  1  1  0  0  0
  2  5  1  0  0  0
  3  2  1  0  0  0
  3  4  2  0  0  0
  7  6  1  0  0  0
  7 10  1  0  0  0
  8  7  1  0  0  0
  8  9  2  0  0  0
  6  3  1  0  0  0
 13 12  1  0  0  0
 12 15  1  0  0  0
 12 11  1  0  0  0
 11 17  1  0  0  0
 17 16  1  0  0  0
 15 16  1  0  0  0
 13 14  2  0  0  0
 11  8  1  0  0  0
 19 18  1  0  0  0
 19 22  1  0  0  0
 20 19  1  0  0  0
 20 21  2  0  0  0
 22 23  1  0  0  0
 23 24  1  0  0  0
 23 25  2  0  0  0
 18 13  1  0  0  0
 27 26  1  0  0  0
 27 30  1  0  0  0
 28 27  1  0  0  0
 28 29  2  0  0  0
 30 32  1  0  0  0
 30 31  1  0  0  0
 26 20  1  0  0  0
 34 33  1  0  0  0
 34 37  1  0  0  0
 35 34  1  0  0  0
 35 36  2  0  0  0
 37 38  1  0  0  0
 38 39  1  0  0  0
 39 40  1  0  0  0
 40 41  1  0  0  0
 41 43  2  0  0  0
 41 42  1  0  0  0
 33 28  1  0  0  0
 46 45  1  0  0  0
 45 48  1  0  0  0
 45 44  1  0  0  0
 44 50  1  0  0  0
 50 49  1  0  0  0
 48 49  1  0  0  0
 46 47  2  0  0  0
 44 35  1  0  0  0
 52 51  1  0  0  0
 52 55  1  0  0  0
 53 52  1  0  0  0
 53 54  2  0  0  0
 51 46  1  0  0  0
 57 58  1  0  0  0
 57 60  1  0  0  0
 56 57  1  0  0  0
 56 62  1  0  0  0
 62 61  1  0  0  0
 61 60  1  0  0  0
 58 59  2  0  0  0
 53 56  1  0  0  0
  1 63  1  0  0  0
  1 64  1  0  0  0
  1 65  1  0  0  0
  2 66  1  0  0  0
  5 67  1  0  0  0
  5 68  1  0  0  0
  5 69  1  0  0  0
  6 70  1  0  0  0
  7 71  1  0  0  0
 10 72  1  0  0  0
 10 73  1  0  0  0
 10 74  1  0  0  0
 12 75  1  0  0  0
 15 76  1  0  0  0
 15 77  1  0  0  0
 16 78  1  0  0  0
 16 79  1  0  0  0
 17 80  1  0  0  0
 17 81  1  0  0  0
 18 82  1  0  0  0
 19 83  1  0  0  0
 22 84  1  0  0  0
 22 85  1  0  0  0
 24 86  1  0  0  0
 26 87  1  0  0  0
 27 88  1  0  0  0
 30 89  1  0  0  0
 31 90  1  0  0  0
 32 91  1  0  0  0
 32 92  1  0  0  0
 32 93  1  0  0  0
 33 94  1  0  0  0
 34 95  1  0  0  0
 37 96  1  0  0  0
 37 97  1  0  0  0
 38 98  1  0  0  0
 38 99  1  0  0  0
 39100  1  0  0  0
 39101  1  0  0  0
 40102  1  0  0  0
 42103  1  0  0  0
 42104  1  0  0  0
 43105  1  0  0  0
 45106  1  0  0  0
 48107  1  0  0  0
 48108  1  0  0  0
 49109  1  0  0  0
 49110  1  0  0  0
 50111  1  0  0  0
 50112  1  0  0  0
 51113  1  0  0  0
 52114  1  0  0  0
 55115  1  0  0  0
 55116  1  0  0  0
 55117  1  0  0  0
 57118  1  0  0  0
 58119  1  0  0  0
 60120  1  0  0  0
 60121  1  0  0  0
 61122  1  0  0  0
 61123  1  0  0  0
 62124  1  0  0  0
 62125  1  0  0  0
M  END
$$$$
