### 
### Created by X-TOOL on Mon Sep 10 21:12:47 2018
### 

@<TRIPOS>MOLECULE
1sm3_ligand
  125   127     1     0     0
SMALL
GAST_HUCK


@<TRIPOS>ATOM
      1 N          32.3380   -5.7780   -6.1170 N.4       1 SER         0.2377
      2 CA         31.1590   -6.5260   -6.6770 C.3       1 SER         0.0621
      3 C          29.8630   -5.8680   -6.1700 C.2       1 SER         0.2264
      4 O          29.8090   -5.4610   -5.0150 O.2       1 SER        -0.3907
      5 CB         31.2370   -7.9930   -6.2540 C.3       1 SER        -0.0040
      6 N          28.8440   -5.7880   -7.0370 N.am      1 ALA        -0.2613
      7 CA         27.6000   -5.0820   -6.7360 C.3       1 ALA         0.1285
      8 C          26.4980   -5.9550   -6.1320 C.2       1 ALA         0.2061
      9 O          26.5230   -7.2020   -6.2120 O.2       1 ALA        -0.3942
     10 CB         27.0640   -4.4600   -8.0210 C.3       1 ALA        -0.0244
     11 N          25.5310   -5.2800   -5.4710 N.am      1 PRO        -0.2498
     12 CA         24.3650   -5.9150   -4.8780 C.3       1 PRO         0.1338
     13 C          23.3500   -6.1580   -5.9980 C.2       1 PRO         0.2042
     14 O          23.7200   -6.0840   -7.1470 O.2       1 PRO        -0.3944
     15 CB         23.9120   -4.8710   -3.8710 C.3       1 PRO        -0.0104
     16 CG         24.1580   -3.6240   -4.6220 C.3       1 PRO        -0.0281
     17 CD         25.5690   -3.8410   -5.1200 C.3       1 PRO         0.0369
     18 N          22.1100   -6.4360   -5.7070 N.am      1 ASP        -0.2622
     19 CA         21.1870   -6.6990   -6.7480 C.3       1 ASP         0.1423
     20 C          20.7340   -5.3850   -7.3860 C.2       1 ASP         0.2057
     21 O          19.8760   -4.7070   -6.8670 O.2       1 ASP        -0.3943
     22 CB         19.9760   -7.4980   -6.2310 C.3       1 ASP         0.0406
     23 CG         18.9470   -7.8300   -7.3220 C.2       1 ASP         0.0393
     24 OD1        19.2860   -7.8120   -8.5520 O.co2     1 ASP        -0.5688
     25 OD2        17.7870   -8.0990   -6.9710 O.co2     1 ASP        -0.5688
     26 N          21.3100   -5.0450   -8.5420 N.am      1 THR        -0.2612
     27 CA         20.9840   -3.7970   -9.2020 C.3       1 THR         0.1565
     28 C          19.9440   -3.9520  -10.2960 C.2       1 THR         0.2065
     29 O          19.7890   -3.0500  -11.1220 O.2       1 THR        -0.3943
     30 CB         22.2630   -3.1370   -9.7740 C.3       1 THR         0.0924
     31 OG1        22.8960   -4.0010  -10.7310 O.3       1 THR        -0.3874
     32 CG2        23.2630   -2.8840   -8.6510 C.3       1 THR        -0.0346
     33 N          19.2130   -5.0650  -10.3380 N.am      1 ARG        -0.2636
     34 CA         18.2040   -5.1900  -11.3720 C.3       1 ARG         0.1313
     35 C          17.0540   -4.2420  -11.0850 C.2       1 ARG         0.2064
     36 O          16.7300   -3.9910   -9.9080 O.2       1 ARG        -0.3942
     37 CB         17.6790   -6.6250  -11.5290 C.3       1 ARG        -0.0092
     38 CG         16.4160   -6.6940  -12.3780 C.3       1 ARG        -0.0156
     39 CD         15.7410   -8.0450  -12.3830 C.3       1 ARG         0.0627
     40 NE         16.5210   -8.9850  -13.1320 N.pl3     1 ARG        -0.2723
     41 CZ         16.0620   -9.6670  -14.1640 C.cat     1 ARG         0.2882
     42 NH1        14.8070   -9.5470  -14.5760 N.pl3     1 ARG        -0.2849
     43 NH2        16.8770  -10.4890  -14.7800 N.pl3     1 ARG        -0.2849
     44 N          16.4450   -3.6360  -12.1510 N.am      1 PRO        -0.2498
     45 CA         15.3320   -2.7250  -11.9930 C.3       1 PRO         0.1338
     46 C          14.0990   -3.4430  -11.4260 C.2       1 PRO         0.2041
     47 O          13.7310   -4.5780  -11.8240 O.2       1 PRO        -0.3944
     48 CB         15.0820   -2.1630  -13.4180 C.3       1 PRO        -0.0104
     49 CG         16.3980   -2.3720  -14.1130 C.3       1 PRO        -0.0281
     50 CD         16.8480   -3.7230  -13.5960 C.3       1 PRO         0.0369
     51 N          13.5130   -2.7540  -10.4520 N.am      1 ALA        -0.2640
     52 CA         12.3180   -3.1740   -9.7660 C.3       1 ALA         0.1284
     53 C          11.1430   -3.1850  -10.7270 C.2       1 ALA         0.2062
     54 O          11.1970   -2.5260  -11.7600 O.2       1 ALA        -0.3942
     55 CB         12.0350   -2.1410   -8.6390 C.3       1 ALA        -0.0244
     56 N          10.1360   -4.0110  -10.4810 N.am      1 PRO        -0.2511
     57 CA          8.9500   -3.9990  -11.2920 C.3       1 PRO         0.1156
     58 C           8.2800   -2.5850  -11.2460 C.2       1 PRO         0.1247
     59 O           8.6630   -1.7610  -10.3740 O.2       1 PRO        -0.3725
     60 CB          8.0880   -5.1040  -10.6800 C.3       1 PRO        -0.0117
     61 CG          8.7080   -5.3840   -9.3670 C.3       1 PRO        -0.0281
     62 CD         10.1490   -5.1760   -9.5800 C.3       1 PRO         0.0370
     63 H1         33.1916   -6.2027   -6.4443 H         1 SER         0.2015
     64 H2         32.3103   -5.8124   -5.1100 H         1 SER         0.2015
     65 H3         32.3022   -4.8178   -6.4215 H         1 SER         0.2015
     66 H4         31.1818   -6.4711   -7.7754 H         1 SER         0.1095
     67 H5         30.3746   -8.5391   -6.6639 H         1 SER         0.0310
     68 H6         31.2247   -8.0592   -5.1561 H         1 SER         0.0310
     69 H7         32.1677   -8.4363   -6.6377 H         1 SER         0.0310
     70 H8         28.9389   -6.2306   -7.9287 H         1 ALA         0.1884
     71 H9         27.8316   -4.2824   -6.0171 H         1 ALA         0.0797
     72 H10        26.1269   -3.9254   -7.8064 H         1 ALA         0.0277
     73 H11        26.8733   -5.2521   -8.7600 H         1 ALA         0.0277
     74 H12        27.8051   -3.7537   -8.4234 H         1 ALA         0.0277
     75 H13        24.6131   -6.8644   -4.3809 H         1 PRO         0.0802
     76 H14        24.5120   -4.9120   -2.9500 H         1 PRO         0.0313
     77 H15        22.8473   -4.9875   -3.6206 H         1 PRO         0.0313
     78 H16        23.4506   -3.5123   -5.4569 H         1 PRO         0.0287
     79 H17        24.0947   -2.7423   -3.9673 H         1 PRO         0.0287
     80 H18        25.7867   -3.2170   -5.9993 H         1 PRO         0.0524
     81 H19        26.3102   -3.6372   -4.3331 H         1 PRO         0.0524
     82 H20        21.8120   -6.4634   -4.7528 H         1 ASP         0.1884
     83 H21        21.6938   -7.3021   -7.5157 H         1 ASP         0.0819
     84 H22        19.4762   -6.9057   -5.4504 H         1 ASP         0.0478
     85 H23        20.3408   -8.4413   -5.7985 H         1 ASP         0.0478
     86 H24        21.9774   -5.6620   -8.9590 H         1 THR         0.1884
     87 H25        20.5644   -3.1226   -8.4410 H         1 THR         0.0826
     88 H26        21.9943   -2.1853  -10.2557 H         1 THR         0.0639
     89 H27        22.2939   -4.1763  -11.4446 H         1 THR         0.2101
     90 H28        24.1681   -2.4154   -9.0647 H         1 THR         0.0257
     91 H29        23.5295   -3.8393   -8.1752 H         1 THR         0.0257
     92 H30        22.8129   -2.2147   -7.9030 H         1 THR         0.0257
     93 H31        19.3567   -5.7971   -9.6721 H         1 ARG         0.1883
     94 H32        18.6643   -4.8963  -12.3269 H         1 ARG         0.0800
     95 H33        17.4558   -7.0303  -10.5310 H         1 ARG         0.0313
     96 H34        18.4591   -7.2358  -12.0068 H         1 ARG         0.0313
     97 H35        16.6835   -6.4392  -13.4141 H         1 ARG         0.0301
     98 H36        15.7005   -5.9534  -11.9913 H         1 ARG         0.0301
     99 H37        14.7454   -7.9521  -12.8414 H         1 ARG         0.0689
    100 H38        15.6363   -8.4027  -11.3481 H         1 ARG         0.0689
    101 H39        17.4991   -9.1375  -12.8476 H         1 ARG         0.2642
    102 H40        14.4761  -10.0921  -15.3849 H         1 ARG         0.2615
    103 H41        14.1632   -8.9087  -14.0871 H         1 ARG         0.2615
    104 H42        17.8518  -10.5831  -14.4610 H         1 ARG         0.2615
    105 H43        16.5424  -11.0406  -15.5829 H         1 ARG         0.2615
    106 H44        15.6065   -1.9072  -11.3105 H         1 PRO         0.0802
    107 H45        14.8230   -1.0946  -13.3795 H         1 PRO         0.0313
    108 H46        14.2778   -2.7173  -13.9239 H         1 PRO         0.0313
    109 H47        16.2693   -2.3899  -15.2053 H         1 PRO         0.0287
    110 H48        17.1174   -1.5855  -13.8413 H         1 PRO         0.0287
    111 H49        16.3275   -4.5444  -14.1102 H         1 PRO         0.0524
    112 H50        17.9349   -3.8533  -13.7035 H         1 PRO         0.0524
    113 H51        13.9291   -1.8871  -10.1774 H         1 ALA         0.1883
    114 H52        12.4603   -4.1774   -9.3383 H         1 ALA         0.0797
    115 H53        11.1255   -2.4333   -8.0936 H         1 ALA         0.0277
    116 H54        11.8923   -1.1445   -9.0824 H         1 ALA         0.0277
    117 H55        12.8869   -2.1144   -7.9436 H         1 ALA         0.0277
    118 H56         9.1899   -4.2431  -12.3374 H         1 PRO         0.0792
    119 H57         7.4973   -2.3188  -11.9548 H         1 PRO         0.1373
    120 H58         8.1020   -6.0025  -11.3145 H         1 PRO         0.0314
    121 H59         7.0507   -4.7607  -10.5532 H         1 PRO         0.0314
    122 H60         8.3254   -4.6920   -8.6024 H         1 PRO         0.0287
    123 H61         8.5077   -6.4202   -9.0570 H         1 PRO         0.0287
    124 H62        10.6682   -4.9511   -8.6367 H         1 PRO         0.0524
    125 H63        10.6169   -6.0499  -10.0568 H         1 PRO         0.0524
@<TRIPOS>BOND
     1    2    1 1  
     2    2    5 1  
     3    3    2 1  
     4    3    4 2  
     5    7    6 1  
     6    7   10 1  
     7    8    7 1  
     8    8    9 2  
     9    6    3 am 
    10   13   12 1  
    11   12   15 1  
    12   12   11 1  
    13   11   17 1  
    14   17   16 1  
    15   15   16 1  
    16   13   14 2  
    17   11    8 am 
    18   19   18 1  
    19   19   22 1  
    20   20   19 1  
    21   20   21 2  
    22   22   23 1  
    23   23   24 ar 
    24   23   25 ar 
    25   18   13 am 
    26   27   26 1  
    27   27   30 1  
    28   28   27 1  
    29   28   29 2  
    30   30   32 1  
    31   30   31 1  
    32   26   20 am 
    33   34   33 1  
    34   34   37 1  
    35   35   34 1  
    36   35   36 2  
    37   37   38 1  
    38   38   39 1  
    39   39   40 1  
    40   40   41 ar 
    41   41   43 ar 
    42   41   42 ar 
    43   33   28 am 
    44   46   45 1  
    45   45   48 1  
    46   45   44 1  
    47   44   50 1  
    48   50   49 1  
    49   48   49 1  
    50   46   47 2  
    51   44   35 am 
    52   52   51 1  
    53   52   55 1  
    54   53   52 1  
    55   53   54 2  
    56   51   46 am 
    57   57   58 1  
    58   57   60 1  
    59   56   57 1  
    60   56   62 1  
    61   62   61 1  
    62   61   60 1  
    63   58   59 2  
    64   53   56 am 
    65    1   63 1  
    66    1   64 1  
    67    1   65 1  
    68    2   66 1  
    69    5   67 1  
    70    5   68 1  
    71    5   69 1  
    72    6   70 1  
    73    7   71 1  
    74   10   72 1  
    75   10   73 1  
    76   10   74 1  
    77   12   75 1  
    78   15   76 1  
    79   15   77 1  
    80   16   78 1  
    81   16   79 1  
    82   17   80 1  
    83   17   81 1  
    84   18   82 1  
    85   19   83 1  
    86   22   84 1  
    87   22   85 1  
    88   26   86 1  
    89   27   87 1  
    90   30   88 1  
    91   31   89 1  
    92   32   90 1  
    93   32   91 1  
    94   32   92 1  
    95   33   93 1  
    96   34   94 1  
    97   37   95 1  
    98   37   96 1  
    99   38   97 1  
   100   38   98 1  
   101   39   99 1  
   102   39  100 1  
   103   40  101 1  
   104   42  102 1  
   105   42  103 1  
   106   43  104 1  
   107   43  105 1  
   108   45  106 1  
   109   48  107 1  
   110   48  108 1  
   111   49  109 1  
   112   49  110 1  
   113   50  111 1  
   114   50  112 1  
   115   51  113 1  
   116   52  114 1  
   117   55  115 1  
   118   55  116 1  
   119   55  117 1  
   120   57  118 1  
   121   58  119 1  
   122   60  120 1  
   123   60  121 1  
   124   61  122 1  
   125   61  123 1  
   126   62  124 1  
   127   62  125 1  
@<TRIPOS>SUBSTRUCTURE
     1 SER         1

