4wy1_ligand
  -I-interpret- 

 33 35  0  0  0  0  0  0  0  0999 V2000
   24.5500   37.9850   41.3230 C   0  0  0  0  0
   21.1110   35.5930   39.9540 N   0  0  0  0  0
   25.6180   38.6420   42.0760 C   0  0  0  0  0
   26.2770   36.6200   40.2500 C   0  0  0  0  0
   22.6150   38.1450   43.0560 C   0  0  0  0  0
   27.2750   37.3190   40.9740 C   0  0  0  0  0
   23.0780   38.3490   41.5490 C   0  0  0  0  0
   21.6310   40.2890   41.3900 O   0  0  0  0  0
   21.2230   40.2310   42.8020 C   0  0  0  0  0
   21.2250   38.7730   43.3690 C   0  0  0  0  0
   22.9050   39.8540   41.1310 C   0  0  0  0  0
   24.9520   36.9670   40.4390 C   0  0  0  0  0
   22.8160   36.6720   43.5100 C   0  0  0  0  0
   21.8640   35.4900   42.4890 S   0  0  0  0  0
   21.7690   36.3390   40.9080 C   0  0  0  0  0
   22.2230   37.5480   40.5980 N   0  0  0  0  0
   26.9640   38.3480   41.8750 C   0  0  0  0  0
   25.3950   39.6530   42.9110 F   0  0  0  0  0
   28.5400   36.9700   40.7960 F   0  0  0  0  0
   20.7455   34.6706   40.1906 H   0  0  0  0  0
   26.5490   35.8237   39.5571 H   0  0  0  0  0
   23.2778   38.7289   43.6946 H   0  0  0  0  0
   20.2063   40.6175   42.8737 H   0  0  0  0  0
   21.9359   40.8174   43.3816 H   0  0  0  0  0
   21.0474   38.7841   44.4444 H   0  0  0  0  0
   20.4310   38.1857   42.9078 H   0  0  0  0  0
   23.0967   39.9456   40.0619 H   0  0  0  0  0
   23.6063   40.4604   41.7042 H   0  0  0  0  0
   24.1866   36.4292   39.8795 H   0  0  0  0  0
   22.4665   36.5860   44.5389 H   0  0  0  0  0
   23.8738   36.4295   43.4079 H   0  0  0  0  0
   21.9866   37.9472   39.6896 H   0  0  0  0  0
   27.7468   38.8970   42.3983 H   0  0  0  0  0
  1  3  4  0  0  0
  7  1  1  0  0  0
  1 12  4  0  0  0
 15  2  2  0  0  0
  3 17  4  0  0  0
  3 18  1  0  0  0
  4  6  4  0  0  0
 12  4  4  0  0  0
  5  7  1  0  0  0
  5 10  1  0  0  0
 13  5  1  0  0  0
 17  6  4  0  0  0
  6 19  1  0  0  0
  7 11  1  0  0  0
  7 16  1  0  0  0
  9  8  1  0  0  0
 11  8  1  0  0  0
 10  9  1  0  0  0
 14 13  1  0  0  0
 14 15  1  0  0  0
 15 16  1  0  0  0
  2 20  1  0  0  0
  4 21  1  0  0  0
  5 22  1  0  0  0
  9 23  1  0  0  0
  9 24  1  0  0  0
 10 25  1  0  0  0
 10 26  1  0  0  0
 11 27  1  0  0  0
 11 28  1  0  0  0
 12 29  1  0  0  0
 13 30  1  0  0  0
 13 31  1  0  0  0
 16 32  1  0  0  0
 17 33  1  0  0  0
M  END
$$$$
