3ijz_ligand
  -I-interpret- 

 34 36  0  0  0  0  0  0  0  0999 V2000
   29.8970   -9.0770   30.1890 C   0  0  0  0  0
   29.6850   -9.5840   31.4590 C   0  0  0  0  0
   28.5390  -10.3410   31.7390 C   0  0  0  0  0
   27.5210  -10.6460   30.8260 C   0  0  0  0  0
   27.6580  -10.1770   29.5440 C   0  0  0  0  0
   28.8520   -9.3750   29.1730 C   0  0  0  0  0
   28.6100   -9.0780   27.7390 C   0  0  0  0  0
   26.8470  -10.2730   28.2990 C   0  0  0  0  0
   27.4630   -9.6220   27.2840 N   0  0  0  0  0
   31.1220   -8.2640   29.8620 C   0  0  0  0  0
   29.4440   -8.3880   27.0470 O   0  0  0  0  0
   25.7300  -10.9020   28.2390 O   0  0  0  0  0
   27.0390   -9.4570   26.0050 C   0  0  0  0  0
   26.6080  -10.4870   25.1570 C   0  0  0  0  0
   26.2020  -10.2430   23.8390 C   0  0  0  0  0
   26.2030   -8.9470   23.3070 C   0  0  0  0  0
   26.6280   -7.9000   24.1140 C   0  0  0  0  0
   27.0270   -8.1740   25.4180 C   0  0  0  0  0
   25.7630   -8.6450   21.8940 C   0  0  0  0  0
   24.3930   -9.0450   21.4100 C   0  0  0  0  0
   26.5340   -8.0470   21.1550 O   0  0  0  0  0
   30.4139   -9.3935   32.2467 H   0  0  0  0  0
   28.4306  -10.7250   32.7533 H   0  0  0  0  0
   26.6526  -11.2339   31.1231 H   0  0  0  0  0
   31.1458   -7.3754   30.4928 H   0  0  0  0  0
   32.0138   -8.8639   30.0435 H   0  0  0  0  0
   31.0898   -7.9664   28.8139 H   0  0  0  0  0
   26.5883  -11.5091   25.5351 H   0  0  0  0  0
   25.8793  -11.0769   23.2156 H   0  0  0  0  0
   26.6486   -6.8795   23.7316 H   0  0  0  0  0
   27.3548   -7.3352   26.0321 H   0  0  0  0  0
   23.8361   -8.1533   21.1222 H   0  0  0  0  0
   24.4919   -9.7067   20.5495 H   0  0  0  0  0
   23.8636   -9.5633   22.2095 H   0  0  0  0  0
  1  2  4  0  0  0
  1  6  4  0  0  0
  1 10  1  0  0  0
  2  3  4  0  0  0
  3  4  4  0  0  0
  4  5  4  0  0  0
  5  6  4  0  0  0
  5  8  1  0  0  0
  6  7  1  0  0  0
  7  9  1  0  0  0
  7 11  2  0  0  0
  8  9  1  0  0  0
  8 12  2  0  0  0
  9 13  1  0  0  0
 13 14  4  0  0  0
 13 18  4  0  0  0
 14 15  4  0  0  0
 15 16  4  0  0  0
 16 17  4  0  0  0
 16 19  1  0  0  0
 17 18  4  0  0  0
 19 20  1  0  0  0
 19 21  2  0  0  0
  2 22  1  0  0  0
  3 23  1  0  0  0
  4 24  1  0  0  0
 10 25  1  0  0  0
 10 26  1  0  0  0
 10 27  1  0  0  0
 14 28  1  0  0  0
 15 29  1  0  0  0
 17 30  1  0  0  0
 18 31  1  0  0  0
 20 32  1  0  0  0
 20 33  1  0  0  0
 20 34  1  0  0  0
M  END
$$$$
