2qtt_ligand
  -I-interpret- 

 31 33  0  0  0  0  0  0  0  0999 V2000
  -19.3800  -18.7120  -26.3330 N   0  0  0  0  0
  -19.2430  -18.0660  -25.1520 C   0  0  0  0  0
  -20.0690  -18.2420  -24.0900 N   0  0  0  0  0
  -21.0860  -19.1190  -24.2080 C   0  0  0  0  0
  -21.3080  -19.8700  -25.4580 C   0  0  0  0  0
  -20.3650  -19.6190  -26.5660 C   0  0  0  0  0
  -20.4780  -20.2460  -27.7680 N   0  0  0  0  0
  -22.3940  -20.6460  -25.2740 N   0  0  0  0  0
  -22.8840  -20.4680  -23.9580 N   0  0  0  0  0
  -22.1580  -19.5490  -23.2670 C   0  0  0  0  0
  -22.3150  -19.0530  -21.8470 C   0  0  0  0  0
  -21.3600  -17.9890  -21.2830 C   0  0  0  0  0
  -20.4020  -18.5340  -20.3570 O   0  0  0  0  0
  -22.2740  -16.9590  -20.6320 C   0  0  0  0  0
  -22.4730  -17.1990  -19.2310 O   0  0  0  0  0
  -23.6020  -17.1280  -21.3450 C   0  0  0  0  0
  -23.6330  -18.5020  -21.6960 O   0  0  0  0  0
  -23.7230  -16.2720  -22.6080 C   0  0  0  0  0
  -23.6660  -14.8660  -22.2770 O   0  0  0  0  0
  -18.4184  -17.3609  -25.0473 H   0  0  0  0  0
  -19.8158  -20.0386  -28.5156 H   0  0  0  0  0
  -21.2249  -20.9235  -27.9216 H   0  0  0  0  0
  -22.0827  -19.9564  -21.2830 H   0  0  0  0  0
  -20.7415  -17.5499  -22.0658 H   0  0  0  0  0
  -19.8328  -17.8307  -20.0363 H   0  0  0  0  0
  -21.8415  -15.9619  -20.7141 H   0  0  0  0  0
  -23.0538  -16.5246  -18.8713 H   0  0  0  0  0
  -24.4253  -16.8114  -20.7046 H   0  0  0  0  0
  -24.6786  -16.4835  -23.0878 H   0  0  0  0  0
  -22.8965  -16.5111  -23.2773 H   0  0  0  0  0
  -23.7433  -14.3459  -23.0802 H   0  0  0  0  0
  1  2  4  0  0  0
  1  6  4  0  0  0
  2  3  4  0  0  0
  3  4  4  0  0  0
  4  5  4  0  0  0
  4 10  4  0  0  0
  5  6  4  0  0  0
  5  8  4  0  0  0
  6  7  1  0  0  0
  8  9  4  0  0  0
  9 10  4  0  0  0
 10 11  1  0  0  0
 11 12  1  0  0  0
 11 17  1  0  0  0
 12 13  1  0  0  0
 12 14  1  0  0  0
 14 15  1  0  0  0
 14 16  1  0  0  0
 16 17  1  0  0  0
 16 18  1  0  0  0
 18 19  1  0  0  0
  2 20  1  0  0  0
  7 21  1  0  0  0
  7 22  1  0  0  0
 11 23  1  0  0  0
 12 24  1  0  0  0
 13 25  1  0  0  0
 14 26  1  0  0  0
 15 27  1  0  0  0
 16 28  1  0  0  0
 18 29  1  0  0  0
 18 30  1  0  0  0
 19 31  1  0  0  0
M  END
$$$$
