5uxn_ligand
  -I-interpret- 

 25 25  0  0  0  0  0  0  0  0999 V2000
   37.6880    6.7850   47.7240 N   0  3  0  0  0
   36.6480    7.7710   48.0580 C   0  0  0  0  0
   35.5850    7.8910   47.0140 C   0  0  0  0  0
   35.7410    7.4040   45.8880 O   0  0  0  0  0
   37.2660    9.1560   48.3210 C   0  0  0  0  0
   37.9490    9.7810   47.1760 C   0  0  0  0  0
   39.2940    9.5550   46.9370 C   0  0  0  0  0
   37.2820   10.6700   46.3470 C   0  0  0  0  0
   39.9280   10.1520   45.8830 C   0  0  0  0  0
   37.9280   11.2800   45.2900 C   0  0  0  0  0
   39.2550   11.0090   45.0510 C   0  0  0  0  0
   39.9170   11.6300   44.0050 O   0  0  0  0  0
   34.5760    8.5420   47.2720 O   0  0  0  0  0
   37.2531    5.8780   47.5548 H   0  0  0  0  0
   38.1845    7.0870   46.8858 H   0  0  0  0  0
   38.3447    6.7089   48.5008 H   0  0  0  0  0
   36.1709    7.3986   48.9645 H   0  0  0  0  0
   36.5757    6.9307   45.8581 H   0  0  0  0  0
   38.0240    9.0136   49.0912 H   0  0  0  0  0
   36.4400    9.8166   48.5846 H   0  0  0  0  0
   39.8542    8.8930   47.5973 H   0  0  0  0  0
   36.2309   10.8909   46.5326 H   0  0  0  0  0
   40.9825    9.9438   45.7018 H   0  0  0  0  0
   37.3876   11.9745   44.6467 H   0  0  0  0  0
   39.3022   12.1914   43.5270 H   0  0  0  0  0
  1  2  1  0  0  0
  2  3  1  0  0  0
  2  5  1  0  0  0
  3  4  1  0  0  0
  3 13  2  0  0  0
  5  6  1  0  0  0
  6  7  4  0  0  0
  6  8  4  0  0  0
  7  9  4  0  0  0
  8 10  4  0  0  0
  9 11  4  0  0  0
 10 11  4  0  0  0
 11 12  1  0  0  0
  1 14  1  0  0  0
  1 15  1  0  0  0
  1 16  1  0  0  0
  2 17  1  0  0  0
  4 18  1  0  0  0
  5 19  1  0  0  0
  5 20  1  0  0  0
  7 21  1  0  0  0
  8 22  1  0  0  0
  9 23  1  0  0  0
 10 24  1  0  0  0
 12 25  1  0  0  0
M  END
$$$$
