5epp_ligand
  -I-interpret- 

266268  0  0  0  0  0  0  0  0999 V2000
   38.2220  -24.3500  -20.0190 N   0  3  0  0  0
   37.8500  -25.7170  -19.6660 C   0  0  0  0  0
   37.7560  -25.8910  -18.1530 C   0  0  0  0  0
   38.4860  -25.2340  -17.4040 O   0  0  0  0  0
   38.8700  -26.7120  -20.2360 C   0  0  0  0  0
   40.1860  -26.4220  -19.7810 O   0  0  0  0  0
   36.8750  -26.7800  -17.6900 N   0  0  0  0  0
   36.9400  -27.1570  -16.2730 C   0  0  0  0  0
   38.3000  -27.6990  -15.8850 C   0  0  0  0  0
   38.7060  -27.5620  -14.7250 O   0  0  0  0  0
   35.8440  -28.2240  -16.1280 C   0  0  0  0  0
   35.5510  -28.6700  -17.5020 C   0  0  0  0  0
   35.7860  -27.4790  -18.3860 C   0  0  0  0  0
   39.0310  -28.3210  -16.8130 N   0  0  0  0  0
   40.2610  -28.9370  -16.3430 C   0  0  0  0  0
   41.3890  -27.9260  -16.2390 C   0  0  0  0  0
   42.2520  -28.0710  -15.3700 O   0  0  0  0  0
   40.6150  -30.1360  -17.2130 C   0  0  0  0  0
   39.6310  -31.2900  -16.9550 C   0  0  0  0  0
   39.3650  -31.5260  -15.4380 C   0  0  0  0  0
   38.2010  -31.3680  -14.9910 O   0  0  0  0  0
   40.3150  -31.8760  -14.6900 O   0  0  0  0  0
   41.3850  -26.8740  -17.0610 N   0  0  0  0  0
   42.3600  -25.8190  -16.8240 C   0  0  0  0  0
   42.0890  -25.1270  -15.4930 C   0  0  0  0  0
   43.0290  -24.7410  -14.7950 O   0  0  0  0  0
   42.3790  -24.8170  -17.9840 C   0  0  0  0  0
   41.6630  -23.5250  -17.7030 C   0  0  0  0  0
   41.6430  -22.5680  -18.8900 C   0  0  0  0  0
   40.6080  -21.8760  -19.0500 O   0  0  0  0  0
   42.6510  -22.5010  -19.6380 O   0  0  0  0  0
   40.8160  -24.9860  -15.1040 N   0  0  0  0  0
   40.5370  -24.4310  -13.7850 C   0  0  0  0  0
   41.0800  -25.3360  -12.6860 C   0  0  0  0  0
   41.6880  -24.8580  -11.7210 O   0  0  0  0  0
   39.0400  -24.2140  -13.5980 C   0  0  0  0  0
   38.6680  -24.0320  -12.1330 C   0  0  0  0  0
   36.9830  -23.4510  -11.9550 S   0  0  0  0  0
   36.0640  -24.9230  -12.3530 C   0  0  0  0  0
   40.8840  -26.6480  -12.8200 N   0  0  0  0  0
   41.3980  -27.5670  -11.8080 C   0  0  0  0  0
   42.9230  -27.5160  -11.7350 C   0  0  0  0  0
   43.4990  -27.5230  -10.6390 O   0  0  0  0  0
   40.9140  -28.9970  -12.0840 C   0  0  0  0  0
   41.1610  -29.9610  -10.9040 C   0  0  0  0  0
   40.7840  -31.4120  -11.2310 C   0  0  0  0  0
   39.4560  -31.4970  -11.8370 N   0  0  0  0  0
   38.3220  -31.4040  -11.1540 C   0  0  0  0  0
   38.3520  -31.2490   -9.8210 N   0  0  0  0  0
   37.1590  -31.4820  -11.7980 N   0  0  0  0  0
   43.6000  -27.4860  -12.8850 N   0  0  0  0  0
   45.0580  -27.3650  -12.8700 C   0  0  0  0  0
   45.5070  -26.1020  -12.1400 C   0  0  0  0  0
   46.4360  -26.1350  -11.3210 O   0  0  0  0  0
   45.6090  -27.3740  -14.3040 C   0  0  0  0  0
   45.4720  -28.7330  -15.0040 C   0  0  0  0  0
   46.2980  -28.7800  -16.2800 C   0  0  0  0  0
   45.7740  -27.9140  -17.3350 N   0  0  0  0  0
   44.8400  -28.2930  -18.2030 C   0  0  0  0  0
   44.4310  -27.4570  -19.1540 N   0  0  0  0  0
   44.3130  -29.5140  -18.1270 N   0  0  0  0  0
   44.8780  -24.9660  -12.4360 N   0  0  0  0  0
   45.3320  -23.7320  -11.7980 C   0  0  0  0  0
   45.0350  -23.7390  -10.3040 C   0  0  0  0  0
   45.8620  -23.2870   -9.4980 O   0  0  0  0  0
   44.6910  -22.5160  -12.4750 C   0  0  0  0  0
   45.3410  -22.2020  -13.8020 C   0  0  0  0  0
   46.8120  -21.8930  -13.6160 C   0  0  0  0  0
   47.1720  -20.9170  -12.9580 O   0  0  0  0  0
   47.6730  -22.7580  -14.1460 N   0  0  0  0  0
   43.8610  -24.2320   -9.9150 N   0  0  0  0  0
   43.5380  -24.2860   -8.4890 C   0  0  0  0  0
   44.5350  -25.1540   -7.7290 C   0  0  0  0  0
   45.0160  -24.7700   -6.6550 O   0  0  0  0  0
   42.1150  -24.8040   -8.2700 C   0  0  0  0  0
   41.0080  -23.8110   -8.5870 C   0  0  0  0  0
   39.6640  -24.5040   -8.4500 C   0  0  0  0  0
   38.5710  -23.5350   -8.4400 N   0  0  0  0  0
   37.2960  -23.8640   -8.3150 C   0  0  0  0  0
   36.9560  -25.1360   -8.2050 N   0  0  0  0  0
   36.3580  -22.9200   -8.3000 N   0  0  0  0  0
   44.8590  -26.3330   -8.2600 N   0  0  0  0  0
   45.7860  -27.2020   -7.5250 C   0  0  0  0  0
   47.1920  -26.6180   -7.4870 C   0  0  0  0  0
   47.9170  -26.7980   -6.5000 O   0  0  0  0  0
   45.8050  -28.6080   -8.1390 C   0  0  0  0  0
   44.4780  -29.3690   -8.0220 C   0  0  0  0  0
   44.6320  -30.8100   -8.5240 C   0  0  0  0  0
   43.9790  -29.3590   -6.5920 C   0  0  0  0  0
   47.6020  -25.9230   -8.5480 N   0  0  0  0  0
   48.8970  -25.2580   -8.5250 C   0  0  0  0  0
   48.9380  -24.1730   -7.4500 C   0  0  0  0  0
   49.9180  -24.0570   -6.7070 O   0  0  0  0  0
   49.1810  -24.6670   -9.9100 C   0  0  0  0  0
   50.5790  -24.1620  -10.0750 C   0  0  0  0  0
   50.9800  -22.9260   -9.6160 N   0  0  0  0  0
   51.6650  -24.7150  -10.6710 C   0  0  0  0  0
   52.2570  -22.7430   -9.9110 C   0  0  0  0  0
   52.6960  -23.8140  -10.5500 N   0  0  0  0  0
   47.8590  -23.4000   -7.3320 N   0  0  0  0  0
   47.8040  -22.2970   -6.3730 C   0  0  0  0  0
   47.6360  -22.8050   -4.9440 C   0  0  0  0  0
   48.2690  -22.2870   -4.0160 O   0  0  0  0  0
   46.6500  -21.3500   -6.7560 C   0  0  0  0  0
   46.3070  -20.2070   -5.7520 C   0  0  0  0  0
   47.1760  -18.9350   -5.8370 C   0  0  0  0  0
   46.9250  -17.9950   -4.7140 N   0  0  0  0  0
   46.4280  -16.7540   -4.8250 C   0  0  0  0  0
   46.1140  -16.2270   -6.0070 N   0  0  0  0  0
   46.2630  -16.0060   -3.7360 N   0  0  0  0  0
   46.7990  -23.8230   -4.7400 N   0  0  0  0  0
   46.3600  -24.1520   -3.3890 C   0  0  0  0  0
   46.8560  -25.4850   -2.8390 C   0  0  0  0  0
   46.5950  -25.7720   -1.6680 O   0  0  0  0  0
   44.8240  -24.1420   -3.3260 C   0  0  0  0  0
   44.2080  -22.7890   -3.6000 C   0  0  0  0  0
   44.4000  -21.7310   -2.7210 C   0  0  0  0  0
   43.4330  -22.5810   -4.7290 C   0  0  0  0  0
   43.8180  -20.4870   -2.9620 C   0  0  0  0  0
   42.8520  -21.3340   -4.9870 C   0  0  0  0  0
   43.0480  -20.2890   -4.1050 C   0  0  0  0  0
   47.5510  -26.3160   -3.6250 N   0  0  0  0  0
   47.9410  -27.6220   -3.0970 C   0  0  0  0  0
   49.2960  -28.0700   -3.6350 C   0  0  0  0  0
   49.5900  -29.2710   -3.6000 O   0  0  0  0  0
   46.8550  -28.6740   -3.3860 C   0  0  0  0  0
   46.8290  -29.8050   -2.3470 C   0  0  0  0  0
   47.2510  -29.5880   -1.1880 O   0  0  0  0  0
   46.3620  -30.9090   -2.6970 O   0  0  0  0  0
   50.0610  -27.1410   -4.2020 N   0  0  0  0  0
   51.5240  -27.0780   -4.3400 C   0  0  0  0  0
   51.9220  -26.9920   -5.7820 C   0  0  0  0  0
   52.2110  -25.8840   -6.2360 O   0  0  0  0  0
   52.2550  -28.2090   -3.6370 C   0  0  0  0  0
   52.4290  -27.8170   -2.2840 O   0  0  0  0  0
   51.9400  -28.0340   -6.4390 O   0  0  0  0  0
   37.5353  -23.7017  -19.6335 H   0  0  0  0  0
   39.1432  -24.1396  -19.6348 H   0  0  0  0  0
   38.2465  -24.2570  -21.0345 H   0  0  0  0  0
   36.8694  -25.9158  -20.0985 H   0  0  0  0  0
   38.8552  -26.6389  -21.3234 H   0  0  0  0  0
   38.6007  -27.7140  -19.9021 H   0  0  0  0  0
   40.7998  -27.0594  -20.1532 H   0  0  0  0  0
   36.7893  -26.3029  -15.6128 H   0  0  0  0  0
   34.9564  -27.8234  -15.6384 H   0  0  0  0  0
   36.1708  -29.0518  -15.4986 H   0  0  0  0  0
   34.5254  -29.0287  -17.5892 H   0  0  0  0  0
   36.1893  -29.5055  -17.7892 H   0  0  0  0  0
   36.0376  -27.7499  -19.4114 H   0  0  0  0  0
   34.8971  -26.8622  -18.5186 H   0  0  0  0  0
   38.7443  -28.3615  -17.7910 H   0  0  0  0  0
   40.1026  -29.3077  -15.3303 H   0  0  0  0  0
   41.6245  -30.4673  -16.9696 H   0  0  0  0  0
   40.5560  -29.8451  -18.2618 H   0  0  0  0  0
   40.0689  -32.2007  -17.3635 H   0  0  0  0  0
   38.6820  -31.0318  -17.4249 H   0  0  0  0  0
   41.1204  -31.9439  -15.2080 H   0  0  0  0  0
   40.7194  -26.8113  -17.8313 H   0  0  0  0  0
   43.3495  -26.2728  -16.7691 H   0  0  0  0  0
   41.8674  -25.2896  -18.8225 H   0  0  0  0  0
   43.4231  -24.5685  -18.1741 H   0  0  0  0  0
   42.1929  -23.0275  -16.8907 H   0  0  0  0  0
   40.6284  -23.7700  -17.4631 H   0  0  0  0  0
   43.3193  -23.1168  -19.3285 H   0  0  0  0  0
   40.0525  -25.2627  -15.7212 H   0  0  0  0  0
   41.0404  -23.4667  -13.7146 H   0  0  0  0  0
   38.5186  -25.0938  -13.9750 H   0  0  0  0  0
   38.7572  -23.3093  -14.1361 H   0  0  0  0  0
   39.3377  -23.2921  -11.6948 H   0  0  0  0  0
   38.7573  -24.9952  -11.6306 H   0  0  0  0  0
   36.3086  -25.2395  -13.3670 H   0  0  0  0  0
   36.3261  -25.7144  -11.6508 H   0  0  0  0  0
   34.9966  -24.7132  -12.2840 H   0  0  0  0  0
   40.3762  -27.0091  -13.6276 H   0  0  0  0  0
   41.0096  -27.2511  -10.8398 H   0  0  0  0  0
   41.4713  -29.3747  -12.9412 H   0  0  0  0  0
   39.8385  -28.9543  -12.2560 H   0  0  0  0  0
   40.5386  -29.6345  -10.0709 H   0  0  0  0  0
   42.2257  -29.9375  -10.6716 H   0  0  0  0  0
   40.7776  -31.9845  -10.3035 H   0  0  0  0  0
   41.5126  -31.8069  -11.9391 H   0  0  0  0  0
   39.3977  -31.6362  -12.8458 H   0  0  0  0  0
   37.4803  -31.1902   -9.2947 H   0  0  0  0  0
   39.2465  -31.1900   -9.3344 H   0  0  0  0  0
   37.1439  -31.6124  -12.8095 H   0  0  0  0  0
   43.1017  -27.5473  -13.7729 H   0  0  0  0  0
   45.4572  -28.2232  -12.3294 H   0  0  0  0  0
   46.6721  -27.1401  -14.2479 H   0  0  0  0  0
   45.0341  -26.6492  -14.8804 H   0  0  0  0  0
   44.4243  -28.8875  -15.2619 H   0  0  0  0  0
   45.8304  -29.5099  -14.3287 H   0  0  0  0  0
   46.2758  -29.8046  -16.6512 H   0  0  0  0  0
   47.3029  -28.4347  -16.0368 H   0  0  0  0  0
   46.1451  -26.9668  -17.4096 H   0  0  0  0  0
   44.8339  -26.5222  -19.2191 H   0  0  0  0  0
   43.5996  -29.8041  -18.7958 H   0  0  0  0  0
   44.6229  -30.1589  -17.4000 H   0  0  0  0  0
   44.0976  -24.9574  -13.0927 H   0  0  0  0  0
   46.4134  -23.6672  -11.9179 H   0  0  0  0  0
   44.8177  -21.6540  -11.8200 H   0  0  0  0  0
   43.6393  -22.7395  -12.6541 H   0  0  0  0  0
   44.8501  -21.3321  -14.2384 H   0  0  0  0  0
   45.2423  -23.0677  -14.4570 H   0  0  0  0  0
   48.6757  -22.6255  -14.0137 H   0  0  0  0  0
   47.3304  -23.5536  -14.6846 H   0  0  0  0  0
   43.1914  -24.5697  -10.6063 H   0  0  0  0  0
   43.6026  -23.2697   -8.1003 H   0  0  0  0  0
   42.0282  -25.0411   -7.2097 H   0  0  0  0  0
   41.9816  -25.6477   -8.9471 H   0  0  0  0  0
   41.1277  -23.4415   -9.6055 H   0  0  0  0  0
   41.0596  -22.9711   -7.8941 H   0  0  0  0  0
   39.6501  -25.0551   -7.5097 H   0  0  0  0  0
   39.5287  -25.1735   -9.2994 H   0  0  0  0  0
   38.8047  -22.5467   -8.5350 H   0  0  0  0  0
   37.6754  -25.8590   -8.2167 H   0  0  0  0  0
   35.3760  -23.1783   -8.2035 H   0  0  0  0  0
   36.6211  -21.9382   -8.3850 H   0  0  0  0  0
   44.4713  -26.6248   -9.1572 H   0  0  0  0  0
   45.4293  -27.2714   -6.4974 H   0  0  0  0  0
   46.5532  -29.1844   -7.5949 H   0  0  0  0  0
   46.0131  -28.4897   -9.2024 H   0  0  0  0  0
   43.7422  -28.8635   -8.6475 H   0  0  0  0  0
   44.9406  -30.7982   -9.5693 H   0  0  0  0  0
   45.3862  -31.3227   -7.9270 H   0  0  0  0  0
   43.6783  -31.3296   -8.4312 H   0  0  0  0  0
   44.7173  -29.8362   -5.9476 H   0  0  0  0  0
   43.8248  -28.3293   -6.2695 H   0  0  0  0  0
   43.0371  -29.9044   -6.5334 H   0  0  0  0  0
   47.0090  -25.8571   -9.3753 H   0  0  0  0  0
   49.6693  -25.9867   -8.2786 H   0  0  0  0  0
   48.5105  -23.8183  -10.0452 H   0  0  0  0  0
   49.0346  -25.4634  -10.6397 H   0  0  0  0  0
   51.7113  -25.6906  -11.1549 H   0  0  0  0  0
   52.8469  -21.8591   -9.6683 H   0  0  0  0  0
   47.0502  -23.5823   -7.9261 H   0  0  0  0  0
   48.7482  -21.7537   -6.4102 H   0  0  0  0  0
   45.7586  -21.9749   -6.8104 H   0  0  0  0  0
   46.9650  -20.8542   -7.6742 H   0  0  0  0  0
   46.4710  -20.6195   -4.7565 H   0  0  0  0  0
   45.2893  -19.8943   -5.9857 H   0  0  0  0  0
   46.9285  -18.4213   -6.7659 H   0  0  0  0  0
   48.2216  -19.2396   -5.7919 H   0  0  0  0  0
   47.1508  -18.3226   -3.7748 H   0  0  0  0  0
   45.7571  -15.2730   -6.0615 H   0  0  0  0  0
   46.2304  -16.7773   -6.8579 H   0  0  0  0  0
   46.5143  -16.3769   -2.8197 H   0  0  0  0  0
   46.4649  -24.3731   -5.5313 H   0  0  0  0  0
   46.8069  -23.3823   -2.7598 H   0  0  0  0  0
   44.5394  -24.4285   -2.3136 H   0  0  0  0  0
   44.4637  -24.8240   -4.0962 H   0  0  0  0  0
   45.0134  -21.8749   -1.8315 H   0  0  0  0  0
   43.2729  -23.4019   -5.4280 H   0  0  0  0  0
   43.9658  -19.6699   -2.2559 H   0  0  0  0  0
   42.2465  -21.1878   -5.8815 H   0  0  0  0  0
   42.6021  -19.3143   -4.3029 H   0  0  0  0  0
   47.8038  -26.0430   -4.5747 H   0  0  0  0  0
   48.0415  -27.5217   -2.0163 H   0  0  0  0  0
   47.0714  -29.1185   -4.3574 H   0  0  0  0  0
   45.8880  -28.1718   -3.3565 H   0  0  0  0  0
   47.5653  -28.6829   -1.1273 H   0  0  0  0  0
   49.5553  -26.3510   -4.6026 H   0  0  0  0  0
   51.8341  -26.1647   -3.8323 H   0  0  0  0  0
   53.2190  -28.3964   -4.1100 H   0  0  0  0  0
   51.6819  -29.1341   -3.6986 H   0  0  0  0  0
   52.8898  -28.5114   -1.8076 H   0  0  0  0  0
   51.6791  -28.7687   -5.8789 H   0  0  0  0  0
  1  2  1  0  0  0
  2  3  1  0  0  0
  2  5  1  0  0  0
  3  4  2  0  0  0
  3  7  1  0  0  0
  5  6  1  0  0  0
  7  8  1  0  0  0
  7 13  1  0  0  0
  8  9  1  0  0  0
  8 11  1  0  0  0
  9 10  2  0  0  0
  9 14  1  0  0  0
 11 12  1  0  0  0
 12 13  1  0  0  0
 14 15  1  0  0  0
 15 16  1  0  0  0
 15 18  1  0  0  0
 16 17  2  0  0  0
 16 23  1  0  0  0
 18 19  1  0  0  0
 19 20  1  0  0  0
 20 21  2  0  0  0
 20 22  1  0  0  0
 23 24  1  0  0  0
 24 25  1  0  0  0
 24 27  1  0  0  0
 25 26  2  0  0  0
 25 32  1  0  0  0
 27 28  1  0  0  0
 28 29  1  0  0  0
 29 30  2  0  0  0
 29 31  1  0  0  0
 32 33  1  0  0  0
 33 34  1  0  0  0
 33 36  1  0  0  0
 34 35  2  0  0  0
 34 40  1  0  0  0
 36 37  1  0  0  0
 37 38  1  0  0  0
 38 39  1  0  0  0
 40 41  1  0  0  0
 41 42  1  0  0  0
 41 44  1  0  0  0
 42 43  2  0  0  0
 42 51  1  0  0  0
 44 45  1  0  0  0
 45 46  1  0  0  0
 46 47  1  0  0  0
 47 48  1  0  0  0
 48 49  1  0  0  0
 48 50  2  0  0  0
 51 52  1  0  0  0
 52 53  1  0  0  0
 52 55  1  0  0  0
 53 54  2  0  0  0
 53 62  1  0  0  0
 55 56  1  0  0  0
 56 57  1  0  0  0
 57 58  1  0  0  0
 58 59  1  0  0  0
 59 60  2  0  0  0
 59 61  1  0  0  0
 62 63  1  0  0  0
 63 64  1  0  0  0
 63 66  1  0  0  0
 64 65  2  0  0  0
 64 71  1  0  0  0
 66 67  1  0  0  0
 67 68  1  0  0  0
 68 69  2  0  0  0
 68 70  1  0  0  0
 71 72  1  0  0  0
 72 73  1  0  0  0
 72 75  1  0  0  0
 73 74  2  0  0  0
 73 82  1  0  0  0
 75 76  1  0  0  0
 76 77  1  0  0  0
 77 78  1  0  0  0
 78 79  1  0  0  0
 79 80  2  0  0  0
 79 81  1  0  0  0
 82 83  1  0  0  0
 83 84  1  0  0  0
 83 86  1  0  0  0
 84 85  2  0  0  0
 84 90  1  0  0  0
 86 87  1  0  0  0
 87 88  1  0  0  0
 87 89  1  0  0  0
 90 91  1  0  0  0
 91 92  1  0  0  0
 91 94  1  0  0  0
 92 93  2  0  0  0
 92100  1  0  0  0
 94 95  1  0  0  0
 95 96  4  0  0  0
 95 97  4  0  0  0
 96 98  4  0  0  0
 97 99  4  0  0  0
 98 99  4  0  0  0
100101  1  0  0  0
101102  1  0  0  0
101104  1  0  0  0
102103  2  0  0  0
102111  1  0  0  0
104105  1  0  0  0
105106  1  0  0  0
106107  1  0  0  0
107108  1  0  0  0
108109  1  0  0  0
108110  2  0  0  0
111112  1  0  0  0
112113  1  0  0  0
112115  1  0  0  0
113114  2  0  0  0
113122  1  0  0  0
115116  1  0  0  0
116117  4  0  0  0
116118  4  0  0  0
117119  4  0  0  0
118120  4  0  0  0
119121  4  0  0  0
120121  4  0  0  0
122123  1  0  0  0
123124  1  0  0  0
123126  1  0  0  0
124125  2  0  0  0
124130  1  0  0  0
126127  1  0  0  0
127128  1  0  0  0
127129  2  0  0  0
130131  1  0  0  0
131132  1  0  0  0
131134  1  0  0  0
132133  2  0  0  0
132136  1  0  0  0
134135  1  0  0  0
  1137  1  0  0  0
  1138  1  0  0  0
  1139  1  0  0  0
  2140  1  0  0  0
  5141  1  0  0  0
  5142  1  0  0  0
  6143  1  0  0  0
  8144  1  0  0  0
 11145  1  0  0  0
 11146  1  0  0  0
 12147  1  0  0  0
 12148  1  0  0  0
 13149  1  0  0  0
 13150  1  0  0  0
 14151  1  0  0  0
 15152  1  0  0  0
 18153  1  0  0  0
 18154  1  0  0  0
 19155  1  0  0  0
 19156  1  0  0  0
 22157  1  0  0  0
 23158  1  0  0  0
 24159  1  0  0  0
 27160  1  0  0  0
 27161  1  0  0  0
 28162  1  0  0  0
 28163  1  0  0  0
 31164  1  0  0  0
 32165  1  0  0  0
 33166  1  0  0  0
 36167  1  0  0  0
 36168  1  0  0  0
 37169  1  0  0  0
 37170  1  0  0  0
 39171  1  0  0  0
 39172  1  0  0  0
 39173  1  0  0  0
 40174  1  0  0  0
 41175  1  0  0  0
 44176  1  0  0  0
 44177  1  0  0  0
 45178  1  0  0  0
 45179  1  0  0  0
 46180  1  0  0  0
 46181  1  0  0  0
 47182  1  0  0  0
 49183  1  0  0  0
 49184  1  0  0  0
 50185  1  0  0  0
 51186  1  0  0  0
 52187  1  0  0  0
 55188  1  0  0  0
 55189  1  0  0  0
 56190  1  0  0  0
 56191  1  0  0  0
 57192  1  0  0  0
 57193  1  0  0  0
 58194  1  0  0  0
 60195  1  0  0  0
 61196  1  0  0  0
 61197  1  0  0  0
 62198  1  0  0  0
 63199  1  0  0  0
 66200  1  0  0  0
 66201  1  0  0  0
 67202  1  0  0  0
 67203  1  0  0  0
 70204  1  0  0  0
 70205  1  0  0  0
 71206  1  0  0  0
 72207  1  0  0  0
 75208  1  0  0  0
 75209  1  0  0  0
 76210  1  0  0  0
 76211  1  0  0  0
 77212  1  0  0  0
 77213  1  0  0  0
 78214  1  0  0  0
 80215  1  0  0  0
 81216  1  0  0  0
 81217  1  0  0  0
 82218  1  0  0  0
 83219  1  0  0  0
 86220  1  0  0  0
 86221  1  0  0  0
 87222  1  0  0  0
 88223  1  0  0  0
 88224  1  0  0  0
 88225  1  0  0  0
 89226  1  0  0  0
 89227  1  0  0  0
 89228  1  0  0  0
 90229  1  0  0  0
 91230  1  0  0  0
 94231  1  0  0  0
 94232  1  0  0  0
 97233  1  0  0  0
 98234  1  0  0  0
100235  1  0  0  0
101236  1  0  0  0
104237  1  0  0  0
104238  1  0  0  0
105239  1  0  0  0
105240  1  0  0  0
106241  1  0  0  0
106242  1  0  0  0
107243  1  0  0  0
109244  1  0  0  0
109245  1  0  0  0
110246  1  0  0  0
111247  1  0  0  0
112248  1  0  0  0
115249  1  0  0  0
115250  1  0  0  0
117251  1  0  0  0
118252  1  0  0  0
119253  1  0  0  0
120254  1  0  0  0
121255  1  0  0  0
122256  1  0  0  0
123257  1  0  0  0
126258  1  0  0  0
126259  1  0  0  0
128260  1  0  0  0
130261  1  0  0  0
131262  1  0  0  0
134263  1  0  0  0
134264  1  0  0  0
135265  1  0  0  0
136266  1  0  0  0
M  END
$$$$
