### 
### Created by X-TOOL on Mon Sep 10 21:13:27 2018
### 

@<TRIPOS>MOLECULE
5epp_ligand
  267   269     1     0     0
SMALL
GAST_HUCK


@<TRIPOS>ATOM
      1 N          38.2220  -24.3500  -20.0190 N.4       1 SER         0.2396
      2 CA         37.8500  -25.7170  -19.6660 C.3       1 SER         0.0886
      3 C          37.7560  -25.8910  -18.1530 C.2       1 SER         0.2315
      4 O          38.4860  -25.2340  -17.4040 O.2       1 SER        -0.3904
      5 CB         38.8700  -26.7120  -20.2360 C.3       1 SER         0.1041
      6 OG         40.1860  -26.4220  -19.7810 O.3       1 SER        -0.3870
      7 N          36.8750  -26.7800  -17.6900 N.am      1 PRO        -0.2471
      8 CA         36.9400  -27.1570  -16.2730 C.3       1 PRO         0.1339
      9 C          38.3000  -27.6990  -15.8850 C.2       1 PRO         0.2041
     10 O          38.7060  -27.5620  -14.7250 O.2       1 PRO        -0.3944
     11 CB         35.8440  -28.2240  -16.1280 C.3       1 PRO        -0.0104
     12 CG         35.5510  -28.6700  -17.5020 C.3       1 PRO        -0.0281
     13 CD         35.7860  -27.4790  -18.3860 C.3       1 PRO         0.0371
     14 N          39.0310  -28.3210  -16.8130 N.am      1 GLU        -0.2636
     15 CA         40.2610  -28.9370  -16.3430 C.3       1 GLU         0.1325
     16 C          41.3890  -27.9260  -16.2390 C.2       1 GLU         0.2040
     17 O          42.2520  -28.0710  -15.3700 O.2       1 GLU        -0.3944
     18 CB         40.6150  -30.1360  -17.2130 C.3       1 GLU        -0.0008
     19 CG         39.6310  -31.2900  -16.9550 C.3       1 GLU         0.0044
     20 CD         39.3650  -31.5260  -15.4380 C.2       1 GLU         0.0350
     21 OE1        38.2010  -31.3680  -14.9910 O.co2     1 GLU        -0.5690
     22 OE2        40.3150  -31.8760  -14.6900 O.co2     1 GLU        -0.5690
     23 N          41.3850  -26.8740  -17.0610 N.am      1 GLU        -0.2636
     24 CA         42.3600  -25.8190  -16.8240 C.3       1 GLU         0.1325
     25 C          42.0890  -25.1270  -15.4930 C.2       1 GLU         0.2040
     26 O          43.0290  -24.7410  -14.7950 O.2       1 GLU        -0.3944
     27 CB         42.3790  -24.8170  -17.9840 C.3       1 GLU        -0.0008
     28 CG         41.6630  -23.5250  -17.7030 C.3       1 GLU         0.0044
     29 CD         41.6430  -22.5680  -18.8900 C.2       1 GLU         0.0350
     30 OE1        40.6080  -21.8760  -19.0500 O.co2     1 GLU        -0.5690
     31 OE2        42.6510  -22.5010  -19.6380 O.co2     1 GLU        -0.5690
     32 N          40.8160  -24.9860  -15.1040 N.am      1 MET        -0.2637
     33 CA         40.5370  -24.4310  -13.7850 C.3       1 MET         0.1317
     34 C          41.0800  -25.3360  -12.6860 C.2       1 MET         0.2039
     35 O          41.6880  -24.8580  -11.7210 O.2       1 MET        -0.3944
     36 CB         39.0400  -24.2140  -13.5980 C.3       1 MET        -0.0034
     37 CG         38.6680  -24.0320  -12.1330 C.3       1 MET        -0.0024
     38 SD         36.9830  -23.4510  -11.9550 S.3       1 MET        -0.1639
     39 CE         36.0640  -24.9230  -12.3530 C.3       1 MET        -0.0181
     40 N          40.8840  -26.6480  -12.8200 N.am      1 ARG        -0.2637
     41 CA         41.3980  -27.5670  -11.8080 C.3       1 ARG         0.1311
     42 C          42.9230  -27.5160  -11.7350 C.2       1 ARG         0.2039
     43 O          43.4990  -27.5230  -10.6390 O.2       1 ARG        -0.3944
     44 CB         40.9140  -28.9970  -12.0840 C.3       1 ARG        -0.0092
     45 CG         41.1610  -29.9610  -10.9040 C.3       1 ARG        -0.0156
     46 CD         40.7840  -31.4120  -11.2310 C.3       1 ARG         0.0627
     47 NE         39.4560  -31.4970  -11.8370 N.pl3     1 ARG        -0.2723
     48 CZ         38.3220  -31.4040  -11.1540 C.cat     1 ARG         0.2882
     49 NH1        38.3520  -31.2490   -9.8210 N.pl3     1 ARG        -0.2849
     50 NH2        37.1590  -31.4820  -11.7980 N.pl3     1 ARG        -0.2849
     51 N          43.6000  -27.4860  -12.8850 N.am      1 ARG        -0.2637
     52 CA         45.0580  -27.3650  -12.8700 C.3       1 ARG         0.1311
     53 C          45.5070  -26.1020  -12.1400 C.2       1 ARG         0.2039
     54 O          46.4360  -26.1350  -11.3210 O.2       1 ARG        -0.3944
     55 CB         45.6090  -27.3740  -14.3040 C.3       1 ARG        -0.0092
     56 CG         45.4720  -28.7330  -15.0040 C.3       1 ARG        -0.0156
     57 CD         46.2980  -28.7800  -16.2800 C.3       1 ARG         0.0627
     58 NE         45.7740  -27.9140  -17.3350 N.pl3     1 ARG        -0.2723
     59 CZ         44.8400  -28.2930  -18.2030 C.cat     1 ARG         0.2882
     60 NH1        44.4310  -27.4570  -19.1540 N.pl3     1 ARG        -0.2849
     61 NH2        44.3130  -29.5140  -18.1270 N.pl3     1 ARG        -0.2849
     62 N          44.8780  -24.9660  -12.4360 N.am      1 GLN        -0.2636
     63 CA         45.3320  -23.7320  -11.7980 C.3       1 GLN         0.1330
     64 C          45.0350  -23.7390  -10.3040 C.2       1 GLN         0.2040
     65 O          45.8620  -23.2870   -9.4980 O.2       1 GLN        -0.3944
     66 CB         44.6910  -22.5160  -12.4750 C.3       1 GLN         0.0045
     67 CG         45.3410  -22.2020  -13.8020 C.3       1 GLN         0.0412
     68 CD         46.8120  -21.8930  -13.6160 C.2       1 GLN         0.1737
     69 OE1        47.1720  -20.9170  -12.9580 O.2       1 GLN        -0.3973
     70 NE2        47.6730  -22.7580  -14.1460 N.am      1 GLN        -0.3009
     71 N          43.8610  -24.2320   -9.9150 N.am      1 ARG        -0.2637
     72 CA         43.5380  -24.2860   -8.4890 C.3       1 ARG         0.1311
     73 C          44.5350  -25.1540   -7.7290 C.2       1 ARG         0.2039
     74 O          45.0160  -24.7700   -6.6550 O.2       1 ARG        -0.3944
     75 CB         42.1150  -24.8040   -8.2700 C.3       1 ARG        -0.0092
     76 CG         41.0080  -23.8110   -8.5870 C.3       1 ARG        -0.0156
     77 CD         39.6640  -24.5040   -8.4500 C.3       1 ARG         0.0627
     78 NE         38.5710  -23.5350   -8.4400 N.pl3     1 ARG        -0.2723
     79 CZ         37.2960  -23.8640   -8.3150 C.cat     1 ARG         0.2882
     80 NH1        36.9560  -25.1360   -8.2050 N.pl3     1 ARG        -0.2849
     81 NH2        36.3580  -22.9200   -8.3000 N.pl3     1 ARG        -0.2849
     82 N          44.8590  -26.3330   -8.2600 N.am      1 LEU        -0.2637
     83 CA         45.7860  -27.2020   -7.5250 C.3       1 LEU         0.1312
     84 C          47.1920  -26.6180   -7.4870 C.2       1 LEU         0.2040
     85 O          47.9170  -26.7980   -6.5000 O.2       1 LEU        -0.3944
     86 CB         45.8050  -28.6080   -8.1390 C.3       1 LEU        -0.0101
     87 CG         44.4780  -29.3690   -8.0220 C.3       1 LEU        -0.0425
     88 CD1        44.6320  -30.8100   -8.5240 C.3       1 LEU        -0.0625
     89 CD2        43.9790  -29.3590   -6.5920 C.3       1 LEU        -0.0625
     90 N          47.6020  -25.9230   -8.5480 N.am      1 HIS        -0.2625
     91 CA         48.8970  -25.2580   -8.5250 C.3       1 HIS         0.1369
     92 C          48.9380  -24.1730   -7.4500 C.2       1 HIS         0.2054
     93 O          49.9180  -24.0570   -6.7070 O.2       1 HIS        -0.3942
     94 CB         49.1810  -24.6670   -9.9100 C.3       1 HIS         0.0145
     95 CG         50.5790  -24.1620  -10.0750 C.2       1 HIS        -0.0027
     96 ND1        50.9800  -22.9260   -9.6160 N.2       1 HIS        -0.3252
     97 CD2        51.6650  -24.7150  -10.6710 C.2       1 HIS         0.0291
     98 CE1        52.2570  -22.7430   -9.9110 C.2       1 HIS         0.0907
     99 NE2        52.6960  -23.8140  -10.5500 N.pl3     1 HIS        -0.2752
    100 N          47.8590  -23.4000   -7.3320 N.am      1 ARG        -0.2636
    101 CA         47.8040  -22.2970   -6.3730 C.3       1 ARG         0.1311
    102 C          47.6360  -22.8050   -4.9440 C.2       1 ARG         0.2040
    103 O          48.2690  -22.2870   -4.0160 O.2       1 ARG        -0.3944
    104 CB         46.6500  -21.3500   -6.7560 C.3       1 ARG        -0.0092
    105 CG         46.3070  -20.2070   -5.7520 C.3       1 ARG        -0.0156
    106 CD         47.1760  -18.9350   -5.8370 C.3       1 ARG         0.0627
    107 NE         46.9250  -17.9950   -4.7140 N.pl3     1 ARG        -0.2723
    108 CZ         46.4280  -16.7540   -4.8250 C.cat     1 ARG         0.2882
    109 NH1        46.1140  -16.2270   -6.0070 N.pl3     1 ARG        -0.2849
    110 NH2        46.2630  -16.0060   -3.7360 N.pl3     1 ARG        -0.2849
    111 N          46.7990  -23.8230   -4.7400 N.am      1 PHE        -0.2619
    112 CA         46.3600  -24.1520   -3.3890 C.3       1 PHE         0.1404
    113 C          46.8560  -25.4850   -2.8390 C.2       1 PHE         0.2060
    114 O          46.5950  -25.7720   -1.6680 O.2       1 PHE        -0.3942
    115 CB         44.8240  -24.1420   -3.3260 C.3       1 PHE         0.0214
    116 CG         44.2080  -22.7890   -3.6000 C.ar      1 PHE        -0.0386
    117 CD1        44.4000  -21.7310   -2.7210 C.ar      1 PHE        -0.0601
    118 CD2        43.4330  -22.5810   -4.7290 C.ar      1 PHE        -0.0601
    119 CE1        43.8180  -20.4870   -2.9620 C.ar      1 PHE        -0.0686
    120 CE2        42.8520  -21.3340   -4.9870 C.ar      1 PHE        -0.0686
    121 CZ         43.0480  -20.2890   -4.1050 C.ar      1 PHE        -0.0687
    122 N          47.5510  -26.3160   -3.6250 N.am      1 ASP        -0.2620
    123 CA         47.9410  -27.6220   -3.0970 C.3       1 ASP         0.1423
    124 C          49.2960  -28.0700   -3.6350 C.2       1 ASP         0.2051
    125 O          49.5900  -29.2710   -3.6000 O.2       1 ASP        -0.3943
    126 CB         46.8550  -28.6740   -3.3860 C.3       1 ASP         0.0406
    127 CG         46.8290  -29.8050   -2.3470 C.2       1 ASP         0.0393
    128 OD1        47.2510  -29.5880   -1.1880 O.co2     1 ASP        -0.5688
    129 OD2        46.3620  -30.9090   -2.6970 O.co2     1 ASP        -0.5688
    130 N          50.0610  -27.1410   -4.2020 N.am      1 SER        -0.2671
    131 CA         51.5240  -27.0780   -4.3400 C.3       1 SER         0.1173
    132 C          51.9220  -26.9920   -5.7820 C.2       1 SER         0.0623
    133 O          52.2110  -25.8840   -6.2360 O.co2     1 SER        -0.5665
    134 CB         52.2550  -28.2090   -3.6370 C.3       1 SER         0.0789
    135 OG         52.4290  -27.8170   -2.2840 O.3       1 SER        -0.3910
    136 OXT        51.9400  -28.0340   -6.4390 O.co2     1 SER        -0.5665
    137 H1         38.2763  -24.2649  -21.0219 H         1 SER         0.2016
    138 H2         39.1187  -24.1306  -19.6142 H         1 SER         0.2016
    139 H3         37.5278  -23.7107  -19.6647 H         1 SER         0.2016
    140 H4         36.8644  -25.9323  -20.1044 H         1 SER         0.1122
    141 H5         38.8503  -26.6555  -21.3344 H         1 SER         0.0640
    142 H6         38.5963  -27.7282  -19.9161 H         1 SER         0.0640
    143 H7         40.7934  -27.0528  -20.1494 H         1 SER         0.2099
    144 H8         36.7134  -26.2878  -15.6381 H         1 PRO         0.0802
    145 H9         34.9453  -27.7925  -15.6632 H         1 PRO         0.0313
    146 H10        36.2040  -29.0658  -15.5183 H         1 PRO         0.0313
    147 H11        34.5056  -29.0031  -17.5804 H         1 PRO         0.0287
    148 H12        36.2210  -29.4947  -17.7867 H         1 PRO         0.0287
    149 H13        36.0927  -27.7876  -19.3963 H         1 PRO         0.0524
    150 H14        34.8868  -26.8489  -18.4522 H         1 PRO         0.0524
    151 H15        38.7499  -28.3607  -17.7719 H         1 GLU         0.1883
    152 H16        40.0745  -29.3153  -15.3271 H         1 GLU         0.0801
    153 H17        41.6358  -30.4691  -16.9744 H         1 GLU         0.0330
    154 H18        40.5627  -29.8442  -18.2723 H         1 GLU         0.0330
    155 H19        40.0486  -32.2116  -17.3865 H         1 GLU         0.0433
    156 H20        38.6758  -31.0547  -17.4472 H         1 GLU         0.0433
    157 H21        40.7324  -26.8125  -17.8162 H         1 GLU         0.1883
    158 H22        43.3551  -26.2841  -16.7658 H         1 GLU         0.0801
    159 H23        41.9035  -25.2909  -18.8554 H         1 GLU         0.0330
    160 H24        43.4279  -24.5843  -18.2200 H         1 GLU         0.0330
    161 H25        42.1649  -23.0250  -16.8616 H         1 GLU         0.0433
    162 H26        40.6241  -23.7563  -17.4252 H         1 GLU         0.0433
    163 H27        40.0675  -25.2573  -15.7091 H         1 MET         0.1883
    164 H28        41.0403  -23.4558  -13.7091 H         1 MET         0.0800
    165 H29        38.5023  -25.0877  -13.9948 H         1 MET         0.0320
    166 H30        38.7394  -23.3143  -14.1550 H         1 MET         0.0320
    167 H31        39.3497  -23.2977  -11.6790 H         1 MET         0.0378
    168 H32        38.7706  -24.9969  -11.6150 H         1 MET         0.0378
    169 H33        34.9866  -24.7125  -12.2837 H         1 MET         0.0340
    170 H34        36.3276  -25.7225  -11.6450 H         1 MET         0.0340
    171 H35        36.3099  -25.2434  -13.3761 H         1 MET         0.0340
    172 H36        40.3861  -27.0020  -13.6117 H         1 ARG         0.1883
    173 H37        41.0009  -27.2540  -10.8311 H         1 ARG         0.0800
    174 H38        41.4456  -29.3817  -12.9668 H         1 ARG         0.0313
    175 H39        39.8340  -28.9668  -12.2905 H         1 ARG         0.0313
    176 H40        40.5597  -29.6268  -10.0457 H         1 ARG         0.0301
    177 H41        42.2282  -29.9265  -10.6397 H         1 ARG         0.0301
    178 H42        40.7914  -32.0013  -10.3022 H         1 ARG         0.0689
    179 H43        41.5241  -31.8242  -11.9327 H         1 ARG         0.0689
    180 H44        39.3971  -31.6376  -12.8557 H         1 ARG         0.2642
    181 H45        37.4718  -31.1768   -9.2910 H         1 ARG         0.2615
    182 H46        39.2552  -31.2022   -9.3282 H         1 ARG         0.2615
    183 H47        37.1438  -31.6009  -12.8210 H         1 ARG         0.2615
    184 H48        36.2747  -31.4234  -11.2731 H         1 ARG         0.2615
    185 H49        43.1114  -27.5461  -13.7554 H         1 ARG         0.1883
    186 H50        45.4683  -28.2342  -12.3352 H         1 ARG         0.0800
    187 H51        46.6754  -27.1064  -14.2690 H         1 ARG         0.0313
    188 H52        45.0615  -26.6227  -14.8921 H         1 ARG         0.0313
    189 H53        44.4145  -28.9025  -15.2548 H         1 ARG         0.0301
    190 H54        45.8187  -29.5241  -14.3228 H         1 ARG         0.0301
    191 H55        46.3103  -29.8154  -16.6511 H         1 ARG         0.0689
    192 H56        47.3245  -28.4627  -16.0444 H         1 ARG         0.0689
    193 H57        46.1488  -26.9576  -17.4103 H         1 ARG         0.2642
    194 H58        43.7076  -27.7538  -19.8244 H         1 ARG         0.2615
    195 H59        44.8378  -26.5130  -19.2197 H         1 ARG         0.2615
    196 H60        44.6259  -30.1652  -17.3929 H         1 ARG         0.2615
    197 H61        43.5926  -29.8069  -18.8024 H         1 ARG         0.2615
    198 H62        44.1129  -24.9576  -13.0798 H         1 GLN         0.1883
    199 H63        46.4221  -23.6618  -11.9273 H         1 GLN         0.0801
    200 H64        44.7957  -21.6440  -11.8127 H         1 GLN         0.0337
    201 H65        43.6238  -22.7235  -12.6421 H         1 GLN         0.0337
    202 H66        44.8427  -21.3303  -14.2512 H         1 GLN         0.0504
    203 H67        45.2357  -23.0694  -14.4702 H         1 GLN         0.0504
    204 H68        48.6568  -22.6043  -14.0539 H         1 GLN         0.1814
    205 H69        47.3363  -23.5618  -14.6364 H         1 GLN         0.1814
    206 H70        43.2045  -24.5631  -10.5928 H         1 ARG         0.1883
    207 H71        43.5976  -23.2635   -8.0878 H         1 ARG         0.0800
    208 H72        42.0180  -25.0959   -7.2139 H         1 ARG         0.0313
    209 H73        41.9725  -25.6878   -8.9093 H         1 ARG         0.0313
    210 H74        41.1284  -23.4413   -9.6160 H         1 ARG         0.0301
    211 H75        41.0596  -22.9656   -7.8852 H         1 ARG         0.0301
    212 H76        39.6477  -25.0735   -7.5090 H         1 ARG         0.0689
    213 H77        39.5265  -25.1918   -9.2973 H         1 ARG         0.0689
    214 H78        38.8070  -22.5370   -8.5359 H         1 ARG         0.2642
    215 H79        35.9645  -25.3975   -8.1074 H         1 ARG         0.2615
    216 H80        37.6824  -25.8661   -8.2168 H         1 ARG         0.2615
    217 H81        36.6237  -21.9286   -8.3858 H         1 ARG         0.2615
    218 H82        35.3663  -23.1808   -8.2026 H         1 ARG         0.2615
    219 H83        44.4789  -26.6191   -9.1396 H         1 LEU         0.1883
    220 H84        45.4248  -27.2845   -6.4893 H         1 LEU         0.0800
    221 H85        46.5840  -29.1949   -7.6305 H         1 LEU         0.0315
    222 H86        46.0546  -28.5140   -9.2062 H         1 LEU         0.0315
    223 H87        43.7328  -28.8612   -8.6519 H         1 LEU         0.0298
    224 H88        43.6701  -31.3355   -8.4308 H         1 LEU         0.0232
    225 H89        45.3929  -31.3286   -7.9222 H         1 LEU         0.0232
    226 H90        44.9434  -30.7995   -9.5789 H         1 LEU         0.0232
    227 H91        43.8741  -28.3196   -6.2476 H         1 LEU         0.0232
    228 H92        44.6981  -29.8875   -5.9490 H         1 LEU         0.0232
    229 H93        43.0024  -29.8625   -6.5409 H         1 LEU         0.0232
    230 H94        47.0206  -25.8584   -9.3591 H         1 HIS         0.1885
    231 H95        49.6721  -26.0035   -8.2937 H         1 HIS         0.0817
    232 H96        48.4876  -23.8299  -10.0789 H         1 HIS         0.0420
    233 H97        49.0032  -25.4482  -10.6637 H         1 HIS         0.0420
    234 H98        51.7113  -25.6897  -11.1545 H         1 HIS         0.0729
    235 H99        52.8464  -21.8599   -9.6685 H         1 HIS         0.1199
    236 H100       53.6549  -23.9510  -10.9003 H         1 HIS         0.2361
    237 H101       47.0660  -23.5787   -7.9144 H         1 ARG         0.1883
    238 H102       48.7500  -21.7386   -6.4293 H         1 ARG         0.0800
    239 H103       45.7456  -21.9634   -6.8816 H         1 ARG         0.0313
    240 H104       46.9110  -20.8807   -7.7160 H         1 ARG         0.0313
    241 H105       46.4078  -20.6136   -4.7349 H         1 ARG         0.0301
    242 H106       45.2622  -19.9106   -5.9266 H         1 ARG         0.0301
    243 H107       46.9549  -18.4200   -6.7835 H         1 ARG         0.0689
    244 H108       48.2354  -19.2303   -5.8190 H         1 ARG         0.0689
    245 H109       47.1530  -18.3258   -3.7656 H         1 ARG         0.2642
    246 H110       45.7341  -15.2711   -6.0601 H         1 ARG         0.2615
    247 H111       46.2510  -16.7753   -6.8681 H         1 ARG         0.2615
    248 H112       46.4977  -16.3878   -2.8086 H         1 ARG         0.2615
    249 H113       45.9007  -15.0456   -3.8209 H         1 ARG         0.2615
    250 H114       46.4715  -24.3623   -5.5158 H         1 PHE         0.1885
    251 H115       46.7414  -23.3623   -2.7250 H         1 PHE         0.0823
    252 H116       44.5166  -24.4651   -2.3205 H         1 PHE         0.0474
    253 H117       44.4422  -24.8538   -4.0726 H         1 PHE         0.0474
    254 H118       45.0100  -21.8741   -1.8364 H         1 PHE         0.0557
    255 H119       43.2738  -23.3974   -5.4242 H         1 PHE         0.0557
    256 H120       43.9650  -19.6744   -2.2598 H         1 PHE         0.0599
    257 H121       42.2498  -21.1886   -5.8766 H         1 PHE         0.0599
    258 H122       42.6045  -19.3196   -4.3018 H         1 PHE         0.0559
    259 H123       47.7988  -26.0484   -4.5561 H         1 ASP         0.1884
    260 H124       48.0329  -27.5258   -2.0051 H         1 ASP         0.0819
    261 H125       47.0449  -29.1118   -4.3771 H         1 ASP         0.0478
    262 H126       45.8745  -28.1755   -3.3871 H         1 ASP         0.0478
    263 H127       49.5652  -26.3665   -4.5948 H         1 SER         0.1876
    264 H128       51.8474  -26.1445   -3.8563 H         1 SER         0.0749
    265 H129       53.2339  -28.3769   -4.1099 H         1 SER         0.0599
    266 H130       51.6596  -29.1325   -3.6885 H         1 SER         0.0599
    267 H131       52.8850  -28.5042   -1.8125 H         1 SER         0.2096
@<TRIPOS>BOND
     1    1    2 1  
     2    2    3 1  
     3    2    5 1  
     4    3    4 2  
     5    3    7 am 
     6    5    6 1  
     7    7    8 1  
     8    7   13 1  
     9    8    9 1  
    10    8   11 1  
    11    9   10 2  
    12    9   14 am 
    13   11   12 1  
    14   12   13 1  
    15   14   15 1  
    16   15   16 1  
    17   15   18 1  
    18   16   17 2  
    19   16   23 am 
    20   18   19 1  
    21   19   20 1  
    22   20   21 ar 
    23   20   22 ar 
    24   23   24 1  
    25   24   25 1  
    26   24   27 1  
    27   25   26 2  
    28   25   32 am 
    29   27   28 1  
    30   28   29 1  
    31   29   30 ar 
    32   29   31 ar 
    33   32   33 1  
    34   33   34 1  
    35   33   36 1  
    36   34   35 2  
    37   34   40 am 
    38   36   37 1  
    39   37   38 1  
    40   38   39 1  
    41   40   41 1  
    42   41   42 1  
    43   41   44 1  
    44   42   43 2  
    45   42   51 am 
    46   44   45 1  
    47   45   46 1  
    48   46   47 1  
    49   47   48 ar 
    50   48   49 ar 
    51   48   50 ar 
    52   51   52 1  
    53   52   53 1  
    54   52   55 1  
    55   53   54 2  
    56   53   62 am 
    57   55   56 1  
    58   56   57 1  
    59   57   58 1  
    60   58   59 ar 
    61   59   60 ar 
    62   59   61 ar 
    63   62   63 1  
    64   63   64 1  
    65   63   66 1  
    66   64   65 2  
    67   64   71 am 
    68   66   67 1  
    69   67   68 1  
    70   68   69 2  
    71   68   70 am 
    72   71   72 1  
    73   72   73 1  
    74   72   75 1  
    75   73   74 2  
    76   73   82 am 
    77   75   76 1  
    78   76   77 1  
    79   77   78 1  
    80   78   79 ar 
    81   79   80 ar 
    82   79   81 ar 
    83   82   83 1  
    84   83   84 1  
    85   83   86 1  
    86   84   85 2  
    87   84   90 am 
    88   86   87 1  
    89   87   88 1  
    90   87   89 1  
    91   90   91 1  
    92   91   92 1  
    93   91   94 1  
    94   92   93 2  
    95   92  100 am 
    96   94   95 1  
    97   95   96 1  
    98   95   97 2  
    99   96   98 2  
   100   97   99 1  
   101   98   99 1  
   102  100  101 1  
   103  101  102 1  
   104  101  104 1  
   105  102  103 2  
   106  102  111 am 
   107  104  105 1  
   108  105  106 1  
   109  106  107 1  
   110  107  108 ar 
   111  108  109 ar 
   112  108  110 ar 
   113  111  112 1  
   114  112  113 1  
   115  112  115 1  
   116  113  114 2  
   117  113  122 am 
   118  115  116 1  
   119  116  117 ar 
   120  116  118 ar 
   121  117  119 ar 
   122  118  120 ar 
   123  119  121 ar 
   124  120  121 ar 
   125  122  123 1  
   126  123  124 1  
   127  123  126 1  
   128  124  125 2  
   129  124  130 am 
   130  126  127 1  
   131  127  128 ar 
   132  127  129 ar 
   133  130  131 1  
   134  131  132 1  
   135  131  134 1  
   136  132  133 ar 
   137  132  136 ar 
   138  134  135 1  
   139    1  137 1  
   140    1  138 1  
   141    1  139 1  
   142    2  140 1  
   143    5  141 1  
   144    5  142 1  
   145    6  143 1  
   146    8  144 1  
   147   11  145 1  
   148   11  146 1  
   149   12  147 1  
   150   12  148 1  
   151   13  149 1  
   152   13  150 1  
   153   14  151 1  
   154   15  152 1  
   155   18  153 1  
   156   18  154 1  
   157   19  155 1  
   158   19  156 1  
   159   23  157 1  
   160   24  158 1  
   161   27  159 1  
   162   27  160 1  
   163   28  161 1  
   164   28  162 1  
   165   32  163 1  
   166   33  164 1  
   167   36  165 1  
   168   36  166 1  
   169   37  167 1  
   170   37  168 1  
   171   39  169 1  
   172   39  170 1  
   173   39  171 1  
   174   40  172 1  
   175   41  173 1  
   176   44  174 1  
   177   44  175 1  
   178   45  176 1  
   179   45  177 1  
   180   46  178 1  
   181   46  179 1  
   182   47  180 1  
   183   49  181 1  
   184   49  182 1  
   185   50  183 1  
   186   50  184 1  
   187   51  185 1  
   188   52  186 1  
   189   55  187 1  
   190   55  188 1  
   191   56  189 1  
   192   56  190 1  
   193   57  191 1  
   194   57  192 1  
   195   58  193 1  
   196   60  194 1  
   197   60  195 1  
   198   61  196 1  
   199   61  197 1  
   200   62  198 1  
   201   63  199 1  
   202   66  200 1  
   203   66  201 1  
   204   67  202 1  
   205   67  203 1  
   206   70  204 1  
   207   70  205 1  
   208   71  206 1  
   209   72  207 1  
   210   75  208 1  
   211   75  209 1  
   212   76  210 1  
   213   76  211 1  
   214   77  212 1  
   215   77  213 1  
   216   78  214 1  
   217   80  215 1  
   218   80  216 1  
   219   81  217 1  
   220   81  218 1  
   221   82  219 1  
   222   83  220 1  
   223   86  221 1  
   224   86  222 1  
   225   87  223 1  
   226   88  224 1  
   227   88  225 1  
   228   88  226 1  
   229   89  227 1  
   230   89  228 1  
   231   89  229 1  
   232   90  230 1  
   233   91  231 1  
   234   94  232 1  
   235   94  233 1  
   236   97  234 1  
   237   98  235 1  
   238   99  236 1  
   239  100  237 1  
   240  101  238 1  
   241  104  239 1  
   242  104  240 1  
   243  105  241 1  
   244  105  242 1  
   245  106  243 1  
   246  106  244 1  
   247  107  245 1  
   248  109  246 1  
   249  109  247 1  
   250  110  248 1  
   251  110  249 1  
   252  111  250 1  
   253  112  251 1  
   254  115  252 1  
   255  115  253 1  
   256  117  254 1  
   257  118  255 1  
   258  119  256 1  
   259  120  257 1  
   260  121  258 1  
   261  122  259 1  
   262  123  260 1  
   263  126  261 1  
   264  126  262 1  
   265  130  263 1  
   266  131  264 1  
   267  134  265 1  
   268  134  266 1  
   269  135  267 1  
@<TRIPOS>SUBSTRUCTURE
     1 SER         1

