5g2n_ligand
  -I-interpret- 

 62 66  0  0  0  0  0  0  0  0999 V2000
   54.6710   16.2650   34.1890 C   0  0  0  0  0
   55.8160   15.6520   35.0700 C   0  0  0  0  0
   55.7810   15.9130   36.5310 O   0  0  0  0  0
   54.4440   15.8370   37.0770 C   0  0  0  0  0
   53.6720   16.9930   36.4250 C   0  0  0  0  0
   53.4830   16.8540   34.9340 N   0  3  0  0  0
   52.1570   16.2690   34.5150 C   0  0  0  0  0
   51.5370   17.0090   33.2860 C   0  0  0  0  0
   51.3680   16.0990   32.0420 C   0  0  0  0  0
   50.0060   15.8510   31.9950 O   0  0  0  0  0
   49.3340   14.8280   31.3870 C   0  0  0  0  0
   47.9800   14.5910   31.7110 C   0  0  0  0  0
   47.2390   13.5890   31.1130 C   0  0  0  0  0
   45.9400   13.3980   31.3880 N   0  0  0  0  0
   47.3480   15.3570   32.6130 O   0  0  0  0  0
   46.6780   16.4650   32.0030 C   0  0  0  0  0
   49.9260   14.0130   30.4600 C   0  0  0  0  0
   49.1840   13.0020   29.8540 C   0  0  0  0  0
   47.8560   12.7890   30.1640 C   0  0  0  0  0
   47.1090   11.7860   29.5480 C   0  0  0  0  0
   47.4310   10.9260   28.6360 N   0  0  0  0  0
   46.4820    9.8320   28.6600 C   0  0  0  0  0
   45.2410   10.5060   29.1220 C   0  0  0  0  0
   45.7730   11.6090   29.8570 N   0  0  0  0  0
   45.1900   12.4170   30.7900 C   0  0  0  0  0
   43.8900   12.1410   31.0680 N   0  0  0  0  0
   43.2330   12.6920   32.0840 C   0  0  0  0  0
   43.7490   13.4720   32.8840 O   0  0  0  0  0
   41.8240   12.1690   32.3350 C   0  0  0  0  0
   41.1200   12.5570   33.4830 C   0  0  0  0  0
   39.9100   12.0770   33.7080 N   0  0  0  0  0
   39.3780   11.2150   32.8200 C   0  0  0  0  0
   38.1720   10.7220   33.0320 N   0  0  0  0  0
   40.0440   10.8150   31.7090 N   0  0  0  0  0
   41.2480   11.2570   31.4780 C   0  0  0  0  0
   54.2758   15.4426   33.5927 H   0  0  0  0  0
   55.1224   17.0911   33.6395 H   0  0  0  0  0
   56.7363   16.1150   34.7139 H   0  0  0  0  0
   55.7167   14.5716   34.9652 H   0  0  0  0  0
   54.4497   15.9216   38.1637 H   0  0  0  0  0
   53.9787   14.8744   36.8647 H   0  0  0  0  0
   54.2538   17.8997   36.5905 H   0  0  0  0  0
   52.6786   17.0073   36.8734 H   0  0  0  0  0
   53.4441   17.8240   34.6211 H   0  0  0  0  0
   51.4658   16.3699   35.3517 H   0  0  0  0  0
   52.3226   15.2293   34.2327 H   0  0  0  0  0
   52.2148   17.8176   33.0125 H   0  0  0  0  0
   50.5456   17.3562   33.5768 H   0  0  0  0  0
   51.9538   15.1828   32.1160 H   0  0  0  0  0
   51.7351   16.5706   31.1305 H   0  0  0  0  0
   47.4062   17.0853   31.4804 H   0  0  0  0  0
   45.9383   16.0947   31.2932 H   0  0  0  0  0
   46.1811   17.0559   32.7725 H   0  0  0  0  0
   50.9743   14.1548   30.1971 H   0  0  0  0  0
   49.6652   12.3616   29.1148 H   0  0  0  0  0
   46.6381    8.7839   28.4048 H   0  0  0  0  0
   44.2008   10.2315   28.9466 H   0  0  0  0  0
   43.3944   11.4802   30.4695 H   0  0  0  0  0
   41.5704   13.2542   34.1895 H   0  0  0  0  0
   37.6488   10.9942   33.8642 H   0  0  0  0  0
   37.7633   10.0688   32.3636 H   0  0  0  0  0
   41.7996   10.9049   30.6063 H   0  0  0  0  0
  1  2  1  0  0  0
  1  6  1  0  0  0
  2  3  1  0  0  0
  3  4  1  0  0  0
  4  5  1  0  0  0
  5  6  1  0  0  0
  6  7  1  0  0  0
  7  8  1  0  0  0
  8  9  1  0  0  0
  9 10  1  0  0  0
 10 11  1  0  0  0
 11 12  4  0  0  0
 11 17  4  0  0  0
 12 13  4  0  0  0
 12 15  1  0  0  0
 13 14  4  0  0  0
 13 19  4  0  0  0
 14 25  4  0  0  0
 15 16  1  0  0  0
 17 18  4  0  0  0
 18 19  4  0  0  0
 19 20  4  0  0  0
 20 21  4  0  0  0
 20 24  4  0  0  0
 21 22  4  0  0  0
 22 23  4  0  0  0
 23 24  4  0  0  0
 24 25  4  0  0  0
 25 26  1  0  0  0
 26 27  1  0  0  0
 27 28  2  0  0  0
 27 29  1  0  0  0
 29 30  4  0  0  0
 29 35  4  0  0  0
 30 31  4  0  0  0
 31 32  4  0  0  0
 32 33  1  0  0  0
 32 34  4  0  0  0
 34 35  4  0  0  0
  1 36  1  0  0  0
  1 37  1  0  0  0
  2 38  1  0  0  0
  2 39  1  0  0  0
  4 40  1  0  0  0
  4 41  1  0  0  0
  5 42  1  0  0  0
  5 43  1  0  0  0
  6 44  1  0  0  0
  7 45  1  0  0  0
  7 46  1  0  0  0
  8 47  1  0  0  0
  8 48  1  0  0  0
  9 49  1  0  0  0
  9 50  1  0  0  0
 16 51  1  0  0  0
 16 52  1  0  0  0
 16 53  1  0  0  0
 17 54  1  0  0  0
 18 55  1  0  0  0
 22 56  1  0  0  0
 23 57  1  0  0  0
 26 58  1  0  0  0
 30 59  1  0  0  0
 33 60  1  0  0  0
 33 61  1  0  0  0
 35 62  1  0  0  0
M  END
$$$$
