5y6e_ligand
  -I-interpret- 

 33 33  0  0  0  0  0  0  0  0999 V2000
  -10.0320  -17.3550   -2.0440 C   0  0  0  0  0
   -8.1850  -16.5150    2.0920 O   0  0  0  0  0
   -8.9010  -18.3670   -1.8390 C   0  0  0  0  0
   -7.7290  -17.6140   -1.2640 C   0  0  0  0  0
   -6.2970  -17.1180    0.7120 C   0  0  0  0  0
   -5.3750  -17.9320    1.5970 C   0  0  0  0  0
   -4.0220  -17.6280    1.5960 C   0  0  0  0  0
   -3.1710  -18.3170    2.4320 C   0  0  0  0  0
   -3.6620  -19.3220    3.2580 C   0  0  0  0  0
   -5.0200  -19.6160    3.2580 C   0  0  0  0  0
   -5.8760  -18.9270    2.4180 C   0  0  0  0  0
   -2.7680  -20.0270    4.0780 O   0  0  0  0  0
   -7.3510  -17.8720    0.0860 N   0  0  0  0  0
   -7.1520  -16.8290   -1.9260 O   0  0  0  0  0
  -10.4930  -16.6130   -0.4380 S   0  0  0  0  0
   -8.4710  -18.9720   -3.1910 C   0  0  0  0  0
   -7.0550  -16.1730    1.6590 C   0  0  0  0  0
   -6.5730  -15.0710    2.0090 O   0  0  0  0  0
  -10.8979  -17.8620   -2.4697 H   0  0  0  0  0
   -9.6962  -16.5701   -2.7217 H   0  0  0  0  0
   -8.4150  -17.3768    1.7371 H   0  0  0  0  0
   -9.2334  -19.1702   -1.1814 H   0  0  0  0  0
   -5.6741  -16.6671   -0.0605 H   0  0  0  0  0
   -3.6347  -16.8496    0.9386 H   0  0  0  0  0
   -2.1087  -18.0734    2.4460 H   0  0  0  0  0
   -5.4105  -20.3892    3.9196 H   0  0  0  0  0
   -6.9393  -19.1664    2.4028 H   0  0  0  0  0
   -3.2508  -20.6832    4.5858 H   0  0  0  0  0
   -7.8330  -18.5993    0.6144 H   0  0  0  0  0
  -11.4752  -15.7354   -0.6225 H   0  0  0  0  0
   -8.1721  -18.1712   -3.8673 H   0  0  0  0  0
   -7.6314  -19.6491   -3.0340 H   0  0  0  0  0
   -9.3068  -19.5218   -3.6238 H   0  0  0  0  0
  3  1  1  0  0  0
  1 15  1  0  0  0
 17  2  1  0  0  0
  4  3  1  0  0  0
  3 16  1  0  0  0
 13  4  1  0  0  0
  4 14  2  0  0  0
  5  6  1  0  0  0
  5 13  1  0  0  0
  5 17  1  0  0  0
  6  7  4  0  0  0
  6 11  4  0  0  0
  7  8  4  0  0  0
  8  9  4  0  0  0
  9 10  4  0  0  0
  9 12  1  0  0  0
 10 11  4  0  0  0
 17 18  2  0  0  0
  1 19  1  0  0  0
  1 20  1  0  0  0
  2 21  1  0  0  0
  3 22  1  0  0  0
  5 23  1  0  0  0
  7 24  1  0  0  0
  8 25  1  0  0  0
 10 26  1  0  0  0
 11 27  1  0  0  0
 12 28  1  0  0  0
 13 29  1  0  0  0
 15 30  1  0  0  0
 16 31  1  0  0  0
 16 32  1  0  0  0
 16 33  1  0  0  0
M  END
$$$$
