2itt_ligand
  -I-interpret- 

 66 70  0  0  0  0  0  0  0  0999 V2000
  -50.7210   -0.7810  -12.2970 C   0  0  0  0  0
  -49.5810   -1.4720  -11.4860 C   0  0  0  0  0
  -49.4390   -2.9180  -11.8180 N   0  3  0  0  0
  -50.5420   -3.7350  -11.2330 C   0  0  0  0  0
  -50.0450   -4.4560   -9.9620 C   0  0  0  0  0
  -49.3030   -3.1600  -13.2780 C   0  0  0  0  0
  -50.5030   -2.5640  -14.0510 C   0  0  0  0  0
  -50.7030   -1.1070  -13.7630 N   0  3  0  0  0
  -49.7860   -0.2560  -14.5780 C   0  0  0  0  0
  -50.4280   -0.0680  -15.9830 C   0  0  0  0  0
  -51.5020    0.8200  -16.1410 C   0  0  0  0  0
  -52.0860    0.9790  -17.4070 C   0  0  0  0  0
  -49.9620   -0.7930  -17.1020 C   0  0  0  0  0
  -50.5530   -0.6360  -18.3700 C   0  0  0  0  0
  -51.6170    0.2770  -18.5500 C   0  0  0  0  0
  -52.2660    0.4580  -19.7990 C   0  0  0  0  0
  -53.4050    1.1720  -19.9560 N   0  0  0  0  0
  -51.9340   -0.0420  -21.0060 C   0  0  0  0  0
  -52.8520    0.3590  -21.9170 C   0  0  0  0  0
  -53.7830    1.1400  -21.2240 C   0  0  0  0  0
  -54.8340    1.6600  -21.8510 N   0  0  0  0  0
  -55.0140    1.4680  -23.1650 C   0  0  0  0  0
  -54.1620    0.7450  -23.8950 N   0  0  0  0  0
  -53.0560    0.1510  -23.3160 C   0  0  0  0  0
  -52.1840   -0.5970  -24.0670 N   0  0  0  0  0
  -52.5000   -1.0620  -25.4430 C   0  0  0  0  0
  -51.5830   -2.2000  -25.9180 C   0  0  0  0  0
  -52.4430    0.1080  -26.4510 C   0  0  0  0  0
  -51.9650    1.3760  -26.0540 C   0  0  0  0  0
  -51.9230    2.4620  -26.9480 C   0  0  0  0  0
  -52.3620    2.2610  -28.2710 C   0  0  0  0  0
  -52.8350    0.9930  -28.6750 C   0  0  0  0  0
  -52.8820   -0.0840  -27.7730 C   0  0  0  0  0
  -50.5822    0.2959  -12.2011 H   0  0  0  0  0
  -51.6692   -1.1386  -11.8955 H   0  0  0  0  0
  -49.8266   -1.3929  -10.4270 H   0  0  0  0  0
  -48.6429   -0.9762  -11.7357 H   0  0  0  0  0
  -48.5666   -3.2231  -11.3864 H   0  0  0  0  0
  -50.8662   -4.4764  -11.9632 H   0  0  0  0  0
  -51.3745   -3.0812  -10.9730 H   0  0  0  0  0
  -49.2107   -5.1088  -10.2189 H   0  0  0  0  0
  -49.7178   -3.7167   -9.2309 H   0  0  0  0  0
  -50.8567   -5.0499   -9.5418 H   0  0  0  0  0
  -49.2724   -4.2353  -13.4535 H   0  0  0  0  0
  -48.3882   -2.6821  -13.6286 H   0  0  0  0  0
  -51.4020   -3.0955  -13.7390 H   0  0  0  0  0
  -50.3041   -2.6723  -15.1172 H   0  0  0  0  0
  -51.6467   -0.8694  -14.0684 H   0  0  0  0  0
  -48.8106   -0.7338  -14.6701 H   0  0  0  0  0
  -49.6422    0.7114  -14.0967 H   0  0  0  0  0
  -51.8801    1.3822  -15.2871 H   0  0  0  0  0
  -52.9271    1.6635  -17.5173 H   0  0  0  0  0
  -49.1298   -1.4866  -16.9816 H   0  0  0  0  0
  -50.1891   -1.2201  -19.2153 H   0  0  0  0  0
  -51.0665   -0.6681  -21.2149 H   0  0  0  0  0
  -55.8809    1.9150  -23.6515 H   0  0  0  0  0
  -51.2804   -0.8444  -23.6636 H   0  0  0  0  0
  -53.5150   -1.4571  -25.4002 H   0  0  0  0  0
  -50.5483   -1.8572  -25.9133 H   0  0  0  0  0
  -51.6875   -3.0530  -25.2475 H   0  0  0  0  0
  -51.8650   -2.4942  -26.9290 H   0  0  0  0  0
  -51.6200    1.5171  -25.0297 H   0  0  0  0  0
  -51.5589    3.4369  -26.6238 H   0  0  0  0  0
  -52.3367    3.0850  -28.9840 H   0  0  0  0  0
  -53.1688    0.8473  -29.7023 H   0  0  0  0  0
  -53.2544   -1.0566  -28.0945 H   0  0  0  0  0
  1  2  1  0  0  0
  1  8  1  0  0  0
  2  3  1  0  0  0
  3  4  1  0  0  0
  3  6  1  0  0  0
  4  5  1  0  0  0
  6  7  1  0  0  0
  7  8  1  0  0  0
  8  9  1  0  0  0
  9 10  1  0  0  0
 10 11  4  0  0  0
 10 13  4  0  0  0
 11 12  4  0  0  0
 12 15  4  0  0  0
 13 14  4  0  0  0
 14 15  4  0  0  0
 15 16  1  0  0  0
 16 17  4  0  0  0
 16 18  4  0  0  0
 17 20  4  0  0  0
 18 19  4  0  0  0
 19 20  4  0  0  0
 19 24  4  0  0  0
 20 21  4  0  0  0
 21 22  4  0  0  0
 22 23  4  0  0  0
 23 24  4  0  0  0
 24 25  1  0  0  0
 25 26  1  0  0  0
 26 27  1  0  0  0
 26 28  1  0  0  0
 28 29  4  0  0  0
 28 33  4  0  0  0
 29 30  4  0  0  0
 30 31  4  0  0  0
 31 32  4  0  0  0
 32 33  4  0  0  0
  1 34  1  0  0  0
  1 35  1  0  0  0
  2 36  1  0  0  0
  2 37  1  0  0  0
  3 38  1  0  0  0
  4 39  1  0  0  0
  4 40  1  0  0  0
  5 41  1  0  0  0
  5 42  1  0  0  0
  5 43  1  0  0  0
  6 44  1  0  0  0
  6 45  1  0  0  0
  7 46  1  0  0  0
  7 47  1  0  0  0
  8 48  1  0  0  0
  9 49  1  0  0  0
  9 50  1  0  0  0
 11 51  1  0  0  0
 12 52  1  0  0  0
 13 53  1  0  0  0
 14 54  1  0  0  0
 18 55  1  0  0  0
 22 56  1  0  0  0
 25 57  1  0  0  0
 26 58  1  0  0  0
 27 59  1  0  0  0
 27 60  1  0  0  0
 27 61  1  0  0  0
 29 62  1  0  0  0
 30 63  1  0  0  0
 31 64  1  0  0  0
 32 65  1  0  0  0
 33 66  1  0  0  0
M  END
$$$$
