6gcx_ligand
  -I-interpret- 

 70 73  0  0  0  0  0  0  0  0999 V2000
   -3.1310    5.6780   87.2830 C   0  0  0  0  0
   -4.1280    6.3970   86.6330 C   0  0  0  0  0
   -5.4340    5.9510   86.7200 C   0  0  0  0  0
   -5.7060    4.7950   87.4650 N   0  0  0  0  0
   -3.4420    4.5630   87.9860 N   0  0  0  0  0
   -4.7200    4.1290   88.0830 C   0  0  0  0  0
   -4.3980    2.2740   89.5640 C   0  0  0  0  0
   -5.1320    1.5410   90.4940 C   0  0  0  0  0
   -4.5060    0.6970   91.3920 C   0  0  0  0  0
   -3.1240    0.5720   91.3660 C   0  0  0  0  0
   -2.3680    1.2850   90.4340 C   0  0  0  0  0
   -3.0090    2.1360   89.5270 C   0  0  0  0  0
   -2.5540   -0.3040   92.2750 C   0  0  0  0  0
   -3.1460   -2.4730   93.1000 C   0  0  0  0  0
   -2.7170   -2.9640   94.3370 C   0  0  0  0  0
   -2.5190   -4.2200   93.7640 C   0  0  0  0  0
   -2.9480   -3.7330   92.5360 C   0  0  0  0  0
   -2.6780   -1.0120   95.6240 C   0  0  0  0  0
   -2.9820   -0.5040   97.0310 C   0  0  0  0  0
   -4.8510    0.5920   98.1750 C   0  0  0  0  0
   -6.3300    0.9790   98.1050 C   0  0  0  0  0
   -7.0440    0.0840   97.0900 C   0  0  0  0  0
   -0.8330    5.5560   87.6610 C   0  0  0  0  0
    0.1990    5.1720   86.7920 C   0  0  0  0  0
    1.3150    4.5280   87.3280 C   0  0  0  0  0
    1.4110    4.2810   88.6950 C   0  0  0  0  0
    0.3860    4.6760   89.5480 C   0  0  0  0  0
   -0.7320    5.3170   89.0310 C   0  0  0  0  0
    0.1640    5.3860   85.4040 C   0  0  0  0  0
    1.0930    4.8400   83.2500 C   0  0  0  0  0
   -5.1320    3.0390   88.7460 N   0  0  0  0  0
   -3.5920   -1.3000   92.6350 N   0  0  0  0  0
   -2.5600   -2.4770   95.5750 N   0  0  0  0  0
   -4.3820   -0.0600   97.1040 N   0  0  0  0  0
   -1.8930    6.1790   87.1290 N   0  0  0  0  0
    1.0730    4.6670   84.7090 N   0  0  0  0  0
   -3.0900   -4.2250   91.4160 O   0  0  0  0  0
   -2.1240   -5.3130   94.1710 O   0  0  0  0  0
   -4.1650    0.8700   99.1580 O   0  0  0  0  0
   -0.6320    6.1680   84.8730 O   0  0  0  0  0
   -3.7490    7.8240   85.7190 Cl  0  0  0  0  0
   -6.2381    6.4890   86.2180 H   0  0  0  0  0
   -6.2178    1.6346   90.5138 H   0  0  0  0  0
   -5.0941    0.1331   92.1161 H   0  0  0  0  0
   -1.2833    1.1793   90.4129 H   0  0  0  0  0
   -2.4249    2.6905   88.7925 H   0  0  0  0  0
   -2.2121    0.2311   93.1609 H   0  0  0  0  0
   -1.6844   -0.7964   91.8398 H   0  0  0  0  0
   -1.7265   -0.5846   95.3076 H   0  0  0  0  0
   -3.4999   -0.7162   94.9720 H   0  0  0  0  0
   -2.3241    0.3334   97.2635 H   0  0  0  0  0
   -2.8193   -1.3077   97.7491 H   0  0  0  0  0
   -6.4188    2.0207   97.7966 H   0  0  0  0  0
   -6.7860    0.8506   99.0867 H   0  0  0  0  0
   -6.5871    0.2133   96.1088 H   0  0  0  0  0
   -6.9545   -0.9573   97.3995 H   0  0  0  0  0
   -8.0972    0.3607   97.0411 H   0  0  0  0  0
    2.1230    4.2139   86.6672 H   0  0  0  0  0
    2.2903    3.7776   89.0969 H   0  0  0  0  0
    0.4600    4.4831   90.6182 H   0  0  0  0  0
   -1.5333    5.6344   89.6983 H   0  0  0  0  0
    0.1232    4.5596   82.8388 H   0  0  0  0  0
    1.3022    5.8829   83.0119 H   0  0  0  0  0
    1.8683    4.2054   82.8208 H   0  0  0  0  0
   -6.1053    2.7640   88.6136 H   0  0  0  0  0
   -4.5876   -1.1026   92.5341 H   0  0  0  0  0
   -2.3786   -3.0582   96.3934 H   0  0  0  0  0
   -5.0086   -0.2528   96.3226 H   0  0  0  0  0
   -1.7594    7.0420   86.6019 H   0  0  0  0  0
    1.7181    4.0309   85.1776 H   0  0  0  0  0
  1  2  4  0  0  0
  1  5  4  0  0  0
 35  1  1  0  0  0
  2  3  4  0  0  0
  2 41  1  0  0  0
  3  4  4  0  0  0
  6  4  4  0  0  0
  5  6  4  0  0  0
  6 31  1  0  0  0
  7  8  4  0  0  0
  7 12  4  0  0  0
 31  7  1  0  0  0
  8  9  4  0  0  0
  9 10  4  0  0  0
 11 10  4  0  0  0
 10 13  1  0  0  0
 12 11  4  0  0  0
 13 32  1  0  0  0
 14 15  2  0  0  0
 14 17  1  0  0  0
 32 14  1  0  0  0
 15 16  1  0  0  0
 15 33  1  0  0  0
 17 16  1  0  0  0
 16 38  2  0  0  0
 17 37  2  0  0  0
 18 19  1  0  0  0
 33 18  1  0  0  0
 19 34  1  0  0  0
 20 21  1  0  0  0
 34 20  1  0  0  0
 20 39  2  0  0  0
 21 22  1  0  0  0
 23 24  4  0  0  0
 23 28  4  0  0  0
 23 35  1  0  0  0
 24 25  4  0  0  0
 24 29  1  0  0  0
 25 26  4  0  0  0
 26 27  4  0  0  0
 27 28  4  0  0  0
 29 36  1  0  0  0
 29 40  2  0  0  0
 36 30  1  0  0  0
  3 42  1  0  0  0
  8 43  1  0  0  0
  9 44  1  0  0  0
 11 45  1  0  0  0
 12 46  1  0  0  0
 13 47  1  0  0  0
 13 48  1  0  0  0
 18 49  1  0  0  0
 18 50  1  0  0  0
 19 51  1  0  0  0
 19 52  1  0  0  0
 21 53  1  0  0  0
 21 54  1  0  0  0
 22 55  1  0  0  0
 22 56  1  0  0  0
 22 57  1  0  0  0
 25 58  1  0  0  0
 26 59  1  0  0  0
 27 60  1  0  0  0
 28 61  1  0  0  0
 30 62  1  0  0  0
 30 63  1  0  0  0
 30 64  1  0  0  0
 31 65  1  0  0  0
 32 66  1  0  0  0
 33 67  1  0  0  0
 34 68  1  0  0  0
 35 69  1  0  0  0
 36 70  1  0  0  0
M  END
$$$$
