6gmq_ligand
  -I-interpret- 

 24 25  0  0  0  0  0  0  0  0999 V2000
   36.4950   56.9630    6.4230 C   0  0  0  0  0
   37.2730   58.4090    7.8680 C   0  0  0  0  0
   37.3070   53.1000   11.4750 C   0  0  0  0  0
   37.1360   54.1940   10.5050 C   0  0  0  0  0
   36.2790   55.2690   10.7500 C   0  0  0  0  0
   36.1860   56.2790    9.7870 C   0  0  0  0  0
   36.9530   56.1860    8.6180 C   0  0  0  0  0
   37.8160   55.1150    8.3910 C   0  0  0  0  0
   37.9050   54.1170    9.3430 C   0  0  0  0  0
   36.6060   58.1900    5.7900 C   0  0  0  0  0
   37.0970   59.1110    6.6990 C   0  0  0  0  0
   36.8920   57.1370    7.6830 N   0  0  0  0  0
   38.6320   52.7220   11.5030 O   0  0  0  0  0
   36.1485   56.0316    5.9752 H   0  0  0  0  0
   37.6613   58.8218    8.7990 H   0  0  0  0  0
   36.6905   52.2506   11.1808 H   0  0  0  0  0
   37.0022   53.4383   12.4653 H   0  0  0  0  0
   35.6964   55.3197   11.6698 H   0  0  0  0  0
   35.5234   57.1301    9.9443 H   0  0  0  0  0
   38.4103   55.0655    7.4786 H   0  0  0  0  0
   38.5746   53.2713    9.1865 H   0  0  0  0  0
   36.3497   58.3957    4.7507 H   0  0  0  0  0
   37.3007   60.1676    6.5252 H   0  0  0  0  0
   38.7467   52.0085   12.1349 H   0  0  0  0  0
  1 10  4  0  0  0
 12  1  4  0  0  0
  2 11  4  0  0  0
 12  2  4  0  0  0
  4  3  1  0  0  0
  3 13  1  0  0  0
  5  4  4  0  0  0
  4  9  4  0  0  0
  6  5  4  0  0  0
  7  6  4  0  0  0
  7  8  4  0  0  0
  7 12  1  0  0  0
  8  9  4  0  0  0
 10 11  4  0  0  0
  1 14  1  0  0  0
  2 15  1  0  0  0
  3 16  1  0  0  0
  3 17  1  0  0  0
  5 18  1  0  0  0
  6 19  1  0  0  0
  8 20  1  0  0  0
  9 21  1  0  0  0
 10 22  1  0  0  0
 11 23  1  0  0  0
 13 24  1  0  0  0
M  END
$$$$
