5a5z_ligand
  -I-interpret- 

 19 18  0  0  0  0  0  0  0  0999 V2000
   12.2740   57.2860   -5.5890 C   0  0  0  0  0
   13.5340   54.5350   -7.7450 N   0  0  0  0  0
   12.8730   51.0880   -7.6610 O   0  0  0  0  0
   14.5020   56.1100   -4.6780 S   0  0  0  0  0
   13.0710   56.0080   -5.7180 C   0  0  0  0  0
   14.5190   52.1800   -8.5830 O   0  0  0  0  0
   13.4940   55.8280   -7.1590 C   0  0  0  0  0
   13.8000   56.7990   -7.8210 O   0  0  0  0  0
   13.1780   53.3800   -6.9940 C   0  0  0  0  0
   13.5420   52.1460   -7.7900 C   0  0  0  0  0
   12.8908   58.1300   -5.8977 H   0  0  0  0  0
   11.3909   57.2277   -6.2253 H   0  0  0  0  0
   11.9677   57.4185   -4.5514 H   0  0  0  0  0
   13.8220   54.4328   -8.7181 H   0  0  0  0  0
   14.1192   56.2681   -3.4141 H   0  0  0  0  0
   12.4627   55.1564   -5.4134 H   0  0  0  0  0
   14.9167   53.0535   -8.5618 H   0  0  0  0  0
   12.1065   53.3865   -6.7940 H   0  0  0  0  0
   13.7145   53.3778   -6.0452 H   0  0  0  0  0
  5  1  1  0  0  0
  2  7  1  0  0  0
  9  2  1  0  0  0
 10  3  2  0  0  0
  5  4  1  0  0  0
  7  5  1  0  0  0
 10  6  1  0  0  0
  7  8  2  0  0  0
  9 10  1  0  0  0
  1 11  1  0  0  0
  1 12  1  0  0  0
  1 13  1  0  0  0
  2 14  1  0  0  0
  4 15  1  0  0  0
  5 16  1  0  0  0
  6 17  1  0  0  0
  9 18  1  0  0  0
  9 19  1  0  0  0
M  END
$$$$
