4app_ligand
  -I-interpret- 

 78 83  0  0  0  0  0  0  0  0999 V2000
   43.2970   13.0820   16.4660 C   0  0  0  0  0
   42.4090   12.6690   15.4230 C   0  0  0  0  0
   42.6410   11.4420   14.7340 C   0  0  0  0  0
   43.7540   10.6280   15.1120 C   0  0  0  0  0
   44.6330   11.0130   16.1680 C   0  0  0  0  0
   44.4010   12.2400   16.8500 C   0  0  0  0  0
   43.6170   16.7380   19.8680 C   0  0  0  0  0
   43.5660   16.1780   18.5600 C   0  0  0  0  0
   43.1560   14.8210   18.3800 C   0  0  0  0  0
   42.8140   14.0180   19.5230 C   0  0  0  0  0
   42.8880   14.5680   20.8330 C   0  0  0  0  0
   43.2960   15.9270   21.0040 C   0  0  0  0  0
   47.8650   24.8880   15.2130 C   0  0  0  0  0
   47.3020   25.9770   14.4670 C   0  0  0  0  0
   48.1540   26.8490   13.7240 C   0  0  0  0  0
   49.5650   26.6190   13.7190 C   0  0  0  0  0
   50.1350   25.5210   14.4440 C   0  0  0  0  0
   49.2770   24.6490   15.1860 C   0  0  0  0  0
   44.8420   23.1800   16.8690 N   0  0  0  0  0
   45.5400   23.8910   15.7840 C   0  0  0  0  0
   45.1970   23.1900   14.4210 C   0  0  0  0  0
   43.7370   23.2920   14.2110 N   0  3  0  0  0
   43.0240   22.5940   15.3160 C   0  0  0  0  0
   43.3730   23.2540   16.6460 C   0  0  0  0  0
   44.6610   22.1890   21.4250 C   0  0  0  0  0
   44.6420   21.4570   19.2190 C   0  0  0  0  0
   44.9480   22.9280   19.2950 N   0  0  0  0  0
   45.0810   23.4450   20.6920 C   0  0  0  0  0
   44.4170   21.9670   22.7200 N   0  0  0  0  0
   44.0530   20.6190   22.8170 N   0  0  0  0  0
   44.0800   20.0820   21.5780 C   0  0  0  0  0
   46.5210   23.8950   21.0310 C   0  0  0  0  0
   44.0830   24.5670   21.0540 C   0  0  0  0  0
   45.0730   23.7350   18.2230 C   0  0  0  0  0
   45.3930   24.9220   18.3540 O   0  0  0  0  0
   43.3480   22.8160   12.8740 C   0  0  0  0  0
   47.0550   24.0340   16.1100 C   0  0  0  0  0
   43.7260   18.6760   21.2410 N   0  0  0  0  0
   44.0210   18.1340   20.0520 C   0  0  0  0  0
   44.6070   18.7770   19.1880 O   0  0  0  0  0
   43.0400   14.4090   16.9850 O   0  0  0  0  0
   44.4610   21.0830   20.6400 C   0  0  0  0  0
   41.5555   13.2918   15.1551 H   0  0  0  0  0
   41.9773   11.1283   13.9283 H   0  0  0  0  0
   43.9350    9.6929   14.5819 H   0  0  0  0  0
   45.4713   10.3754   16.4486 H   0  0  0  0  0
   45.0594   12.5432   17.6640 H   0  0  0  0  0
   43.8396   16.7841   17.6963 H   0  0  0  0  0
   42.4970   12.9843   19.3852 H   0  0  0  0  0
   42.6354   13.9574   21.6999 H   0  0  0  0  0
   43.3634   16.3494   22.0065 H   0  0  0  0  0
   46.2240   26.1384   14.4676 H   0  0  0  0  0
   47.7318   27.6839   13.1647 H   0  0  0  0  0
   50.2165   27.2875   13.1563 H   0  0  0  0  0
   51.2118   25.3523   14.4300 H   0  0  0  0  0
   49.6976   23.8035   15.7303 H   0  0  0  0  0
   45.1942   24.9202   15.6878 H   0  0  0  0  0
   45.5019   22.1439   14.4478 H   0  0  0  0  0
   45.7304   23.6744   13.6031 H   0  0  0  0  0
   43.4589   24.2730   14.2387 H   0  0  0  0  0
   43.3281   21.5475   15.3397 H   0  0  0  0  0
   41.9485   22.6578   15.1508 H   0  0  0  0  0
   43.0619   24.2984   16.6249 H   0  0  0  0  0
   42.8572   22.7355   17.4542 H   0  0  0  0  0
   45.4297   20.8856   18.7280 H   0  0  0  0  0
   43.7658   21.2379   18.6088 H   0  0  0  0  0
   46.5953   24.0961   22.0997 H   0  0  0  0  0
   47.2207   23.1047   20.7592 H   0  0  0  0  0
   46.7584   24.8003   20.4722 H   0  0  0  0  0
   43.0792   24.2710   20.7491 H   0  0  0  0  0
   44.1023   24.7352   22.1308 H   0  0  0  0  0
   44.3657   25.4838   20.5366 H   0  0  0  0  0
   43.8484   23.4181   12.1156 H   0  0  0  0  0
   43.6404   21.7719   12.7621 H   0  0  0  0  0
   42.2681   22.9067   12.7574 H   0  0  0  0  0
   47.1022   24.5080   17.0904 H   0  0  0  0  0
   47.4723   23.0312   16.0186 H   0  0  0  0  0
   43.2437   18.1075   21.9372 H   0  0  0  0  0
  1  2  4  0  0  0
  1  6  4  0  0  0
 41  1  1  0  0  0
  2  3  4  0  0  0
  3  4  4  0  0  0
  5  4  4  0  0  0
  6  5  4  0  0  0
  7  8  4  0  0  0
  7 12  4  0  0  0
 39  7  1  0  0  0
  8  9  4  0  0  0
  9 10  4  0  0  0
  9 41  1  0  0  0
 11 10  4  0  0  0
 12 11  4  0  0  0
 13 14  4  0  0  0
 13 18  4  0  0  0
 37 13  1  0  0  0
 14 15  4  0  0  0
 15 16  4  0  0  0
 17 16  4  0  0  0
 18 17  4  0  0  0
 19 20  1  0  0  0
 19 24  1  0  0  0
 34 19  1  0  0  0
 20 21  1  0  0  0
 20 37  1  0  0  0
 21 22  1  0  0  0
 23 22  1  0  0  0
 22 36  1  0  0  0
 24 23  1  0  0  0
 25 28  1  0  0  0
 25 29  4  0  0  0
 42 25  4  0  0  0
 26 27  1  0  0  0
 42 26  1  0  0  0
 27 28  1  0  0  0
 27 34  1  0  0  0
 28 32  1  0  0  0
 28 33  1  0  0  0
 30 29  4  0  0  0
 31 30  4  0  0  0
 38 31  1  0  0  0
 31 42  4  0  0  0
 34 35  2  0  0  0
 38 39  1  0  0  0
 39 40  2  0  0  0
  2 43  1  0  0  0
  3 44  1  0  0  0
  4 45  1  0  0  0
  5 46  1  0  0  0
  6 47  1  0  0  0
  8 48  1  0  0  0
 10 49  1  0  0  0
 11 50  1  0  0  0
 12 51  1  0  0  0
 14 52  1  0  0  0
 15 53  1  0  0  0
 16 54  1  0  0  0
 17 55  1  0  0  0
 18 56  1  0  0  0
 20 57  1  0  0  0
 21 58  1  0  0  0
 21 59  1  0  0  0
 22 60  1  0  0  0
 23 61  1  0  0  0
 23 62  1  0  0  0
 24 63  1  0  0  0
 24 64  1  0  0  0
 26 65  1  0  0  0
 26 66  1  0  0  0
 32 67  1  0  0  0
 32 68  1  0  0  0
 32 69  1  0  0  0
 33 70  1  0  0  0
 33 71  1  0  0  0
 33 72  1  0  0  0
 36 73  1  0  0  0
 36 74  1  0  0  0
 36 75  1  0  0  0
 37 76  1  0  0  0
 37 77  1  0  0  0
 38 78  1  0  0  0
M  END
$$$$
