6dz2_ligand
  -I-interpret- 

 64 68  0  0  0  0  0  0  0  0999 V2000
   85.8310  162.4770  179.2490 O   0  0  0  0  0
   85.1770  161.5950  178.3420 C   0  0  0  0  0
   85.0590  162.3850  177.0580 C   0  0  0  0  0
   86.1980  161.9210  176.2970 N   0  3  0  0  0
   86.1730  162.3020  174.8790 C   0  0  0  0  0
   85.0580  161.8800  173.9810 C   0  0  0  0  0
   83.7760  162.4370  173.8090 C   0  0  0  0  0
   83.1910  163.4800  174.4510 N   0  0  0  0  0
   81.9250  163.8460  174.1310 C   0  0  0  0  0
   81.2690  163.1790  173.1670 N   0  0  0  0  0
   81.8360  162.1520  172.4850 C   0  0  0  0  0
   81.1520  161.4890  171.5170 N   0  0  0  0  0
   83.1200  161.7510  172.8180 C   0  0  0  0  0
   83.9530  160.7860  172.3750 N   0  0  0  0  0
   85.1390  160.8600  173.0530 C   0  0  0  0  0
   86.2950  160.4760  176.5160 C   0  0  0  0  0
   85.9890  160.3390  178.0020 C   0  0  0  0  0
   85.2230  159.0580  178.3040 C   0  0  0  0  0
   86.0680  157.5850  177.7960 S   0  0  0  0  0
   87.5520  157.4040  178.7390 C   0  0  0  0  0
   88.7180  157.9660  177.9370 C   0  0  0  0  0
   90.0790  157.6700  178.5580 C   0  0  0  0  0
   91.1080  158.6410  178.0190 C   0  0  0  0  0
   90.8100  159.8640  177.5120 N   0  0  0  0  0
   91.9890  160.4910  177.0900 N   0  0  0  0  0
   92.9980  159.5770  177.3790 N   0  0  0  0  0
   92.4980  158.4630  177.9420 C   0  0  0  0  0
   94.3290  160.0560  177.0110 C   0  0  0  0  0
   94.5170  159.9690  175.5090 C   0  0  0  0  0
   93.7010  160.6930  174.6270 C   0  0  0  0  0
   93.8750  160.5930  173.2550 C   0  0  0  0  0
   94.8700  159.7840  172.7320 C   0  0  0  0  0
   95.6850  159.0780  173.6020 C   0  0  0  0  0
   95.5160  159.1550  174.9890 C   0  0  0  0  0
   85.2688  163.2370  179.4160 H   0  0  0  0  0
   84.2398  161.2627  178.7886 H   0  0  0  0  0
   85.0642  163.4631  177.2187 H   0  0  0  0  0
   84.1103  162.2261  176.5453 H   0  0  0  0  0
   87.0430  162.3860  176.6288 H   0  0  0  0  0
   87.0484  161.8061  174.4596 H   0  0  0  0  0
   86.0933  163.3888  174.9017 H   0  0  0  0  0
   81.4440  164.6741  174.6515 H   0  0  0  0  0
   80.1950  161.7606  171.2917 H   0  0  0  0  0
   81.5953  160.7195  171.0153 H   0  0  0  0  0
   86.0053  160.2194  172.8880 H   0  0  0  0  0
   87.2693  160.0700  176.2441 H   0  0  0  0  0
   85.6118  159.9047  175.8876 H   0  0  0  0  0
   86.8933  160.2655  178.6061 H   0  0  0  0  0
   84.2843  159.1019  177.7517 H   0  0  0  0  0
   85.0937  159.0030  179.3849 H   0  0  0  0  0
   87.7263  156.3495  178.9528 H   0  0  0  0  0
   87.4582  157.9446  179.6808 H   0  0  0  0  0
   88.6012  159.0492  177.9026 H   0  0  0  0  0
   88.6967  157.4967  176.9534 H   0  0  0  0  0
   90.3768  156.6519  178.3072 H   0  0  0  0  0
   90.0132  157.7775  179.6407 H   0  0  0  0  0
   93.0623  157.5915  178.2739 H   0  0  0  0  0
   95.0803  159.4375  177.5020 H   0  0  0  0  0
   94.4352  161.0943  177.3253 H   0  0  0  0  0
   92.9209  161.3419  175.0250 H   0  0  0  0  0
   93.2248  161.1545  172.5841 H   0  0  0  0  0
   95.0096  159.7040  171.6539 H   0  0  0  0  0
   96.4765  158.4477  173.1965 H   0  0  0  0  0
   96.1615  158.5822  175.6548 H   0  0  0  0  0
  1  2  1  0  0  0
  2  3  1  0  0  0
  2 17  1  0  0  0
  3  4  1  0  0  0
  4  5  1  0  0  0
  4 16  1  0  0  0
  5  6  1  0  0  0
  6  7  4  0  0  0
  6 15  4  0  0  0
  7  8  4  0  0  0
  7 13  4  0  0  0
  8  9  4  0  0  0
  9 10  4  0  0  0
 10 11  4  0  0  0
 11 12  1  0  0  0
 11 13  4  0  0  0
 13 14  4  0  0  0
 14 15  4  0  0  0
 16 17  1  0  0  0
 17 18  1  0  0  0
 18 19  1  0  0  0
 19 20  1  0  0  0
 20 21  1  0  0  0
 21 22  1  0  0  0
 22 23  1  0  0  0
 23 24  4  0  0  0
 23 27  4  0  0  0
 24 25  4  0  0  0
 25 26  4  0  0  0
 26 27  4  0  0  0
 26 28  1  0  0  0
 28 29  1  0  0  0
 29 30  4  0  0  0
 29 34  4  0  0  0
 30 31  4  0  0  0
 31 32  4  0  0  0
 32 33  4  0  0  0
 33 34  4  0  0  0
  1 35  1  0  0  0
  2 36  1  0  0  0
  3 37  1  0  0  0
  3 38  1  0  0  0
  4 39  1  0  0  0
  5 40  1  0  0  0
  5 41  1  0  0  0
  9 42  1  0  0  0
 12 43  1  0  0  0
 12 44  1  0  0  0
 15 45  1  0  0  0
 16 46  1  0  0  0
 16 47  1  0  0  0
 17 48  1  0  0  0
 18 49  1  0  0  0
 18 50  1  0  0  0
 20 51  1  0  0  0
 20 52  1  0  0  0
 21 53  1  0  0  0
 21 54  1  0  0  0
 22 55  1  0  0  0
 22 56  1  0  0  0
 27 57  1  0  0  0
 28 58  1  0  0  0
 28 59  1  0  0  0
 30 60  1  0  0  0
 31 61  1  0  0  0
 32 62  1  0  0  0
 33 63  1  0  0  0
 34 64  1  0  0  0
M  END
$$$$
