4ps0_ligand
  -I-interpret- 

 80 80  0  0  0  0  0  0  0  0999 V2000
  -24.8660    7.6660  -47.8890 N   0  3  0  0  0
  -24.2200    8.8980  -47.5720 C   0  0  0  0  0
  -22.8630    8.5700  -47.0360 C   0  0  0  0  0
  -23.0620    8.1690  -45.5860 C   0  0  0  0  0
  -23.1520    6.9520  -45.2900 O   0  0  0  0  0
  -23.4140    9.0910  -44.6960 N   0  0  0  0  0
  -23.3480    8.8990  -43.2320 C   0  0  0  0  0
  -24.5320    8.0730  -42.7090 C   0  0  0  0  0
  -25.6960    8.4180  -42.9890 O   0  0  0  0  0
  -23.3420   10.2740  -42.5710 C   0  0  0  0  0
  -23.1880   10.2530  -41.0570 C   0  0  0  0  0
  -21.6910    9.9740  -40.7070 C   0  0  0  0  0
  -23.7580   11.5610  -40.4740 C   0  0  0  0  0
  -24.2410    7.0340  -41.9120 N   0  0  0  0  0
  -25.2980    6.2740  -41.2420 C   0  0  0  0  0
  -24.8060    5.8980  -39.8530 C   0  0  0  0  0
  -23.6240    5.6530  -39.6930 O   0  0  0  0  0
  -25.6400    5.0010  -42.0220 C   0  0  0  0  0
  -26.1830    5.2920  -43.4270 C   0  0  0  0  0
  -26.7060    4.0790  -44.1430 C   0  0  0  0  0
  -26.6260    2.9390  -43.6560 O   0  0  0  0  0
  -27.3020    4.3250  -45.3140 N   0  0  0  0  0
  -25.6940    5.8610  -38.8670 N   0  0  0  0  0
  -25.3050    5.4510  -37.4120 C   0  0  0  0  0
  -25.4600    4.0830  -37.1490 C   0  0  0  0  0
  -26.3520    3.3810  -37.7590 O   0  0  0  0  0
  -26.3050    6.4250  -36.6760 C   0  0  0  0  0
  -27.4120    6.3100  -37.3950 C   0  0  0  0  0
  -26.9820    6.2420  -38.9150 C   0  0  0  0  0
  -28.3240    7.4890  -37.2120 O   0  0  0  0  0
  -24.6570    3.5490  -36.2150 N   0  0  0  0  0
  -24.8440    2.1790  -35.7630 C   0  0  0  0  0
  -25.4190    2.1710  -34.3610 C   0  0  0  0  0
  -25.3180    1.1680  -33.6630 O   0  0  0  0  0
  -23.4670    1.4700  -35.7290 C   0  0  0  0  0
  -23.1450    0.9760  -37.1170 C   0  0  0  0  0
  -21.9760    0.7330  -37.4710 O   0  0  0  0  0
  -24.0760    0.7500  -37.9010 O   0  0  0  0  0
  -26.0470    3.4150  -33.8380 C   0  0  0  0  0
  -25.7974    7.8570  -48.2584 H   0  0  0  0  0
  -24.3174    7.1660  -48.5886 H   0  0  0  0  0
  -24.9434    7.0973  -47.0458 H   0  0  0  0  0
  -24.7981    9.4519  -46.8323 H   0  0  0  0  0
  -24.1375    9.5244  -48.4602 H   0  0  0  0  0
  -22.1925    9.4256  -47.1172 H   0  0  0  0  0
  -22.4014    7.7634  -47.6056 H   0  0  0  0  0
  -23.7511    9.9880  -45.0454 H   0  0  0  0  0
  -22.4398    8.3472  -42.9896 H   0  0  0  0  0
  -24.3076   10.7323  -42.7848 H   0  0  0  0  0
  -22.4824   10.8131  -42.9693 H   0  0  0  0  0
  -23.7609    9.4487  -40.5954 H   0  0  0  0  0
  -21.3956    9.0105  -41.1223 H   0  0  0  0  0
  -21.0673   10.7607  -41.1314 H   0  0  0  0  0
  -21.5695    9.9569  -39.6239 H   0  0  0  0  0
  -23.2124   12.4095  -40.8870 H   0  0  0  0  0
  -24.8131   11.6441  -40.7348 H   0  0  0  0  0
  -23.6502   11.5512  -39.3894 H   0  0  0  0  0
  -23.2663    6.7688  -41.7702 H   0  0  0  0  0
  -26.1979    6.8862  -41.1834 H   0  0  0  0  0
  -26.4137    4.4685  -41.4689 H   0  0  0  0  0
  -24.7238    4.4208  -42.1319 H   0  0  0  0  0
  -25.3561    5.6852  -44.0183 H   0  0  0  0  0
  -27.0163    5.9855  -43.3145 H   0  0  0  0  0
  -27.7151    3.5595  -45.8468 H   0  0  0  0  0
  -27.3437    5.2782  -45.6748 H   0  0  0  0  0
  -24.2599    5.5521  -37.1194 H   0  0  0  0  0
  -25.9376    7.4499  -36.6250 H   0  0  0  0  0
  -26.4524    6.1674  -35.6272 H   0  0  0  0  0
  -27.9504    5.4177  -37.0754 H   0  0  0  0  0
  -27.5981    5.5508  -39.4901 H   0  0  0  0  0
  -27.1140    7.1953  -39.4267 H   0  0  0  0  0
  -29.1119    7.3688  -37.7471 H   0  0  0  0  0
  -23.9053    4.1118  -35.8167 H   0  0  0  0  0
  -25.5254    1.6675  -36.4428 H   0  0  0  0  0
  -23.4992    0.6304  -35.0347 H   0  0  0  0  0
  -22.6987    2.1678  -35.3962 H   0  0  0  0  0
  -21.3735    0.9598  -36.7589 H   0  0  0  0  0
  -27.0764    3.2061  -33.5467 H   0  0  0  0  0
  -25.4871    3.7665  -32.9714 H   0  0  0  0  0
  -26.0358    4.1802  -34.6142 H   0  0  0  0  0
  1  2  1  0  0  0
  2  3  1  0  0  0
  3  4  1  0  0  0
  4  5  2  0  0  0
  4  6  1  0  0  0
  6  7  1  0  0  0
  7  8  1  0  0  0
  7 10  1  0  0  0
  8  9  2  0  0  0
  8 14  1  0  0  0
 10 11  1  0  0  0
 11 12  1  0  0  0
 11 13  1  0  0  0
 14 15  1  0  0  0
 15 16  1  0  0  0
 15 18  1  0  0  0
 16 17  2  0  0  0
 16 23  1  0  0  0
 18 19  1  0  0  0
 19 20  1  0  0  0
 20 21  2  0  0  0
 20 22  1  0  0  0
 23 24  1  0  0  0
 23 29  1  0  0  0
 24 25  1  0  0  0
 24 27  1  0  0  0
 25 26  2  0  0  0
 25 31  1  0  0  0
 27 28  1  0  0  0
 28 29  1  0  0  0
 28 30  1  0  0  0
 31 32  1  0  0  0
 32 33  1  0  0  0
 32 35  1  0  0  0
 33 34  2  0  0  0
 33 39  1  0  0  0
 35 36  1  0  0  0
 36 37  1  0  0  0
 36 38  2  0  0  0
  1 40  1  0  0  0
  1 41  1  0  0  0
  1 42  1  0  0  0
  2 43  1  0  0  0
  2 44  1  0  0  0
  3 45  1  0  0  0
  3 46  1  0  0  0
  6 47  1  0  0  0
  7 48  1  0  0  0
 10 49  1  0  0  0
 10 50  1  0  0  0
 11 51  1  0  0  0
 12 52  1  0  0  0
 12 53  1  0  0  0
 12 54  1  0  0  0
 13 55  1  0  0  0
 13 56  1  0  0  0
 13 57  1  0  0  0
 14 58  1  0  0  0
 15 59  1  0  0  0
 18 60  1  0  0  0
 18 61  1  0  0  0
 19 62  1  0  0  0
 19 63  1  0  0  0
 22 64  1  0  0  0
 22 65  1  0  0  0
 24 66  1  0  0  0
 27 67  1  0  0  0
 27 68  1  0  0  0
 28 69  1  0  0  0
 29 70  1  0  0  0
 29 71  1  0  0  0
 30 72  1  0  0  0
 31 73  1  0  0  0
 32 74  1  0  0  0
 35 75  1  0  0  0
 35 76  1  0  0  0
 37 77  1  0  0  0
 39 78  1  0  0  0
 39 79  1  0  0  0
 39 80  1  0  0  0
M  END
$$$$
