1x6u_ligand
  -I-interpret- 

 35 35  0  0  0  0  0  0  0  0999 V2000
    7.1600  -12.3990   42.0860 C   0  0  0  0  0
    6.2080  -12.8690   42.7410 O   0  0  0  0  0
    8.2210  -12.0410   42.7120 O   0  0  0  0  0
    7.0020  -12.2480   40.5790 C   0  0  0  0  0
    5.9940  -13.3600   40.0880 C   0  0  0  0  0
    5.5880  -13.0450   38.6500 C   0  0  0  0  0
    4.6350  -14.0970   38.3050 O   0  0  0  0  0
    4.9280  -11.6690   38.5650 C   0  0  0  0  0
    3.7310  -11.6210   39.3890 O   0  0  0  0  0
    6.0020  -10.5650   38.9960 C   0  0  0  0  0
    6.5500  -10.8280   40.3720 O   0  0  0  0  0
    5.4810   -9.0040   39.1090 C   0  0  0  0  0
    5.0100   -7.9130   39.9760 O   0  0  0  0  0
    4.9200   -8.8600   37.6280 C   0  0  0  0  0
    5.0230   -6.0150   38.1070 P   0  0  0  0  0
    3.6990   -6.2530   39.1620 O   0  0  0  0  0
    6.4510   -5.7360   38.9410 O   0  0  0  0  0
    5.2480   -7.4650   37.1590 O   0  0  0  0  0
    4.6130   -4.6690   37.1830 O   0  0  0  0  0
    8.3360  -12.4810   39.8950 O   0  0  0  0  0
    8.8626  -11.7014   42.0838 H   0  0  0  0  0
    5.1126  -13.3726   40.7292 H   0  0  0  0  0
    6.4694  -14.3398   40.1343 H   0  0  0  0  0
    6.4413  -13.0177   37.9723 H   0  0  0  0  0
    5.0682  -14.9517   38.3643 H   0  0  0  0  0
    4.6071  -11.4662   37.5432 H   0  0  0  0  0
    3.1156  -12.2976   39.0972 H   0  0  0  0  0
    6.7162  -10.6581   38.1779 H   0  0  0  0  0
    6.1813   -8.7803   39.9138 H   0  0  0  0  0
    4.8307   -7.1359   39.4417 H   0  0  0  0  0
    3.8432   -9.0278   37.6080 H   0  0  0  0  0
    5.3752   -9.6019   36.9719 H   0  0  0  0  0
    2.9044   -6.4088   38.6463 H   0  0  0  0  0
    3.7948   -4.8429   36.7119 H   0  0  0  0  0
    8.6118  -13.3898   40.0352 H   0  0  0  0  0
  1  2  2  0  0  0
  1  3  1  0  0  0
  4  1  1  0  0  0
  4  5  1  0  0  0
 11  4  1  0  0  0
  4 20  1  0  0  0
  6  5  1  0  0  0
  6  7  1  0  0  0
  8  6  1  0  0  0
  8  9  1  0  0  0
 10  8  1  0  0  0
 10 11  1  0  0  0
 12 10  1  0  0  0
 12 13  1  0  0  0
 14 12  1  0  0  0
 18 14  1  0  0  0
 15 16  1  0  0  0
 15 17  2  0  0  0
 15 18  1  0  0  0
 15 19  1  0  0  0
  3 21  1  0  0  0
  5 22  1  0  0  0
  5 23  1  0  0  0
  6 24  1  0  0  0
  7 25  1  0  0  0
  8 26  1  0  0  0
  9 27  1  0  0  0
 10 28  1  0  0  0
 12 29  1  0  0  0
 13 30  1  0  0  0
 14 31  1  0  0  0
 14 32  1  0  0  0
 16 33  1  0  0  0
 19 34  1  0  0  0
 20 35  1  0  0  0
M  END
$$$$
