### 
### Created by X-TOOL on Mon Sep 10 21:12:53 2018
### 

@<TRIPOS>MOLECULE
1x6u_ligand
   32    32     1     0     0
SMALL
GAST_HUCK


@<TRIPOS>ATOM
      1 C1          7.1600  -12.3990   42.0860 C.2       1 DO8         0.1039
      2 O1A         6.2080  -12.8690   42.7410 O.co2     1 DO8        -0.5426
      3 O1B         8.2210  -12.0410   42.7120 O.co2     1 DO8        -0.5426
      4 C2          7.0020  -12.2480   40.5790 C.3       1 DO8         0.2179
      5 C3          5.9940  -13.3600   40.0880 C.3       1 DO8         0.0354
      6 C4          5.5880  -13.0450   38.6500 C.3       1 DO8         0.0880
      7 O4          4.6350  -14.0970   38.3050 O.3       1 DO8        -0.3891
      8 C5          4.9280  -11.6690   38.5650 C.3       1 DO8         0.1096
      9 O5          3.7310  -11.6210   39.3890 O.3       1 DO8        -0.3866
     10 C6          6.0020  -10.5650   38.9960 C.3       1 DO8         0.1173
     11 O6          6.5500  -10.8280   40.3720 O.3       1 DO8        -0.3382
     12 C7          5.4810   -9.0040   39.1090 C.3       1 DO8         0.1114
     13 O7          5.0100   -7.9130   39.9760 O.3       1 DO8        -0.3865
     14 C8          4.9200   -8.8600   37.6280 C.3       1 DO8         0.1068
     15 P1          5.0230   -6.0150   38.1070 P.3       1 DO8         0.2008
     16 O2P         3.6990   -6.2530   39.1620 O.co2     1 DO8        -0.5537
     17 O3P         6.4510   -5.7360   38.9410 O.co2     1 DO8        -0.5537
     18 O           5.2480   -7.4650   37.1590 O.3       1 DO8        -0.2734
     19 O1P         4.6130   -4.6690   37.1830 O.co2     1 DO8        -0.5537
     20 O2          8.3360  -12.4810   39.8950 O.3       1 DO8        -0.3631
     21 H1          5.1028  -13.3638   40.7328 H         1 DO8         0.0336
     22 H2          6.4803  -14.3458   40.1287 H         1 DO8         0.0336
     23 H3          6.4615  -13.0755   37.9822 H         1 DO8         0.0621
     24 H4          3.8953  -14.0603   38.9000 H         1 DO8         0.2099
     25 H5          4.6326  -11.4809   37.5223 H         1 DO8         0.0646
     26 H6          3.1138  -12.2772   39.0875 H         1 DO8         0.2100
     27 H7          6.8165  -10.6089   38.2579 H         1 DO8         0.0649
     28 H8          6.4864   -8.5659   39.0240 H         1 DO8         0.0646
     29 H9          4.8326   -7.1440   39.4473 H         1 DO8         0.2100
     30 H10         3.8307   -9.0131   37.6213 H         1 DO8         0.0639
     31 H11         5.3985   -9.6006   36.9703 H         1 DO8         0.0639
     32 H12         8.6089  -13.3803   40.0337 H         1 DO8         0.2112
@<TRIPOS>BOND
     1    1    2 ar 
     2    1    3 ar 
     3    4    1 1  
     4    4    5 1  
     5   11    4 1  
     6    4   20 1  
     7    6    5 1  
     8    6    7 1  
     9    8    6 1  
    10    8    9 1  
    11   10    8 1  
    12   10   11 1  
    13   12   10 1  
    14   12   13 1  
    15   14   12 1  
    16   18   14 1  
    17   15   16 ar 
    18   15   17 ar 
    19   15   18 1  
    20   15   19 ar 
    21    5   21 1  
    22    5   22 1  
    23    6   23 1  
    24    7   24 1  
    25    8   25 1  
    26    9   26 1  
    27   10   27 1  
    28   12   28 1  
    29   13   29 1  
    30   14   30 1  
    31   14   31 1  
    32   20   32 1  
@<TRIPOS>SUBSTRUCTURE
     1 DO8         1

