5u62_ligand
  -I-interpret- 

 37 40  0  0  0  0  0  0  0  0999 V2000
   26.2370   72.4840   96.5000 C   0  0  0  0  0
   27.6200   72.5140   96.4950 C   0  0  0  0  0
   28.3750   71.7860   95.5810 C   0  0  0  0  0
   30.6290   72.6950   94.5620 C   0  0  0  0  0
   30.3790   74.1950   94.8020 C   0  0  0  0  0
   31.1820   75.1020   93.8550 C   0  0  0  0  0
   31.1900   74.5310   92.4530 C   0  0  0  0  0
   30.3170   72.2830   93.1130 C   0  0  0  0  0
   31.5560   75.1830   91.2660 C   0  0  0  0  0
   30.9620   73.2010   90.8240 C   0  0  0  0  0
   27.6590   70.9500   94.7110 C   0  0  0  0  0
   26.2470   70.9160   94.7120 C   0  0  0  0  0
   25.4980   71.7040   95.6010 C   0  0  0  0  0
   25.7680   73.3470   97.4460 O   0  0  0  0  0
   26.8980   73.9430   98.1270 C   0  0  0  0  0
   28.0470   73.4270   97.4130 O   0  0  0  0  0
   29.9030   71.8120   95.5980 C   0  0  0  0  0
   30.8150   73.2830   92.1550 N   0  0  0  0  0
   31.3810   74.3260   90.2280 N   0  0  0  0  0
   30.6290   72.1020   90.1010 N   0  0  0  0  0
   31.6955   72.5238   94.7081 H   0  0  0  0  0
   30.6910   74.4229   95.8212 H   0  0  0  0  0
   29.3207   74.3861   94.6240 H   0  0  0  0  0
   32.2085   75.1696   94.2155 H   0  0  0  0  0
   30.7190   76.0885   93.8327 H   0  0  0  0  0
   29.2359   72.2018   93.0000 H   0  0  0  0  0
   30.8082   71.3316   92.9089 H   0  0  0  0  0
   31.9203   76.2075   91.1899 H   0  0  0  0  0
   28.2058   70.3112   94.0174 H   0  0  0  0  0
   25.7281   70.2649   94.0085 H   0  0  0  0  0
   24.4080   71.7085   95.5921 H   0  0  0  0  0
   26.9222   73.6909   99.1872 H   0  0  0  0  0
   26.8596   75.0323   98.1171 H   0  0  0  0  0
   30.2103   70.7911   95.3711 H   0  0  0  0  0
   30.1725   72.2276   96.5690 H   0  0  0  0  0
   30.2446   71.2811   90.5687 H   0  0  0  0  0
   30.7631   72.0969   89.0899 H   0  0  0  0  0
  2  1  4  0  0  0
  1 13  4  0  0  0
  1 14  1  0  0  0
  3  2  4  0  0  0
  2 16  1  0  0  0
  3 11  4  0  0  0
 17  3  1  0  0  0
  4  5  1  0  0  0
  4  8  1  0  0  0
  4 17  1  0  0  0
  5  6  1  0  0  0
  6  7  1  0  0  0
  7  9  4  0  0  0
  7 18  4  0  0  0
  8 18  1  0  0  0
  9 19  4  0  0  0
 18 10  4  0  0  0
 10 19  4  0  0  0
 10 20  1  0  0  0
 11 12  4  0  0  0
 12 13  4  0  0  0
 14 15  1  0  0  0
 15 16  1  0  0  0
  4 21  1  0  0  0
  5 22  1  0  0  0
  5 23  1  0  0  0
  6 24  1  0  0  0
  6 25  1  0  0  0
  8 26  1  0  0  0
  8 27  1  0  0  0
  9 28  1  0  0  0
 11 29  1  0  0  0
 12 30  1  0  0  0
 13 31  1  0  0  0
 15 32  1  0  0  0
 15 33  1  0  0  0
 17 34  1  0  0  0
 17 35  1  0  0  0
 20 36  1  0  0  0
 20 37  1  0  0  0
M  END
$$$$
