6dyv_ligand
  -I-interpret- 

 46 48  0  0  0  0  0  0  0  0999 V2000
    4.6400  -23.3340  -38.5860 N   0  0  0  0  0
    4.2340  -22.0860  -38.8520 C   0  0  0  0  0
    5.0600  -21.1150  -39.3240 N   0  0  0  0  0
    4.6300  -19.8520  -39.5600 C   0  0  0  0  0
    3.3460  -19.4840  -39.3950 N   0  0  0  0  0
    2.8210  -21.7720  -38.6450 C   0  0  0  0  0
    2.4600  -20.4110  -38.9450 C   0  0  0  0  0
    1.7260  -22.4380  -38.2460 N   0  0  0  0  0
    0.6640  -21.5670  -38.2450 C   0  0  0  0  0
    1.0330  -20.2980  -38.6830 C   0  0  0  0  0
    0.1330  -19.0790  -38.7720 C   0  0  0  0  0
   -0.3470  -18.5720  -40.0680 N   0  3  0  0  0
    0.6800  -17.8470  -40.8600 C   0  0  0  0  0
    0.0280  -17.8280  -42.2130 C   0  0  0  0  0
   -1.0380  -16.8550  -42.2370 O   0  0  0  0  0
   -0.9520  -19.6120  -40.9430 C   0  0  0  0  0
   -0.4980  -19.2460  -42.3620 C   0  0  0  0  0
    0.5540  -20.2530  -42.8430 C   0  0  0  0  0
    1.0080  -20.0780  -44.5560 S   0  0  0  0  0
   -0.2850  -20.9490  -45.3710 C   0  0  0  0  0
    0.0760  -21.1930  -46.8260 C   0  0  0  0  0
   -0.8920  -22.2190  -47.4140 C   0  0  0  0  0
   -2.1950  -21.5950  -47.6420 C   0  0  0  0  0
   -3.2920  -20.9870  -47.8870 C   0  0  0  0  0
    5.6141  -23.5964  -38.7364 H   0  0  0  0  0
    3.9751  -24.0223  -38.2330 H   0  0  0  0  0
    5.3506  -19.1064  -39.8959 H   0  0  0  0  0
   -0.3465  -21.8369  -37.9381 H   0  0  0  0  0
    0.7529  -18.2686  -38.3884 H   0  0  0  0  0
   -0.7778  -19.3894  -38.2599 H   0  0  0  0  0
   -1.0713  -17.9131  -39.7823 H   0  0  0  0  0
    1.6631  -18.3177  -40.8480 H   0  0  0  0  0
    0.9235  -16.8583  -40.4711 H   0  0  0  0  0
    0.6995  -17.5476  -43.0245 H   0  0  0  0  0
   -1.4471  -16.8515  -43.1055 H   0  0  0  0  0
   -2.0385  -19.6311  -40.8577 H   0  0  0  0  0
   -0.6313  -20.6149  -40.6612 H   0  0  0  0  0
   -1.2823  -19.2864  -43.1178 H   0  0  0  0  0
    0.1230  -21.2473  -42.7257 H   0  0  0  0  0
    1.4548  -20.0815  -42.2536 H   0  0  0  0  0
   -1.1970  -20.3537  -45.3265 H   0  0  0  0  0
   -0.4332  -21.9089  -44.8762 H   0  0  0  0  0
    1.0965  -21.5701  -46.8931 H   0  0  0  0  0
    0.0050  -20.2592  -47.3837 H   0  0  0  0  0
   -1.0063  -23.0486  -46.7162 H   0  0  0  0  0
   -0.4971  -22.5863  -48.3612 H   0  0  0  0  0
  1  2  1  0  0  0
  2  3  4  0  0  0
  2  6  4  0  0  0
  3  4  4  0  0  0
  4  5  4  0  0  0
  5  7  4  0  0  0
  6  7  4  0  0  0
  6  8  4  0  0  0
  7 10  4  0  0  0
  8  9  4  0  0  0
  9 10  4  0  0  0
 10 11  1  0  0  0
 11 12  1  0  0  0
 12 13  1  0  0  0
 12 16  1  0  0  0
 13 14  1  0  0  0
 14 15  1  0  0  0
 14 17  1  0  0  0
 16 17  1  0  0  0
 17 18  1  0  0  0
 18 19  1  0  0  0
 19 20  1  0  0  0
 20 21  1  0  0  0
 21 22  1  0  0  0
 22 23  1  0  0  0
 23 24  3  0  0  0
  1 25  1  0  0  0
  1 26  1  0  0  0
  4 27  1  0  0  0
  9 28  1  0  0  0
 11 29  1  0  0  0
 11 30  1  0  0  0
 12 31  1  0  0  0
 13 32  1  0  0  0
 13 33  1  0  0  0
 14 34  1  0  0  0
 15 35  1  0  0  0
 16 36  1  0  0  0
 16 37  1  0  0  0
 17 38  1  0  0  0
 18 39  1  0  0  0
 18 40  1  0  0  0
 20 41  1  0  0  0
 20 42  1  0  0  0
 21 43  1  0  0  0
 21 44  1  0  0  0
 22 45  1  0  0  0
 22 46  1  0  0  0
M  END
$$$$
