6n0m_ligand
  -I-interpret- 

 26 25  0  0  0  0  0  0  0  0999 V2000
  -31.0680   52.9830   78.6820 O   0  0  0  0  0
  -30.3600   53.9190   78.3440 C   0  0  0  0  0
  -30.1020   54.8800   79.2250 O   0  0  0  0  0
  -29.8000   54.0040   76.9600 C   0  0  0  0  0
  -30.7400   53.3510   76.0170 N   0  3  0  0  0
  -29.6150   55.4750   76.6350 C   0  0  0  0  0
  -28.6640   55.7640   75.4760 C   0  0  0  0  0
  -28.8170   54.7940   74.3070 C   0  0  0  0  0
  -27.2150   55.6980   75.9700 C   0  0  0  0  0
  -29.0640   57.1780   75.0320 C   0  0  0  0  0
  -28.5270   58.0080   75.9750 F   0  0  0  0  0
  -28.6680   57.5170   73.7580 F   0  0  0  0  0
  -29.5375   55.5418   78.8188 H   0  0  0  0  0
  -28.8406   53.4931   76.8783 H   0  0  0  0  0
  -30.8396   52.3667   76.2651 H   0  0  0  0  0
  -31.6490   53.8104   76.0721 H   0  0  0  0  0
  -30.3756   53.4283   75.0674 H   0  0  0  0  0
  -29.1833   55.9414   77.5206 H   0  0  0  0  0
  -30.5927   55.8586   76.3435 H   0  0  0  0  0
  -28.1353   55.0813   73.5065 H   0  0  0  0  0
  -28.5813   53.7837   74.6416 H   0  0  0  0  0
  -29.8433   54.8268   73.9412 H   0  0  0  0  0
  -26.9890   54.6823   76.2945 H   0  0  0  0  0
  -26.5429   55.9798   75.1594 H   0  0  0  0  0
  -27.0859   56.3851   76.8062 H   0  0  0  0  0
  -30.1495   57.2556   74.9698 H   0  0  0  0  0
  1  2  2  0  0  0
  2  3  1  0  0  0
  2  4  1  0  0  0
  4  5  1  0  0  0
  4  6  1  0  0  0
  6  7  1  0  0  0
  7  8  1  0  0  0
  7  9  1  0  0  0
  7 10  1  0  0  0
 10 11  1  0  0  0
 10 12  1  0  0  0
  3 13  1  0  0  0
  4 14  1  0  0  0
  5 15  1  0  0  0
  5 16  1  0  0  0
  5 17  1  0  0  0
  6 18  1  0  0  0
  6 19  1  0  0  0
  8 20  1  0  0  0
  8 21  1  0  0  0
  8 22  1  0  0  0
  9 23  1  0  0  0
  9 24  1  0  0  0
  9 25  1  0  0  0
 10 26  1  0  0  0
M  END
$$$$
