### 
### Created by X-TOOL on Mon Sep 10 21:13:20 2018
### 

@<TRIPOS>MOLECULE
4k42_ligand
   90    90     1     0     0
SMALL
GAST_HUCK


@<TRIPOS>ATOM
      1 C01        18.1320    0.7140  -73.1980 C.ar      1 NWM        -0.0581
      2 C02        18.5370    1.2950  -72.0050 C.ar      1 NWM        -0.0685
      3 C03        17.6100    2.0350  -71.2410 C.ar      1 NWM        -0.0687
      4 C04        16.2820    2.1900  -71.6790 C.ar      1 NWM        -0.0685
      5 C05        15.8850    1.6020  -72.8790 C.ar      1 NWM        -0.0581
      6 C06        16.8000    0.8730  -73.6490 C.ar      1 NWM        -0.0175
      7 C07        16.4080    0.2240  -74.9570 C.3       1 NWM         0.0816
      8 O08        16.1630    0.9870  -76.1100 O.3       1 NWM        -0.3672
      9 C09        15.6010    2.2600  -76.0510 C.3       1 NWM         0.0530
     10 C10        14.5710    2.6920  -77.0690 C.3       1 NWM         0.0019
     11 C11        13.1830    2.8900  -76.6000 C.3       1 NWM         0.0946
     12 O01        12.7000    1.8210  -75.8930 O.3       1 NWM        -0.2731
     13 C13        11.3680    1.4740  -76.0730 C.2       1 NWM         0.2337
     14 O02        10.8240    1.5430  -77.1520 O.2       1 NWM        -0.3704
     15 C15        10.4940    1.1500  -74.9040 C.3       1 NWM         0.0459
     16 C16         9.2910    0.2760  -75.2400 C.3       1 NWM        -0.0469
     17 C25        12.8550    4.2470  -75.8970 C.3       1 NWM         0.0132
     18 C18        13.7580    4.5470  -74.7960 C.3       1 NWM        -0.0574
     19 C26        12.5830    5.4120  -76.9200 C.3       1 NWM         0.0632
     20 O11        13.4840    5.4660  -77.9750 O.3       1 NWM        -0.3912
     21 C27        12.2390    6.7780  -76.2830 C.3       1 NWM        -0.0153
     22 C39        11.1340    6.6690  -75.2960 C.3       1 NWM        -0.0599
     23 C28        13.4510    7.5980  -75.7910 C.3       1 NWM        -0.0322
     24 C29        13.3100    9.1540  -75.7810 C.3       1 NWM         0.0218
     25 C30        14.5710   10.0170  -76.0630 C.2       1 NWM         0.1107
     26 O12        15.6940    9.5450  -75.8610 O.2       1 NWM        -0.3912
     27 C31        14.4280   11.4580  -76.5850 C.3       1 NWM         0.0616
     28 C40        15.1260   11.6410  -77.8920 C.3       1 NWM        -0.0435
     29 C32        14.7110   12.4990  -75.4820 C.3       1 NWM         0.1106
     30 O13        13.8850   12.2440  -74.3060 O.3       1 NWM        -0.2694
     31 C44        14.4730   12.0940  -73.0470 C.2       1 NWM         0.2311
     32 O32        15.6640   12.1680  -72.9460 O.2       1 NWM        -0.3707
     33 C08        13.7070   11.3800  -72.0010 C.3       1 NWM         0.0372
     34 C33        14.7290   13.9770  -75.8440 C.3       1 NWM        -0.0054
     35 C41        15.3980   14.8490  -74.8040 C.3       1 NWM        -0.0568
     36 C34        13.3580   14.5200  -76.2880 C.2       1 NWM        -0.0873
     37 C35        13.1030   14.5930  -77.6710 C.2       1 NWM         0.0125
     38 N5         11.7400   14.8170  -78.1820 N.am      1 NWM        -0.2419
     39 C43        10.5760   14.2210  -77.5270 C.3       1 NWM         0.0422
     40 C42        11.5770   15.6010  -79.3380 C.2       1 NWM         0.1970
     41 O14        10.4470   15.7950  -79.7970 O.2       1 NWM        -0.3713
     42 H          18.8370    0.1373  -73.7857 H         1 NWM         0.0557
     43 H          19.5590    1.1811  -71.6621 H         1 NWM         0.0599
     44 H          17.9239    2.4884  -70.3078 H         1 NWM         0.0559
     45 H          15.5743    2.7611  -71.0890 H         1 NWM         0.0599
     46 H          14.8612    1.7097  -73.2185 H         1 NWM         0.0557
     47 H          15.4864   -0.3428  -74.7583 H         1 NWM         0.0724
     48 H          17.2193   -0.4733  -75.2129 H         1 NWM         0.0724
     49 H          16.4334    2.9755  -76.1219 H         1 NWM         0.0563
     50 H          15.1244    2.3486  -75.0636 H         1 NWM         0.0563
     51 H          14.5454    1.9246  -77.8566 H         1 NWM         0.0316
     52 H          14.9123    3.6459  -77.4974 H         1 NWM         0.0316
     53 H          12.5890    2.9134  -77.5255 H         1 NWM         0.0654
     54 H          10.1247    2.0946  -74.4783 H         1 NWM         0.0516
     55 H          11.1031    0.6234  -74.1546 H         1 NWM         0.0516
     56 H           8.7073    0.0888  -74.3266 H         1 NWM         0.0255
     57 H           9.6380   -0.6813  -75.6560 H         1 NWM         0.0255
     58 H           8.6596    0.7899  -75.9797 H         1 NWM         0.0255
     59 H          11.8823    4.0845  -75.4097 H         1 NWM         0.0352
     60 H          13.4775    5.5097  -74.3437 H         1 NWM         0.0234
     61 H          14.7895    4.6060  -75.1734 H         1 NWM         0.0234
     62 H          13.6895    3.7522  -74.0386 H         1 NWM         0.0234
     63 H          11.6408    5.1137  -77.4029 H         1 NWM         0.0599
     64 H          13.2572    6.1899  -78.5469 H         1 NWM         0.2098
     65 H          11.8239    7.3752  -77.1083 H         1 NWM         0.0325
     66 H          10.9239    7.6611  -74.8698 H         1 NWM         0.0233
     67 H          11.4278    5.9790  -74.4913 H         1 NWM         0.0233
     68 H          10.2321    6.2863  -75.7961 H         1 NWM         0.0233
     69 H          14.3036    7.3482  -76.4395 H         1 NWM         0.0294
     70 H          13.6684    7.2798  -74.7607 H         1 NWM         0.0294
     71 H          12.9377    9.4395  -74.7861 H         1 NWM         0.0494
     72 H          12.5606    9.4166  -76.5422 H         1 NWM         0.0494
     73 H          13.3608   11.5854  -76.8193 H         1 NWM         0.0557
     74 H          14.8341   10.8337  -78.5797 H         1 NWM         0.0258
     75 H          16.2142   11.6123  -77.7338 H         1 NWM         0.0258
     76 H          14.8440   12.6118  -78.3256 H         1 NWM         0.0258
     77 H          15.7448   12.2880  -75.1709 H         1 NWM         0.0695
     78 H          14.2981   11.3439  -71.0740 H         1 NWM         0.0483
     79 H          13.4920   10.3555  -72.3389 H         1 NWM         0.0483
     80 H          12.7617   11.9100  -71.8126 H         1 NWM         0.0483
     81 H          15.3701   14.0460  -76.7352 H         1 NWM         0.0396
     82 H          15.3725   15.8981  -75.1338 H         1 NWM         0.0247
     83 H          16.4430   14.5304  -74.6755 H         1 NWM         0.0247
     84 H          14.8649   14.7526  -73.8467 H         1 NWM         0.0247
     85 H          12.6130   14.8359  -75.5592 H         1 NWM         0.0223
     86 H          13.9271   14.4820  -78.3742 H         1 NWM         0.0802
     87 H           9.6626   14.5129  -78.0660 H         1 NWM         0.0552
     88 H          10.5179   14.5767  -76.4877 H         1 NWM         0.0552
     89 H          10.6719   13.1252  -77.5348 H         1 NWM         0.0552
     90 H          12.4465   16.0367  -79.8280 H         1 NWM         0.1613
@<TRIPOS>BOND
     1    1    2 ar 
     2    1    6 ar 
     3    2    3 ar 
     4    3    4 ar 
     5    4    5 ar 
     6    5    6 ar 
     7    6    7 1  
     8    7    8 1  
     9    8    9 1  
    10    9   10 1  
    11   10   11 1  
    12   11   12 1  
    13   11   17 1  
    14   12   13 1  
    15   13   14 2  
    16   13   15 1  
    17   15   16 1  
    18   17   18 1  
    19   17   19 1  
    20   19   20 1  
    21   19   21 1  
    22   21   22 1  
    23   21   23 1  
    24   23   24 1  
    25   24   25 1  
    26   25   26 2  
    27   25   27 1  
    28   27   28 1  
    29   27   29 1  
    30   29   30 1  
    31   29   34 1  
    32   30   31 1  
    33   31   32 2  
    34   31   33 1  
    35   34   35 1  
    36   34   36 1  
    37   36   37 2  
    38   37   38 1  
    39   38   39 1  
    40   38   40 am 
    41   40   41 2  
    42    1   42 1  
    43    2   43 1  
    44    3   44 1  
    45    4   45 1  
    46    5   46 1  
    47    7   47 1  
    48    7   48 1  
    49    9   49 1  
    50    9   50 1  
    51   10   51 1  
    52   10   52 1  
    53   11   53 1  
    54   15   54 1  
    55   15   55 1  
    56   16   56 1  
    57   16   57 1  
    58   16   58 1  
    59   17   59 1  
    60   18   60 1  
    61   18   61 1  
    62   18   62 1  
    63   19   63 1  
    64   20   64 1  
    65   21   65 1  
    66   22   66 1  
    67   22   67 1  
    68   22   68 1  
    69   23   69 1  
    70   23   70 1  
    71   24   71 1  
    72   24   72 1  
    73   27   73 1  
    74   28   74 1  
    75   28   75 1  
    76   28   76 1  
    77   29   77 1  
    78   33   78 1  
    79   33   79 1  
    80   33   80 1  
    81   34   81 1  
    82   35   82 1  
    83   35   83 1  
    84   35   84 1  
    85   36   85 1  
    86   37   86 1  
    87   39   87 1  
    88   39   88 1  
    89   39   89 1  
    90   40   90 1  
@<TRIPOS>SUBSTRUCTURE
     1 NWM         1

