4k42_ligand
  -I-interpret- 

 90 90  0  0  0  0  0  0  0  0999 V2000
   18.1320    0.7140  -73.1980 C   0  0  0  0  0
   18.5370    1.2950  -72.0050 C   0  0  0  0  0
   17.6100    2.0350  -71.2410 C   0  0  0  0  0
   16.2820    2.1900  -71.6790 C   0  0  0  0  0
   15.8850    1.6020  -72.8790 C   0  0  0  0  0
   16.8000    0.8730  -73.6490 C   0  0  0  0  0
   16.4080    0.2240  -74.9570 C   0  0  0  0  0
   16.1630    0.9870  -76.1100 O   0  0  0  0  0
   15.6010    2.2600  -76.0510 C   0  0  0  0  0
   14.5710    2.6920  -77.0690 C   0  0  0  0  0
   13.1830    2.8900  -76.6000 C   0  0  0  0  0
   12.7000    1.8210  -75.8930 O   0  0  0  0  0
   11.3680    1.4740  -76.0730 C   0  0  0  0  0
   10.8240    1.5430  -77.1520 O   0  0  0  0  0
   10.4940    1.1500  -74.9040 C   0  0  0  0  0
    9.2910    0.2760  -75.2400 C   0  0  0  0  0
   12.8550    4.2470  -75.8970 C   0  0  0  0  0
   13.7580    4.5470  -74.7960 C   0  0  0  0  0
   12.5830    5.4120  -76.9200 C   0  0  0  0  0
   13.4840    5.4660  -77.9750 O   0  0  0  0  0
   12.2390    6.7780  -76.2830 C   0  0  0  0  0
   11.1340    6.6690  -75.2960 C   0  0  0  0  0
   13.4510    7.5980  -75.7910 C   0  0  0  0  0
   13.3100    9.1540  -75.7810 C   0  0  0  0  0
   14.5710   10.0170  -76.0630 C   0  0  0  0  0
   15.6940    9.5450  -75.8610 O   0  0  0  0  0
   14.4280   11.4580  -76.5850 C   0  0  0  0  0
   15.1260   11.6410  -77.8920 C   0  0  0  0  0
   14.7110   12.4990  -75.4820 C   0  0  0  0  0
   13.8850   12.2440  -74.3060 O   0  0  0  0  0
   14.4730   12.0940  -73.0470 C   0  0  0  0  0
   15.6640   12.1680  -72.9460 O   0  0  0  0  0
   13.7070   11.3800  -72.0010 C   0  0  0  0  0
   14.7290   13.9770  -75.8440 C   0  0  0  0  0
   15.3980   14.8490  -74.8040 C   0  0  0  0  0
   13.3580   14.5200  -76.2880 C   0  0  0  0  0
   13.1030   14.5930  -77.6710 C   0  0  0  0  0
   11.7400   14.8170  -78.1820 N   0  0  0  0  0
   10.5760   14.2210  -77.5270 C   0  0  0  0  0
   11.5770   15.6010  -79.3380 C   0  0  0  0  0
   10.4470   15.7950  -79.7970 O   0  0  0  0  0
   18.8409    0.1341  -73.7889 H   0  0  0  0  0
   19.5647    1.1805  -71.6602 H   0  0  0  0  0
   17.9257    2.4909  -70.3026 H   0  0  0  0  0
   15.5704    2.7643  -71.0858 H   0  0  0  0  0
   14.8555    1.7103  -73.2203 H   0  0  0  0  0
   15.4444   -0.2370  -74.7403 H   0  0  0  0  0
   17.2792   -0.3752  -75.2217 H   0  0  0  0  0
   16.4422    2.9326  -76.2184 H   0  0  0  0  0
   15.0629    2.2720  -75.1032 H   0  0  0  0  0
   14.5207    1.8810  -77.7955 H   0  0  0  0  0
   14.9017    3.6686  -77.4225 H   0  0  0  0  0
   12.6371    2.9571  -77.5410 H   0  0  0  0  0
   10.1064    2.0948  -74.5229 H   0  0  0  0  0
   11.1046    0.5939  -74.1926 H   0  0  0  0  0
    8.6662    0.7863  -75.9731 H   0  0  0  0  0
    9.6362   -0.6722  -75.6521 H   0  0  0  0  0
    8.7135    0.0912  -74.3342 H   0  0  0  0  0
   11.8939    4.1328  -75.3956 H   0  0  0  0  0
   13.6892    3.7588  -74.0463 H   0  0  0  0  0
   14.7797    4.6051  -75.1713 H   0  0  0  0  0
   13.4791    5.5010  -74.3486 H   0  0  0  0  0
   11.6438    5.1262  -77.3935 H   0  0  0  0  0
   13.2548    6.1975  -78.5529 H   0  0  0  0  0
   11.8605    7.3890  -77.1024 H   0  0  0  0  0
   10.2410    6.2897  -75.7927 H   0  0  0  0  0
   11.4264    5.9850  -74.4992 H   0  0  0  0  0
   10.9268    7.6526  -74.8744 H   0  0  0  0  0
   14.2574    7.3802  -76.4912 H   0  0  0  0  0
   13.5987    7.3093  -74.7504 H   0  0  0  0  0
   13.0153    9.4060  -74.7623 H   0  0  0  0  0
   12.6218    9.3821  -76.5949 H   0  0  0  0  0
   13.3852   11.6527  -76.8354 H   0  0  0  0  0
   16.1868   11.4225  -77.7696 H   0  0  0  0  0
   14.6968   10.9630  -78.6297 H   0  0  0  0  0
   15.0022   12.6707  -78.2275 H   0  0  0  0  0
   15.7662   12.3248  -75.2716 H   0  0  0  0  0
   14.0426   10.3442  -71.9500 H   0  0  0  0  0
   13.8708   11.8641  -71.0383 H   0  0  0  0  0
   12.6455   11.4077  -72.2471 H   0  0  0  0  0
   15.3662   14.0357  -76.7264 H   0  0  0  0  0
   14.8688   14.7525  -73.8560 H   0  0  0  0  0
   16.4333   14.5322  -74.6776 H   0  0  0  0  0
   15.3721   15.8882  -75.1319 H   0  0  0  0  0
   12.6124   14.8362  -75.5585 H   0  0  0  0  0
   13.9279   14.4819  -78.3748 H   0  0  0  0  0
   10.6723   13.1353  -77.5353 H   0  0  0  0  0
   10.5196   14.5742  -76.4973 H   0  0  0  0  0
    9.6716   14.5109  -78.0619 H   0  0  0  0  0
   12.4473   16.0371  -79.8285 H   0  0  0  0  0
  1  2  4  0  0  0
  1  6  4  0  0  0
  2  3  4  0  0  0
  3  4  4  0  0  0
  4  5  4  0  0  0
  5  6  4  0  0  0
  6  7  1  0  0  0
  7  8  1  0  0  0
  8  9  1  0  0  0
  9 10  1  0  0  0
 10 11  1  0  0  0
 11 12  1  0  0  0
 11 17  1  0  0  0
 12 13  1  0  0  0
 13 14  2  0  0  0
 13 15  1  0  0  0
 15 16  1  0  0  0
 17 18  1  0  0  0
 17 19  1  0  0  0
 19 20  1  0  0  0
 19 21  1  0  0  0
 21 22  1  0  0  0
 21 23  1  0  0  0
 23 24  1  0  0  0
 24 25  1  0  0  0
 25 26  2  0  0  0
 25 27  1  0  0  0
 27 28  1  0  0  0
 27 29  1  0  0  0
 29 30  1  0  0  0
 29 34  1  0  0  0
 30 31  1  0  0  0
 31 32  2  0  0  0
 31 33  1  0  0  0
 34 35  1  0  0  0
 34 36  1  0  0  0
 36 37  2  0  0  0
 37 38  1  0  0  0
 38 39  1  0  0  0
 38 40  1  0  0  0
 40 41  2  0  0  0
  1 42  1  0  0  0
  2 43  1  0  0  0
  3 44  1  0  0  0
  4 45  1  0  0  0
  5 46  1  0  0  0
  7 47  1  0  0  0
  7 48  1  0  0  0
  9 49  1  0  0  0
  9 50  1  0  0  0
 10 51  1  0  0  0
 10 52  1  0  0  0
 11 53  1  0  0  0
 15 54  1  0  0  0
 15 55  1  0  0  0
 16 56  1  0  0  0
 16 57  1  0  0  0
 16 58  1  0  0  0
 17 59  1  0  0  0
 18 60  1  0  0  0
 18 61  1  0  0  0
 18 62  1  0  0  0
 19 63  1  0  0  0
 20 64  1  0  0  0
 21 65  1  0  0  0
 22 66  1  0  0  0
 22 67  1  0  0  0
 22 68  1  0  0  0
 23 69  1  0  0  0
 23 70  1  0  0  0
 24 71  1  0  0  0
 24 72  1  0  0  0
 27 73  1  0  0  0
 28 74  1  0  0  0
 28 75  1  0  0  0
 28 76  1  0  0  0
 29 77  1  0  0  0
 33 78  1  0  0  0
 33 79  1  0  0  0
 33 80  1  0  0  0
 34 81  1  0  0  0
 35 82  1  0  0  0
 35 83  1  0  0  0
 35 84  1  0  0  0
 36 85  1  0  0  0
 37 86  1  0  0  0
 39 87  1  0  0  0
 39 88  1  0  0  0
 39 89  1  0  0  0
 40 90  1  0  0  0
M  END
$$$$
