1ciz_ligand
  -I-interpret- 

 64 68  0  0  0  0  0  0  0  0999 V2000
   25.4560   51.1780   -2.3930 N   0  0  0  0  0
   27.6610   50.2570   -1.9370 C   0  0  0  0  0
   28.6140   49.7750   -1.0260 C   0  0  0  0  0
   28.2770   49.7360    0.3420 C   0  0  0  0  0
   26.9820   50.0630    0.7910 C   0  0  0  0  0
   32.5770   44.3250    0.6390 N   0  0  0  0  0
   29.0070   46.6580    2.0550 C   0  0  0  0  0
   20.9740   54.5130   -6.9150 C   0  0  0  0  0
   23.6950   52.6150   -4.2130 C   0  0  0  0  0
   21.2610   55.1230   -5.6720 C   0  0  0  0  0
   28.9740   49.5700    2.8350 O   0  0  0  0  0
   30.7430   49.9880    1.1760 O   0  0  0  0  0
   26.3820   50.6810   -1.4920 C   0  0  0  0  0
   26.0370   50.5360   -0.1270 C   0  0  0  0  0
   29.5300   49.3390    1.5320 S   0  0  0  0  0
   25.0140   52.0770   -4.7440 C   0  0  0  0  0
   23.4350   52.6960   -2.7220 C   0  0  0  0  0
   24.1100   51.5760   -1.9360 C   0  0  0  0  0
   25.7170   51.0580   -3.8440 C   0  0  0  0  0
   22.1510   54.4840   -4.7830 C   0  0  0  0  0
   22.7440   53.2500   -5.1440 C   0  0  0  0  0
   22.4440   52.6430   -6.3870 C   0  0  0  0  0
   21.5540   53.2750   -7.2800 C   0  0  0  0  0
   29.9310   47.6640    1.5190 N   0  0  0  0  0
   29.7920   45.5460    2.7920 C   0  0  0  0  0
   28.1190   46.1410    0.9550 C   0  0  0  0  0
   26.8490   45.7360    1.2070 O   0  0  0  0  0
   28.5190   46.0620   -0.1600 O   0  0  0  0  0
   30.4940   41.4500   -0.6950 C   0  0  0  0  0
   31.6400   42.2650   -0.5800 C   0  0  0  0  0
   31.6280   43.3590    0.3160 C   0  0  0  0  0
   30.4570   43.6210    1.0980 C   0  0  0  0  0
   29.3150   42.7940    0.9730 C   0  0  0  0  0
   29.3390   41.7040    0.0760 C   0  0  0  0  0
   32.0520   45.1740    1.5630 C   0  0  0  0  0
   30.7380   44.8020    1.8830 C   0  0  0  0  0
   27.9061   50.3061   -2.9979 H   0  0  0  0  0
   29.5925   49.4385   -1.3688 H   0  0  0  0  0
   26.7188   49.9488    1.8426 H   0  0  0  0  0
   28.3507   47.1095    2.7989 H   0  0  0  0  0
   20.2915   55.0069   -7.6067 H   0  0  0  0  0
   23.2965   51.6007   -4.2370 H   0  0  0  0  0
   20.8008   56.0741   -5.4042 H   0  0  0  0  0
   25.0329   50.7933    0.2102 H   0  0  0  0  0
   25.6859   52.9308   -4.8315 H   0  0  0  0  0
   24.7872   51.5631   -5.6781 H   0  0  0  0  0
   23.8412   53.6426   -2.3656 H   0  0  0  0  0
   22.3596   52.6078   -2.5677 H   0  0  0  0  0
   24.2319   51.9488   -0.9190 H   0  0  0  0  0
   23.4764   50.6969   -2.0540 H   0  0  0  0  0
   25.3406   50.0791   -4.1409 H   0  0  0  0  0
   26.7864   51.2228   -3.9754 H   0  0  0  0  0
   22.3816   54.9395   -3.8200 H   0  0  0  0  0
   22.8998   51.6894   -6.6534 H   0  0  0  0  0
   21.3159   52.8156   -8.2393 H   0  0  0  0  0
   30.8265   47.3661    1.1319 H   0  0  0  0  0
   29.0699   44.8292    3.1829 H   0  0  0  0  0
   30.3832   46.0175    3.5770 H   0  0  0  0  0
   26.6562   45.8530    2.1401 H   0  0  0  0  0
   30.5006   40.6107   -1.3904 H   0  0  0  0  0
   32.5272   42.0531   -1.1768 H   0  0  0  0  0
   28.4229   42.9974    1.5654 H   0  0  0  0  0
   28.4659   41.0587   -0.0212 H   0  0  0  0  0
   32.5790   46.0249    1.9946 H   0  0  0  0  0
  1 19  1  0  0  0
  1 18  1  0  0  0
  1 13  1  0  0  0
 13 14  4  0  0  0
 13  2  4  0  0  0
  2  3  4  0  0  0
  3  4  4  0  0  0
  4 15  1  0  0  0
  4  5  4  0  0  0
  5 14  4  0  0  0
 15 11  2  0  0  0
 15 12  2  0  0  0
 15 24  1  0  0  0
 24  7  1  0  0  0
  7 25  1  0  0  0
  7 26  1  0  0  0
 26 28  2  0  0  0
 26 27  1  0  0  0
 25 36  1  0  0  0
 36 35  4  0  0  0
 36 32  4  0  0  0
 32 33  4  0  0  0
 32 31  4  0  0  0
 31  6  4  0  0  0
 31 30  4  0  0  0
 30 29  4  0  0  0
 29 34  4  0  0  0
 34 33  4  0  0  0
  6 35  4  0  0  0
 18 17  1  0  0  0
 17  9  1  0  0  0
  9 16  1  0  0  0
  9 21  1  0  0  0
 21 22  4  0  0  0
 21 20  4  0  0  0
 20 10  4  0  0  0
 10  8  4  0  0  0
  8 23  4  0  0  0
 23 22  4  0  0  0
 16 19  1  0  0  0
  2 37  1  0  0  0
  3 38  1  0  0  0
  5 39  1  0  0  0
  7 40  1  0  0  0
  8 41  1  0  0  0
  9 42  1  0  0  0
 10 43  1  0  0  0
 14 44  1  0  0  0
 16 45  1  0  0  0
 16 46  1  0  0  0
 17 47  1  0  0  0
 17 48  1  0  0  0
 18 49  1  0  0  0
 18 50  1  0  0  0
 19 51  1  0  0  0
 19 52  1  0  0  0
 20 53  1  0  0  0
 22 54  1  0  0  0
 23 55  1  0  0  0
 24 56  1  0  0  0
 25 57  1  0  0  0
 25 58  1  0  0  0
 27 59  1  0  0  0
 29 60  1  0  0  0
 30 61  1  0  0  0
 33 62  1  0  0  0
 34 63  1  0  0  0
 35 64  1  0  0  0
M  END
$$$$
