4w7t_ligand
  -I-interpret- 

 34 36  0  0  0  0  0  0  0  0999 V2000
   -3.0030   -9.8140  -26.3390 C   0  0  0  0  0
   -1.7220   -9.7660  -25.8430 C   0  0  0  0  0
   -1.4770  -10.3460  -24.6220 C   0  0  0  0  0
   -0.8430   -8.7110  -27.7230 O   0  0  0  0  0
    4.2450  -10.9180  -23.3770 C   0  0  0  0  0
    4.8040   -9.6690  -23.2450 C   0  0  0  0  0
    4.1110   -8.5670  -23.6870 C   0  0  0  0  0
    2.8680   -8.7180  -24.2580 C   0  0  0  0  0
   -3.3730   -9.2140  -27.6520 C   0  0  0  0  0
   -3.9890  -10.4070  -25.6660 N   0  0  0  0  0
   -2.4510  -10.9370  -23.9300 N   0  0  0  0  0
   -4.6930  -11.5590  -23.7750 N   0  0  0  0  0
   -3.6670  -10.9410  -24.4850 C   0  0  0  0  0
   -0.6460   -9.1090  -26.5860 C   0  0  0  0  0
    0.6550   -8.9290  -25.8670 C   0  0  0  0  0
    0.9570  -10.1430  -25.0290 C   0  0  0  0  0
    2.3050   -9.9670  -24.3940 C   0  0  0  0  0
   -0.1220  -10.3420  -23.9920 C   0  0  0  0  0
    3.0040  -11.0640  -23.9490 C   0  0  0  0  0
    4.7881  -11.7957  -23.0267 H   0  0  0  0  0
    5.7892   -9.5533  -22.7933 H   0  0  0  0  0
    4.5464   -7.5729  -23.5851 H   0  0  0  0  0
    2.3238   -7.8400  -24.6060 H   0  0  0  0  0
   -3.1622   -8.1447  -27.6337 H   0  0  0  0  0
   -2.7910   -9.6869  -28.4430 H   0  0  0  0  0
   -4.4355   -9.3730  -27.8362 H   0  0  0  0  0
   -5.6361  -11.5877  -24.1626 H   0  0  0  0  0
   -4.5015  -11.9831  -22.8673 H   0  0  0  0  0
    0.5870   -8.0554  -25.2187 H   0  0  0  0  0
    1.4515   -8.7928  -26.5985 H   0  0  0  0  0
    0.9760  -11.0362  -25.6535 H   0  0  0  0  0
    0.0379  -11.3020  -23.5011 H   0  0  0  0  0
   -0.0726   -9.5228  -23.2747 H   0  0  0  0  0
    2.5699  -12.0586  -24.0508 H   0  0  0  0  0
  2  1  4  0  0  0
  1  9  1  0  0  0
  1 10  4  0  0  0
  2  3  4  0  0  0
 14  2  1  0  0  0
  3 11  4  0  0  0
  3 18  1  0  0  0
 14  4  2  0  0  0
  6  5  4  0  0  0
  5 19  4  0  0  0
  7  6  4  0  0  0
  8  7  4  0  0  0
 17  8  4  0  0  0
 10 13  4  0  0  0
 11 13  4  0  0  0
 13 12  1  0  0  0
 15 14  1  0  0  0
 16 15  1  0  0  0
 16 17  1  0  0  0
 16 18  1  0  0  0
 17 19  4  0  0  0
  5 20  1  0  0  0
  6 21  1  0  0  0
  7 22  1  0  0  0
  8 23  1  0  0  0
  9 24  1  0  0  0
  9 25  1  0  0  0
  9 26  1  0  0  0
 12 27  1  0  0  0
 12 28  1  0  0  0
 15 29  1  0  0  0
 15 30  1  0  0  0
 16 31  1  0  0  0
 18 32  1  0  0  0
 18 33  1  0  0  0
 19 34  1  0  0  0
M  END
$$$$
