4d2t_ligand
  -I-interpret- 

 45 47  0  0  0  0  0  0  0  0999 V2000
   -0.2340    2.7800  -11.3690 N   0  3  0  0  0
   -0.8290    1.6010  -10.6890 C   0  0  0  0  0
   -0.3870    0.2900  -11.3330 C   0  0  0  0  0
   -0.7620   -0.9550  -10.5300 C   0  0  0  0  0
    0.3750   -1.8240  -10.4100 O   0  0  0  0  0
    1.2180   -1.6960   -9.3070 C   0  0  0  0  0
    1.5770   -0.4470   -8.8330 C   0  0  0  0  0
    2.4170   -0.3000   -7.7360 C   0  0  0  0  0
    2.8760   -1.4500   -7.1010 C   0  0  0  0  0
    2.5290   -2.7040   -7.5640 C   0  0  0  0  0
    1.6940   -2.8520   -8.6720 C   0  0  0  0  0
    1.3750   -4.2640   -9.0750 C   0  0  0  0  0
    2.0790   -5.1970   -8.6980 O   0  0  0  0  0
    0.2800   -4.4550   -9.8530 N   0  0  0  0  0
   -0.1280   -5.6640  -10.4650 C   0  0  0  0  0
    0.7850   -6.6100  -10.9160 C   0  0  0  0  0
    0.3400   -7.7750  -11.5100 C   0  0  0  0  0
   -1.0080   -8.0030  -11.6660 C   0  0  0  0  0
   -1.9230   -7.0710  -11.2270 C   0  0  0  0  0
   -1.4880   -5.9030  -10.6270 C   0  0  0  0  0
    2.7550    1.0400   -7.2190 C   0  0  0  0  0
    3.2170    1.3520   -5.9640 C   0  0  0  0  0
    3.3990    2.6580   -5.8200 N   0  0  0  0  0
    3.0380    3.1910   -7.0070 N   0  0  0  0  0
    2.6380    2.2510   -7.8700 C   0  0  0  0  0
   -0.5533    3.6329  -10.9097 H   0  0  0  0  0
    0.7831    2.7242  -11.3159 H   0  0  0  0  0
   -0.5246    2.7896  -12.3467 H   0  0  0  0  0
   -1.9138    1.6721  -10.7681 H   0  0  0  0  0
   -0.4965    1.6012   -9.6509 H   0  0  0  0  0
    0.7005    0.3145  -11.4022 H   0  0  0  0  0
   -0.8914    0.2171  -12.2965 H   0  0  0  0  0
   -1.5648   -1.4842  -11.0435 H   0  0  0  0  0
   -1.0897   -0.6543   -9.5349 H   0  0  0  0  0
    1.1920    0.4425   -9.3317 H   0  0  0  0  0
    3.5188   -1.3597   -6.2254 H   0  0  0  0  0
    2.9124   -3.5896   -7.0573 H   0  0  0  0  0
   -0.3123   -3.6403  -10.0139 H   0  0  0  0  0
    1.8542   -6.4322  -10.8007 H   0  0  0  0  0
    1.0596   -8.5167  -11.8566 H   0  0  0  0  0
   -1.3528   -8.9230  -12.1380 H   0  0  0  0  0
   -2.9901   -7.2542  -11.3526 H   0  0  0  0  0
   -2.2139   -5.1676  -10.2801 H   0  0  0  0  0
    3.4103    0.6171   -5.1826 H   0  0  0  0  0
    2.2876    2.4105   -8.8897 H   0  0  0  0  0
  1  2  1  0  0  0
  2  3  1  0  0  0
  3  4  1  0  0  0
  4  5  1  0  0  0
  5  6  1  0  0  0
  6  7  4  0  0  0
  6 11  4  0  0  0
  7  8  4  0  0  0
  8  9  4  0  0  0
  8 21  1  0  0  0
  9 10  4  0  0  0
 10 11  4  0  0  0
 11 12  1  0  0  0
 12 13  2  0  0  0
 12 14  1  0  0  0
 14 15  1  0  0  0
 15 16  4  0  0  0
 15 20  4  0  0  0
 16 17  4  0  0  0
 17 18  4  0  0  0
 18 19  4  0  0  0
 19 20  4  0  0  0
 21 22  4  0  0  0
 21 25  4  0  0  0
 22 23  4  0  0  0
 23 24  4  0  0  0
 24 25  4  0  0  0
  1 26  1  0  0  0
  1 27  1  0  0  0
  1 28  1  0  0  0
  2 29  1  0  0  0
  2 30  1  0  0  0
  3 31  1  0  0  0
  3 32  1  0  0  0
  4 33  1  0  0  0
  4 34  1  0  0  0
  7 35  1  0  0  0
  9 36  1  0  0  0
 10 37  1  0  0  0
 14 38  1  0  0  0
 16 39  1  0  0  0
 17 40  1  0  0  0
 18 41  1  0  0  0
 19 42  1  0  0  0
 20 43  1  0  0  0
 22 44  1  0  0  0
 25 45  1  0  0  0
M  END
$$$$
