4tqn_ligand
  -I-interpret- 

 41 42  0  0  0  0  0  0  0  0999 V2000
  -16.6230   -6.8180   -6.9040 O   0  0  0  0  0
  -17.5950   -6.0830   -6.8620 C   0  0  0  0  0
  -18.6470   -6.3370   -7.6310 O   0  0  0  0  0
  -17.6030   -4.8850   -5.9630 C   0  0  0  0  0
  -18.6340   -3.9560   -6.0530 C   0  0  0  0  0
  -18.6250   -2.8510   -5.2100 C   0  0  0  0  0
  -17.6000   -2.6620   -4.2880 C   0  0  0  0  0
  -16.5710   -4.7050   -5.0490 C   0  0  0  0  0
  -16.5760   -3.5960   -4.2130 C   0  0  0  0  0
  -15.4530   -3.4440   -3.2360 C   0  0  0  0  0
  -14.7610   -4.4200   -3.0430 O   0  0  0  0  0
  -15.2500   -2.2650   -2.6360 N   0  0  0  0  0
  -14.2300   -2.0600   -1.7600 C   0  0  0  0  0
  -13.2020   -1.1730   -2.0470 C   0  0  0  0  0
  -12.1790   -0.9700   -1.1220 C   0  0  0  0  0
  -11.0700   -0.0400   -1.4450 C   0  0  0  0  0
  -10.2060    0.1490   -0.6010 O   0  0  0  0  0
  -11.0310    0.5880   -2.8030 C   0  0  0  0  0
  -12.1690   -1.6320    0.0980 C   0  0  0  0  0
  -13.2100   -2.5120    0.3840 C   0  0  0  0  0
  -14.2260   -2.7060   -0.5380 C   0  0  0  0  0
  -15.2420   -3.5700   -0.2660 O   0  0  0  0  0
  -15.1580   -4.4610    0.8430 C   0  0  0  0  0
  -16.4070   -5.3070    0.7980 C   0  0  0  0  0
  -19.3209   -5.6702   -7.4799 H   0  0  0  0  0
  -19.4388   -4.0927   -6.7753 H   0  0  0  0  0
  -19.4327   -2.1217   -5.2720 H   0  0  0  0  0
  -17.6013   -1.7910   -3.6326 H   0  0  0  0  0
  -15.7608   -5.4317   -4.9887 H   0  0  0  0  0
  -15.8830   -1.4925   -2.8431 H   0  0  0  0  0
  -13.1945   -0.6353   -2.9951 H   0  0  0  0  0
  -11.0361    1.6731   -2.7004 H   0  0  0  0  0
  -10.1243    0.2750   -3.3207 H   0  0  0  0  0
  -11.9043    0.2716   -3.3734 H   0  0  0  0  0
  -11.3652   -1.4670    0.8155 H   0  0  0  0  0
  -13.2255   -3.0480    1.3330 H   0  0  0  0  0
  -15.0876   -3.9135    1.7829 H   0  0  0  0  0
  -14.2621   -5.0790    0.7839 H   0  0  0  0  0
  -17.2832   -4.6634    0.8766 H   0  0  0  0  0
  -16.4398   -5.8543   -0.1441 H   0  0  0  0  0
  -16.3968   -6.0121    1.6291 H   0  0  0  0  0
  1  2  2  0  0  0
  2  3  1  0  0  0
  2  4  1  0  0  0
  4  5  4  0  0  0
  4  8  4  0  0  0
  5  6  4  0  0  0
  6  7  4  0  0  0
  7  9  4  0  0  0
  8  9  4  0  0  0
  9 10  1  0  0  0
 10 11  2  0  0  0
 10 12  1  0  0  0
 12 13  1  0  0  0
 13 14  4  0  0  0
 13 21  4  0  0  0
 14 15  4  0  0  0
 15 16  1  0  0  0
 15 19  4  0  0  0
 16 17  2  0  0  0
 16 18  1  0  0  0
 19 20  4  0  0  0
 20 21  4  0  0  0
 21 22  1  0  0  0
 22 23  1  0  0  0
 23 24  1  0  0  0
  3 25  1  0  0  0
  5 26  1  0  0  0
  6 27  1  0  0  0
  7 28  1  0  0  0
  8 29  1  0  0  0
 12 30  1  0  0  0
 14 31  1  0  0  0
 18 32  1  0  0  0
 18 33  1  0  0  0
 18 34  1  0  0  0
 19 35  1  0  0  0
 20 36  1  0  0  0
 23 37  1  0  0  0
 23 38  1  0  0  0
 24 39  1  0  0  0
 24 40  1  0  0  0
 24 41  1  0  0  0
M  END
$$$$
