1e55_ligand
  -I-interpret- 

 39 40  0  0  0  0  0  0  0  0999 V2000
   28.6480    2.5650   28.3710 C   0  0  0  0  0
   27.2640    2.6920   27.6890 C   0  0  0  0  0
   26.6360    1.3540   27.2770 C   0  0  0  0  0
   27.6620    0.4020   26.6740 C   0  0  0  0  0
   28.8360    0.2800   27.6270 C   0  0  0  0  0
   29.8860   -0.6930   27.1320 C   0  0  0  0  0
   29.8680    4.2880   27.6670 O   0  0  0  0  0
   26.3670    3.3300   28.5890 O   0  0  0  0  0
   25.5920    1.5870   26.3390 O   0  0  0  0  0
   27.0690   -0.8630   26.4820 O   0  0  0  0  0
   29.4760    1.5600   27.7490 O   0  0  0  0  0
   29.3720   -1.5230   26.1010 O   0  0  0  0  0
   30.7560    5.7550   30.2570 N   0  0  0  0  0
   31.0770    4.9880   29.4290 C   0  0  0  0  0
   32.8530    4.1350   27.8930 C   0  0  0  0  0
   33.3070    3.3310   26.8350 C   0  0  0  0  0
   33.7270    4.9990   28.5930 C   0  0  0  0  0
   35.0780    5.0510   28.2180 C   0  0  0  0  0
   34.6720    3.3930   26.4630 C   0  0  0  0  0
   35.5590    4.2530   27.1580 C   0  0  0  0  0
   36.8870    4.3210   26.8030 O   0  0  0  0  0
   31.3380    4.0250   28.2930 C   0  0  0  0  0
   28.4443    2.4222   29.4322 H   0  0  0  0  0
   27.4297    3.2648   26.7765 H   0  0  0  0  0
   26.2374    0.8840   28.1761 H   0  0  0  0  0
   28.0081    0.7837   25.7135 H   0  0  0  0  0
   28.4379   -0.0791   28.5760 H   0  0  0  0  0
   30.1954   -1.3243   27.9650 H   0  0  0  0  0
   30.7268   -0.1247   26.7343 H   0  0  0  0  0
   26.7364    4.1724   28.8637 H   0  0  0  0  0
   24.9475    2.1868   26.7217 H   0  0  0  0  0
   26.3272   -0.7791   25.8784 H   0  0  0  0  0
   30.0571   -2.1279   25.8072 H   0  0  0  0  0
   32.6194    2.6694   26.3082 H   0  0  0  0  0
   33.3564    5.6155   29.4119 H   0  0  0  0  0
   35.7615    5.7130   28.7496 H   0  0  0  0  0
   35.0409    2.7789   25.6415 H   0  0  0  0  0
   37.0525    3.7222   26.0711 H   0  0  0  0  0
   31.4810    2.9530   28.1572 H   0  0  0  0  0
  1  2  1  0  0  0
  1 11  1  0  0  0
  2  3  1  0  0  0
  2  8  1  0  0  0
  3  4  1  0  0  0
  3  9  1  0  0  0
  5  4  1  0  0  0
  4 10  1  0  0  0
  5  6  1  0  0  0
 11  5  1  0  0  0
  6 12  1  0  0  0
  7 22  1  0  0  0
 14 13  3  0  0  0
 22 14  1  0  0  0
 15 16  4  0  0  0
 15 17  4  0  0  0
 22 15  1  0  0  0
 16 19  4  0  0  0
 17 18  4  0  0  0
 18 20  4  0  0  0
 19 20  4  0  0  0
 20 21  1  0  0  0
  7  1  1  0  0  0
  1 23  1  0  0  0
  2 24  1  0  0  0
  3 25  1  0  0  0
  4 26  1  0  0  0
  5 27  1  0  0  0
  6 28  1  0  0  0
  6 29  1  0  0  0
  8 30  1  0  0  0
  9 31  1  0  0  0
 10 32  1  0  0  0
 12 33  1  0  0  0
 16 34  1  0  0  0
 17 35  1  0  0  0
 18 36  1  0  0  0
 19 37  1  0  0  0
 21 38  1  0  0  0
 22 39  1  0  0  0
M  END
$$$$
