1gym_ligand
  -I-interpret- 

 47 48  0  0  0  0  0  0  0  0999 V2000
   20.4290   26.7150  102.5950 C   0  0  0  0  0
   20.1660   28.2550  102.7730 C   0  0  0  0  0
   21.5110   28.9830  103.0620 C   0  0  0  0  0
   22.5160   28.6770  101.9330 C   0  0  0  0  0
   22.8180   27.1660  101.9440 C   0  0  0  0  0
   21.5410   26.3840  101.5720 C   0  0  0  0  0
   22.0200   24.3300  100.4230 C   0  0  0  0  0
   21.0080   23.1530  100.3160 C   0  0  0  0  0
   21.4950   21.9460  101.1790 C   0  0  0  0  0
   22.8820   21.5390  100.6840 C   0  0  0  0  0
   23.8470   22.7000  100.9730 C   0  0  0  0  0
   25.2970   22.4020  100.4690 C   0  0  0  0  0
   19.6650   23.6200  100.7570 N   0  3  0  0  0
   19.2480   26.0810  102.2030 O   0  0  0  0  0
   19.5620   28.7880  101.6150 O   0  0  0  0  0
   21.3050   30.4000  103.2310 O   0  0  0  0  0
   23.7330   29.3690  102.1830 O   0  0  0  0  0
   23.8800   26.8750  101.0440 O   0  0  0  0  0
   21.8140   24.9840  101.6680 O   0  0  0  0  0
   20.6040   20.8210  101.0780 O   0  0  0  0  0
   23.3210   20.3570  101.3410 O   0  0  0  0  0
   23.3960   23.8700  100.2470 O   0  0  0  0  0
   26.1150   21.6710  101.5470 O   0  0  0  0  0
   20.7725   26.3511  103.5634 H   0  0  0  0  0
   19.4885   28.4053  103.6136 H   0  0  0  0  0
   21.9269   28.6124  103.9989 H   0  0  0  0  0
   22.0973   28.9863  100.9754 H   0  0  0  0  0
   23.1317   26.8610  102.9423 H   0  0  0  0  0
   21.2291   26.6530  100.5628 H   0  0  0  0  0
   21.8488   25.0456   99.6188 H   0  0  0  0  0
   20.9402   22.8177   99.2811 H   0  0  0  0  0
   21.5208   22.2504  102.2253 H   0  0  0  0  0
   22.8504   21.3300   99.6147 H   0  0  0  0  0
   23.8596   22.8478  102.0529 H   0  0  0  0  0
   25.7883   23.3471  100.2378 H   0  0  0  0  0
   25.2367   21.7672   99.5850 H   0  0  0  0  0
   18.9992   22.8504  100.6880 H   0  0  0  0  0
   19.7181   23.9395  101.7242 H   0  0  0  0  0
   19.3608   24.3890  100.1599 H   0  0  0  0  0
   18.5533   26.2825  102.8342 H   0  0  0  0  0
   18.7344   28.3311  101.4479 H   0  0  0  0  0
   20.6754   30.5483  103.9403 H   0  0  0  0  0
   23.5683   30.3148  102.1807 H   0  0  0  0  0
   24.6596   27.3739  101.2987 H   0  0  0  0  0
   20.9358   20.1017  101.6203 H   0  0  0  0  0
   24.1925   20.1173  101.0176 H   0  0  0  0  0
   26.9992   21.4996  101.2148 H   0  0  0  0  0
  1  2  1  0  0  0
  6  1  1  0  0  0
  1 14  1  0  0  0
  2  3  1  0  0  0
  2 15  1  0  0  0
  4  3  1  0  0  0
  3 16  1  0  0  0
  5  4  1  0  0  0
  4 17  1  0  0  0
  6  5  1  0  0  0
  5 18  1  0  0  0
 19  6  1  0  0  0
  7  8  1  0  0  0
 19  7  1  0  0  0
  7 22  1  0  0  0
  8  9  1  0  0  0
  8 13  1  0  0  0
  9 10  1  0  0  0
  9 20  1  0  0  0
 10 11  1  0  0  0
 10 21  1  0  0  0
 11 12  1  0  0  0
 11 22  1  0  0  0
 12 23  1  0  0  0
  1 24  1  0  0  0
  2 25  1  0  0  0
  3 26  1  0  0  0
  4 27  1  0  0  0
  5 28  1  0  0  0
  6 29  1  0  0  0
  7 30  1  0  0  0
  8 31  1  0  0  0
  9 32  1  0  0  0
 10 33  1  0  0  0
 11 34  1  0  0  0
 12 35  1  0  0  0
 12 36  1  0  0  0
 13 37  1  0  0  0
 13 38  1  0  0  0
 13 39  1  0  0  0
 14 40  1  0  0  0
 15 41  1  0  0  0
 16 42  1  0  0  0
 17 43  1  0  0  0
 18 44  1  0  0  0
 20 45  1  0  0  0
 21 46  1  0  0  0
 23 47  1  0  0  0
M  END
$$$$
