5wg8_ligand
  -I-interpret- 

 25 26  0  0  0  0  0  0  0  0999 V2000
    4.5070   -1.9320   -9.9620 C   0  0  0  0  0
    2.8930   -0.3520  -11.1600 C   0  0  0  0  0
    3.9470   -0.5080  -10.0910 C   0  0  0  0  0
    5.2080    0.2990  -10.4760 C   0  0  0  0  0
    5.9990   -1.6910  -10.2260 C   0  0  0  0  0
    6.1410    0.4880   -9.2750 C   0  0  0  0  0
    6.6500   -0.9470   -9.0560 C   0  0  0  0  0
    3.9890   -2.9630  -10.9420 C   0  0  0  0  0
    5.9680   -0.6670  -11.2490 O   0  0  0  0  0
    3.2080   -0.7620  -12.2830 O   0  0  0  0  0
    4.6710   -3.2480  -11.9310 O   0  0  0  0  0
    4.2244   -2.3612   -9.0007 H   0  0  0  0  0
    2.7095    0.7177  -11.2607 H   0  0  0  0  0
    2.0376   -0.9476  -10.8412 H   0  0  0  0  0
    3.4428   -0.1922   -9.1777 H   0  0  0  0  0
    4.9247    1.2515  -10.9239 H   0  0  0  0  0
    6.5141   -2.6289  -10.4336 H   0  0  0  0  0
    5.6482    0.9150   -8.4016 H   0  0  0  0  0
    6.9368    1.2122   -9.4494 H   0  0  0  0  0
    7.7372   -1.0246   -9.0434 H   0  0  0  0  0
    6.3868   -1.3567   -8.0808 H   0  0  0  0  0
    3.0753   -2.5288  -11.3480 H   0  0  0  0  0
    3.9276   -3.8879  -10.3686 H   0  0  0  0  0
    2.4782   -0.6205  -12.8904 H   0  0  0  0  0
    4.2138   -3.9111  -12.4533 H   0  0  0  0  0
  1  3  1  0  0  0
  1  5  1  0  0  0
  1  8  1  0  0  0
  3  2  1  0  0  0
  2 10  1  0  0  0
  3  4  1  0  0  0
  4  6  1  0  0  0
  4  9  1  0  0  0
  5  7  1  0  0  0
  5  9  1  0  0  0
  6  7  1  0  0  0
  8 11  1  0  0  0
  1 12  1  0  0  0
  2 13  1  0  0  0
  2 14  1  0  0  0
  3 15  1  0  0  0
  4 16  1  0  0  0
  5 17  1  0  0  0
  6 18  1  0  0  0
  6 19  1  0  0  0
  7 20  1  0  0  0
  7 21  1  0  0  0
  8 22  1  0  0  0
  8 23  1  0  0  0
 10 24  1  0  0  0
 11 25  1  0  0  0
M  END
$$$$
