4x8o_ligand
  -I-interpret- 

 86 91  0  0  0  0  0  0  0  0999 V2000
  -18.7680   13.6850  -33.5920 P   0  0  0  0  0
  -17.4400   13.6230  -32.9040 O   0  0  0  0  0
  -19.6640   14.6560  -32.8870 O   0  0  0  0  0
  -18.6030   14.0720  -35.1050 O   0  0  0  0  0
  -18.2660   15.5500  -35.6940 P   0  0  0  0  0
  -17.4230   15.3670  -36.9470 O   0  0  0  0  0
  -17.5180   16.3750  -34.6700 O   0  0  0  0  0
  -19.6100   16.2360  -36.0480 O   0  0  0  0  0
  -19.8050   17.8210  -36.2100 P   0  0  0  0  0
  -18.4750   18.4750  -36.6270 O   0  0  0  0  0
  -20.2800   18.4160  -34.8680 O   0  0  0  0  0
  -20.8950   18.0480  -37.3960 O   0  0  0  0  0
  -22.2250   18.9490  -37.2750 P   0  0  0  0  0
  -23.3620   18.0590  -36.8900 O   0  0  0  0  0
  -22.5040   19.5830  -38.6270 O   0  0  0  0  0
  -22.0600   20.0310  -36.1570 O   0  0  0  0  0
  -21.3000   21.4220  -36.2420 P   0  0  0  0  0
  -19.9280   21.2600  -36.8590 O   0  0  0  0  0
  -21.1570   21.9730  -34.8380 O   0  0  0  0  0
  -19.4300   12.2110  -33.6000 O   0  0  0  0  0
  -20.7450   12.0490  -34.1020 C   0  0  0  0  0
  -21.4820   10.9800  -33.2530 C   0  0  0  0  0
  -21.0160    9.8080  -33.5200 O   0  0  0  0  0
  -21.2180   11.2210  -31.7600 C   0  0  0  0  0
  -22.3360   10.9430  -31.0250 O   0  0  0  0  0
  -20.0610   10.2600  -31.4050 C   0  0  0  0  0
  -20.1790    9.8060  -29.9960 O   0  0  0  0  0
  -20.1730    9.2810  -32.2300 C   0  0  0  0  0
  -18.9080    8.8280  -32.6840 N   0  0  0  0  0
  -17.7780    9.5640  -32.8350 C   0  0  0  0  0
  -16.8010    8.7420  -33.2990 N   0  0  0  0  0
  -17.3310    7.4910  -33.4400 C   0  0  0  0  0
  -16.7870    6.2990  -33.8690 C   0  0  0  0  0
  -15.4250    5.9650  -34.3270 N   0  0  0  0  0
  -17.5550    5.1800  -33.9130 N   0  0  0  0  0
  -18.8650    5.2260  -33.5360 C   0  0  0  0  0
  -19.4050    6.3990  -33.1130 N   0  0  0  0  0
  -18.6280    7.5410  -33.0660 C   0  0  0  0  0
  -22.1620   22.4500  -37.0960 O   0  0  0  0  0
  -23.4150   22.8580  -36.5540 C   0  0  0  0  0
  -23.8050   24.2660  -37.1510 C   0  0  0  0  0
  -23.0130   25.1890  -36.6990 O   0  0  0  0  0
  -23.5920   24.2640  -38.6710 C   0  0  0  0  0
  -24.6920   23.8130  -39.2900 O   0  0  0  0  0
  -23.3490   25.7540  -38.9590 C   0  0  0  0  0
  -24.6830   26.4620  -39.0520 O   0  0  0  0  0
  -22.6980   26.2010  -37.9230 C   0  0  0  0  0
  -21.3050   26.2200  -38.1100 N   0  0  0  0  0
  -20.3890   25.5940  -37.3550 C   0  0  0  0  0
  -19.1500   25.8700  -37.8650 N   0  0  0  0  0
  -19.3160   26.6750  -38.9460 C   0  0  0  0  0
  -18.4040   27.2440  -39.8140 C   0  0  0  0  0
  -16.9770   27.2470  -39.9790 N   0  0  0  0  0
  -18.8360   28.0280  -40.8340 N   0  0  0  0  0
  -20.1660   28.2540  -40.9960 C   0  0  0  0  0
  -21.0690   27.6920  -40.1320 N   0  0  0  0  0
  -20.6430   26.9020  -39.1070 C   0  0  0  0  0
  -20.5127   14.6895  -33.3344 H   0  0  0  0  0
  -17.9110   14.8423  -37.5858 H   0  0  0  0  0
  -21.1092   18.0051  -34.6127 H   0  0  0  0  0
  -21.7707   20.1533  -38.8691 H   0  0  0  0  0
  -22.0271   22.0761  -34.4458 H   0  0  0  0  0
  -20.7040   11.7275  -35.1427 H   0  0  0  0  0
  -21.2798   12.9970  -34.0440 H   0  0  0  0  0
  -22.5454   11.0465  -33.4830 H   0  0  0  0  0
  -20.9630   12.2584  -31.5436 H   0  0  0  0  0
  -22.1534   11.0988  -30.0955 H   0  0  0  0  0
  -19.0838   10.7358  -31.4874 H   0  0  0  0  0
  -19.4543    9.2107  -29.7910 H   0  0  0  0  0
  -20.6709    8.4546  -31.7227 H   0  0  0  0  0
  -17.6727   10.6277  -32.6215 H   0  0  0  0  0
  -14.7063    6.6880  -34.3597 H   0  0  0  0  0
  -15.2020    5.0110  -34.6110 H   0  0  0  0  0
  -19.4768    4.3247  -33.5739 H   0  0  0  0  0
  -23.3384   22.9292  -35.4690 H   0  0  0  0  0
  -24.1808   22.1265  -36.8120 H   0  0  0  0  0
  -24.8427   24.4556  -36.8764 H   0  0  0  0  0
  -22.7813   23.6223  -39.0161 H   0  0  0  0  0
  -24.5477   23.8160  -40.2391 H   0  0  0  0  0
  -22.8038   25.9140  -39.8892 H   0  0  0  0  0
  -24.5376   27.3937  -39.2319 H   0  0  0  0  0
  -23.0168   27.2267  -37.7378 H   0  0  0  0  0
  -20.5967   24.9720  -36.4843 H   0  0  0  0  0
  -16.3880   26.7188  -39.3352 H   0  0  0  0  0
  -16.5527   27.7773  -40.7400 H   0  0  0  0  0
  -20.5152   28.8834  -41.8146 H   0  0  0  0  0
  1  2  2  0  0  0
  1  3  1  0  0  0
  1  4  1  0  0  0
  1 20  1  0  0  0
  4  5  1  0  0  0
  5  6  1  0  0  0
  5  7  2  0  0  0
  5  8  1  0  0  0
  8  9  1  0  0  0
  9 10  2  0  0  0
  9 11  1  0  0  0
  9 12  1  0  0  0
 12 13  1  0  0  0
 13 14  2  0  0  0
 13 15  1  0  0  0
 13 16  1  0  0  0
 16 17  1  0  0  0
 17 18  2  0  0  0
 17 19  1  0  0  0
 17 39  1  0  0  0
 20 21  1  0  0  0
 21 22  1  0  0  0
 22 23  1  0  0  0
 22 24  1  0  0  0
 23 28  1  0  0  0
 24 25  1  0  0  0
 24 26  1  0  0  0
 26 27  1  0  0  0
 26 28  1  0  0  0
 28 29  1  0  0  0
 29 30  4  0  0  0
 29 38  4  0  0  0
 30 31  4  0  0  0
 31 32  4  0  0  0
 32 33  4  0  0  0
 32 38  4  0  0  0
 33 34  1  0  0  0
 33 35  4  0  0  0
 35 36  4  0  0  0
 36 37  4  0  0  0
 37 38  4  0  0  0
 39 40  1  0  0  0
 40 41  1  0  0  0
 41 42  1  0  0  0
 41 43  1  0  0  0
 42 47  1  0  0  0
 43 44  1  0  0  0
 43 45  1  0  0  0
 45 46  1  0  0  0
 45 47  1  0  0  0
 47 48  1  0  0  0
 48 49  4  0  0  0
 48 57  4  0  0  0
 49 50  4  0  0  0
 50 51  4  0  0  0
 51 52  4  0  0  0
 51 57  4  0  0  0
 52 53  1  0  0  0
 52 54  4  0  0  0
 54 55  4  0  0  0
 55 56  4  0  0  0
 56 57  4  0  0  0
  3 58  1  0  0  0
  6 59  1  0  0  0
 11 60  1  0  0  0
 15 61  1  0  0  0
 19 62  1  0  0  0
 21 63  1  0  0  0
 21 64  1  0  0  0
 22 65  1  0  0  0
 24 66  1  0  0  0
 25 67  1  0  0  0
 26 68  1  0  0  0
 27 69  1  0  0  0
 28 70  1  0  0  0
 30 71  1  0  0  0
 34 72  1  0  0  0
 34 73  1  0  0  0
 36 74  1  0  0  0
 40 75  1  0  0  0
 40 76  1  0  0  0
 41 77  1  0  0  0
 43 78  1  0  0  0
 44 79  1  0  0  0
 45 80  1  0  0  0
 46 81  1  0  0  0
 47 82  1  0  0  0
 49 83  1  0  0  0
 53 84  1  0  0  0
 53 85  1  0  0  0
 55 86  1  0  0  0
M  END
$$$$
