### 
### Created by X-TOOL on Mon Sep 10 21:12:51 2018
### 

@<TRIPOS>MOLECULE
1t08_ligand
  216   218     1     0     0
SMALL
GAST_HUCK


@<TRIPOS>ATOM
      1 N          40.5030   21.4910   54.2940 N.4       1 ASP         0.2391
      2 CA         39.2300   21.5250   53.5170 C.3       1 ASP         0.0764
      3 C          38.9850   22.9260   52.9520 C.2       1 ASP         0.2284
      4 O          38.1470   23.6750   53.4570 O.2       1 ASP        -0.3906
      5 CB         38.0540   21.1160   54.4180 C.3       1 ASP         0.0607
      6 CG         36.7490   20.9270   53.6420 C.2       1 ASP         0.0425
      7 OD1        36.3530   21.8350   52.8750 O.co2     1 ASP        -0.5686
      8 OD2        36.1100   19.8670   53.8070 O.co2     1 ASP        -0.5686
      9 N          39.7230   23.2820   51.9060 N.am      1 ALA        -0.2612
     10 CA         39.5610   24.5920   51.2830 C.3       1 ALA         0.1283
     11 C          38.3490   24.5570   50.3590 C.2       1 ALA         0.2037
     12 O          37.8210   23.4830   50.0640 O.2       1 ALA        -0.3944
     13 CB         40.8120   24.9560   50.4940 C.3       1 ALA        -0.0244
     14 N          37.9060   25.7260   49.9070 N.am      1 ASP        -0.2622
     15 CA         36.7590   25.8000   49.0080 C.3       1 ASP         0.1423
     16 C          37.1600   25.2760   47.6310 C.2       1 ASP         0.2057
     17 O          38.2780   25.5140   47.1720 O.2       1 ASP        -0.3943
     18 CB         36.2610   27.2410   48.8930 C.3       1 ASP         0.0406
     19 CG         35.9070   27.8480   50.2420 C.2       1 ASP         0.0393
     20 OD1        35.6110   27.0910   51.1940 O.co2     1 ASP        -0.5688
     21 OD2        35.9090   29.0910   50.3420 O.co2     1 ASP        -0.5688
     22 N          36.2460   24.5710   46.9720 N.am      1 THR        -0.2612
     23 CA         36.5290   23.9950   45.6610 C.3       1 THR         0.1565
     24 C          35.7180   24.5790   44.4990 C.2       1 THR         0.2065
     25 O          34.6200   25.1090   44.6830 O.2       1 THR        -0.3943
     26 CB         36.3160   22.4640   45.6820 C.3       1 THR         0.0924
     27 OG1        34.9630   22.1710   46.0560 O.3       1 THR        -0.3874
     28 CG2        37.2600   21.8120   46.6780 C.3       1 THR        -0.0346
     29 N          36.2800   24.4590   43.2990 N.am      1 LEU        -0.2636
     30 CA         35.6590   24.9550   42.0730 C.3       1 LEU         0.1312
     31 C          35.0140   23.8460   41.2480 C.2       1 LEU         0.2039
     32 O          35.4810   22.7050   41.2440 O.2       1 LEU        -0.3944
     33 CB         36.7050   25.6490   41.1930 C.3       1 LEU        -0.0101
     34 CG         37.2250   27.0280   41.5870 C.3       1 LEU        -0.0425
     35 CD1        38.3710   27.4300   40.6640 C.3       1 LEU        -0.0625
     36 CD2        36.0860   28.0340   41.5030 C.3       1 LEU        -0.0625
     37 N          33.9350   24.1940   40.5520 N.am      1 LEU        -0.2637
     38 CA         33.2410   23.2620   39.6740 C.3       1 LEU         0.1312
     39 C          33.4980   23.8020   38.2700 C.2       1 LEU         0.2040
     40 O          33.2340   24.9720   37.9870 O.2       1 LEU        -0.3944
     41 CB         31.7370   23.2350   39.9760 C.3       1 LEU        -0.0101
     42 CG         31.3180   22.6360   41.3240 C.3       1 LEU        -0.0425
     43 CD1        29.8380   22.8940   41.5690 C.3       1 LEU        -0.0625
     44 CD2        31.6260   21.1370   41.3400 C.3       1 LEU        -0.0625
     45 N          34.0270   22.9520   37.3980 N.am      1 HIS        -0.2625
     46 CA         34.3530   23.3550   36.0350 C.3       1 HIS         0.1369
     47 C          33.2730   22.9840   35.0340 C.2       1 HIS         0.2055
     48 O          32.9790   21.8080   34.8150 O.2       1 HIS        -0.3942
     49 CB         35.6910   22.7350   35.6380 C.3       1 HIS         0.0145
     50 CG         36.7770   23.0010   36.6310 C.2       1 HIS        -0.0027
     51 ND1        37.2610   24.2680   36.8780 N.2       1 HIS        -0.3252
     52 CD2        37.4250   22.1760   37.4870 C.2       1 HIS         0.0291
     53 CE1        38.1600   24.2130   37.8450 C.2       1 HIS         0.0907
     54 NE2        38.2780   22.9550   38.2320 N.pl3     1 HIS        -0.2752
     55 N          32.6810   24.0080   34.4310 N.am      1 PHE        -0.2618
     56 CA         31.6230   23.8180   33.4530 C.3       1 PHE         0.1404
     57 C          32.0620   24.3370   32.0940 C.2       1 PHE         0.2059
     58 O          32.8520   25.2770   31.9990 O.2       1 PHE        -0.3942
     59 CB         30.3650   24.5540   33.9090 C.3       1 PHE         0.0214
     60 CG         29.8140   24.0550   35.2140 C.ar      1 PHE        -0.0386
     61 CD1        29.0120   22.9170   35.2570 C.ar      1 PHE        -0.0601
     62 CD2        30.1100   24.7120   36.4050 C.ar      1 PHE        -0.0601
     63 CE1        28.5100   22.4410   36.4690 C.ar      1 PHE        -0.0686
     64 CE2        29.6150   24.2460   37.6200 C.ar      1 PHE        -0.0686
     65 CZ         28.8130   23.1060   37.6520 C.ar      1 PHE        -0.0687
     66 N          31.5510   23.7080   31.0430 N.am      1 ALA        -0.2639
     67 CA         31.8770   24.1060   29.6820 C.3       1 ALA         0.1282
     68 C          30.7170   23.7670   28.7600 C.2       1 ALA         0.2037
     69 O          30.7670   22.7930   28.0100 O.2       1 ALA        -0.3944
     70 CB         33.1510   23.4040   29.2140 C.3       1 ALA        -0.0244
     71 N          29.6640   24.5730   28.8350 N.am      1 THR        -0.2613
     72 CA         28.4810   24.3890   28.0000 C.3       1 THR         0.1565
     73 C          28.6060   25.3390   26.8040 C.2       1 THR         0.2065
     74 O          28.3500   26.5360   26.9340 O.2       1 THR        -0.3943
     75 CB         27.1950   24.7280   28.7940 C.3       1 THR         0.0924
     76 OG1        27.1970   24.0130   30.0370 O.3       1 THR        -0.3874
     77 CG2        25.9540   24.3490   27.9990 C.3       1 THR        -0.0346
     78 N          29.0170   24.8100   25.6500 N.am      1 GLU        -0.2635
     79 CA         29.1810   25.6260   24.4430 C.3       1 GLU         0.1325
     80 C          27.8920   25.7160   23.6300 C.2       1 GLU         0.2041
     81 O          27.7060   26.6410   22.8330 O.2       1 GLU        -0.3944
     82 CB         30.3070   25.0720   23.5600 C.3       1 GLU        -0.0008
     83 CG         30.4860   25.8320   22.2450 C.3       1 GLU         0.0044
     84 CD         31.6700   25.3440   21.4210 C.2       1 GLU         0.0350
     85 OE1        31.8640   24.1130   21.3100 O.co2     1 GLU        -0.5690
     86 OE2        32.4000   26.1940   20.8690 O.co2     1 GLU        -0.5690
     87 N          27.0060   24.7470   23.8280 N.am      1 SER        -0.2616
     88 CA         25.7330   24.7380   23.1260 C.3       1 SER         0.1539
     89 C          24.6160   24.5350   24.1390 C.2       1 SER         0.2063
     90 O          24.1300   25.4940   24.7420 O.2       1 SER        -0.3943
     91 CB         25.7050   23.6210   22.0820 C.3       1 SER         0.0843
     92 OG         25.9570   22.3630   22.6770 O.3       1 SER        -0.3903
     93 N          24.2230   23.2800   24.3300 N.am      1 THR        -0.2613
     94 CA         23.1660   22.9380   25.2700 C.3       1 THR         0.1567
     95 C          23.5400   21.6710   26.0300 C.2       1 THR         0.2090
     96 O          23.7420   20.6140   25.4290 O.2       1 THR        -0.3941
     97 CB         21.8300   22.6980   24.5410 C.3       1 THR         0.0924
     98 OG1        21.4710   23.8730   23.8020 O.3       1 THR        -0.3874
     99 CG2        20.7270   22.3750   25.5410 C.3       1 THR        -0.0346
    100 N          23.6300   21.7590   27.3680 N.am      1 PRO        -0.2498
    101 CA         23.9870   20.5850   28.1690 C.3       1 PRO         0.1337
    102 C          23.0050   19.4420   27.9340 C.2       1 PRO         0.2036
    103 O          21.7930   19.6570   27.8450 O.2       1 PRO        -0.3944
    104 CB         23.9450   21.1170   29.6010 C.3       1 PRO        -0.0104
    105 CG         22.8700   22.1560   29.5340 C.3       1 PRO        -0.0281
    106 CD         23.1840   22.8670   28.2330 C.3       1 PRO         0.0369
    107 N          23.5340   18.2290   27.8240 N.am      1 ASP        -0.2679
    108 CA         22.6940   17.0650   27.5890 C.3       1 ASP         0.1057
    109 C          23.5350   15.7970   27.7130 C.2       1 ASP         0.0618
    110 O          24.7730   15.9260   27.8370 O.co2     1 ASP        -0.5665
    111 CB         22.0740   17.1610   26.1900 C.3       1 ASP         0.0351
    112 CG         20.9010   16.2220   26.0040 C.2       1 ASP         0.0387
    113 OD1        19.9280   16.3260   26.7820 O.co2     1 ASP        -0.5688
    114 OD2        20.9470   15.3850   25.0770 O.co2     1 ASP        -0.5688
    115 OXT        22.9520   14.6910   27.6860 O.co2     1 ASP        -0.5665
    116 H1         40.6493   20.5627   54.6587 H         1 ASP         0.2016
    117 H2         40.4484   22.1471   55.0573 H         1 ASP         0.2016
    118 H3         41.2714   21.7401   53.6911 H         1 ASP         0.2016
    119 H4         39.3049   20.8129   52.6820 H         1 ASP         0.1117
    120 H5         37.9022   21.8997   55.1748 H         1 ASP         0.0512
    121 H6         38.3065   20.1686   54.9167 H         1 ASP         0.0512
    122 H7         40.3995   22.6429   51.5401 H         1 ALA         0.1884
    123 H8         39.3984   25.3478   52.0655 H         1 ALA         0.0797
    124 H9         40.6780   25.9441   50.0297 H         1 ALA         0.0277
    125 H10        40.9835   24.2030   49.7107 H         1 ALA         0.0277
    126 H11        41.6779   24.9838   51.1718 H         1 ALA         0.0277
    127 H12        38.3662   26.5683   50.1876 H         1 ASP         0.1884
    128 H13        35.9484   25.1742   49.4094 H         1 ASP         0.0819
    129 H14        35.3650   27.2541   48.2550 H         1 ASP         0.0478
    130 H15        37.0505   27.8504   48.4290 H         1 ASP         0.0478
    131 H16        35.3451   24.4322   47.3832 H         1 THR         0.1884
    132 H17        37.5904   24.1915   45.4493 H         1 THR         0.0826
    133 H18        36.5128   22.0591   44.6783 H         1 THR         0.0639
    134 H19        34.8357   21.2296   46.0679 H         1 THR         0.2101
    135 H20        37.0959   20.7243   46.6808 H         1 THR         0.0257
    136 H21        37.0673   22.2144   47.6834 H         1 THR         0.0257
    137 H22        38.3003   22.0251   46.3909 H         1 THR         0.0257
    138 H23        37.1700   24.0078   43.2330 H         1 LEU         0.1883
    139 H24        34.8824   25.6824   42.3518 H         1 LEU         0.0800
    140 H25        36.2639   25.7483   40.1902 H         1 LEU         0.0315
    141 H26        37.5771   24.9803   41.1454 H         1 LEU         0.0315
    142 H27        37.5965   26.9929   42.6218 H         1 LEU         0.0298
    143 H28        38.7422   28.4246   40.9522 H         1 LEU         0.0232
    144 H29        38.0117   27.4597   39.6248 H         1 LEU         0.0232
    145 H30        39.1855   26.6957   40.7495 H         1 LEU         0.0232
    146 H31        35.2727   27.7240   42.1756 H         1 LEU         0.0232
    147 H32        35.7108   28.0777   40.4699 H         1 LEU         0.0232
    148 H33        36.4512   29.0273   41.8028 H         1 LEU         0.0232
    149 H34        33.5883   25.1283   40.6346 H         1 LEU         0.1883
    150 H35        33.6531   22.2479   39.7822 H         1 LEU         0.0800
    151 H36        31.2480   22.6488   39.1840 H         1 LEU         0.0315
    152 H37        31.3714   24.2720   39.9436 H         1 LEU         0.0315
    153 H38        31.8957   23.1219   42.1241 H         1 LEU         0.0298
    154 H39        29.5458   22.4615   42.5373 H         1 LEU         0.0232
    155 H40        29.2469   22.4289   40.7663 H         1 LEU         0.0232
    156 H41        29.6517   23.9780   41.5806 H         1 LEU         0.0232
    157 H42        32.7001   20.9815   41.1607 H         1 LEU         0.0232
    158 H43        31.0462   20.6351   40.5514 H         1 LEU         0.0232
    159 H44        31.3532   20.7170   42.3194 H         1 LEU         0.0232
    160 H45        34.2066   22.0106   37.6834 H         1 HIS         0.1885
    161 H46        34.4593   24.4498   36.0210 H         1 HIS         0.0817
    162 H47        35.9953   23.1510   34.6662 H         1 HIS         0.0420
    163 H48        35.5593   21.6468   35.5460 H         1 HIS         0.0420
    164 H49        37.2949   21.0980   37.5697 H         1 HIS         0.0729
    165 H50        38.7097   25.0598   38.2532 H         1 HIS         0.1199
    166 H51        38.9074   22.6134   38.9723 H         1 HIS         0.2361
    167 H52        32.9718   24.9378   34.6565 H         1 PHE         0.1885
    168 H53        31.4008   22.7439   33.3701 H         1 PHE         0.0823
    169 H54        29.5918   24.4321   33.1362 H         1 PHE         0.0474
    170 H55        30.6077   25.6211   34.0198 H         1 PHE         0.0474
    171 H56        28.7748   22.3945   34.3374 H         1 PHE         0.0557
    172 H57        30.7341   25.5981   36.3862 H         1 PHE         0.0557
    173 H58        27.8855   21.5552   36.4882 H         1 PHE         0.0599
    174 H59        29.8527   24.7686   38.5395 H         1 PHE         0.0599
    175 H60        28.4269   22.7392   38.5962 H         1 PHE         0.0559
    176 H61        30.9262   22.9412   31.1902 H         1 ALA         0.1883
    177 H62        32.0439   25.1930   29.6592 H         1 ALA         0.0797
    178 H63        33.3839   23.7148   28.1848 H         1 ALA         0.0277
    179 H64        33.0012   22.3146   29.2430 H         1 ALA         0.0277
    180 H65        33.9850   23.6773   29.8771 H         1 ALA         0.0277
    181 H66        29.6823   25.3320   29.4859 H         1 THR         0.1884
    182 H67        28.4308   23.3474   27.6500 H         1 THR         0.0826
    183 H68        27.1745   25.8089   28.9969 H         1 THR         0.0639
    184 H69        27.9590   24.2656   30.5451 H         1 THR         0.2101
    185 H70        25.0550   24.5985   28.5817 H         1 THR         0.0257
    186 H71        25.9677   23.2690   27.7905 H         1 THR         0.0257
    187 H72        25.9421   24.9056   27.0503 H         1 THR         0.0257
    188 H73        29.2184   23.8314   25.6073 H         1 GLU         0.1883
    189 H74        29.4571   26.6429   24.7587 H         1 GLU         0.0801
    190 H75        30.0801   24.0214   23.3260 H         1 GLU         0.0330
    191 H76        31.2498   25.1267   24.1240 H         1 GLU         0.0330
    192 H77        30.6369   26.8969   22.4754 H         1 GLU         0.0433
    193 H78        29.5713   25.7125   21.6458 H         1 GLU         0.0433
    194 H79        27.2180   24.0110   24.4709 H         1 SER         0.1884
    195 H80        25.5925   25.7041   22.6191 H         1 SER         0.0823
    196 H81        26.4750   23.8199   21.3220 H         1 SER         0.0606
    197 H82        24.7146   23.6005   21.6039 H         1 SER         0.0606
    198 H83        26.8133   22.3743   23.0883 H         1 SER         0.2097
    199 H84        24.6669   22.5486   23.8123 H         1 THR         0.1884
    200 H85        23.0426   23.7670   25.9825 H         1 THR         0.0826
    201 H86        21.9458   21.8526   23.8468 H         1 THR         0.0639
    202 H87        20.6472   23.7239   23.3529 H         1 THR         0.2101
    203 H88        19.7822   22.2070   25.0032 H         1 THR         0.0257
    204 H89        20.6069   23.2166   26.2390 H         1 THR         0.0257
    205 H90        20.9954   21.4681   26.1027 H         1 THR         0.0257
    206 H91        25.0006   20.2379   27.9198 H         1 PRO         0.0802
    207 H92        24.9094   21.5619   29.8874 H         1 PRO         0.0313
    208 H93        23.6829   20.3203   30.3127 H         1 PRO         0.0313
    209 H94        22.9296   22.8458   30.3887 H         1 PRO         0.0287
    210 H95        21.8720   21.6945   29.5042 H         1 PRO         0.0287
    211 H96        22.2898   23.3581   27.8218 H         1 PRO         0.0524
    212 H97        23.9818   23.6120   28.3689 H         1 PRO         0.0524
    213 H98        24.5242   18.1141   27.9039 H         1 ASP         0.1876
    214 H99        21.8898   17.0387   28.3390 H         1 ASP         0.0745
    215 H100       22.8449   16.9124   25.4458 H         1 ASP         0.0471
    216 H101       21.7277   18.1925   26.0287 H         1 ASP         0.0471
@<TRIPOS>BOND
     1    1    2 1  
     2    2    3 1  
     3    2    5 1  
     4    3    4 2  
     5    3    9 am 
     6    5    6 1  
     7    6    7 ar 
     8    6    8 ar 
     9    9   10 1  
    10   10   11 1  
    11   10   13 1  
    12   11   12 2  
    13   11   14 am 
    14   14   15 1  
    15   15   16 1  
    16   15   18 1  
    17   16   17 2  
    18   16   22 am 
    19   18   19 1  
    20   19   20 ar 
    21   19   21 ar 
    22   22   23 1  
    23   23   24 1  
    24   23   26 1  
    25   24   25 2  
    26   24   29 am 
    27   26   27 1  
    28   26   28 1  
    29   29   30 1  
    30   30   31 1  
    31   30   33 1  
    32   31   32 2  
    33   31   37 am 
    34   33   34 1  
    35   34   35 1  
    36   34   36 1  
    37   37   38 1  
    38   38   39 1  
    39   38   41 1  
    40   39   40 2  
    41   39   45 am 
    42   41   42 1  
    43   42   43 1  
    44   42   44 1  
    45   45   46 1  
    46   46   47 1  
    47   46   49 1  
    48   47   48 2  
    49   47   55 am 
    50   49   50 1  
    51   50   51 1  
    52   50   52 2  
    53   51   53 2  
    54   52   54 1  
    55   53   54 1  
    56   55   56 1  
    57   56   57 1  
    58   56   59 1  
    59   57   58 2  
    60   57   66 am 
    61   59   60 1  
    62   60   61 ar 
    63   60   62 ar 
    64   61   63 ar 
    65   62   64 ar 
    66   63   65 ar 
    67   64   65 ar 
    68   66   67 1  
    69   67   68 1  
    70   67   70 1  
    71   68   69 2  
    72   68   71 am 
    73   71   72 1  
    74   72   73 1  
    75   72   75 1  
    76   73   74 2  
    77   73   78 am 
    78   75   76 1  
    79   75   77 1  
    80   78   79 1  
    81   79   80 1  
    82   79   82 1  
    83   80   81 2  
    84   80   87 am 
    85   82   83 1  
    86   83   84 1  
    87   84   85 ar 
    88   84   86 ar 
    89   87   88 1  
    90   88   89 1  
    91   88   91 1  
    92   89   90 2  
    93   89   93 am 
    94   91   92 1  
    95   93   94 1  
    96   94   95 1  
    97   94   97 1  
    98   95   96 2  
    99   95  100 am 
   100   97   98 1  
   101   97   99 1  
   102  100  101 1  
   103  100  106 1  
   104  101  102 1  
   105  101  104 1  
   106  102  103 2  
   107  102  107 am 
   108  104  105 1  
   109  105  106 1  
   110  107  108 1  
   111  108  109 1  
   112  108  111 1  
   113  109  110 ar 
   114  109  115 ar 
   115  111  112 1  
   116  112  113 ar 
   117  112  114 ar 
   118    1  116 1  
   119    1  117 1  
   120    1  118 1  
   121    2  119 1  
   122    5  120 1  
   123    5  121 1  
   124    9  122 1  
   125   10  123 1  
   126   13  124 1  
   127   13  125 1  
   128   13  126 1  
   129   14  127 1  
   130   15  128 1  
   131   18  129 1  
   132   18  130 1  
   133   22  131 1  
   134   23  132 1  
   135   26  133 1  
   136   27  134 1  
   137   28  135 1  
   138   28  136 1  
   139   28  137 1  
   140   29  138 1  
   141   30  139 1  
   142   33  140 1  
   143   33  141 1  
   144   34  142 1  
   145   35  143 1  
   146   35  144 1  
   147   35  145 1  
   148   36  146 1  
   149   36  147 1  
   150   36  148 1  
   151   37  149 1  
   152   38  150 1  
   153   41  151 1  
   154   41  152 1  
   155   42  153 1  
   156   43  154 1  
   157   43  155 1  
   158   43  156 1  
   159   44  157 1  
   160   44  158 1  
   161   44  159 1  
   162   45  160 1  
   163   46  161 1  
   164   49  162 1  
   165   49  163 1  
   166   52  164 1  
   167   53  165 1  
   168   54  166 1  
   169   55  167 1  
   170   56  168 1  
   171   59  169 1  
   172   59  170 1  
   173   61  171 1  
   174   62  172 1  
   175   63  173 1  
   176   64  174 1  
   177   65  175 1  
   178   66  176 1  
   179   67  177 1  
   180   70  178 1  
   181   70  179 1  
   182   70  180 1  
   183   71  181 1  
   184   72  182 1  
   185   75  183 1  
   186   76  184 1  
   187   77  185 1  
   188   77  186 1  
   189   77  187 1  
   190   78  188 1  
   191   79  189 1  
   192   82  190 1  
   193   82  191 1  
   194   83  192 1  
   195   83  193 1  
   196   87  194 1  
   197   88  195 1  
   198   91  196 1  
   199   91  197 1  
   200   92  198 1  
   201   93  199 1  
   202   94  200 1  
   203   97  201 1  
   204   98  202 1  
   205   99  203 1  
   206   99  204 1  
   207   99  205 1  
   208  101  206 1  
   209  104  207 1  
   210  104  208 1  
   211  105  209 1  
   212  105  210 1  
   213  106  211 1  
   214  106  212 1  
   215  107  213 1  
   216  108  214 1  
   217  111  215 1  
   218  111  216 1  
@<TRIPOS>SUBSTRUCTURE
     1 ASP         1

