1t08_ligand
  -I-interpret- 

220222  0  0  0  0  0  0  0  0999 V2000
   40.5030   21.4910   54.2940 N   0  3  0  0  0
   39.2300   21.5250   53.5170 C   0  0  0  0  0
   38.9850   22.9260   52.9520 C   0  0  0  0  0
   38.1470   23.6750   53.4570 O   0  0  0  0  0
   38.0540   21.1160   54.4180 C   0  0  0  0  0
   36.7490   20.9270   53.6420 C   0  0  0  0  0
   36.3530   21.8350   52.8750 O   0  0  0  0  0
   36.1100   19.8670   53.8070 O   0  0  0  0  0
   39.7230   23.2820   51.9060 N   0  0  0  0  0
   39.5610   24.5920   51.2830 C   0  0  0  0  0
   38.3490   24.5570   50.3590 C   0  0  0  0  0
   37.8210   23.4830   50.0640 O   0  0  0  0  0
   40.8120   24.9560   50.4940 C   0  0  0  0  0
   37.9060   25.7260   49.9070 N   0  0  0  0  0
   36.7590   25.8000   49.0080 C   0  0  0  0  0
   37.1600   25.2760   47.6310 C   0  0  0  0  0
   38.2780   25.5140   47.1720 O   0  0  0  0  0
   36.2610   27.2410   48.8930 C   0  0  0  0  0
   35.9070   27.8480   50.2420 C   0  0  0  0  0
   35.6110   27.0910   51.1940 O   0  0  0  0  0
   35.9090   29.0910   50.3420 O   0  0  0  0  0
   36.2460   24.5710   46.9720 N   0  0  0  0  0
   36.5290   23.9950   45.6610 C   0  0  0  0  0
   35.7180   24.5790   44.4990 C   0  0  0  0  0
   34.6200   25.1090   44.6830 O   0  0  0  0  0
   36.3160   22.4640   45.6820 C   0  0  0  0  0
   34.9630   22.1710   46.0560 O   0  0  0  0  0
   37.2600   21.8120   46.6780 C   0  0  0  0  0
   36.2800   24.4590   43.2990 N   0  0  0  0  0
   35.6590   24.9550   42.0730 C   0  0  0  0  0
   35.0140   23.8460   41.2480 C   0  0  0  0  0
   35.4810   22.7050   41.2440 O   0  0  0  0  0
   36.7050   25.6490   41.1930 C   0  0  0  0  0
   37.2250   27.0280   41.5870 C   0  0  0  0  0
   38.3710   27.4300   40.6640 C   0  0  0  0  0
   36.0860   28.0340   41.5030 C   0  0  0  0  0
   33.9350   24.1940   40.5520 N   0  0  0  0  0
   33.2410   23.2620   39.6740 C   0  0  0  0  0
   33.4980   23.8020   38.2700 C   0  0  0  0  0
   33.2340   24.9720   37.9870 O   0  0  0  0  0
   31.7370   23.2350   39.9760 C   0  0  0  0  0
   31.3180   22.6360   41.3240 C   0  0  0  0  0
   29.8380   22.8940   41.5690 C   0  0  0  0  0
   31.6260   21.1370   41.3400 C   0  0  0  0  0
   34.0270   22.9520   37.3980 N   0  0  0  0  0
   34.3530   23.3550   36.0350 C   0  0  0  0  0
   33.2730   22.9840   35.0340 C   0  0  0  0  0
   32.9790   21.8080   34.8150 O   0  0  0  0  0
   35.6910   22.7350   35.6380 C   0  0  0  0  0
   36.7770   23.0010   36.6310 C   0  0  0  0  0
   37.2610   24.2680   36.8780 N   0  0  0  0  0
   37.4250   22.1760   37.4870 C   0  0  0  0  0
   38.1600   24.2130   37.8450 C   0  0  0  0  0
   38.2780   22.9550   38.2320 N   0  0  0  0  0
   32.6810   24.0080   34.4310 N   0  0  0  0  0
   31.6230   23.8180   33.4530 C   0  0  0  0  0
   32.0620   24.3370   32.0940 C   0  0  0  0  0
   32.8520   25.2770   31.9990 O   0  0  0  0  0
   30.3650   24.5540   33.9090 C   0  0  0  0  0
   29.8140   24.0550   35.2140 C   0  0  0  0  0
   29.0120   22.9170   35.2570 C   0  0  0  0  0
   30.1100   24.7120   36.4050 C   0  0  0  0  0
   28.5100   22.4410   36.4690 C   0  0  0  0  0
   29.6150   24.2460   37.6200 C   0  0  0  0  0
   28.8130   23.1060   37.6520 C   0  0  0  0  0
   31.5510   23.7080   31.0430 N   0  0  0  0  0
   31.8770   24.1060   29.6820 C   0  0  0  0  0
   30.7170   23.7670   28.7600 C   0  0  0  0  0
   30.7670   22.7930   28.0100 O   0  0  0  0  0
   33.1510   23.4040   29.2140 C   0  0  0  0  0
   29.6640   24.5730   28.8350 N   0  0  0  0  0
   28.4810   24.3890   28.0000 C   0  0  0  0  0
   28.6060   25.3390   26.8040 C   0  0  0  0  0
   28.3500   26.5360   26.9340 O   0  0  0  0  0
   27.1950   24.7280   28.7940 C   0  0  0  0  0
   27.1970   24.0130   30.0370 O   0  0  0  0  0
   25.9540   24.3490   27.9990 C   0  0  0  0  0
   29.0170   24.8100   25.6500 N   0  0  0  0  0
   29.1810   25.6260   24.4430 C   0  0  0  0  0
   27.8920   25.7160   23.6300 C   0  0  0  0  0
   27.7060   26.6410   22.8330 O   0  0  0  0  0
   30.3070   25.0720   23.5600 C   0  0  0  0  0
   30.4860   25.8320   22.2450 C   0  0  0  0  0
   31.6700   25.3440   21.4210 C   0  0  0  0  0
   31.8640   24.1130   21.3100 O   0  0  0  0  0
   32.4000   26.1940   20.8690 O   0  0  0  0  0
   27.0060   24.7470   23.8280 N   0  0  0  0  0
   25.7330   24.7380   23.1260 C   0  0  0  0  0
   24.6160   24.5350   24.1390 C   0  0  0  0  0
   24.1300   25.4940   24.7420 O   0  0  0  0  0
   25.7050   23.6210   22.0820 C   0  0  0  0  0
   25.9570   22.3630   22.6770 O   0  0  0  0  0
   24.2230   23.2800   24.3300 N   0  0  0  0  0
   23.1660   22.9380   25.2700 C   0  0  0  0  0
   23.5400   21.6710   26.0300 C   0  0  0  0  0
   23.7420   20.6140   25.4290 O   0  0  0  0  0
   21.8300   22.6980   24.5410 C   0  0  0  0  0
   21.4710   23.8730   23.8020 O   0  0  0  0  0
   20.7270   22.3750   25.5410 C   0  0  0  0  0
   23.6300   21.7590   27.3680 N   0  0  0  0  0
   23.9870   20.5850   28.1690 C   0  0  0  0  0
   23.0050   19.4420   27.9340 C   0  0  0  0  0
   21.7930   19.6570   27.8450 O   0  0  0  0  0
   23.9450   21.1170   29.6010 C   0  0  0  0  0
   22.8700   22.1560   29.5340 C   0  0  0  0  0
   23.1840   22.8670   28.2330 C   0  0  0  0  0
   23.5340   18.2290   27.8240 N   0  0  0  0  0
   22.6940   17.0650   27.5890 C   0  0  0  0  0
   23.5350   15.7970   27.7130 C   0  0  0  0  0
   24.7730   15.9260   27.8370 O   0  0  0  0  0
   22.0740   17.1610   26.1900 C   0  0  0  0  0
   20.9010   16.2220   26.0040 C   0  0  0  0  0
   19.9280   16.3260   26.7820 O   0  0  0  0  0
   20.9470   15.3850   25.0770 O   0  0  0  0  0
   22.9520   14.6910   27.6860 O   0  0  0  0  0
   41.2770   21.7637   53.6883 H   0  0  0  0  0
   40.4386   22.1399   55.0783 H   0  0  0  0  0
   40.6607   20.5463   54.6448 H   0  0  0  0  0
   39.3108   20.8214   52.6884 H   0  0  0  0  0
   37.8975   21.9134   55.1444 H   0  0  0  0  0
   38.3062   20.1632   54.8834 H   0  0  0  0  0
   36.9814   22.5606   52.8887 H   0  0  0  0  0
   40.4130   22.6301   51.5328 H   0  0  0  0  0
   39.4090   25.3464   52.0549 H   0  0  0  0  0
   41.6692   24.9832   51.1667 H   0  0  0  0  0
   40.9809   24.2092   49.7182 H   0  0  0  0  0
   40.6780   25.9353   50.0344 H   0  0  0  0  0
   38.3754   26.5851   50.1932 H   0  0  0  0  0
   35.9522   25.1878   49.4108 H   0  0  0  0  0
   35.3592   27.2360   48.2808 H   0  0  0  0  0
   37.0615   27.8383   48.4565 H   0  0  0  0  0
   35.6720   26.1773   50.9057 H   0  0  0  0  0
   35.3271   24.4294   47.3914 H   0  0  0  0  0
   37.5711   24.2549   45.4751 H   0  0  0  0  0
   36.5194   22.0703   44.6861 H   0  0  0  0  0
   34.8344   21.2197   46.0680 H   0  0  0  0  0
   38.2904   22.0240   46.3925 H   0  0  0  0  0
   37.0680   22.2116   47.6738 H   0  0  0  0  0
   37.0965   20.7343   46.6798 H   0  0  0  0  0
   37.1878   23.9987   43.2317 H   0  0  0  0  0
   34.8817   25.6521   42.3862 H   0  0  0  0  0
   36.2025   25.8058   40.2385 H   0  0  0  0  0
   37.5797   25.0003   41.2403 H   0  0  0  0  0
   37.6013   27.0051   42.6097 H   0  0  0  0  0
   39.1774   26.7016   40.7496 H   0  0  0  0  0
   38.0137   27.4590   39.6346 H   0  0  0  0  0
   38.7379   28.4156   40.9505 H   0  0  0  0  0
   35.7038   28.0639   40.4826 H   0  0  0  0  0
   35.2880   27.7350   42.1826 H   0  0  0  0  0
   36.4533   29.0211   41.7838 H   0  0  0  0  0
   33.5813   25.1470   40.6362 H   0  0  0  0  0
   33.5928   22.2381   39.8002 H   0  0  0  0  0
   31.2880   22.6003   39.2120 H   0  0  0  0  0
   31.4154   24.2763   39.9963 H   0  0  0  0  0
   31.8823   23.1114   42.1262 H   0  0  0  0  0
   29.6548   23.9684   41.5802 H   0  0  0  0  0
   29.2534   22.4327   40.7730 H   0  0  0  0  0
   29.5497   22.4650   42.5286 H   0  0  0  0  0
   31.0747   20.6455   40.5384 H   0  0  0  0  0
   32.6954   20.9855   41.1932 H   0  0  0  0  0
   31.3265   20.7161   42.2998 H   0  0  0  0  0
   34.2102   21.9918   37.6891 H   0  0  0  0  0
   34.4218   24.4427   36.0167 H   0  0  0  0  0
   35.9934   23.1781   34.6891 H   0  0  0  0  0
   35.5520   21.6555   35.5797 H   0  0  0  0  0
   37.2947   21.0970   37.5698 H   0  0  0  0  0
   38.7102   25.0606   38.2536 H   0  0  0  0  0
   32.9776   24.9564   34.6610 H   0  0  0  0  0
   31.4074   22.7530   33.3668 H   0  0  0  0  0
   29.5999   24.3937   33.1493 H   0  0  0  0  0
   30.6321   25.6017   34.0470 H   0  0  0  0  0
   28.7735   22.3916   34.3323 H   0  0  0  0  0
   30.7376   25.6030   36.3861 H   0  0  0  0  0
   27.8820   21.5503   36.4883 H   0  0  0  0  0
   29.8540   24.7715   38.5446 H   0  0  0  0  0
   28.4247   22.7372   38.6014 H   0  0  0  0  0
   30.9137   22.9259   31.1931 H   0  0  0  0  0
   32.0497   25.1819   29.6566 H   0  0  0  0  0
   33.9766   23.6756   29.8719 H   0  0  0  0  0
   33.0013   22.3247   29.2433 H   0  0  0  0  0
   33.3807   23.7127   28.1942 H   0  0  0  0  0
   29.6827   25.3471   29.4989 H   0  0  0  0  0
   28.4146   23.3514   27.6728 H   0  0  0  0  0
   27.1771   25.8017   28.9809 H   0  0  0  0  0
   26.3994   24.2243   30.5277 H   0  0  0  0  0
   25.9435   24.9011   27.0592 H   0  0  0  0  0
   25.9689   23.2787   27.7930 H   0  0  0  0  0
   25.0639   24.5967   28.5774 H   0  0  0  0  0
   29.2224   23.8119   25.6064 H   0  0  0  0  0
   29.4412   26.6307   24.7762 H   0  0  0  0  0
   30.0491   24.0430   23.3097 H   0  0  0  0  0
   31.2372   25.1658   24.1203 H   0  0  0  0  0
   30.6664   26.8782   22.4920 H   0  0  0  0  0
   29.5856   25.6768   21.6505 H   0  0  0  0  0
   31.1948   23.6385   21.8086 H   0  0  0  0  0
   27.2222   23.9962   24.4837 H   0  0  0  0  0
   25.5965   25.6882   22.6098 H   0  0  0  0  0
   26.4786   23.8174   21.3396 H   0  0  0  0  0
   24.7173   23.5980   21.6216 H   0  0  0  0  0
   25.9339   21.6807   22.0021 H   0  0  0  0  0
   24.6758   22.5340   23.8019 H   0  0  0  0  0
   23.0497   23.7740   25.9597 H   0  0  0  0  0
   21.9487   21.8538   23.8618 H   0  0  0  0  0
   20.6385   23.7224   23.3482 H   0  0  0  0  0
   20.9941   21.4763   26.0969 H   0  0  0  0  0
   20.6090   23.2096   26.2321 H   0  0  0  0  0
   19.7914   22.2088   25.0070 H   0  0  0  0  0
   24.9589   20.1603   27.9179 H   0  0  0  0  0
   24.9027   21.5166   29.9346 H   0  0  0  0  0
   23.7404   20.3401   30.3376 H   0  0  0  0  0
   22.8659   22.8233   30.3959 H   0  0  0  0  0
   21.8653   21.7341   29.5591 H   0  0  0  0  0
   22.3323   23.4121   27.8262 H   0  0  0  0  0
   23.9319   23.6522   28.3434 H   0  0  0  0  0
   24.5440   18.1118   27.9055 H   0  0  0  0  0
   21.8942   17.0294   28.3287 H   0  0  0  0  0
   24.9984   16.8591   27.8323 H   0  0  0  0  0
   22.8403   16.8864   25.4651 H   0  0  0  0  0
   21.7114   18.1799   26.0542 H   0  0  0  0  0
   20.0993   17.0272   27.4149 H   0  0  0  0  0
  1  2  1  0  0  0
  2  3  1  0  0  0
  2  5  1  0  0  0
  3  4  2  0  0  0
  3  9  1  0  0  0
  5  6  1  0  0  0
  6  7  1  0  0  0
  6  8  2  0  0  0
  9 10  1  0  0  0
 10 11  1  0  0  0
 10 13  1  0  0  0
 11 12  2  0  0  0
 11 14  1  0  0  0
 14 15  1  0  0  0
 15 16  1  0  0  0
 15 18  1  0  0  0
 16 17  2  0  0  0
 16 22  1  0  0  0
 18 19  1  0  0  0
 19 20  1  0  0  0
 19 21  2  0  0  0
 22 23  1  0  0  0
 23 24  1  0  0  0
 23 26  1  0  0  0
 24 25  2  0  0  0
 24 29  1  0  0  0
 26 27  1  0  0  0
 26 28  1  0  0  0
 29 30  1  0  0  0
 30 31  1  0  0  0
 30 33  1  0  0  0
 31 32  2  0  0  0
 31 37  1  0  0  0
 33 34  1  0  0  0
 34 35  1  0  0  0
 34 36  1  0  0  0
 37 38  1  0  0  0
 38 39  1  0  0  0
 38 41  1  0  0  0
 39 40  2  0  0  0
 39 45  1  0  0  0
 41 42  1  0  0  0
 42 43  1  0  0  0
 42 44  1  0  0  0
 45 46  1  0  0  0
 46 47  1  0  0  0
 46 49  1  0  0  0
 47 48  2  0  0  0
 47 55  1  0  0  0
 49 50  1  0  0  0
 50 51  4  0  0  0
 50 52  4  0  0  0
 51 53  4  0  0  0
 52 54  4  0  0  0
 53 54  4  0  0  0
 55 56  1  0  0  0
 56 57  1  0  0  0
 56 59  1  0  0  0
 57 58  2  0  0  0
 57 66  1  0  0  0
 59 60  1  0  0  0
 60 61  4  0  0  0
 60 62  4  0  0  0
 61 63  4  0  0  0
 62 64  4  0  0  0
 63 65  4  0  0  0
 64 65  4  0  0  0
 66 67  1  0  0  0
 67 68  1  0  0  0
 67 70  1  0  0  0
 68 69  2  0  0  0
 68 71  1  0  0  0
 71 72  1  0  0  0
 72 73  1  0  0  0
 72 75  1  0  0  0
 73 74  2  0  0  0
 73 78  1  0  0  0
 75 76  1  0  0  0
 75 77  1  0  0  0
 78 79  1  0  0  0
 79 80  1  0  0  0
 79 82  1  0  0  0
 80 81  2  0  0  0
 80 87  1  0  0  0
 82 83  1  0  0  0
 83 84  1  0  0  0
 84 85  1  0  0  0
 84 86  2  0  0  0
 87 88  1  0  0  0
 88 89  1  0  0  0
 88 91  1  0  0  0
 89 90  2  0  0  0
 89 93  1  0  0  0
 91 92  1  0  0  0
 93 94  1  0  0  0
 94 95  1  0  0  0
 94 97  1  0  0  0
 95 96  2  0  0  0
 95100  1  0  0  0
 97 98  1  0  0  0
 97 99  1  0  0  0
100101  1  0  0  0
100106  1  0  0  0
101102  1  0  0  0
101104  1  0  0  0
102103  2  0  0  0
102107  1  0  0  0
104105  1  0  0  0
105106  1  0  0  0
107108  1  0  0  0
108109  1  0  0  0
108111  1  0  0  0
109110  1  0  0  0
109115  2  0  0  0
111112  1  0  0  0
112113  1  0  0  0
112114  2  0  0  0
  1116  1  0  0  0
  1117  1  0  0  0
  1118  1  0  0  0
  2119  1  0  0  0
  5120  1  0  0  0
  5121  1  0  0  0
  7122  1  0  0  0
  9123  1  0  0  0
 10124  1  0  0  0
 13125  1  0  0  0
 13126  1  0  0  0
 13127  1  0  0  0
 14128  1  0  0  0
 15129  1  0  0  0
 18130  1  0  0  0
 18131  1  0  0  0
 20132  1  0  0  0
 22133  1  0  0  0
 23134  1  0  0  0
 26135  1  0  0  0
 27136  1  0  0  0
 28137  1  0  0  0
 28138  1  0  0  0
 28139  1  0  0  0
 29140  1  0  0  0
 30141  1  0  0  0
 33142  1  0  0  0
 33143  1  0  0  0
 34144  1  0  0  0
 35145  1  0  0  0
 35146  1  0  0  0
 35147  1  0  0  0
 36148  1  0  0  0
 36149  1  0  0  0
 36150  1  0  0  0
 37151  1  0  0  0
 38152  1  0  0  0
 41153  1  0  0  0
 41154  1  0  0  0
 42155  1  0  0  0
 43156  1  0  0  0
 43157  1  0  0  0
 43158  1  0  0  0
 44159  1  0  0  0
 44160  1  0  0  0
 44161  1  0  0  0
 45162  1  0  0  0
 46163  1  0  0  0
 49164  1  0  0  0
 49165  1  0  0  0
 52166  1  0  0  0
 53167  1  0  0  0
 55168  1  0  0  0
 56169  1  0  0  0
 59170  1  0  0  0
 59171  1  0  0  0
 61172  1  0  0  0
 62173  1  0  0  0
 63174  1  0  0  0
 64175  1  0  0  0
 65176  1  0  0  0
 66177  1  0  0  0
 67178  1  0  0  0
 70179  1  0  0  0
 70180  1  0  0  0
 70181  1  0  0  0
 71182  1  0  0  0
 72183  1  0  0  0
 75184  1  0  0  0
 76185  1  0  0  0
 77186  1  0  0  0
 77187  1  0  0  0
 77188  1  0  0  0
 78189  1  0  0  0
 79190  1  0  0  0
 82191  1  0  0  0
 82192  1  0  0  0
 83193  1  0  0  0
 83194  1  0  0  0
 85195  1  0  0  0
 87196  1  0  0  0
 88197  1  0  0  0
 91198  1  0  0  0
 91199  1  0  0  0
 92200  1  0  0  0
 93201  1  0  0  0
 94202  1  0  0  0
 97203  1  0  0  0
 98204  1  0  0  0
 99205  1  0  0  0
 99206  1  0  0  0
 99207  1  0  0  0
101208  1  0  0  0
104209  1  0  0  0
104210  1  0  0  0
105211  1  0  0  0
105212  1  0  0  0
106213  1  0  0  0
106214  1  0  0  0
107215  1  0  0  0
108216  1  0  0  0
110217  1  0  0  0
111218  1  0  0  0
111219  1  0  0  0
113220  1  0  0  0
M  END
$$$$
