5b4k_ligand
  -I-interpret- 

 42 46  0  0  0  0  0  0  0  0999 V2000
   -2.0650   -4.5280  -24.0210 C   0  0  0  0  0
   -1.7940   -5.4570  -25.0000 C   0  0  0  0  0
   -1.0940   -4.0500  -23.1710 C   0  0  0  0  0
   -0.5360   -5.9800  -25.2010 C   0  0  0  0  0
    5.6170   -4.6760  -21.7700 C   0  0  0  0  0
    3.6990   -3.3740  -21.2750 C   0  0  0  0  0
    6.3470   -3.9630  -20.8450 C   0  0  0  0  0
    4.4130   -2.6520  -20.3450 C   0  0  0  0  0
    8.5490   -1.9930  -15.0680 C   0  0  0  0  0
    9.2160   -1.2540  -16.0190 C   0  0  0  0  0
    5.5850   -3.7510  -16.1370 C   0  0  0  0  0
    0.1810   -4.5590  -23.3530 C   0  0  0  0  0
    7.4360   -2.5850  -15.7150 C   0  0  0  0  0
    0.4220   -5.4910  -24.3420 C   0  0  0  0  0
    7.4430   -2.1980  -17.0380 C   0  0  0  0  0
    4.2870   -4.3960  -21.9930 C   0  0  0  0  0
    5.7370   -2.9590  -20.1330 C   0  0  0  0  0
    6.4640   -2.6330  -17.9030 C   0  0  0  0  0
    2.2750   -5.0140  -23.2240 C   0  0  0  0  0
    8.9510   -0.7490  -18.4270 C   0  0  0  0  0
    6.4850   -3.3890  -15.2160 N   0  0  0  0  0
    5.5040   -3.4340  -17.4320 N   0  0  0  0  0
    1.3370   -4.2730  -22.6740 N   0  0  0  0  0
    1.7510   -5.7690  -24.2330 N   0  0  0  0  0
    8.5370   -1.3890  -17.1970 N   0  0  0  0  0
    3.5990   -5.1460  -22.9660 N   0  0  0  0  0
    6.4810   -2.2360  -19.2210 O   0  0  0  0  0
   -3.0848   -4.1579  -23.9153 H   0  0  0  0  0
   -2.6083   -5.7923  -25.6423 H   0  0  0  0  0
   -1.3157   -3.3132  -22.3989 H   0  0  0  0  0
   -0.3178   -6.7174  -25.9735 H   0  0  0  0  0
    6.0993   -5.4742  -22.3343 H   0  0  0  0  0
    2.6498   -3.1341  -21.4475 H   0  0  0  0  0
    7.3994   -4.1933  -20.6794 H   0  0  0  0  0
    3.9356   -1.8482  -19.7845 H   0  0  0  0  0
    8.8242   -2.1018  -14.0189 H   0  0  0  0  0
   10.1212   -0.6678  -15.8609 H   0  0  0  0  0
    4.7941   -4.4073  -15.7739 H   0  0  0  0  0
    8.9609    0.3319  -18.2871 H   0  0  0  0  0
    9.9507   -1.0912  -18.6945 H   0  0  0  0  0
    8.2521   -1.0073  -19.2226 H   0  0  0  0  0
    4.1281   -5.8287  -23.5085 H   0  0  0  0  0
  2  1  4  0  0  0
  3  1  4  0  0  0
  4  2  4  0  0  0
 12  3  4  0  0  0
 14  4  4  0  0  0
  5  7  4  0  0  0
 16  5  4  0  0  0
  6  8  4  0  0  0
 16  6  4  0  0  0
  7 17  4  0  0  0
  8 17  4  0  0  0
 10  9  4  0  0  0
 13  9  4  0  0  0
 25 10  4  0  0  0
 11 21  4  0  0  0
 22 11  4  0  0  0
 14 12  4  0  0  0
 23 12  4  0  0  0
 15 13  4  0  0  0
 13 21  4  0  0  0
 24 14  4  0  0  0
 18 15  4  0  0  0
 15 25  4  0  0  0
 26 16  1  0  0  0
 17 27  1  0  0  0
 18 22  4  0  0  0
 27 18  1  0  0  0
 19 23  4  0  0  0
 19 24  4  0  0  0
 19 26  1  0  0  0
 25 20  1  0  0  0
  1 28  1  0  0  0
  2 29  1  0  0  0
  3 30  1  0  0  0
  4 31  1  0  0  0
  5 32  1  0  0  0
  6 33  1  0  0  0
  7 34  1  0  0  0
  8 35  1  0  0  0
  9 36  1  0  0  0
 10 37  1  0  0  0
 11 38  1  0  0  0
 20 39  1  0  0  0
 20 40  1  0  0  0
 20 41  1  0  0  0
 26 42  1  0  0  0
M  END
$$$$
