4jss_ligand
  -I-interpret- 

 15 15  0  0  0  0  0  0  0  0999 V2000
   16.0870    3.0630   12.9780 C   0  0  0  0  0
   15.5330    3.7010   14.1080 C   0  0  0  0  0
   14.7730    2.9540   15.0220 C   0  0  0  0  0
   15.4900    0.9020   13.9340 N   0  0  0  0  0
   15.5950   -0.4810   13.9410 O   0  0  0  0  0
   16.0990    1.6670   12.9050 C   0  0  0  0  0
   14.7620    1.5340   14.9300 C   0  0  0  0  0
   13.8040    0.6030   15.9880 S   0  0  0  0  0
   16.5043    3.6567   12.1646 H   0  0  0  0  0
   15.6940    4.7668   14.2702 H   0  0  0  0  0
   13.7417    3.2512   14.8317 H   0  0  0  0  0
   15.2227    3.1645   15.9924 H   0  0  0  0  0
   16.1263   -0.7642   13.1933 H   0  0  0  0  0
   17.1545    1.3989   12.9519 H   0  0  0  0  0
   15.5205    1.4341   12.0110 H   0  0  0  0  0
  1  2  2  0  0  0
  6  1  1  0  0  0
  2  3  1  0  0  0
  3  7  1  0  0  0
  4  5  1  0  0  0
  4  6  1  0  0  0
  4  7  1  0  0  0
  7  8  2  0  0  0
  1  9  1  0  0  0
  2 10  1  0  0  0
  3 11  1  0  0  0
  3 12  1  0  0  0
  5 13  1  0  0  0
  6 14  1  0  0  0
  6 15  1  0  0  0
M  END
$$$$
