1toj_ligand
  -I-interpret- 

 21 21  0  0  0  0  0  0  0  0999 V2000
   31.2410   23.6960    4.7350 C   0  0  0  0  0
   30.1150   23.2230    4.8740 O   0  0  0  0  0
   31.3860   24.8830    4.1580 O   0  0  0  0  0
   32.4760   22.9440    5.1790 C   0  0  0  0  0
   32.3590   22.4020    6.6100 C   0  0  0  0  0
   32.6090   23.5050    7.6240 C   0  0  0  0  0
   33.8300   23.5640    8.3140 C   0  0  0  0  0
   34.0550   24.5930    9.2450 C   0  0  0  0  0
   33.0780   25.5660    9.4640 C   0  0  0  0  0
   31.8580   25.5130    8.7720 C   0  0  0  0  0
   31.6280   24.4870    7.8570 C   0  0  0  0  0
   32.3183   25.1097    4.1248 H   0  0  0  0  0
   33.3169   23.6371    5.1520 H   0  0  0  0  0
   32.6082   22.0940    4.5096 H   0  0  0  0  0
   33.1028   21.6179    6.7517 H   0  0  0  0  0
   31.3527   22.0097    6.7570 H   0  0  0  0  0
   34.6002   22.8153    8.1288 H   0  0  0  0  0
   34.9941   24.6313    9.7970 H   0  0  0  0  0
   33.2635   26.3705   10.1757 H   0  0  0  0  0
   31.0943   26.2703    8.9492 H   0  0  0  0  0
   30.6815   24.4449    7.3180 H   0  0  0  0  0
  1  2  2  0  0  0
  1  3  1  0  0  0
  1  4  1  0  0  0
  4  5  1  0  0  0
  5  6  1  0  0  0
  6  7  4  0  0  0
  6 11  4  0  0  0
  7  8  4  0  0  0
  8  9  4  0  0  0
  9 10  4  0  0  0
 10 11  4  0  0  0
  3 12  1  0  0  0
  4 13  1  0  0  0
  4 14  1  0  0  0
  5 15  1  0  0  0
  5 16  1  0  0  0
  7 17  1  0  0  0
  8 18  1  0  0  0
  9 19  1  0  0  0
 10 20  1  0  0  0
 11 21  1  0  0  0
M  END
$$$$
