2puy_ligand
  -I-interpret- 

170169  0  0  0  0  0  0  0  0999 V2000
   63.1190   -4.6260   25.7280 N   0  3  0  0  0
   63.6420   -3.5280   26.5860 C   0  0  0  0  0
   62.8320   -3.5270   27.8650 C   0  0  0  0  0
   61.7680   -4.1310   27.9190 O   0  0  0  0  0
   63.5130   -2.1940   25.8670 C   0  0  0  0  0
   63.3240   -2.8410   28.8900 N   0  0  0  0  0
   62.6350   -2.8070   30.1840 C   0  0  0  0  0
   62.3390   -1.4130   30.7160 C   0  0  0  0  0
   63.0640   -0.4510   30.4290 O   0  0  0  0  0
   63.4730   -3.5480   31.2350 C   0  0  0  0  0
   63.8040   -4.9760   30.8650 C   0  0  0  0  0
   64.5550   -5.6470   31.9950 C   0  0  0  0  0
   65.8260   -4.9890   32.2830 N   0  0  0  0  0
   66.3060   -4.8010   33.5100 C   0  0  0  0  0
   65.6210   -5.2170   34.5690 N   0  0  0  0  0
   67.4720   -4.1950   33.6830 N   0  0  0  0  0
   61.2600   -1.3150   31.4820 N   0  0  0  0  0
   60.8920   -0.0590   32.1160 C   0  0  0  0  0
   60.9680   -0.2670   33.6080 C   0  0  0  0  0
   61.0670   -1.3940   34.0980 O   0  0  0  0  0
   59.4510    0.3620   31.8270 C   0  0  0  0  0
   58.5540   -0.6920   32.2010 O   0  0  0  0  0
   59.2740    0.6970   30.3710 C   0  0  0  0  0
   60.9230    0.8430   34.3260 N   0  0  0  0  0
   60.9090    0.8040   35.7700 C   0  0  0  0  0
   59.9930    1.9330   36.1710 C   0  0  0  0  0
   59.8060    2.8860   35.4100 O   0  0  0  0  0
   62.3060    1.0210   36.3510 C   0  0  0  0  0
   62.8800    2.3990   36.1500 C   0  0  0  0  0
   64.1950    2.5120   36.8960 C   0  0  0  0  0
   64.8250    3.8740   36.7160 C   0  0  0  0  0
   66.0110    4.0240   37.6090 N   0  3  0  0  0
   59.3850    1.8000   37.3420 N   0  0  0  0  0
   58.5040    2.8260   37.8590 C   0  0  0  0  0
   59.2400    3.4890   39.0200 C   0  0  0  0  0
   59.5890    2.8320   40.0060 O   0  0  0  0  0
   57.1890    2.2070   38.3340 C   0  0  0  0  0
   56.1250    3.2370   38.6580 C   0  0  0  0  0
   55.5570    3.9170   37.4200 C   0  0  0  0  0
   55.1800    5.0950   37.4600 O   0  0  0  0  0
   55.4660    3.1710   36.3250 N   0  0  0  0  0
   59.4920    4.7890   38.8930 N   0  0  0  0  0
   60.2070    5.5330   39.9260 C   0  0  0  0  0
   59.4130    6.7800   40.2830 C   0  0  0  0  0
   58.9950    7.5160   39.4010 O   0  0  0  0  0
   61.6020    5.9730   39.4370 C   0  0  0  0  0
   62.3850    4.8190   39.0850 O   0  0  0  0  0
   62.3140    6.7550   40.5130 C   0  0  0  0  0
   59.2160    7.0220   41.5740 N   0  0  0  0  0
   58.4550    8.1840   42.0170 C   0  0  0  0  0
   59.2630    9.0730   42.9420 C   0  0  0  0  0
   59.3020    8.8550   44.1560 O   0  0  0  0  0
   57.1740    7.7330   42.7070 C   0  0  0  0  0
   59.9090   10.0740   42.3640 N   0  0  0  0  0
   60.6860   11.0130   43.1510 C   0  0  0  0  0
   59.7110   12.0440   43.7260 C   0  0  0  0  0
   58.6370   12.2790   43.1590 O   0  0  0  0  0
   61.7700   11.6570   42.2840 C   0  0  0  0  0
   62.8370   10.6570   41.8220 C   0  0  0  0  0
   63.6040   10.0440   43.0070 C   0  0  0  0  0
   64.5420   10.9940   43.5960 N   0  0  0  0  0
   65.8470   11.0140   43.3360 C   0  0  0  0  0
   66.6270   11.9230   43.9040 N   0  0  0  0  0
   66.3750   10.1050   42.5310 N   0  0  0  0  0
   60.0740   12.6370   44.8590 N   0  0  0  0  0
   59.2040   13.5880   45.5480 C   0  0  0  0  0
   59.1140   15.0050   44.9950 C   0  0  0  0  0
   60.0660   15.5180   44.4000 O   0  0  0  0  0
   59.5870   13.6330   47.0350 C   0  0  0  0  0
   59.5190   12.2800   47.7430 C   0  0  0  0  0
   60.1060   12.3600   49.1470 C   0  0  0  0  0
   60.5320   10.9920   49.6620 C   0  0  0  0  0
   61.1250   11.0700   51.0360 N   0  3  0  0  0
   57.9630   15.6400   45.2290 N   0  0  0  0  0
   57.6850   16.9960   44.7580 C   0  0  0  0  0
   57.4540   17.9500   45.9250 C   0  0  0  0  0
   56.9220   17.5130   46.9690 O   0  0  0  0  0
   56.4300   16.9990   43.8730 C   0  0  0  0  0
   56.5920   16.1410   42.7490 O   0  0  0  0  0
   57.7730   19.1380   45.7660 O   0  0  0  0  0
   63.2110   -5.5143   26.2209 H   0  0  0  0  0
   62.1361   -4.4527   25.5177 H   0  0  0  0  0
   63.6527   -4.6608   24.8595 H   0  0  0  0  0
   64.6982   -3.6803   26.8083 H   0  0  0  0  0
   62.4662   -2.0147   25.6217 H   0  0  0  0  0
   63.8774   -1.3968   26.5149 H   0  0  0  0  0
   64.1033   -2.2179   24.9510 H   0  0  0  0  0
   64.1980   -2.3278   28.7750 H   0  0  0  0  0
   61.6731   -3.2878   30.0059 H   0  0  0  0  0
   62.8850   -3.5803   32.1522 H   0  0  0  0  0
   64.4174   -3.0123   31.3309 H   0  0  0  0  0
   64.4276   -4.9780   29.9710 H   0  0  0  0  0
   62.8783   -5.5204   30.6785 H   0  0  0  0  0
   64.7657   -6.6744   31.6980 H   0  0  0  0  0
   63.9362   -5.5941   32.8907 H   0  0  0  0  0
   66.3802   -4.6527   31.4955 H   0  0  0  0  0
   65.9930   -5.0693   35.5072 H   0  0  0  0  0
   64.7229   -5.6842   34.4441 H   0  0  0  0  0
   68.0035   -3.8716   32.8748 H   0  0  0  0  0
   60.6761   -2.1383   31.6293 H   0  0  0  0  0
   61.5660    0.7068   31.7320 H   0  0  0  0  0
   59.2256    1.2532   32.4128 H   0  0  0  0  0
   57.6511   -0.4224   32.0175 H   0  0  0  0  0
   59.9405    1.5173   30.1046 H   0  0  0  0  0
   59.5130   -0.1780   29.7665 H   0  0  0  0  0
   58.2407    0.9935   30.1907 H   0  0  0  0  0
   60.8977    1.7450   33.8503 H   0  0  0  0  0
   60.5752   -0.1642   36.1431 H   0  0  0  0  0
   62.9700    0.3280   35.8343 H   0  0  0  0  0
   62.2229    0.8716   37.4275 H   0  0  0  0  0
   62.1807    3.1432   36.5312 H   0  0  0  0  0
   63.0492    2.5708   35.0870 H   0  0  0  0  0
   64.8798    1.7620   36.5002 H   0  0  0  0  0
   64.0013    2.3610   37.9580 H   0  0  0  0  0
   64.0917    4.6395   36.9699 H   0  0  0  0  0
   65.1463    3.9812   35.6800 H   0  0  0  0  0
   66.4222    4.9476   37.4739 H   0  0  0  0  0
   65.7189    3.9194   38.5807 H   0  0  0  0  0
   66.6998    3.3071   37.3808 H   0  0  0  0  0
   59.5417    0.9550   37.8914 H   0  0  0  0  0
   58.2555    3.5572   37.0898 H   0  0  0  0  0
   57.3977    1.6500   39.2474 H   0  0  0  0  0
   56.8079    1.5821   37.5263 H   0  0  0  0  0
   56.5861    4.0067   39.2770 H   0  0  0  0  0
   55.3055    2.7211   39.1584 H   0  0  0  0  0
   55.0723    3.5652   35.4706 H   0  0  0  0  0
   55.7898    2.2038   36.3384 H   0  0  0  0  0
   59.1784    5.2775   38.0543 H   0  0  0  0  0
   60.3245    4.8805   40.7912 H   0  0  0  0  0
   61.4772    6.6084   38.5602 H   0  0  0  0  0
   63.2510    5.1016   38.7820 H   0  0  0  0  0
   61.7296    7.6402   40.7640 H   0  0  0  0  0
   62.4284    6.1304   41.3989 H   0  0  0  0  0
   63.2966    7.0574   40.1507 H   0  0  0  0  0
   59.6042    6.3833   42.2681 H   0  0  0  0  0
   58.2063    8.7732   41.1343 H   0  0  0  0  0
   56.5712    7.1530   42.0082 H   0  0  0  0  0
   57.4254    7.1168   43.5703 H   0  0  0  0  0
   56.6120    8.6076   43.0346 H   0  0  0  0  0
   59.8597   10.1865   41.3514 H   0  0  0  0  0
   61.2040   10.5139   43.9700 H   0  0  0  0  0
   62.2663   12.4200   42.8837 H   0  0  0  0  0
   61.2875   12.0634   41.3951 H   0  0  0  0  0
   63.5508   11.1871   41.1915 H   0  0  0  0  0
   62.3383    9.8503   41.2848 H   0  0  0  0  0
   64.1692    9.1864   42.6421 H   0  0  0  0  0
   62.8814    9.7578   43.7712 H   0  0  0  0  0
   64.1742   11.6866   44.2483 H   0  0  0  0  0
   67.6303   11.9206   43.7203 H   0  0  0  0  0
   66.2238   12.6248   44.5247 H   0  0  0  0  0
   65.7816    9.3899   42.1105 H   0  0  0  0  0
   60.9871   12.4219   45.2595 H   0  0  0  0  0
   58.2019   13.1944   45.3775 H   0  0  0  0  0
   58.8728   14.2906   47.5305 H   0  0  0  0  0
   60.6215   13.9721   47.0897 H   0  0  0  0  0
   60.0959   11.5571   47.1663 H   0  0  0  0  0
   58.4737   11.9809   47.8204 H   0  0  0  0  0
   59.3409   12.7543   49.8158 H   0  0  0  0  0
   60.9860   13.0023   49.1138 H   0  0  0  0  0
   61.2886   10.5935   48.9861 H   0  0  0  0  0
   59.6491   10.3544   49.7072 H   0  0  0  0  0
   61.3958   10.1353   51.3417 H   0  0  0  0  0
   61.9467   11.6740   51.0166 H   0  0  0  0  0
   60.4348   11.4536   51.6816 H   0  0  0  0  0
   57.2418   15.1550   45.7629 H   0  0  0  0  0
   58.5524   17.3300   44.1886 H   0  0  0  0  0
   56.7617   16.5712   46.8750 H   0  0  0  0  0
   56.2590   18.0141   43.5146 H   0  0  0  0  0
   55.5861   16.6431   44.4641 H   0  0  0  0  0
   55.7949   16.1619   42.2144 H   0  0  0  0  0
  1  2  1  0  0  0
  2  3  1  0  0  0
  2  5  1  0  0  0
  3  4  2  0  0  0
  3  6  1  0  0  0
  6  7  1  0  0  0
  7  8  1  0  0  0
  7 10  1  0  0  0
  8  9  2  0  0  0
  8 17  1  0  0  0
 10 11  1  0  0  0
 11 12  1  0  0  0
 12 13  1  0  0  0
 13 14  1  0  0  0
 14 15  1  0  0  0
 14 16  2  0  0  0
 17 18  1  0  0  0
 18 19  1  0  0  0
 18 21  1  0  0  0
 19 20  2  0  0  0
 19 24  1  0  0  0
 21 22  1  0  0  0
 21 23  1  0  0  0
 24 25  1  0  0  0
 25 26  1  0  0  0
 25 28  1  0  0  0
 26 27  2  0  0  0
 26 33  1  0  0  0
 28 29  1  0  0  0
 29 30  1  0  0  0
 30 31  1  0  0  0
 31 32  1  0  0  0
 33 34  1  0  0  0
 34 35  1  0  0  0
 34 37  1  0  0  0
 35 36  2  0  0  0
 35 42  1  0  0  0
 37 38  1  0  0  0
 38 39  1  0  0  0
 39 40  2  0  0  0
 39 41  1  0  0  0
 42 43  1  0  0  0
 43 44  1  0  0  0
 43 46  1  0  0  0
 44 45  2  0  0  0
 44 49  1  0  0  0
 46 47  1  0  0  0
 46 48  1  0  0  0
 49 50  1  0  0  0
 50 51  1  0  0  0
 50 53  1  0  0  0
 51 52  2  0  0  0
 51 54  1  0  0  0
 54 55  1  0  0  0
 55 56  1  0  0  0
 55 58  1  0  0  0
 56 57  2  0  0  0
 56 65  1  0  0  0
 58 59  1  0  0  0
 59 60  1  0  0  0
 60 61  1  0  0  0
 61 62  1  0  0  0
 62 63  1  0  0  0
 62 64  2  0  0  0
 65 66  1  0  0  0
 66 67  1  0  0  0
 66 69  1  0  0  0
 67 68  2  0  0  0
 67 74  1  0  0  0
 69 70  1  0  0  0
 70 71  1  0  0  0
 71 72  1  0  0  0
 72 73  1  0  0  0
 74 75  1  0  0  0
 75 76  1  0  0  0
 75 78  1  0  0  0
 76 77  1  0  0  0
 76 80  2  0  0  0
 78 79  1  0  0  0
  1 81  1  0  0  0
  1 82  1  0  0  0
  1 83  1  0  0  0
  2 84  1  0  0  0
  5 85  1  0  0  0
  5 86  1  0  0  0
  5 87  1  0  0  0
  6 88  1  0  0  0
  7 89  1  0  0  0
 10 90  1  0  0  0
 10 91  1  0  0  0
 11 92  1  0  0  0
 11 93  1  0  0  0
 12 94  1  0  0  0
 12 95  1  0  0  0
 13 96  1  0  0  0
 15 97  1  0  0  0
 15 98  1  0  0  0
 16 99  1  0  0  0
 17100  1  0  0  0
 18101  1  0  0  0
 21102  1  0  0  0
 22103  1  0  0  0
 23104  1  0  0  0
 23105  1  0  0  0
 23106  1  0  0  0
 24107  1  0  0  0
 25108  1  0  0  0
 28109  1  0  0  0
 28110  1  0  0  0
 29111  1  0  0  0
 29112  1  0  0  0
 30113  1  0  0  0
 30114  1  0  0  0
 31115  1  0  0  0
 31116  1  0  0  0
 32117  1  0  0  0
 32118  1  0  0  0
 32119  1  0  0  0
 33120  1  0  0  0
 34121  1  0  0  0
 37122  1  0  0  0
 37123  1  0  0  0
 38124  1  0  0  0
 38125  1  0  0  0
 41126  1  0  0  0
 41127  1  0  0  0
 42128  1  0  0  0
 43129  1  0  0  0
 46130  1  0  0  0
 47131  1  0  0  0
 48132  1  0  0  0
 48133  1  0  0  0
 48134  1  0  0  0
 49135  1  0  0  0
 50136  1  0  0  0
 53137  1  0  0  0
 53138  1  0  0  0
 53139  1  0  0  0
 54140  1  0  0  0
 55141  1  0  0  0
 58142  1  0  0  0
 58143  1  0  0  0
 59144  1  0  0  0
 59145  1  0  0  0
 60146  1  0  0  0
 60147  1  0  0  0
 61148  1  0  0  0
 63149  1  0  0  0
 63150  1  0  0  0
 64151  1  0  0  0
 65152  1  0  0  0
 66153  1  0  0  0
 69154  1  0  0  0
 69155  1  0  0  0
 70156  1  0  0  0
 70157  1  0  0  0
 71158  1  0  0  0
 71159  1  0  0  0
 72160  1  0  0  0
 72161  1  0  0  0
 73162  1  0  0  0
 73163  1  0  0  0
 73164  1  0  0  0
 74165  1  0  0  0
 75166  1  0  0  0
 77167  1  0  0  0
 78168  1  0  0  0
 78169  1  0  0  0
 79170  1  0  0  0
M  END
$$$$
