### 
### Created by X-TOOL on Mon Sep 10 21:12:56 2018
### 

@<TRIPOS>MOLECULE
2puy_ligand
  171   170     1     0     0
SMALL
GAST_HUCK


@<TRIPOS>ATOM
      1 N          63.1190   -4.6260   25.7280 N.4       1 ALA         0.2377
      2 CA         63.6420   -3.5280   26.5860 C.3       1 ALA         0.0621
      3 C          62.8320   -3.5270   27.8650 C.2       1 ALA         0.2264
      4 O          61.7680   -4.1310   27.9190 O.2       1 ALA        -0.3907
      5 CB         63.5130   -2.1940   25.8670 C.3       1 ALA        -0.0040
      6 N          63.3240   -2.8410   28.8900 N.am      1 ARG        -0.2610
      7 CA         62.6350   -2.8070   30.1840 C.3       1 ARG         0.1312
      8 C          62.3390   -1.4130   30.7160 C.2       1 ARG         0.2040
      9 O          63.0640   -0.4510   30.4290 O.2       1 ARG        -0.3944
     10 CB         63.4730   -3.5480   31.2350 C.3       1 ARG        -0.0092
     11 CG         63.8040   -4.9760   30.8650 C.3       1 ARG        -0.0156
     12 CD         64.5550   -5.6470   31.9950 C.3       1 ARG         0.0627
     13 NE         65.8260   -4.9890   32.2830 N.pl3     1 ARG        -0.2723
     14 CZ         66.3060   -4.8010   33.5100 C.cat     1 ARG         0.2882
     15 NH1        65.6210   -5.2170   34.5690 N.pl3     1 ARG        -0.2849
     16 NH2        67.4720   -4.1950   33.6830 N.pl3     1 ARG        -0.2849
     17 N          61.2600   -1.3150   31.4820 N.am      1 THR        -0.2613
     18 CA         60.8920   -0.0590   32.1160 C.3       1 THR         0.1565
     19 C          60.9680   -0.2670   33.6080 C.2       1 THR         0.2065
     20 O          61.0670   -1.3940   34.0980 O.2       1 THR        -0.3943
     21 CB         59.4510    0.3620   31.8270 C.3       1 THR         0.0924
     22 OG1        58.5540   -0.6920   32.2010 O.3       1 THR        -0.3874
     23 CG2        59.2740    0.6970   30.3710 C.3       1 THR        -0.0346
     24 N          60.9230    0.8430   34.3260 N.am      1 LYS        -0.2637
     25 CA         60.9090    0.8040   35.7700 C.3       1 LYS         0.1310
     26 C          59.9930    1.9330   36.1710 C.2       1 LYS         0.2039
     27 O          59.8060    2.8860   35.4100 O.2       1 LYS        -0.3944
     28 CB         62.3060    1.0210   36.3510 C.3       1 LYS        -0.0122
     29 CG         62.8800    2.3990   36.1500 C.3       1 LYS        -0.0440
     30 CD         64.1950    2.5120   36.8960 C.3       1 LYS        -0.0124
     31 CE         64.8250    3.8740   36.7160 C.3       1 LYS        -0.0354
     32 NZ         66.0110    4.0240   37.6090 N.4       1 LYS         0.2185
     33 N          59.3850    1.8000   37.3420 N.am      1 GLN        -0.2636
     34 CA         58.5040    2.8260   37.8590 C.3       1 GLN         0.1330
     35 C          59.2400    3.4890   39.0200 C.2       1 GLN         0.2041
     36 O          59.5890    2.8320   40.0060 O.2       1 GLN        -0.3944
     37 CB         57.1890    2.2070   38.3340 C.3       1 GLN         0.0045
     38 CG         56.1250    3.2370   38.6580 C.3       1 GLN         0.0412
     39 CD         55.5570    3.9170   37.4200 C.2       1 GLN         0.1737
     40 OE1        55.1800    5.0950   37.4600 O.2       1 GLN        -0.3973
     41 NE2        55.4660    3.1710   36.3250 N.am      1 GLN        -0.3009
     42 N          59.4920    4.7890   38.8930 N.am      1 THR        -0.2613
     43 CA         60.2070    5.5330   39.9260 C.3       1 THR         0.1565
     44 C          59.4130    6.7800   40.2830 C.2       1 THR         0.2065
     45 O          58.9950    7.5160   39.4010 O.2       1 THR        -0.3943
     46 CB         61.6020    5.9730   39.4370 C.3       1 THR         0.0924
     47 OG1        62.3850    4.8190   39.0850 O.3       1 THR        -0.3874
     48 CG2        62.3140    6.7550   40.5130 C.3       1 THR        -0.0346
     49 N          59.2160    7.0220   41.5740 N.am      1 ALA        -0.2639
     50 CA         58.4550    8.1840   42.0170 C.3       1 ALA         0.1282
     51 C          59.2630    9.0730   42.9420 C.2       1 ALA         0.2036
     52 O          59.3020    8.8550   44.1560 O.2       1 ALA        -0.3944
     53 CB         57.1740    7.7330   42.7070 C.3       1 ALA        -0.0244
     54 N          59.9090   10.0740   42.3640 N.am      1 ARG        -0.2637
     55 CA         60.6860   11.0130   43.1510 C.3       1 ARG         0.1311
     56 C          59.7110   12.0440   43.7260 C.2       1 ARG         0.2039
     57 O          58.6370   12.2790   43.1590 O.2       1 ARG        -0.3944
     58 CB         61.7700   11.6570   42.2840 C.3       1 ARG        -0.0092
     59 CG         62.8370   10.6570   41.8220 C.3       1 ARG        -0.0156
     60 CD         63.6040   10.0440   43.0070 C.3       1 ARG         0.0627
     61 NE         64.5420   10.9940   43.5960 N.pl3     1 ARG        -0.2723
     62 CZ         65.8470   11.0140   43.3360 C.cat     1 ARG         0.2882
     63 NH1        66.6270   11.9230   43.9040 N.pl3     1 ARG        -0.2849
     64 NH2        66.3750   10.1050   42.5310 N.pl3     1 ARG        -0.2849
     65 N          60.0740   12.6370   44.8590 N.am      1 LYS        -0.2637
     66 CA         59.2040   13.5880   45.5480 C.3       1 LYS         0.1309
     67 C          59.1140   15.0050   44.9950 C.2       1 LYS         0.2034
     68 O          60.0660   15.5180   44.4000 O.2       1 LYS        -0.3944
     69 CB         59.5870   13.6330   47.0350 C.3       1 LYS        -0.0122
     70 CG         59.5190   12.2800   47.7430 C.3       1 LYS        -0.0440
     71 CD         60.1060   12.3600   49.1470 C.3       1 LYS        -0.0124
     72 CE         60.5320   10.9920   49.6620 C.3       1 LYS        -0.0354
     73 NZ         61.1250   11.0700   51.0360 N.4       1 LYS         0.2185
     74 N          57.9630   15.6400   45.2290 N.am      1 SER        -0.2672
     75 CA         57.6850   16.9960   44.7580 C.3       1 SER         0.1173
     76 C          57.4540   17.9500   45.9250 C.2       1 SER         0.0623
     77 O          56.9220   17.5130   46.9690 O.co2     1 SER        -0.5665
     78 CB         56.4300   16.9990   43.8730 C.3       1 SER         0.0789
     79 OG         56.5920   16.1410   42.7490 O.3       1 SER        -0.3910
     80 OXT        57.7730   19.1380   45.7660 O.co2     1 SER        -0.5665
     81 H1         63.6387   -4.6544   24.8648 H         1 ALA         0.2015
     82 H2         62.1448   -4.4614   25.5283 H         1 ALA         0.2015
     83 H3         63.2194   -5.5057   26.2097 H         1 ALA         0.2015
     84 H4         64.7014   -3.7105   26.8191 H         1 ALA         0.1095
     85 H5         63.9024   -1.3914   26.5106 H         1 ALA         0.0310
     86 H6         62.4542   -2.0007   25.6400 H         1 ALA         0.0310
     87 H7         64.0891   -2.2250   24.9305 H         1 ALA         0.0310
     88 H8         64.1809   -2.3379   28.7773 H         1 ARG         0.1884
     89 H9         61.6754   -3.3305   30.0611 H         1 ARG         0.0800
     90 H10        62.9114   -3.5575   32.1808 H         1 ARG         0.0313
     91 H11        64.4163   -2.9996   31.3741 H         1 ARG         0.0313
     92 H12        64.4287   -4.9815   29.9596 H         1 ARG         0.0301
     93 H13        62.8718   -5.5266   30.6707 H         1 ARG         0.0301
     94 H14        64.7531   -6.6925   31.7164 H         1 ARG         0.0689
     95 H15        63.9301   -5.6207   32.8998 H         1 ARG         0.0689
     96 H16        66.3856   -4.6494   31.4877 H         1 ARG         0.2642
     97 H17        65.9972   -5.0689   35.5163 H         1 ARG         0.2615
     98 H18        64.7136   -5.6877   34.4430 H         1 ARG         0.2615
     99 H19        68.0093   -3.8694   32.8668 H         1 ARG         0.2615
    100 H20        67.8408   -4.0496   34.6337 H         1 ARG         0.2615
    101 H21        60.6876   -2.1221   31.6264 H         1 THR         0.1884
    102 H22        61.5839    0.7325   31.7923 H         1 THR         0.0826
    103 H23        59.2181    1.2558   32.4243 H         1 THR         0.0639
    104 H24        58.7600   -1.4736   31.7019 H         1 THR         0.2101
    105 H25        58.2315    0.9964   30.1878 H         1 THR         0.0257
    106 H26        59.5149   -0.1853   29.7598 H         1 THR         0.0257
    107 H27        59.9461    1.5248   30.1009 H         1 THR         0.0257
    108 H28        60.8982    1.7273   33.8597 H         1 LYS         0.1883
    109 H29        60.5146   -0.1600   36.1238 H         1 LYS         0.0800
    110 H30        62.9866    0.2973   35.8788 H         1 LYS         0.0312
    111 H31        62.2580    0.8274   37.4328 H         1 LYS         0.0312
    112 H32        62.1744    3.1500   36.5349 H         1 LYS         0.0269
    113 H33        63.0509    2.5722   35.0773 H         1 LYS         0.0269
    114 H34        64.8872    1.7462   36.5162 H         1 LYS         0.0317
    115 H35        64.0127    2.3425   37.9674 H         1 LYS         0.0317
    116 H36        64.0857    4.6502   36.9629 H         1 LYS         0.0813
    117 H37        65.1431    3.9902   35.6694 H         1 LYS         0.0813
    118 H38        66.4182    4.9365   37.4763 H         1 LYS         0.1994
    119 H39        66.6925    3.3161   37.3843 H         1 LYS         0.1994
    120 H40        65.7235    3.9209   38.5696 H         1 LYS         0.1994
    121 H41        59.5386    0.9716   37.8806 H         1 GLN         0.1883
    122 H42        58.2918    3.5693   37.0764 H         1 GLN         0.0801
    123 H43        57.3886    1.6145   39.2390 H         1 GLN         0.0337
    124 H44        56.8067    1.5476   37.5409 H         1 GLN         0.0337
    125 H45        56.5682    4.0060   39.3077 H         1 GLN         0.0504
    126 H46        55.3032    2.7361   39.1906 H         1 GLN         0.0504
    127 H47        55.1004    3.5640   35.4812 H         1 GLN         0.1814
    128 H48        55.7631    2.2163   36.3443 H         1 GLN         0.1814
    129 H49        59.1845    5.2679   38.0707 H         1 THR         0.1884
    130 H50        60.3183    4.8964   40.8161 H         1 THR         0.0826
    131 H51        61.4834    6.6117   38.5493 H         1 THR         0.0639
    132 H52        63.2420    5.0986   38.7851 H         1 THR         0.2101
    133 H53        63.3058    7.0608   40.1486 H         1 THR         0.0257
    134 H54        62.4301    6.1257   41.4077 H         1 THR         0.0257
    135 H55        61.7253    7.6487   40.7672 H         1 THR         0.0257
    136 H56        59.5966    6.3958   42.2545 H         1 ALA         0.1883
    137 H57        58.1833    8.7736   41.1290 H         1 ALA         0.0797
    138 H58        56.6059    8.6148   43.0381 H         1 ALA         0.0277
    139 H59        57.4263    7.1111   43.5785 H         1 ALA         0.0277
    140 H60        56.5647    7.1475   42.0027 H         1 ALA         0.0277
    141 H61        59.8606   10.1843   41.3713 H         1 ARG         0.1883
    142 H62        61.1742   10.4801   43.9803 H         1 ARG         0.0800
    143 H63        62.2611   12.4497   42.8674 H         1 ARG         0.0313
    144 H64        61.2935   12.0972   41.3957 H         1 ARG         0.0313
    145 H65        63.5517   11.1773   41.1674 H         1 ARG         0.0301
    146 H66        62.3465    9.8485   41.2601 H         1 ARG         0.0301
    147 H67        64.1628    9.1652   42.6529 H         1 ARG         0.0689
    148 H68        62.8816    9.7337   43.7763 H         1 ARG         0.0689
    149 H69        64.1706   11.6934   44.2547 H         1 ARG         0.2642
    150 H70        67.6366   11.9351   43.7002 H         1 ARG         0.2615
    151 H71        66.2235   12.6172   44.5492 H         1 ARG         0.2615
    152 H72        65.7721    9.3971   42.0879 H         1 ARG         0.2615
    153 H73        67.3886   10.1057   42.3479 H         1 ARG         0.2615
    154 H74        60.9692   12.4261   45.2517 H         1 LYS         0.1883
    155 H75        58.1874   13.1735   45.4786 H         1 LYS         0.0800
    156 H76        58.9013   14.3244   47.5467 H         1 LYS         0.0312
    157 H77        60.6166   14.0120   47.1143 H         1 LYS         0.0312
    158 H78        60.0868   11.5409   47.1588 H         1 LYS         0.0269
    159 H79        58.4677   11.9639   47.8117 H         1 LYS         0.0269
    160 H80        59.3475   12.7756   49.8266 H         1 LYS         0.0317
    161 H81        60.9840   13.0223   49.1284 H         1 LYS         0.0317
    162 H82        61.2811   10.5713   48.9751 H         1 LYS         0.0813
    163 H83        59.6513   10.3336   49.6920 H         1 LYS         0.0813
    164 H84        61.3930   10.1468   51.3392 H         1 LYS         0.1994
    165 H85        60.4437   11.4489   51.6750 H         1 LYS         0.1994
    166 H86        61.9372   11.6667   51.0181 H         1 LYS         0.1994
    167 H87        57.2559   15.1645   45.7524 H         1 SER         0.1876
    168 H88        58.5451   17.3492   44.1702 H         1 SER         0.0749
    169 H89        56.2430   18.0234   43.5186 H         1 SER         0.0599
    170 H90        55.5709   16.6540   44.4671 H         1 SER         0.0599
    171 H91        56.7499   15.2537   43.0495 H         1 SER         0.2096
@<TRIPOS>BOND
     1    1    2 1  
     2    2    3 1  
     3    2    5 1  
     4    3    4 2  
     5    3    6 am 
     6    6    7 1  
     7    7    8 1  
     8    7   10 1  
     9    8    9 2  
    10    8   17 am 
    11   10   11 1  
    12   11   12 1  
    13   12   13 1  
    14   13   14 ar 
    15   14   15 ar 
    16   14   16 ar 
    17   17   18 1  
    18   18   19 1  
    19   18   21 1  
    20   19   20 2  
    21   19   24 am 
    22   21   22 1  
    23   21   23 1  
    24   24   25 1  
    25   25   26 1  
    26   25   28 1  
    27   26   27 2  
    28   26   33 am 
    29   28   29 1  
    30   29   30 1  
    31   30   31 1  
    32   31   32 1  
    33   33   34 1  
    34   34   35 1  
    35   34   37 1  
    36   35   36 2  
    37   35   42 am 
    38   37   38 1  
    39   38   39 1  
    40   39   40 2  
    41   39   41 am 
    42   42   43 1  
    43   43   44 1  
    44   43   46 1  
    45   44   45 2  
    46   44   49 am 
    47   46   47 1  
    48   46   48 1  
    49   49   50 1  
    50   50   51 1  
    51   50   53 1  
    52   51   52 2  
    53   51   54 am 
    54   54   55 1  
    55   55   56 1  
    56   55   58 1  
    57   56   57 2  
    58   56   65 am 
    59   58   59 1  
    60   59   60 1  
    61   60   61 1  
    62   61   62 ar 
    63   62   63 ar 
    64   62   64 ar 
    65   65   66 1  
    66   66   67 1  
    67   66   69 1  
    68   67   68 2  
    69   67   74 am 
    70   69   70 1  
    71   70   71 1  
    72   71   72 1  
    73   72   73 1  
    74   74   75 1  
    75   75   76 1  
    76   75   78 1  
    77   76   77 ar 
    78   76   80 ar 
    79   78   79 1  
    80    1   81 1  
    81    1   82 1  
    82    1   83 1  
    83    2   84 1  
    84    5   85 1  
    85    5   86 1  
    86    5   87 1  
    87    6   88 1  
    88    7   89 1  
    89   10   90 1  
    90   10   91 1  
    91   11   92 1  
    92   11   93 1  
    93   12   94 1  
    94   12   95 1  
    95   13   96 1  
    96   15   97 1  
    97   15   98 1  
    98   16   99 1  
    99   16  100 1  
   100   17  101 1  
   101   18  102 1  
   102   21  103 1  
   103   22  104 1  
   104   23  105 1  
   105   23  106 1  
   106   23  107 1  
   107   24  108 1  
   108   25  109 1  
   109   28  110 1  
   110   28  111 1  
   111   29  112 1  
   112   29  113 1  
   113   30  114 1  
   114   30  115 1  
   115   31  116 1  
   116   31  117 1  
   117   32  118 1  
   118   32  119 1  
   119   32  120 1  
   120   33  121 1  
   121   34  122 1  
   122   37  123 1  
   123   37  124 1  
   124   38  125 1  
   125   38  126 1  
   126   41  127 1  
   127   41  128 1  
   128   42  129 1  
   129   43  130 1  
   130   46  131 1  
   131   47  132 1  
   132   48  133 1  
   133   48  134 1  
   134   48  135 1  
   135   49  136 1  
   136   50  137 1  
   137   53  138 1  
   138   53  139 1  
   139   53  140 1  
   140   54  141 1  
   141   55  142 1  
   142   58  143 1  
   143   58  144 1  
   144   59  145 1  
   145   59  146 1  
   146   60  147 1  
   147   60  148 1  
   148   61  149 1  
   149   63  150 1  
   150   63  151 1  
   151   64  152 1  
   152   64  153 1  
   153   65  154 1  
   154   66  155 1  
   155   69  156 1  
   156   69  157 1  
   157   70  158 1  
   158   70  159 1  
   159   71  160 1  
   160   71  161 1  
   161   72  162 1  
   162   72  163 1  
   163   73  164 1  
   164   73  165 1  
   165   73  166 1  
   166   74  167 1  
   167   75  168 1  
   168   78  169 1  
   169   78  170 1  
   170   79  171 1  
@<TRIPOS>SUBSTRUCTURE
     1 ALA         1

