5mrm_ligand
  -I-interpret- 

 22 23  0  0  0  0  0  0  0  0999 V2000
   13.8330   30.1720  -17.8170 C   0  0  0  0  0
   15.0770   29.6470  -17.4210 C   0  0  0  0  0
   15.6670   28.7660  -18.2670 C   0  0  0  0  0
   16.7470   27.9830  -18.1260 C   0  0  0  0  0
   16.8930   27.3390  -19.2920 C   0  0  0  0  0
   15.6090   30.1380  -16.2040 C   0  0  0  0  0
   14.9320   31.0720  -15.4120 C   0  0  0  0  0
   19.0700   26.5840  -18.9680 F   0  0  0  0  0
   17.9720   26.3220  -19.6520 C   0  0  0  0  0
   18.2190   26.4250  -20.9930 F   0  0  0  0  0
   17.5550   25.0890  -19.3820 F   0  0  0  0  0
   15.9600   27.6950  -20.1620 N   0  0  0  0  0
   15.2010   28.5830  -19.5520 O   0  0  0  0  0
   13.1550   31.1080  -17.0390 C   0  0  0  0  0
   11.5080   31.7750  -17.5620 Br  0  0  0  0  0
   13.7020   31.5510  -15.8430 C   0  0  0  0  0
   15.6240   31.7470  -13.7650 Br  0  0  0  0  0
   16.8030   29.6980  -15.7400 O   0  0  0  0  0
   13.3891   29.8384  -18.7550 H   0  0  0  0  0
   17.3779   27.8895  -17.2421 H   0  0  0  0  0
   13.1626   32.2797  -15.2380 H   0  0  0  0  0
   17.0034   30.1360  -14.9096 H   0  0  0  0  0
  1  2  4  0  0  0
  1 14  4  0  0  0
  2  3  1  0  0  0
  2  6  4  0  0  0
  3  4  4  0  0  0
  3 13  4  0  0  0
  4  5  4  0  0  0
  5  9  1  0  0  0
  5 12  4  0  0  0
  6  7  4  0  0  0
  6 18  1  0  0  0
  7 16  4  0  0  0
  7 17  1  0  0  0
  9  8  1  0  0  0
  9 10  1  0  0  0
  9 11  1  0  0  0
 12 13  4  0  0  0
 14 15  1  0  0  0
 14 16  4  0  0  0
  1 19  1  0  0  0
  4 20  1  0  0  0
 16 21  1  0  0  0
 18 22  1  0  0  0
M  END
$$$$
