2wos_ligand
  -I-interpret- 

 34 36  0  0  0  0  0  0  0  0999 V2000
   21.7430   20.0510    3.6320 C   0  0  0  0  0
   23.1010   20.4280    3.3970 C   0  0  0  0  0
   23.6420   20.8160    2.0970 C   0  0  0  0  0
   24.9780   21.1090    1.9090 C   0  0  0  0  0
   25.7920   21.0550    3.0940 C   0  0  0  0  0
   27.4970   21.4090    2.9340 S   0  0  0  0  0
   27.7050   22.4810    1.8490 O   0  0  0  0  0
   28.1410   20.1610    2.3170 O   0  0  0  0  0
   28.1470   21.7150    4.2930 O   0  0  0  0  0
   25.2690   20.7540    4.3780 C   0  0  0  0  0
   23.9310   20.4170    4.5250 C   0  0  0  0  0
   23.3880   20.1240    5.8140 C   0  0  0  0  0
   22.0530   19.8140    6.0620 C   0  0  0  0  0
   21.2090   19.7340    4.9330 C   0  0  0  0  0
   19.9750   19.4480    5.1920 N   0  0  0  0  0
   19.0140   19.0120    4.2120 C   0  0  0  0  0
   17.6080   19.1710    4.3660 C   0  0  0  0  0
   16.5980   18.7750    3.4930 C   0  0  0  0  0
   16.9460   18.1280    2.3200 C   0  0  0  0  0
   18.3380   17.9360    2.0720 C   0  0  0  0  0
   19.3520   18.3270    3.0210 C   0  0  0  0  0
   21.0702   20.0000    2.7759 H   0  0  0  0  0
   22.9662   20.8765    1.2439 H   0  0  0  0  0
   25.3873   21.3634    0.9313 H   0  0  0  0  0
   27.3294   23.3129    2.1465 H   0  0  0  0  0
   25.9201   20.7876    5.2515 H   0  0  0  0  0
   24.0684   20.1446    6.6653 H   0  0  0  0  0
   21.6804   19.6426    7.0719 H   0  0  0  0  0
   19.6601   19.5374    6.1580 H   0  0  0  0  0
   17.2811   19.6642    5.2814 H   0  0  0  0  0
   15.5521   18.9710    3.7292 H   0  0  0  0  0
   16.1897   17.7803    1.6163 H   0  0  0  0  0
   18.6462   17.4777    1.1323 H   0  0  0  0  0
   20.3963   18.0906    2.8169 H   0  0  0  0  0
  1  2  4  0  0  0
  1 14  4  0  0  0
  2  3  4  0  0  0
  2 11  4  0  0  0
  3  4  4  0  0  0
  4  5  4  0  0  0
  5  6  1  0  0  0
  5 10  4  0  0  0
  6  7  1  0  0  0
  6  8  2  0  0  0
  6  9  2  0  0  0
 10 11  4  0  0  0
 11 12  4  0  0  0
 12 13  4  0  0  0
 13 14  4  0  0  0
 14 15  1  0  0  0
 15 16  1  0  0  0
 16 17  4  0  0  0
 16 21  4  0  0  0
 17 18  4  0  0  0
 18 19  4  0  0  0
 19 20  4  0  0  0
 20 21  4  0  0  0
  1 22  1  0  0  0
  3 23  1  0  0  0
  4 24  1  0  0  0
  7 25  1  0  0  0
 10 26  1  0  0  0
 12 27  1  0  0  0
 13 28  1  0  0  0
 15 29  1  0  0  0
 17 30  1  0  0  0
 18 31  1  0  0  0
 19 32  1  0  0  0
 20 33  1  0  0  0
 21 34  1  0  0  0
M  END
$$$$
