4bcq_ligand
  -I-interpret- 

 52 55  0  0  0  0  0  0  0  0999 V2000
   38.4680  -15.0910   37.0600 C   0  0  0  0  0
   37.1750  -14.4660   36.9910 N   0  0  0  0  0
   36.4400  -14.4390   35.7640 C   0  0  0  0  0
   35.4000  -13.5340   35.4600 N   0  0  0  0  0
   34.8570  -13.7820   34.1010 C   0  0  0  0  0
   33.7450  -12.9850   33.4970 C   0  0  0  0  0
   35.5490  -14.8810   33.4900 C   0  0  0  0  0
   35.3300  -15.4620   32.1310 C   0  0  0  0  0
   34.9940  -16.7590   32.0220 N   0  0  0  0  0
   34.8050  -17.3330   30.8300 C   0  0  0  0  0
   34.0840  -21.8960   32.5640 C   0  0  0  0  0
   34.4440  -18.7100   30.7000 N   0  0  0  0  0
   34.6680  -19.7230   31.6820 C   0  0  0  0  0
   35.6410  -19.5950   32.6620 C   0  0  0  0  0
   35.8330  -20.5970   33.6000 C   0  0  0  0  0
   35.0520  -21.7420   33.5570 C   0  0  0  0  0
   35.3430  -26.0850   31.9120 C   0  0  0  0  0
   34.5190  -26.6550   30.8760 O   0  0  0  0  0
   35.0460  -24.6300   32.0690 C   0  0  0  0  0
   33.7110  -24.4270   32.2350 N   0  0  0  0  0
   33.2160  -23.1080   32.4790 C   0  0  0  0  0
   32.0100  -22.9610   32.6190 O   0  0  0  0  0
   32.7830  -25.4210   32.1820 C   0  0  0  0  0
   33.1130  -26.4820   31.1730 C   0  0  0  0  0
   33.8950  -20.8800   31.6420 C   0  0  0  0  0
   34.9450  -16.6230   29.7030 N   0  0  0  0  0
   35.2820  -15.3290   29.7320 C   0  0  0  0  0
   35.4920  -14.7060   30.9600 C   0  0  0  0  0
   35.8700  -13.2650   30.9920 C   0  0  0  0  0
   36.1550  -12.1640   31.0120 N   0  0  0  0  0
   36.6710  -15.4360   34.5110 S   0  0  0  0  0
   38.3760  -16.1437   36.7928 H   0  0  0  0  0
   39.1467  -14.5964   36.3652 H   0  0  0  0  0
   38.8581  -15.0050   38.0742 H   0  0  0  0  0
   36.7772  -14.0369   37.8265 H   0  0  0  0  0
   32.8545  -13.0768   34.1189 H   0  0  0  0  0
   34.0413  -11.9378   33.4368 H   0  0  0  0  0
   33.5315  -13.3616   32.4966 H   0  0  0  0  0
   33.9879  -18.9932   29.8327 H   0  0  0  0  0
   36.2601  -18.6985   32.6948 H   0  0  0  0  0
   36.5964  -20.4853   34.3700 H   0  0  0  0  0
   35.1949  -22.5248   34.3019 H   0  0  0  0  0
   36.3915  -26.2068   31.6400 H   0  0  0  0  0
   35.1345  -26.5942   32.8529 H   0  0  0  0  0
   35.3735  -24.1047   31.1718 H   0  0  0  0  0
   35.5713  -24.2559   32.9478 H   0  0  0  0  0
   31.8332  -24.9720   31.8916 H   0  0  0  0  0
   32.7499  -25.8956   33.1627 H   0  0  0  0  0
   32.7698  -27.4260   31.5962 H   0  0  0  0  0
   32.6370  -26.1782   30.2407 H   0  0  0  0  0
   33.1295  -20.9879   30.8735 H   0  0  0  0  0
   35.3912  -14.7676   28.8041 H   0  0  0  0  0
  2  1  1  0  0  0
  3  2  1  0  0  0
  3  4  4  0  0  0
 31  3  4  0  0  0
  5  4  4  0  0  0
  5  6  1  0  0  0
  7  5  4  0  0  0
  8  7  1  0  0  0
  7 31  4  0  0  0
  9  8  4  0  0  0
  8 28  4  0  0  0
 10  9  4  0  0  0
 12 10  1  0  0  0
 10 26  4  0  0  0
 11 16  4  0  0  0
 21 11  1  0  0  0
 11 25  4  0  0  0
 13 12  1  0  0  0
 13 14  4  0  0  0
 25 13  4  0  0  0
 15 14  4  0  0  0
 16 15  4  0  0  0
 17 18  1  0  0  0
 19 17  1  0  0  0
 18 24  1  0  0  0
 20 19  1  0  0  0
 20 21  1  0  0  0
 20 23  1  0  0  0
 21 22  2  0  0  0
 23 24  1  0  0  0
 26 27  4  0  0  0
 27 28  4  0  0  0
 28 29  1  0  0  0
 29 30  3  0  0  0
  1 32  1  0  0  0
  1 33  1  0  0  0
  1 34  1  0  0  0
  2 35  1  0  0  0
  6 36  1  0  0  0
  6 37  1  0  0  0
  6 38  1  0  0  0
 12 39  1  0  0  0
 14 40  1  0  0  0
 15 41  1  0  0  0
 16 42  1  0  0  0
 17 43  1  0  0  0
 17 44  1  0  0  0
 19 45  1  0  0  0
 19 46  1  0  0  0
 23 47  1  0  0  0
 23 48  1  0  0  0
 24 49  1  0  0  0
 24 50  1  0  0  0
 25 51  1  0  0  0
 27 52  1  0  0  0
M  END
$$$$
