6qfv_ligand
  -I-interpret- 

 62 67  0  0  0  0  0  0  0  0999 V2000
   16.5090   10.1220   10.8490 C   0  0  0  0  0
   14.1130   10.0110   10.6490 C   0  0  0  0  0
   14.0520    8.7430   11.0770 C   0  0  0  0  0
   14.7350    2.4570   15.8360 C   0  0  0  0  0
   15.3090   10.6880   10.5540 C   0  0  0  0  0
   16.5920    8.8570   11.2140 N   0  0  0  0  0
   15.3730    8.1280   11.3770 C   0  0  0  0  0
   15.6890    1.3960   16.1260 C   0  0  0  0  0
   17.0740    1.6370   15.6970 C   0  0  0  0  0
   17.3870    2.8520   15.0990 C   0  0  0  0  0
   16.4390    3.7990   14.8090 C   0  0  0  0  0
   15.5720    6.7470   11.8720 C   0  0  0  0  0
   15.7240    0.1000   18.2960 O   0  0  0  0  0
   20.1230    7.0480   12.3910 C   0  0  0  0  0
   20.3020    7.8790   11.1490 C   0  0  0  0  0
   20.8070    7.3850    9.7830 C   0  0  0  0  0
   19.8150    9.2640   11.3700 C   0  0  0  0  0
   19.8760   10.5070   10.3800 C   0  0  0  0  0
   19.4190    9.2840   12.7660 C   0  0  0  0  0
   18.9160   10.4680   13.5000 C   0  0  0  0  0
   20.5520    5.5810   12.5150 C   0  0  0  0  0
   19.5690    7.9660   13.3820 C   0  0  0  0  0
   19.3360    7.6350   14.8580 C   0  0  0  0  0
   17.6380    6.8960    9.5460 Cl  0  0  0  0  0
   15.1810    0.0170   16.9510 S   0  0  0  0  0
   13.7130    0.0170   16.8830 O   0  0  0  0  0
   15.1460    3.5780   15.2380 C   0  0  0  0  0
   16.9780    4.9660   12.7730 C   0  0  0  0  0
   16.8580    5.0570   14.1680 C   0  0  0  0  0
   15.7800   -1.2230   16.1940 N   0  0  0  0  0
   16.8850    6.3570   12.1270 N   0  0  0  0  0
   14.5230    6.0530   12.0180 O   0  0  0  0  0
   18.2810    7.8010   11.6910 Ir  0  0  0  0  0
   17.4164   10.7223   10.7830 H   0  0  0  0  0
   13.1914   10.5208   10.3683 H   0  0  0  0  0
   13.1111    8.2057   11.1958 H   0  0  0  0  0
   13.6861    2.3363   16.1068 H   0  0  0  0  0
   15.2922   11.7275   10.2265 H   0  0  0  0  0
   17.8413    0.8771   15.8451 H   0  0  0  0  0
   18.4277    3.0602   14.8507 H   0  0  0  0  0
   21.8114    6.9766    9.8944 H   0  0  0  0  0
   20.1380    6.6104    9.4082 H   0  0  0  0  0
   20.8283    8.2191    9.0816 H   0  0  0  0  0
   20.9156   10.7233   10.1341 H   0  0  0  0  0
   19.3272   10.2710    9.4683 H   0  0  0  0  0
   19.4269   11.3757   10.8614 H   0  0  0  0  0
   19.6742   11.2510   13.4872 H   0  0  0  0  0
   18.0075   10.8323   13.0204 H   0  0  0  0  0
   18.6974   10.1890   14.5308 H   0  0  0  0  0
   20.0233    4.9850   11.7711 H   0  0  0  0  0
   21.6263    5.5026   12.3484 H   0  0  0  0  0
   20.3102    5.2162   13.5133 H   0  0  0  0  0
   18.6438    6.7967   14.9361 H   0  0  0  0  0
   20.2850    7.3689   15.3236 H   0  0  0  0  0
   18.9139    8.5046   15.3618 H   0  0  0  0  0
   14.4134    4.3691   15.0785 H   0  0  0  0  0
   16.1682    4.3451   12.3898 H   0  0  0  0  0
   17.9469    4.5295   12.5308 H   0  0  0  0  0
   17.8408    5.3131   14.5638 H   0  0  0  0  0
   16.0921    5.8026   14.3815 H   0  0  0  0  0
   16.4519   -1.8308   16.6626 H   0  0  0  0  0
   15.4969   -1.4200   15.2341 H   0  0  0  0  0
  1  5  4  0  0  0
  6  1  4  0  0  0
  3  2  4  0  0  0
  5  2  4  0  0  0
  7  3  4  0  0  0
  4  8  4  0  0  0
 27  4  4  0  0  0
  6  7  4  0  0  0
  7 12  1  0  0  0
  9  8  4  0  0  0
  8 25  1  0  0  0
 10  9  4  0  0  0
 11 10  4  0  0  0
 11 27  4  0  0  0
 29 11  1  0  0  0
 12 31  1  0  0  0
 12 32  2  0  0  0
 25 13  2  0  0  0
 14 15  4  0  0  0
 14 21  1  0  0  0
 14 22  4  0  0  0
 15 16  1  0  0  0
 15 17  4  0  0  0
 17 18  1  0  0  0
 19 17  4  0  0  0
 19 20  1  0  0  0
 22 19  4  0  0  0
 22 23  1  0  0  0
 25 26  2  0  0  0
 25 30  1  0  0  0
 28 29  1  0  0  0
 31 28  1  0  0  0
 33  6  1  0  0  0
 33 14  1  0  0  0
 33 15  1  0  0  0
 33 22  1  0  0  0
 33 24  1  0  0  0
 33 31  1  0  0  0
  1 34  1  0  0  0
  2 35  1  0  0  0
  3 36  1  0  0  0
  4 37  1  0  0  0
  5 38  1  0  0  0
  9 39  1  0  0  0
 10 40  1  0  0  0
 16 41  1  0  0  0
 16 42  1  0  0  0
 16 43  1  0  0  0
 18 44  1  0  0  0
 18 45  1  0  0  0
 18 46  1  0  0  0
 20 47  1  0  0  0
 20 48  1  0  0  0
 20 49  1  0  0  0
 21 50  1  0  0  0
 21 51  1  0  0  0
 21 52  1  0  0  0
 23 53  1  0  0  0
 23 54  1  0  0  0
 23 55  1  0  0  0
 27 56  1  0  0  0
 28 57  1  0  0  0
 28 58  1  0  0  0
 29 59  1  0  0  0
 29 60  1  0  0  0
 30 61  1  0  0  0
 30 62  1  0  0  0
M  END
$$$$
