### 
### Created by X-TOOL on Mon Aug  2 16:17:23 2021
### 

@<TRIPOS>MOLECULE
6qfv_ligand
   64    69     1     0     0
SMALL
GAST_HUCK


@<TRIPOS>ATOM
      1 C1         16.5090   10.1220   10.8490 C.ar      1 J0N         0.0170
      2 C3         14.1130   10.0110   10.6490 C.ar      1 J0N        -0.0365
      3 C4         14.0520    8.7430   11.0770 C.ar      1 J0N        -0.0138
      4 C11        14.7350    2.4570   15.8360 C.ar      1 J0N        -0.0419
      5 C2         15.3090   10.6880   10.5540 C.ar      1 J0N        -0.0295
      6 N1         16.5920    8.8570   11.2140 N.ar      1 J0N        -0.2760
      7 C5         15.3730    8.1280   11.3770 C.ar      1 J0N         0.1224
      8 C10        15.6890    1.3960   16.1260 C.ar      1 J0N         0.1009
      9 C9         17.0740    1.6370   15.6970 C.ar      1 J0N        -0.0419
     10 C8         17.3870    2.8520   15.0990 C.ar      1 J0N        -0.0584
     11 C7         16.4390    3.7990   14.8090 C.ar      1 J0N        -0.0410
     12 C6         15.5720    6.7470   11.8720 C.2       1 J0N         0.2241
     13 O1         15.7240    0.1000   18.2960 O.2       1 J0N        -0.1514
     14 C13        20.1230    7.0480   12.3910 C.ar      1 J0N        -0.0687
     15 C14        20.3020    7.8790   11.1490 C.ar      1 J0N        -0.0687
     16 C21        20.8070    7.3850    9.7830 C.3       1 J0N        -0.0435
     17 C15        19.8150    9.2640   11.3700 C.ar      1 J0N        -0.0687
     18 C20        19.8760   10.5070   10.3800 C.3       1 J0N        -0.0435
     19 C16        19.4190    9.2840   12.7660 C.ar      1 J0N        -0.0687
     20 C19        18.9160   10.4680   13.5000 C.3       1 J0N        -0.0435
     21 C22        20.5520    5.5810   12.5150 C.3       1 J0N        -0.0435
     22 C17        19.5690    7.9660   13.3820 C.ar      1 J0N        -0.0687
     23 C18        19.3360    7.6350   14.8580 C.3       1 J0N        -0.0435
     24 CL1        17.6380    6.8960    9.5460 Cl        1 J0N        -0.1454
     25 S1         15.1810    0.0170   16.9510 S.o2      1 J0N         0.0628
     26 O2         13.7130    0.0170   16.8830 O.2       1 J0N        -0.1514
     27 C12        15.1460    3.5780   15.2380 C.ar      1 J0N        -0.0584
     28 C23        16.9780    4.9660   12.7730 C.3       1 J0N         0.0401
     29 C24        16.8580    5.0570   14.1680 C.3       1 J0N         0.0011
     30 N3         15.7800   -1.2230   16.1940 N.am      1 J0N        -0.2617
     31 N2         16.8850    6.3570   12.1270 N.am      1 J0N        -0.2821
     32 O3         14.5230    6.0530   12.0180 O.2       1 J0N        -0.3789
     33 IR1        18.2810    7.8010   11.6910 Ir        1 J0N         2.0000
     34 H1         17.4114   10.7190   10.7834 H         1 J0N         0.0842
     35 H2         13.1964   10.5180   10.3699 H         1 J0N         0.0749
     36 H3         13.1163    8.2086   11.1951 H         1 J0N         0.0764
     37 H4         13.6919    2.3370   16.1053 H         1 J0N         0.0619
     38 H5         15.2923   11.7218   10.2283 H         1 J0N         0.0744
     39 H6         17.8371    0.8813   15.8442 H         1 J0N         0.0619
     40 H7         18.4220    3.0591   14.8520 H         1 J0N         0.0557
     41 H8         20.8289    8.2259    9.0742 H         1 J0N         0.0374
     42 H9         20.1326    6.6032    9.4036 H         1 J0N         0.0374
     43 H10        21.8207    6.9726    9.8941 H         1 J0N         0.0374
     44 H11        19.4230   11.3844   10.8648 H         1 J0N         0.0374
     45 H12        19.3224   10.2701    9.4595 H         1 J0N         0.0374
     46 H13        20.9247   10.7264   10.1310 H         1 J0N         0.0374
     47 H14        18.8943   11.3361   12.8247 H         1 J0N         0.0374
     48 H15        19.5801   10.6816   14.3505 H         1 J0N         0.0374
     49 H16        17.9000   10.2658   13.8699 H         1 J0N         0.0374
     50 H17        20.9240    5.2244   11.5432 H         1 J0N         0.0374
     51 H18        19.6898    4.9716   12.8235 H         1 J0N         0.0374
     52 H19        21.3500    5.4946   13.2672 H         1 J0N         0.0374
     53 H20        18.9100    8.5118   15.3676 H         1 J0N         0.0374
     54 H21        20.2930    7.3663   15.3291 H         1 J0N         0.0374
     55 H22        18.6375    6.7891   14.9383 H         1 J0N         0.0374
     56 H23        18.4713    6.3941    9.8101 H         1 J0N         0.1454
     57 H24        14.4174    4.3648   15.0794 H         1 J0N         0.0557
     58 H25        16.1690    4.3316   12.3818 H         1 J0N         0.0542
     59 H26        17.9502    4.5163   12.5229 H         1 J0N         0.0542
     60 H27        17.8341    5.3496   14.5822 H         1 J0N         0.0446
     61 H28        16.1129    5.8315   14.4027 H         1 J0N         0.0446
     62 H29        15.5955   -2.1482   16.5256 H         1 J0N         0.1634
     63 H30        16.3457   -1.0869   15.3807 H         1 J0N         0.1634
     64 H31        17.6817    6.9220   11.9125 H         1 J0N         0.1850
@<TRIPOS>BOND
     1    1    5 ar 
     2    6    1 ar 
     3    3    2 ar 
     4    5    2 ar 
     5    7    3 ar 
     6    4    8 ar 
     7   27    4 ar 
     8    6    7 ar 
     9    7   12 1  
    10    9    8 ar 
    11    8   25 1  
    12   10    9 ar 
    13   11   10 ar 
    14   11   27 ar 
    15   29   11 1  
    16   12   31 am 
    17   12   32 2  
    18   25   13 2  
    19   14   15 ar 
    20   14   21 1  
    21   14   22 ar 
    22   15   16 1  
    23   15   17 ar 
    24   17   18 1  
    25   19   17 ar 
    26   19   20 1  
    27   22   19 ar 
    28   22   23 1  
    29   25   26 2  
    30   25   30 am 
    31   28   29 1  
    32   31   28 1  
    33   33    6 1  
    34   33   14 1  
    35   33   15 1  
    36   33   22 1  
    37   33   24 1  
    38   33   31 1  
    39    1   34 1  
    40    2   35 1  
    41    3   36 1  
    42    4   37 1  
    43    5   38 1  
    44    9   39 1  
    45   10   40 1  
    46   16   41 1  
    47   16   42 1  
    48   16   43 1  
    49   18   44 1  
    50   18   45 1  
    51   18   46 1  
    52   20   47 1  
    53   20   48 1  
    54   20   49 1  
    55   21   50 1  
    56   21   51 1  
    57   21   52 1  
    58   23   53 1  
    59   23   54 1  
    60   23   55 1  
    61   24   56 1  
    62   27   57 1  
    63   28   58 1  
    64   28   59 1  
    65   29   60 1  
    66   29   61 1  
    67   30   62 1  
    68   30   63 1  
    69   31   64 1  
@<TRIPOS>SUBSTRUCTURE
     1 J0N         1

