6qr2_ligand
  -I-interpret- 

 38 41  0  0  0  0  0  0  0  0999 V2000
  -25.3390   22.0570  -10.4380 C   0  0  0  0  0
  -23.5780   20.8630  -11.1420 C   0  0  0  0  0
  -22.1520   19.0510  -11.9050 C   0  0  0  0  0
  -24.4750   18.5620  -11.4040 C   0  0  0  0  0
  -20.8980   15.9550  -12.5330 C   0  0  0  0  0
  -18.8820   17.4750  -12.6110 C   0  0  0  0  0
  -21.6940   25.6000  -10.1060 O   0  0  0  0  0
  -21.8270   24.6210   -9.0820 C   0  0  0  0  0
  -21.2500   24.8160   -7.9350 N   0  0  0  0  0
  -21.3520   23.9200   -6.9490 C   0  0  0  0  0
  -22.0820   22.7290   -7.1140 C   0  0  0  0  0
  -22.7160   22.4780   -8.3280 C   0  0  0  0  0
  -22.5800   23.4650   -9.3530 C   0  0  0  0  0
  -23.2150   23.3050  -10.6960 C   0  0  0  0  0
  -24.0330   22.1030  -10.7540 N   0  0  0  0  0
  -25.7760   20.7180  -10.6210 C   0  0  0  0  0
  -24.6610   19.9500  -11.0670 C   0  0  0  0  0
  -22.2990   20.4110  -11.5460 C   0  0  0  0  0
  -23.2290   18.1130  -11.8170 C   0  0  0  0  0
  -20.7660   18.5890  -12.2440 C   0  0  0  0  0
  -20.2490   17.3130  -12.4380 C   0  0  0  0  0
  -21.3450   14.9050  -12.6180 N   0  0  0  0  0
  -18.5940   18.8060  -12.4910 N   0  0  0  0  0
  -19.7290   19.4710  -12.2450 N   0  0  0  0  0
  -17.9130   16.4440  -12.8660 N   0  0  0  0  0
  -25.9508   22.8944  -10.1026 H   0  0  0  0  0
  -25.3111   17.8662  -11.3347 H   0  0  0  0  0
  -20.7096   25.6678   -7.7842 H   0  0  0  0  0
  -20.8592   24.1161   -5.9968 H   0  0  0  0  0
  -22.1508   22.0089   -6.2986 H   0  0  0  0  0
  -23.2920   21.5669   -8.4900 H   0  0  0  0  0
  -22.4272   23.2252  -11.4451 H   0  0  0  0  0
  -23.8533   24.1685  -10.8832 H   0  0  0  0  0
  -26.7855   20.3438  -10.4505 H   0  0  0  0  0
  -21.4496   21.0932  -11.5796 H   0  0  0  0  0
  -23.0732   17.0643  -12.0700 H   0  0  0  0  0
  -18.2103   15.4709  -12.9367 H   0  0  0  0  0
  -16.9282   16.6857  -12.9762 H   0  0  0  0  0
 15  1  4  0  0  0
 16  1  4  0  0  0
  2 15  4  0  0  0
  2 17  4  0  0  0
 18  2  4  0  0  0
  3 18  4  0  0  0
  3 19  4  0  0  0
 20  3  1  0  0  0
  4 17  4  0  0  0
 19  4  4  0  0  0
 21  5  1  0  0  0
  5 22  3  0  0  0
 21  6  4  0  0  0
  6 23  4  0  0  0
  6 25  1  0  0  0
  8  7  2  0  0  0
  8  9  1  0  0  0
 13  8  1  0  0  0
  9 10  1  0  0  0
 11 10  2  0  0  0
 12 11  1  0  0  0
 13 12  2  0  0  0
 14 13  1  0  0  0
 15 14  1  0  0  0
 17 16  4  0  0  0
 20 21  4  0  0  0
 20 24  4  0  0  0
 23 24  4  0  0  0
  1 26  1  0  0  0
  4 27  1  0  0  0
  9 28  1  0  0  0
 10 29  1  0  0  0
 11 30  1  0  0  0
 12 31  1  0  0  0
 14 32  1  0  0  0
 14 33  1  0  0  0
 16 34  1  0  0  0
 18 35  1  0  0  0
 19 36  1  0  0  0
 25 37  1  0  0  0
 25 38  1  0  0  0
M  END
$$$$
