2x6i_ligand
  -I-interpret- 

 46 49  0  0  0  0  0  0  0  0999 V2000
   20.2550   34.4150    7.0350 O   0  0  0  0  0
   19.9490   34.3170    8.2050 C   0  0  0  0  0
   20.7390   33.4230    9.1890 C   0  0  0  0  0
   20.2670   33.3120   10.6140 C   0  0  0  0  0
   20.8630   32.4680   11.4830 N   0  0  0  0  0
   21.9710   31.7220   11.0780 C   0  0  0  0  0
   22.4680   31.8640    9.7280 C   0  0  0  0  0
   21.8090   32.6880    8.8020 C   0  0  0  0  0
   18.5990   34.6830    8.6100 N   0  0  0  0  0
   18.0000   35.8260    8.0030 C   0  0  0  0  0
   18.7490   36.4340    6.9170 N   0  0  0  0  0
   18.1760   37.6000    6.2640 C   0  0  0  0  0
   18.7570   38.0850    5.1380 C   0  0  0  0  0
   19.9930   37.5540    4.7890 O   0  0  0  0  0
   21.1390   38.3470    5.0080 C   0  0  0  0  0
   16.8620   38.0630    6.6240 C   0  0  0  0  0
   16.1730   37.4990    7.8430 C   0  0  0  0  0
   16.7130   36.3770    8.4870 N   0  0  0  0  0
   16.0510   35.9200    9.6020 C   0  0  0  0  0
   14.8420   36.8770    9.7290 C   0  0  0  0  0
   14.9710   37.8700    8.5770 N   0  3  0  0  0
   16.2270   39.0410    5.8890 C   0  0  0  0  0
   16.8440   39.5650    4.7500 C   0  0  0  0  0
   18.1350   39.1130    4.3980 C   0  0  0  0  0
   18.7440   39.6470    3.2490 O   0  0  0  0  0
   18.1290   40.6320    2.4480 C   0  0  0  0  0
   19.4296   33.9235   10.9501 H   0  0  0  0  0
   22.4573   31.0382   11.7737 H   0  0  0  0  0
   23.3655   31.3246    9.4253 H   0  0  0  0  0
   22.1586   32.7364    7.7707 H   0  0  0  0  0
   19.6487   36.0549    6.6217 H   0  0  0  0  0
   21.0546   39.2710    4.4359 H   0  0  0  0  0
   21.2196   38.5814    6.0694 H   0  0  0  0  0
   22.0251   37.7992    4.6872 H   0  0  0  0  0
   16.0965   38.3048    7.1130 H   0  0  0  0  0
   16.6812   35.9261   10.4913 H   0  0  0  0  0
   15.7477   34.8773    9.5072 H   0  0  0  0  0
   14.8408   37.3869   10.6924 H   0  0  0  0  0
   13.8993   36.3322    9.6778 H   0  0  0  0  0
   14.1497   37.8369    7.9730 H   0  0  0  0  0
   15.0367   38.8265    8.9252 H   0  0  0  0  0
   15.2462   39.4047    6.1954 H   0  0  0  0  0
   16.3357   40.3127    4.1412 H   0  0  0  0  0
   17.1868   40.2459    2.0590 H   0  0  0  0  0
   17.9382   41.5207    3.0496 H   0  0  0  0  0
   18.7884   40.8878    1.6187 H   0  0  0  0  0
  1  2  2  0  0  0
  2  3  1  0  0  0
  2  9  1  0  0  0
  3  4  4  0  0  0
  3  8  4  0  0  0
  4  5  4  0  0  0
  5  6  4  0  0  0
  6  7  4  0  0  0
  7  8  4  0  0  0
  9 10  4  0  0  0
 10 11  1  0  0  0
 10 18  1  0  0  0
 11 12  1  0  0  0
 12 13  4  0  0  0
 12 16  4  0  0  0
 13 14  1  0  0  0
 13 24  4  0  0  0
 14 15  1  0  0  0
 16 17  1  0  0  0
 16 22  4  0  0  0
 17 18  1  0  0  0
 17 21  1  0  0  0
 18 19  1  0  0  0
 19 20  1  0  0  0
 20 21  1  0  0  0
 22 23  4  0  0  0
 23 24  4  0  0  0
 24 25  1  0  0  0
 25 26  1  0  0  0
  4 27  1  0  0  0
  6 28  1  0  0  0
  7 29  1  0  0  0
  8 30  1  0  0  0
 11 31  1  0  0  0
 15 32  1  0  0  0
 15 33  1  0  0  0
 15 34  1  0  0  0
 17 35  1  0  0  0
 19 36  1  0  0  0
 19 37  1  0  0  0
 20 38  1  0  0  0
 20 39  1  0  0  0
 21 40  1  0  0  0
 21 41  1  0  0  0
 22 42  1  0  0  0
 23 43  1  0  0  0
 26 44  1  0  0  0
 26 45  1  0  0  0
 26 46  1  0  0  0
M  END
$$$$
