2jsd_ligand
  -I-interpret- 

 39 39  0  0  0  0  0  0  0  0999 V2000
    7.0980   -5.6930    3.6030 C   0  0  0  0  0
    6.6160   -6.1160    2.3650 C   0  0  0  0  0
    6.0900   -5.1950    1.4600 C   0  0  0  0  0
    6.0900   -3.8570    1.7900 C   0  0  0  0  0
    6.5660   -3.4290    3.0170 C   0  0  0  0  0
    7.0430   -4.3450    3.9500 C   0  0  0  0  0
    5.5410   -5.5710    0.2580 O   0  0  0  0  0
    6.2410   -6.4310   -0.6560 C   0  0  0  0  0
    7.5470   -3.7500    5.5520 S   0  0  0  0  0
    7.3280   -2.3080    5.5350 O   0  0  0  0  0
    8.9040   -4.1860    5.8440 O   0  0  0  0  0
    6.5730   -4.3820    6.7360 N   0  0  0  0  0
    6.6020   -5.8470    7.1110 C   0  0  0  0  0
    5.3850   -3.5940    7.1700 C   0  0  0  0  0
    4.0980   -3.8260    6.4040 C   0  0  0  0  0
    4.1690   -3.6450    5.0800 N   0  0  0  0  0
    3.4260   -4.2840    4.2810 O   0  0  0  0  0
    3.0920   -4.2270    6.9460 O   0  0  0  0  0
    7.9320   -6.1400    7.8790 C   0  0  0  0  0
    8.8960   -7.0090    7.0530 C   0  0  0  0  0
    7.6020   -6.8190    9.2240 C   0  0  0  0  0
    7.5183   -6.4179    4.3001 H   0  0  0  0  0
    6.6506   -7.1735    2.1030 H   0  0  0  0  0
    5.7103   -3.1266    1.0756 H   0  0  0  0  0
    6.5673   -2.3653    3.2548 H   0  0  0  0  0
    7.1793   -5.9603   -0.9494 H   0  0  0  0  0
    6.4477   -7.3844   -0.1698 H   0  0  0  0  0
    5.6250   -6.5983   -1.5396 H   0  0  0  0  0
    6.5500   -6.4610    6.2119 H   0  0  0  0  0
    5.7477   -6.0845    7.7449 H   0  0  0  0  0
    5.6445   -2.5473    7.0113 H   0  0  0  0  0
    5.1821   -3.8975    8.1971 H   0  0  0  0  0
    8.4395   -5.1925    8.0599 H   0  0  0  0  0
    8.4183   -7.9614    6.8232 H   0  0  0  0  0
    9.1447   -6.4928    6.1258 H   0  0  0  0  0
    9.8056   -7.1863    7.6268 H   0  0  0  0  0
    6.9734   -6.1567    9.8193 H   0  0  0  0  0
    7.0730   -7.7536    9.0376 H   0  0  0  0  0
    8.5272   -7.0248    9.7623 H   0  0  0  0  0
  1  2  4  0  0  0
  1  6  4  0  0  0
  2  3  4  0  0  0
  3  4  4  0  0  0
  3  7  1  0  0  0
  4  5  4  0  0  0
  5  6  4  0  0  0
  6  9  1  0  0  0
  7  8  1  0  0  0
  9 10  2  0  0  0
  9 11  2  0  0  0
  9 12  1  0  0  0
 12 13  1  0  0  0
 12 14  1  0  0  0
 13 19  1  0  0  0
 14 15  1  0  0  0
 15 16  1  0  0  0
 15 18  2  0  0  0
 16 17  2  0  0  0
 19 20  1  0  0  0
 19 21  1  0  0  0
  1 22  1  0  0  0
  2 23  1  0  0  0
  4 24  1  0  0  0
  5 25  1  0  0  0
  8 26  1  0  0  0
  8 27  1  0  0  0
  8 28  1  0  0  0
 13 29  1  0  0  0
 13 30  1  0  0  0
 14 31  1  0  0  0
 14 32  1  0  0  0
 19 33  1  0  0  0
 20 34  1  0  0  0
 20 35  1  0  0  0
 20 36  1  0  0  0
 21 37  1  0  0  0
 21 38  1  0  0  0
 21 39  1  0  0  0
M  END
$$$$
