5a5d_ligand
  -I-interpret- 

 49 50  0  0  0  0  0  0  0  0999 V2000
   -8.5550    7.1820    2.9230 C   0  0  0  0  0
   -8.5620    7.5020    1.5620 C   0  0  0  0  0
   -9.6900    7.8940    0.9150 C   0  0  0  0  0
  -10.8120    8.2760    1.7120 C   0  0  0  0  0
  -10.7480    8.0270    3.0580 C   0  0  0  0  0
   -9.6460    7.5220    3.6700 C   0  0  0  0  0
  -11.9820    8.9890    1.1150 C   0  0  0  0  0
  -11.8440    9.4100   -0.1630 N   0  0  0  0  0
  -12.9640    9.3350    1.7850 O   0  0  0  0  0
  -12.6890   10.4680   -0.6840 C   0  0  0  0  0
  -12.3140   10.8910   -2.0750 C   0  0  0  0  0
  -10.8660   11.2500   -2.3770 C   0  0  0  0  0
   -7.8830   11.9650   -1.8370 N   0  0  0  0  0
   -6.5730   12.2020   -2.1230 C   0  0  0  0  0
   -5.6650   11.0060   -2.0600 C   0  0  0  0  0
   -6.1750   13.3220   -2.4950 O   0  0  0  0  0
   -6.1300    9.7190   -1.7420 C   0  0  0  0  0
   -5.2780    8.5980   -1.8040 C   0  0  0  0  0
   -3.9360    8.7990   -1.9980 C   0  0  0  0  0
   -3.4970   10.0510   -2.3460 C   0  0  0  0  0
   -4.3090   11.1490   -2.3920 C   0  0  0  0  0
   -7.4310    9.4030   -1.4420 O   0  0  0  0  0
   -5.7860    7.3890   -1.5320 O   0  0  0  0  0
  -10.3390   12.3800   -1.5620 C   0  0  0  0  0
   -9.6230    8.1060   -0.4390 O   0  0  0  0  0
   -8.9670   12.9600   -1.9220 C   0  0  0  0  0
   -7.4590    7.2200    0.8500 O   0  0  0  0  0
   -7.7024    6.6753    3.3750 H   0  0  0  0  0
  -11.6250    8.2451    3.6675 H   0  0  0  0  0
   -9.6326    7.3888    4.7517 H   0  0  0  0  0
  -11.1410    8.9807   -0.7646 H   0  0  0  0  0
  -12.5744   11.3343   -0.0324 H   0  0  0  0  0
  -13.7107   10.0896   -0.7172 H   0  0  0  0  0
  -12.8715   11.8118   -2.2466 H   0  0  0  0  0
  -12.5212   10.0202   -2.6970 H   0  0  0  0  0
  -10.8201   11.5563   -3.4221 H   0  0  0  0  0
  -10.2606   10.3739   -2.1446 H   0  0  0  0  0
   -8.1346   11.0223   -1.5398 H   0  0  0  0  0
   -3.2296    7.9777   -1.8777 H   0  0  0  0  0
   -2.4443   10.1768   -2.5993 H   0  0  0  0  0
   -3.9097   12.1209   -2.6821 H   0  0  0  0  0
   -7.4971    8.4626   -1.2608 H   0  0  0  0  0
   -5.0953    6.7273   -1.6132 H   0  0  0  0  0
  -10.2241   11.9775   -0.5556 H   0  0  0  0  0
  -11.0441   13.1968   -1.7160 H   0  0  0  0  0
  -10.4854    8.3768   -0.7624 H   0  0  0  0  0
   -9.0148   13.3128   -2.9522 H   0  0  0  0  0
   -8.7450   13.7555   -1.2107 H   0  0  0  0  0
   -7.5918    7.4866   -0.0626 H   0  0  0  0  0
  2  1  4  0  0  0
  6  1  4  0  0  0
  3  2  4  0  0  0
  2 27  1  0  0  0
  4  3  4  0  0  0
  3 25  1  0  0  0
  4  5  4  0  0  0
  7  4  1  0  0  0
  5  6  4  0  0  0
  8  7  1  0  0  0
  7  9  2  0  0  0
 10  8  1  0  0  0
 11 10  1  0  0  0
 12 11  1  0  0  0
 24 12  1  0  0  0
 13 14  1  0  0  0
 26 13  1  0  0  0
 14 15  1  0  0  0
 14 16  2  0  0  0
 15 17  4  0  0  0
 15 21  4  0  0  0
 17 18  4  0  0  0
 17 22  1  0  0  0
 18 19  4  0  0  0
 18 23  1  0  0  0
 20 19  4  0  0  0
 21 20  4  0  0  0
 24 26  1  0  0  0
  1 28  1  0  0  0
  5 29  1  0  0  0
  6 30  1  0  0  0
  8 31  1  0  0  0
 10 32  1  0  0  0
 10 33  1  0  0  0
 11 34  1  0  0  0
 11 35  1  0  0  0
 12 36  1  0  0  0
 12 37  1  0  0  0
 13 38  1  0  0  0
 19 39  1  0  0  0
 20 40  1  0  0  0
 21 41  1  0  0  0
 22 42  1  0  0  0
 23 43  1  0  0  0
 24 44  1  0  0  0
 24 45  1  0  0  0
 25 46  1  0  0  0
 26 47  1  0  0  0
 26 48  1  0  0  0
 27 49  1  0  0  0
M  END
$$$$
