4n8d_ligand
  -I-interpret- 

 52 54  0  0  0  0  0  0  0  0999 V2000
   17.9940   33.9110   54.6070 C   0  0  0  0  0
   18.2790   35.4180   54.8790 C   0  0  0  0  0
   17.1200   33.2450   55.7300 C   0  0  0  0  0
   19.2280   37.5620   54.0980 C   0  0  0  0  0
   18.4430   37.3480   56.3660 C   0  0  0  0  0
   16.2400   31.4030   54.1060 C   0  0  0  0  0
   19.0030   38.1390   55.3550 C   0  0  0  0  0
   15.6190   29.4110   52.8410 C   0  0  0  0  0
   15.5180   27.9080   52.9550 C   0  0  0  0  0
   16.3170   27.0460   52.2970 C   0  0  0  0  0
   16.1960   25.5370   52.4070 C   0  0  0  0  0
   16.2780   24.7730   51.2200 C   0  0  0  0  0
   15.9770   24.8670   53.6390 C   0  0  0  0  0
   16.1610   23.3650   51.2650 C   0  0  0  0  0
   15.8600   23.4590   53.6850 C   0  0  0  0  0
   15.9640   22.7080   52.4970 C   0  0  0  0  0
   17.1710   33.7180   53.2820 C   0  0  0  0  0
   19.4150   33.2560   54.5200 C   0  0  0  0  0
   18.8650   36.2150   53.8770 C   0  0  0  0  0
   18.0780   36.0250   56.1590 C   0  0  0  0  0
   16.8910   31.7170   55.4930 C   0  0  0  0  0
   16.8740   32.2210   52.9270 C   0  0  0  0  0
   20.1570   33.4130   55.7810 N   0  3  0  0  0
   16.3840   29.9550   53.9570 O   0  0  0  0  0
   16.1453   33.7329   55.7278 H   0  0  0  0  0
   17.6480   33.3605   56.6765 H   0  0  0  0  0
   19.6794   38.1479   53.2973 H   0  0  0  0  0
   18.2881   37.7874   57.3514 H   0  0  0  0  0
   15.1942   31.7077   54.0680 H   0  0  0  0  0
   19.2586   39.1820   55.5421 H   0  0  0  0  0
   14.6156   29.8366   52.8573 H   0  0  0  0  0
   16.1234   29.6633   51.9083 H   0  0  0  0  0
   14.7509   27.4955   53.6104 H   0  0  0  0  0
   17.0932   27.4546   51.6499 H   0  0  0  0  0
   16.4325   25.2731   50.2639 H   0  0  0  0  0
   15.8982   25.4447   54.5600 H   0  0  0  0  0
   16.2233   22.7851   50.3441 H   0  0  0  0  0
   15.6898   22.9556   54.6367 H   0  0  0  0  0
   15.8923   21.6209   52.5305 H   0  0  0  0  0
   17.7676   34.1305   52.4684 H   0  0  0  0  0
   16.2103   34.2130   53.4237 H   0  0  0  0  0
   19.9751   33.7487   53.7253 H   0  0  0  0  0
   19.2937   32.1914   54.3201 H   0  0  0  0  0
   19.0450   35.7767   52.8954 H   0  0  0  0  0
   17.6379   35.4479   56.9722 H   0  0  0  0  0
   16.2114   31.3597   56.2667 H   0  0  0  0  0
   17.8646   31.2276   55.5207 H   0  0  0  0  0
   16.1559   32.2182   52.1070 H   0  0  0  0  0
   17.8260   31.7508   52.6809 H   0  0  0  0  0
   21.0747   32.9770   55.6907 H   0  0  0  0  0
   20.2697   34.4057   55.9865 H   0  0  0  0  0
   19.6392   32.9648   56.5369 H   0  0  0  0  0
  1  2  1  0  0  0
  3  1  1  0  0  0
  1 17  1  0  0  0
  1 18  1  0  0  0
  2 19  4  0  0  0
  2 20  4  0  0  0
 21  3  1  0  0  0
  4  7  4  0  0  0
 19  4  4  0  0  0
  5  7  4  0  0  0
 20  5  4  0  0  0
  6 21  1  0  0  0
  6 22  1  0  0  0
 24  6  1  0  0  0
  8  9  1  0  0  0
  8 24  1  0  0  0
  9 10  2  0  0  0
 10 11  1  0  0  0
 11 12  4  0  0  0
 11 13  4  0  0  0
 12 14  4  0  0  0
 13 15  4  0  0  0
 14 16  4  0  0  0
 15 16  4  0  0  0
 17 22  1  0  0  0
 18 23  1  0  0  0
  3 25  1  0  0  0
  3 26  1  0  0  0
  4 27  1  0  0  0
  5 28  1  0  0  0
  6 29  1  0  0  0
  7 30  1  0  0  0
  8 31  1  0  0  0
  8 32  1  0  0  0
  9 33  1  0  0  0
 10 34  1  0  0  0
 12 35  1  0  0  0
 13 36  1  0  0  0
 14 37  1  0  0  0
 15 38  1  0  0  0
 16 39  1  0  0  0
 17 40  1  0  0  0
 17 41  1  0  0  0
 18 42  1  0  0  0
 18 43  1  0  0  0
 19 44  1  0  0  0
 20 45  1  0  0  0
 21 46  1  0  0  0
 21 47  1  0  0  0
 22 48  1  0  0  0
 22 49  1  0  0  0
 23 50  1  0  0  0
 23 51  1  0  0  0
 23 52  1  0  0  0
M  END
$$$$
