3mea_ligand
  -I-interpret- 

 82 81  0  0  0  0  0  0  0  0999 V2000
   22.4470   21.8520    4.2010 N   0  3  0  0  0
   21.8230   21.6540    5.5520 C   0  0  0  0  0
   22.5720   22.5230    6.5410 C   0  0  0  0  0
   23.7480   22.8290    6.3540 O   0  0  0  0  0
   21.8440   20.1830    5.9780 C   0  0  0  0  0
   21.8680   22.9560    7.5610 N   0  0  0  0  0
   22.4610   23.7400    8.6310 C   0  0  0  0  0
   22.6510   22.8140    9.8220 C   0  0  0  0  0
   21.6850   22.2590   10.3470 O   0  0  0  0  0
   21.5220   24.8700    8.9920 C   0  0  0  0  0
   22.0040   25.8510   10.0340 C   0  0  0  0  0
   20.8320   26.7880   10.3590 C   0  0  0  0  0
   21.1830   27.9140   11.2290 N   0  0  0  0  0
   20.2920   28.7320   11.8110 C   0  0  0  0  0
   18.9800   28.5450   11.6350 N   0  0  0  0  0
   20.7140   29.7400   12.5770 N   0  0  0  0  0
   23.8940   22.6050   10.2250 N   0  0  0  0  0
   24.2130   21.7300   11.3500 C   0  0  0  0  0
   24.2950   22.5370   12.6500 C   0  0  0  0  0
   24.2720   23.7840   12.6350 O   0  0  0  0  0
   25.5410   20.9360   11.1280 C   0  0  0  0  0
   26.6430   21.8460   11.0970 O   0  0  0  0  0
   25.5240   20.1080    9.8430 C   0  0  0  0  0
   24.3850   21.8200   13.7680 N   0  0  0  0  0
   24.5150   22.4450   15.1150 C   0  0  0  0  0
   24.2590   21.3700   16.2330 C   0  0  0  0  0
   25.4440   20.4260   16.3590 C   0  0  0  0  0
   25.2760   19.0700   17.0440 C   0  0  0  0  0
   24.1990   19.0760   18.0790 C   0  0  0  0  0
   24.3230   17.9460   19.0710 N   0  3  0  0  0
   25.8260   23.1920   15.3220 C   0  0  0  0  0
   26.0150   23.8810   16.3430 O   0  0  0  0  0
   24.6950   18.4650   20.4010 C   0  0  0  0  0
   25.2330   16.8190   18.7310 C   0  0  0  0  0
   23.0010   17.3480   19.1680 C   0  0  0  0  0
   26.7314   23.1123   14.4494 O   0  0  0  0  0
   22.4137   22.8411    3.9541 H   0  0  0  0  0
   23.4175   21.5393    4.2270 H   0  0  0  0  0
   21.9322   21.3097    3.5073 H   0  0  0  0  0
   20.7728   21.9437    5.5166 H   0  0  0  0  0
   22.8761   19.8368    6.0332 H   0  0  0  0  0
   21.3729   20.0825    6.9558 H   0  0  0  0  0
   21.2980   19.5866    5.2471 H   0  0  0  0  0
   20.8731   22.7350    7.6037 H   0  0  0  0  0
   23.4180   24.1653    8.3287 H   0  0  0  0  0
   20.6347   24.3980    9.4138 H   0  0  0  0  0
   21.3849   25.4481    8.0781 H   0  0  0  0  0
   22.8550   26.4195    9.6589 H   0  0  0  0  0
   22.3329   25.3254   10.9305 H   0  0  0  0  0
   20.0848   26.1956   10.8871 H   0  0  0  0  0
   20.4861   27.2082    9.4146 H   0  0  0  0  0
   22.1726   28.0881   11.4043 H   0  0  0  0  0
   18.3109   29.1701   12.0845 H   0  0  0  0  0
   18.6481   27.7772   11.0513 H   0  0  0  0  0
   21.7130   29.8884   12.7199 H   0  0  0  0  0
   24.6560   23.0713    9.7327 H   0  0  0  0  0
   23.4057   21.0015   11.4254 H   0  0  0  0  0
   25.6447   20.2395   11.9600 H   0  0  0  0  0
   27.4573   21.3562   10.9606 H   0  0  0  0  0
   24.7067   19.3882    9.8869 H   0  0  0  0  0
   25.3821   20.7692    8.9881 H   0  0  0  0  0
   26.4712   19.5784    9.7410 H   0  0  0  0  0
   24.3642   20.8025   13.7002 H   0  0  0  0  0
   23.7471   23.2153   15.1861 H   0  0  0  0  0
   23.3755   20.7900   15.9661 H   0  0  0  0  0
   24.1153   21.8814   17.1848 H   0  0  0  0  0
   26.1524   20.9627   16.9900 H   0  0  0  0  0
   25.7050   20.1795   15.3298 H   0  0  0  0  0
   26.2156   18.8273   17.5404 H   0  0  0  0  0
   25.0025   18.3413   16.2809 H   0  0  0  0  0
   23.2451   18.9609   17.5643 H   0  0  0  0  0
   24.2774   20.0118   18.6323 H   0  0  0  0  0
   25.6512   18.9838   20.3327 H   0  0  0  0  0
   23.9280   19.1581   20.7467 H   0  0  0  0  0
   24.7796   17.6352   21.1027 H   0  0  0  0  0
   24.8989   16.3505   17.8052 H   0  0  0  0  0
   26.2468   17.1983   18.6025 H   0  0  0  0  0
   25.2176   16.0854   19.5371 H   0  0  0  0  0
   22.2888   18.0978   19.5125 H   0  0  0  0  0
   22.6974   16.9799   18.1880 H   0  0  0  0  0
   23.0294   16.5197   19.8759 H   0  0  0  0  0
   26.4335   22.5490   13.7314 H   0  0  0  0  0
  1  2  1  0  0  0
  2  3  1  0  0  0
  2  5  1  0  0  0
  3  4  2  0  0  0
  3  6  1  0  0  0
  6  7  1  0  0  0
  7  8  1  0  0  0
  7 10  1  0  0  0
  8  9  2  0  0  0
  8 17  1  0  0  0
 10 11  1  0  0  0
 11 12  1  0  0  0
 12 13  1  0  0  0
 13 14  1  0  0  0
 14 15  1  0  0  0
 14 16  2  0  0  0
 17 18  1  0  0  0
 18 19  1  0  0  0
 18 21  1  0  0  0
 19 20  2  0  0  0
 19 24  1  0  0  0
 21 22  1  0  0  0
 21 23  1  0  0  0
 24 25  1  0  0  0
 25 26  1  0  0  0
 25 31  1  0  0  0
 26 27  1  0  0  0
 27 28  1  0  0  0
 28 29  1  0  0  0
 29 30  1  0  0  0
 30 33  1  0  0  0
 30 34  1  0  0  0
 30 35  1  0  0  0
 31 32  2  0  0  0
 31 36  1  0  0  0
  1 37  1  0  0  0
  1 38  1  0  0  0
  1 39  1  0  0  0
  2 40  1  0  0  0
  5 41  1  0  0  0
  5 42  1  0  0  0
  5 43  1  0  0  0
  6 44  1  0  0  0
  7 45  1  0  0  0
 10 46  1  0  0  0
 10 47  1  0  0  0
 11 48  1  0  0  0
 11 49  1  0  0  0
 12 50  1  0  0  0
 12 51  1  0  0  0
 13 52  1  0  0  0
 15 53  1  0  0  0
 15 54  1  0  0  0
 16 55  1  0  0  0
 17 56  1  0  0  0
 18 57  1  0  0  0
 21 58  1  0  0  0
 22 59  1  0  0  0
 23 60  1  0  0  0
 23 61  1  0  0  0
 23 62  1  0  0  0
 24 63  1  0  0  0
 25 64  1  0  0  0
 26 65  1  0  0  0
 26 66  1  0  0  0
 27 67  1  0  0  0
 27 68  1  0  0  0
 28 69  1  0  0  0
 28 70  1  0  0  0
 29 71  1  0  0  0
 29 72  1  0  0  0
 33 73  1  0  0  0
 33 74  1  0  0  0
 33 75  1  0  0  0
 34 76  1  0  0  0
 34 77  1  0  0  0
 34 78  1  0  0  0
 35 79  1  0  0  0
 35 80  1  0  0  0
 35 81  1  0  0  0
 36 82  1  0  0  0
M  END
$$$$
