6m8w_ligand
  -I-interpret- 

 57 57  0  0  0  0  0  0  0  0999 V2000
   20.6970   11.3770    7.9610 C   0  0  0  0  0
   21.1270   10.2790    8.2290 O   0  0  0  0  0
   19.1710   11.6140    7.8760 C   0  0  0  0  0
   21.4720   12.4370    7.6780 N   0  0  0  0  0
   22.9020   12.2980    7.5840 C   0  0  0  0  0
   23.6370   13.0340    8.6950 C   0  0  0  0  0
   24.8690   13.0630    8.6830 O   0  0  0  0  0
   23.4350   12.6950    6.1970 C   0  0  0  0  0
   23.1860   14.1540    5.8290 C   0  0  0  0  0
   22.9030   11.7700    5.0960 C   0  0  0  0  0
   23.9880   14.6330    4.6430 C   0  0  0  0  0
   22.9760   13.6290    9.6580 N   0  0  0  0  0
   23.6930   14.3120   10.7510 C   0  0  0  0  0
   24.5270   13.3270   11.5460 C   0  0  0  0  0
   24.1150   12.1930   11.8240 O   0  0  0  0  0
   22.6850   15.0000   11.6480 C   0  0  0  0  0
   25.7060   13.7870   11.9640 N   0  0  0  0  0
   26.5770   13.0150   12.8550 C   0  0  0  0  0
   26.5810   13.7900   14.2500 C   0  0  0  0  0
   27.3460   13.1800   15.2110 O   0  0  0  0  0
   28.0090   12.9310   12.3010 C   0  0  0  0  0
   28.1740   11.9490   11.1790 C   0  0  0  0  0
   29.1480   12.1660   10.2030 C   0  0  0  0  0
   27.4250   10.7290   11.1300 C   0  0  0  0  0
   29.3940   11.2220    9.2100 C   0  0  0  0  0
   27.6590    9.8270   10.0900 C   0  0  0  0  0
   28.6290   10.0810    9.1290 C   0  0  0  0  0
   25.8190   14.9300   14.2430 O   0  0  0  0  0
   18.7470   10.9705    7.1051 H   0  0  0  0  0
   18.7142   11.3805    8.8377 H   0  0  0  0  0
   18.9801   12.6575    7.6254 H   0  0  0  0  0
   21.0429   13.3501    7.5281 H   0  0  0  0  0
   23.1093   11.2364    7.7189 H   0  0  0  0  0
   24.5159   12.5749    6.2696 H   0  0  0  0  0
   23.4827   14.7590    6.6858 H   0  0  0  0  0
   22.1323   14.2459    5.5655 H   0  0  0  0  0
   21.8314   11.9293    4.9757 H   0  0  0  0  0
   23.4123   11.9930    4.1584 H   0  0  0  0  0
   23.0884   10.7325    5.3739 H   0  0  0  0  0
   25.0513   14.5321    4.8604 H   0  0  0  0  0
   23.7359   14.0323    3.7691 H   0  0  0  0  0
   23.7538   15.6792    4.4463 H   0  0  0  0  0
   21.9561   13.6195    9.6514 H   0  0  0  0  0
   24.3704   15.0538   10.3280 H   0  0  0  0  0
   22.1206   15.7287   11.0662 H   0  0  0  0  0
   22.0031   14.2575   12.0626 H   0  0  0  0  0
   23.2084   15.5071   12.4585 H   0  0  0  0  0
   26.0130   14.7086   11.6529 H   0  0  0  0  0
   26.2143   11.9920   12.9554 H   0  0  0  0  0
   27.7403   12.3840   14.8469 H   0  0  0  0  0
   28.6518   12.6002   13.1167 H   0  0  0  0  0
   28.2613   13.9158   11.9078 H   0  0  0  0  0
   29.7257   13.0902   10.2187 H   0  0  0  0  0
   26.6813   10.5074   11.8954 H   0  0  0  0  0
   30.1974   11.3876    8.4923 H   0  0  0  0  0
   27.0720    8.9104   10.0316 H   0  0  0  0  0
   28.7842    9.3772    8.3113 H   0  0  0  0  0
  1  2  2  0  0  0
  1  3  1  0  0  0
  1  4  1  0  0  0
  4  5  1  0  0  0
  5  6  1  0  0  0
  5  8  1  0  0  0
  6  7  2  0  0  0
  6 12  1  0  0  0
  8  9  1  0  0  0
  8 10  1  0  0  0
  9 11  1  0  0  0
 12 13  1  0  0  0
 13 14  1  0  0  0
 13 16  1  0  0  0
 14 15  2  0  0  0
 14 17  1  0  0  0
 17 18  1  0  0  0
 18 19  1  0  0  0
 18 21  1  0  0  0
 19 20  1  0  0  0
 19 28  2  0  0  0
 21 22  1  0  0  0
 22 23  4  0  0  0
 22 24  4  0  0  0
 23 25  4  0  0  0
 24 26  4  0  0  0
 25 27  4  0  0  0
 26 27  4  0  0  0
  3 29  1  0  0  0
  3 30  1  0  0  0
  3 31  1  0  0  0
  4 32  1  0  0  0
  5 33  1  0  0  0
  8 34  1  0  0  0
  9 35  1  0  0  0
  9 36  1  0  0  0
 10 37  1  0  0  0
 10 38  1  0  0  0
 10 39  1  0  0  0
 11 40  1  0  0  0
 11 41  1  0  0  0
 11 42  1  0  0  0
 12 43  1  0  0  0
 13 44  1  0  0  0
 16 45  1  0  0  0
 16 46  1  0  0  0
 16 47  1  0  0  0
 17 48  1  0  0  0
 18 49  1  0  0  0
 20 50  1  0  0  0
 21 51  1  0  0  0
 21 52  1  0  0  0
 23 53  1  0  0  0
 24 54  1  0  0  0
 25 55  1  0  0  0
 26 56  1  0  0  0
 27 57  1  0  0  0
M  END
$$$$
