5za2_ligand
  -I-interpret- 

 31 31  0  0  0  0  0  0  0  0999 V2000
    9.9110   -7.8470  -30.5930 O   0  0  0  0  0
   11.0250   -7.4200  -30.8190 C   0  0  0  0  0
   11.3870   -6.2260  -30.3160 N   0  0  0  0  0
   12.7410   -5.7260  -30.4930 C   0  0  0  0  0
   10.4450   -5.4270  -29.5500 C   0  0  0  0  0
    9.8790   -4.3480  -30.4680 C   0  0  0  0  0
   10.5540   -3.4100  -30.8940 O   0  0  0  0  0
    8.5620   -4.4480  -30.8660 N   0  0  0  0  0
   11.0880   -4.7630  -28.2960 C   0  0  0  0  0
   12.5440   -4.3400  -28.5020 C   0  0  0  0  0
   13.3260   -5.4730  -29.0890 C   0  0  0  0  0
   13.0980   -6.7220  -28.2500 N   0  3  0  0  0
   14.0080   -7.6530  -28.6750 O   0  0  0  0  0
   13.4120   -9.2160  -28.3530 S   0  0  0  0  0
   13.3050   -9.2730  -26.9310 O   0  0  0  0  0
   12.1670   -9.1910  -29.0240 O   0  0  0  0  0
   14.4830   -9.9680  -28.9400 O   0  0  0  0  0
   11.7243   -7.9981  -31.4231 H   0  0  0  0  0
   12.7351   -4.8051  -31.0761 H   0  0  0  0  0
   13.3482   -6.4509  -31.0350 H   0  0  0  0  0
    9.6617   -6.0899  -29.1823 H   0  0  0  0  0
    8.1667   -3.7537  -31.5001 H   0  0  0  0  0
    7.9835   -5.2163  -30.5262 H   0  0  0  0  0
   11.0734   -5.5003  -27.4934 H   0  0  0  0  0
   10.5153   -3.8624  -28.0745 H   0  0  0  0  0
   12.9775   -4.0642  -27.5407 H   0  0  0  0  0
   12.5781   -3.4892  -29.1825 H   0  0  0  0  0
   14.3908   -5.2424  -29.1224 H   0  0  0  0  0
   12.1449   -7.0671  -28.3635 H   0  0  0  0  0
   13.2205   -6.5206  -27.2576 H   0  0  0  0  0
   14.4629   -9.8604  -29.8937 H   0  0  0  0  0
  1  2  2  0  0  0
  2  3  1  0  0  0
  3  4  1  0  0  0
  3  5  1  0  0  0
  4 11  1  0  0  0
  5  6  1  0  0  0
  5  9  1  0  0  0
  6  7  2  0  0  0
  6  8  1  0  0  0
  9 10  1  0  0  0
 10 11  1  0  0  0
 11 12  1  0  0  0
 12 13  1  0  0  0
 13 14  1  0  0  0
 14 15  2  0  0  0
 14 16  2  0  0  0
 14 17  1  0  0  0
  2 18  1  0  0  0
  4 19  1  0  0  0
  4 20  1  0  0  0
  5 21  1  0  0  0
  8 22  1  0  0  0
  8 23  1  0  0  0
  9 24  1  0  0  0
  9 25  1  0  0  0
 10 26  1  0  0  0
 10 27  1  0  0  0
 11 28  1  0  0  0
 12 29  1  0  0  0
 12 30  1  0  0  0
 17 31  1  0  0  0
M  END
$$$$
