1h5v_ligand
  -I-interpret- 

111115  0  0  0  0  0  0  0  0999 V2000
   -4.4270   43.7280   11.9730 C   0  0  0  0  0
   -5.7070   43.0230   11.6400 C   0  0  0  0  0
   -6.8880   43.9750   11.7590 C   0  0  0  0  0
   -6.8880   44.6830   13.0950 C   0  0  0  0  0
   -5.5190   45.3580   13.2750 C   0  0  0  0  0
   -5.3720   46.0850   14.5860 C   0  0  0  0  0
   -5.6890   42.4950   10.2930 O   0  0  0  0  0
   -8.1220   43.2520   11.6090 O   0  0  0  0  0
   -7.9520   45.6360   13.1030 O   0  0  0  0  0
   -4.5010   44.3910   13.2340 O   0  0  0  0  0
   -5.5570   45.2470   15.6890 O   0  0  0  0  0
    1.2250   43.4920   11.7580 C   0  0  0  0  0
    0.6200   43.9100   13.0880 C   0  0  0  0  0
    1.5320   43.5350   14.1670 O   0  0  0  0  0
   -0.7320   43.1840   13.2430 C   0  0  0  0  0
   -1.3350   43.5310   14.4840 O   0  0  0  0  0
   -1.6410   43.5780   12.0700 C   0  0  0  0  0
   -0.9260   43.4150   10.7260 C   0  0  0  0  0
    0.3510   44.0730   10.7500 O   0  0  0  0  0
   -1.6820   43.9590    9.5310 C   0  0  0  0  0
   -2.0550   45.3120    9.7200 O   0  0  0  0  0
   -3.1070   42.4890   12.0950 S   0  0  0  0  0
    4.8220   41.6750    7.9840 C   0  0  0  0  0
    4.7100   43.1730    7.8770 C   0  0  0  0  0
    6.0060   43.6750    7.5200 O   0  0  0  0  0
    4.2760   43.8660    9.1980 C   0  0  0  0  0
    3.7720   45.1600    8.8400 O   0  0  0  0  0
    3.2200   43.0830    9.9350 C   0  0  0  0  0
    3.6950   41.6530   10.0590 C   0  0  0  0  0
    3.7980   41.0760    8.7580 O   0  0  0  0  0
    2.7940   40.6990   10.8200 C   0  0  0  0  0
    1.4990   40.6370   10.2480 O   0  0  0  0  0
    2.8880   43.9630   11.5030 S   0  0  0  0  0
    6.8730   37.1760    5.1570 C   0  0  0  0  0
    5.5470   37.0140    5.9000 C   0  0  0  0  0
    4.7370   35.9680    5.2560 O   0  0  0  0  0
    4.7640   38.3060    5.9250 C   0  0  0  0  0
    3.5610   38.1130    6.6600 O   0  0  0  0  0
    5.6300   39.4290    6.4950 C   0  0  0  0  0
    6.9530   39.4670    5.7650 C   0  0  0  0  0
    7.5790   38.2060    5.8770 O   0  0  0  0  0
    7.8930   40.4830    6.2680 C   0  0  0  0  0
    8.1530   40.3030    7.6490 O   0  0  0  0  0
    4.7240   40.9820    6.3170 S   0  0  0  0  0
   11.6310   35.5440    2.6340 C   0  0  0  0  0
   11.4470   36.8620    3.4160 C   0  0  0  0  0
   10.3780   36.6600    4.5100 C   0  0  0  0  0
    9.0980   36.1030    3.8580 C   0  0  0  0  0
    9.3980   34.8890    2.9510 C   0  0  0  0  0
    8.1290   34.3620    2.2420 C   0  0  0  0  0
   12.5680   33.4010    2.6510 C   0  0  0  0  0
   12.1620   34.5070    3.4290 O   0  0  0  0  0
   12.6810   37.3070    3.9430 O   0  0  0  0  0
   10.0700   37.8650    5.1960 O   0  0  0  0  0
    7.8830   35.6890    5.1320 S   0  0  0  0  0
   10.4240   35.1460    2.0000 O   0  0  0  0  0
    7.4150   35.3140    1.4680 O   0  0  0  0  0
   -4.2360   44.4648   11.1928 H   0  0  0  0  0
   -5.8085   42.2012   12.3488 H   0  0  0  0  0
   -6.7956   44.7196   10.9683 H   0  0  0  0  0
   -7.0464   43.9900   13.9213 H   0  0  0  0  0
   -5.4423   46.0812   12.4631 H   0  0  0  0  0
   -6.1337   46.8637   14.6249 H   0  0  0  0  0
   -4.3596   46.4860   14.6355 H   0  0  0  0  0
   -4.9493   41.8906   10.1973 H   0  0  0  0  0
   -8.1262   42.8008   10.7617 H   0  0  0  0  0
   -8.7891   45.1803   12.9886 H   0  0  0  0  0
   -5.4535   45.7555   16.4967 H   0  0  0  0  0
    1.2790   42.4042   11.7160 H   0  0  0  0  0
    0.4636   44.9880   13.1272 H   0  0  0  0  0
    1.1540   43.7971   15.0096 H   0  0  0  0  0
   -0.5772   42.1051   13.2343 H   0  0  0  0  0
   -2.1748   43.0738   14.5693 H   0  0  0  0  0
   -1.9210   44.6257   12.1794 H   0  0  0  0  0
   -0.8358   42.3358   10.6024 H   0  0  0  0  0
   -2.5882   43.3678    9.3993 H   0  0  0  0  0
   -1.0326   43.9002    8.6575 H   0  0  0  0  0
   -2.5304   45.6228    8.9461 H   0  0  0  0  0
    5.7692   41.4653    8.4809 H   0  0  0  0  0
    3.9410   43.3920    7.1362 H   0  0  0  0  0
    5.9677   44.6312    7.4437 H   0  0  0  0  0
    5.1293   43.9359    9.8726 H   0  0  0  0  0
    3.4916   45.6235    9.6326 H   0  0  0  0  0
    2.2628   43.0198    9.4174 H   0  0  0  0  0
    4.6305   41.7509   10.6097 H   0  0  0  0  0
    2.7010   41.0569   11.8453 H   0  0  0  0  0
    3.2357   39.7033   10.7815 H   0  0  0  0  0
    0.9565   40.0263   10.7524 H   0  0  0  0  0
    6.6748   37.4112    4.1113 H   0  0  0  0  0
    5.7749   36.7306    6.9275 H   0  0  0  0  0
    3.9065   35.8721    5.7278 H   0  0  0  0  0
    4.4866   38.6026    4.9135 H   0  0  0  0  0
    3.0624   38.9332    6.6767 H   0  0  0  0  0
    5.8433   39.2631    7.5510 H   0  0  0  0  0
    6.7175   39.7275    4.7331 H   0  0  0  0  0
    7.4498   41.4683    6.1234 H   0  0  0  0  0
    8.8318   40.3882    5.7224 H   0  0  0  0  0
    8.7670   40.9775    7.9484 H   0  0  0  0  0
   12.3688   35.7452    1.8572 H   0  0  0  0  0
   11.0972   37.6453    2.7435 H   0  0  0  0  0
   10.7792   35.9614    5.2442 H   0  0  0  0  0
    8.6789   36.8782    3.2166 H   0  0  0  0  0
    9.7628   34.1114    3.6221 H   0  0  0  0  0
    7.4503   34.0330    3.0289 H   0  0  0  0  0
    8.4614   33.5885    1.5496 H   0  0  0  0  0
   11.7103   33.0079    2.1052 H   0  0  0  0  0
   13.3357   33.7174    1.9449 H   0  0  0  0  0
   12.9703   32.6269    3.3044 H   0  0  0  0  0
   12.5452   38.1262    4.4247 H   0  0  0  0  0
    9.4032   37.6901    5.8641 H   0  0  0  0  0
    6.6492   34.8925    1.0712 H   0  0  0  0  0
  1  2  1  0  0  0
  1 10  1  0  0  0
  2  3  1  0  0  0
  2  7  1  0  0  0
  3  4  1  0  0  0
  3  8  1  0  0  0
  5  4  1  0  0  0
  4  9  1  0  0  0
  5  6  1  0  0  0
 10  5  1  0  0  0
  6 11  1  0  0  0
 12 13  1  0  0  0
 12 19  1  0  0  0
 13 14  1  0  0  0
 13 15  1  0  0  0
 15 16  1  0  0  0
 15 17  1  0  0  0
 18 17  1  0  0  0
 17 22  1  0  0  0
 19 18  1  0  0  0
 18 20  1  0  0  0
 20 21  1  0  0  0
 22  1  1  0  0  0
 23 24  1  0  0  0
 23 30  1  0  0  0
 24 25  1  0  0  0
 24 26  1  0  0  0
 26 27  1  0  0  0
 26 28  1  0  0  0
 29 28  1  0  0  0
 28 33  1  0  0  0
 30 29  1  0  0  0
 29 31  1  0  0  0
 31 32  1  0  0  0
 33 12  1  0  0  0
 34 35  1  0  0  0
 34 41  1  0  0  0
 35 36  1  0  0  0
 35 37  1  0  0  0
 37 38  1  0  0  0
 37 39  1  0  0  0
 40 39  1  0  0  0
 39 44  1  0  0  0
 41 40  1  0  0  0
 40 42  1  0  0  0
 42 43  1  0  0  0
 44 23  1  0  0  0
 46 45  1  0  0  0
 45 52  1  0  0  0
 56 45  1  0  0  0
 47 46  1  0  0  0
 46 53  1  0  0  0
 48 47  1  0  0  0
 47 54  1  0  0  0
 48 49  1  0  0  0
 55 48  1  0  0  0
 49 50  1  0  0  0
 49 56  1  0  0  0
 50 57  1  0  0  0
 55 34  1  0  0  0
 52 51  1  0  0  0
  1 58  1  0  0  0
  2 59  1  0  0  0
  3 60  1  0  0  0
  4 61  1  0  0  0
  5 62  1  0  0  0
  6 63  1  0  0  0
  6 64  1  0  0  0
  7 65  1  0  0  0
  8 66  1  0  0  0
  9 67  1  0  0  0
 11 68  1  0  0  0
 12 69  1  0  0  0
 13 70  1  0  0  0
 14 71  1  0  0  0
 15 72  1  0  0  0
 16 73  1  0  0  0
 17 74  1  0  0  0
 18 75  1  0  0  0
 20 76  1  0  0  0
 20 77  1  0  0  0
 21 78  1  0  0  0
 23 79  1  0  0  0
 24 80  1  0  0  0
 25 81  1  0  0  0
 26 82  1  0  0  0
 27 83  1  0  0  0
 28 84  1  0  0  0
 29 85  1  0  0  0
 31 86  1  0  0  0
 31 87  1  0  0  0
 32 88  1  0  0  0
 34 89  1  0  0  0
 35 90  1  0  0  0
 36 91  1  0  0  0
 37 92  1  0  0  0
 38 93  1  0  0  0
 39 94  1  0  0  0
 40 95  1  0  0  0
 42 96  1  0  0  0
 42 97  1  0  0  0
 43 98  1  0  0  0
 45 99  1  0  0  0
 46100  1  0  0  0
 47101  1  0  0  0
 48102  1  0  0  0
 49103  1  0  0  0
 50104  1  0  0  0
 50105  1  0  0  0
 51106  1  0  0  0
 51107  1  0  0  0
 51108  1  0  0  0
 53109  1  0  0  0
 54110  1  0  0  0
 57111  1  0  0  0
M  END
$$$$
