3f7u_ligand
  -I-interpret- 

 44 45  0  0  0  0  0  0  0  0999 V2000
   36.4570   39.7950   94.6250 O   0  0  0  0  0
   37.0260   40.5750   93.8710 C   0  0  0  0  0
   38.3150   40.4370   93.5540 N   0  0  0  0  0
   38.8790   39.1270   93.8380 C   0  0  0  0  0
   39.4370   38.9980   95.2290 C   0  0  0  0  0
   39.9760   40.3220   95.7360 C   0  0  0  0  0
   39.3510   40.5500   96.9960 O   0  0  0  0  0
   39.5150   41.9440   97.2670 C   0  0  0  0  0
   36.2020   41.7340   93.4360 C   0  0  0  0  0
   36.6610   42.9980   93.7360 C   0  0  0  0  0
   35.0020   41.4590   92.7720 C   0  0  0  0  0
   34.2550   42.5210   92.4480 N   0  0  0  0  0
   34.6520   43.7910   92.7470 C   0  0  0  0  0
   35.8390   44.0670   93.3960 C   0  0  0  0  0
   36.2230   45.6180   93.7180 S   0  0  0  0  0
   35.0320   46.2110   94.4520 O   0  0  0  0  0
   36.4730   46.3380   92.3680 O   0  0  0  0  0
   37.6400   45.6710   94.4910 N   0  0  0  0  0
   34.5360   39.8230   92.3990 S   0  0  0  0  0
   33.0230   39.9510   91.6460 C   0  0  0  0  0
   32.9270   40.4600   90.3450 C   0  0  0  0  0
   31.6640   40.5360   89.7370 C   0  0  0  0  0
   30.5280   40.1100   90.4250 C   0  0  0  0  0
   30.6130   39.5820   91.7260 C   0  0  0  0  0
   31.8680   39.5090   92.3320 C   0  0  0  0  0
   38.8631   41.1931   93.1436 H   0  0  0  0  0
   39.7015   38.9680   93.1407 H   0  0  0  0  0
   38.0749   38.3976   93.7403 H   0  0  0  0  0
   40.2546   38.2775   95.2078 H   0  0  0  0  0
   38.6364   38.6736   95.8937 H   0  0  0  0  0
   39.7564   41.1290   95.0369 H   0  0  0  0  0
   41.0610   40.2921   95.8355 H   0  0  0  0  0
   40.5778   42.1831   97.3037 H   0  0  0  0  0
   39.0376   42.5249   96.4778 H   0  0  0  0  0
   39.0542   42.1832   98.2254 H   0  0  0  0  0
   37.6259   43.1533   94.2186 H   0  0  0  0  0
   34.0062   44.6216   92.4621 H   0  0  0  0  0
   37.6986   46.0868   95.4206 H   0  0  0  0  0
   38.4763   45.2887   94.0496 H   0  0  0  0  0
   33.8186   40.7918   89.8130 H   0  0  0  0  0
   31.5709   40.9290   88.7246 H   0  0  0  0  0
   29.5530   40.1879   89.9440 H   0  0  0  0  0
   29.7202   39.2382   92.2482 H   0  0  0  0  0
   31.9587   39.1083   93.3416 H   0  0  0  0  0
  1  2  2  0  0  0
  2  3  1  0  0  0
  2  9  1  0  0  0
  3  4  1  0  0  0
  4  5  1  0  0  0
  5  6  1  0  0  0
  6  7  1  0  0  0
  7  8  1  0  0  0
  9 10  4  0  0  0
  9 11  4  0  0  0
 10 14  4  0  0  0
 11 12  4  0  0  0
 11 19  1  0  0  0
 12 13  4  0  0  0
 13 14  4  0  0  0
 14 15  1  0  0  0
 15 16  2  0  0  0
 15 17  2  0  0  0
 15 18  1  0  0  0
 19 20  1  0  0  0
 20 21  4  0  0  0
 20 25  4  0  0  0
 21 22  4  0  0  0
 22 23  4  0  0  0
 23 24  4  0  0  0
 24 25  4  0  0  0
  3 26  1  0  0  0
  4 27  1  0  0  0
  4 28  1  0  0  0
  5 29  1  0  0  0
  5 30  1  0  0  0
  6 31  1  0  0  0
  6 32  1  0  0  0
  8 33  1  0  0  0
  8 34  1  0  0  0
  8 35  1  0  0  0
 10 36  1  0  0  0
 13 37  1  0  0  0
 18 38  1  0  0  0
 18 39  1  0  0  0
 21 40  1  0  0  0
 22 41  1  0  0  0
 23 42  1  0  0  0
 24 43  1  0  0  0
 25 44  1  0  0  0
M  END
$$$$
