### 
### Created by X-TOOL on Mon Aug  2 16:17:02 2021
### 

@<TRIPOS>MOLECULE
5zml_ligand
  280   282     1     0     0
SMALL
GAST_HUCK


@<TRIPOS>ATOM
      1 C         -33.5200   -3.8880   -1.5640 C.2       1 ACE         0.1751
      2 O         -33.1110   -4.7990   -0.8640 O.2       1 ACE        -0.3972
      3 CH3       -34.8570   -3.2300   -1.2840 C.3       1 ACE         0.0258
      4 N         -32.8630   -3.4040   -2.6270 N.am      1 ACE        -0.2658
      5 CA        -31.6020   -3.9140   -3.1800 C.3       1 ACE         0.1309
      6 C         -30.5270   -4.3150   -2.1570 C.2       1 ACE         0.2039
      7 O         -30.3610   -3.6560   -1.1350 O.2       1 ACE        -0.3944
      8 CB        -31.0100   -2.8920   -4.1600 C.3       1 ACE        -0.0122
      9 CG        -31.6700   -2.9070   -5.5270 C.3       1 ACE        -0.0440
     10 CD        -31.3220   -1.6640   -6.3360 C.3       1 ACE        -0.0124
     11 CE        -31.1430   -1.9820   -7.8160 C.3       1 ACE        -0.0354
     12 NZ        -32.3150   -2.6770   -8.4130 N.4       1 ACE         0.2185
     13 N         -29.7830   -5.3810   -2.4680 N.am      1 ACE        -0.2637
     14 CA        -28.7630   -5.9230   -1.5740 C.3       1 ACE         0.1310
     15 C         -27.3630   -5.5610   -2.0500 C.2       1 ACE         0.2039
     16 O         -26.9290   -6.0150   -3.1050 O.2       1 ACE        -0.3944
     17 CB        -28.8920   -7.4470   -1.4850 C.3       1 ACE        -0.0122
     18 CG        -30.1540   -7.9550   -0.7920 C.3       1 ACE        -0.0440
     19 CD        -30.4350   -7.3140    0.5770 C.3       1 ACE        -0.0124
     20 CE        -29.2490   -7.3200    1.5430 C.3       1 ACE        -0.0354
     21 NZ        -29.5130   -6.5050    2.7650 N.4       1 ACE         0.2185
     22 N         -26.6830   -4.7250   -1.2750 N.am      1 ACE        -0.2637
     23 CA        -25.2910   -4.3800   -1.5120 C.3       1 ACE         0.1311
     24 C         -24.4780   -4.8300   -0.3080 C.2       1 ACE         0.2040
     25 O         -24.8620   -4.6040    0.8490 O.2       1 ACE        -0.3944
     26 CB        -25.1210   -2.8700   -1.7410 C.3       1 ACE        -0.0092
     27 CG        -25.8000   -2.3600   -3.0120 C.3       1 ACE        -0.0156
     28 CD        -26.1300   -0.8670   -2.9630 C.3       1 ACE         0.0627
     29 NE        -24.9240   -0.0370   -3.0240 N.pl3     1 ACE        -0.2723
     30 CZ        -24.8440    1.2580   -2.6960 C.cat     1 ACE         0.2882
     31 NH1       -25.9090    1.9320   -2.2540 N.pl3     1 ACE        -0.2849
     32 NH2       -23.6660    1.8840   -2.7990 N.pl3     1 ACE        -0.2849
     33 N         -23.3540   -5.4710   -0.5790 N.am      1 ACE        -0.2621
     34 CA        -22.4210   -5.8390    0.4580 C.3       1 ACE         0.1390
     35 C         -21.1020   -5.2080    0.1760 C.2       1 ACE         0.2058
     36 O         -20.6080   -5.2400   -0.9520 O.2       1 ACE        -0.3942
     37 CB        -22.2640   -7.3530    0.5190 C.3       1 ACE         0.0163
     38 CG        -23.5290   -8.0610    0.8860 C.ar      1 ACE        -0.0493
     39 CD1       -23.9120   -8.2050    2.2210 C.ar      1 ACE        -0.0685
     40 CD2       -24.3540   -8.5990   -0.0920 C.ar      1 ACE        -0.0685
     41 CE1       -25.0850   -8.8450    2.5500 C.ar      1 ACE        -0.0398
     42 CE2       -25.5070   -9.2590    0.2330 C.ar      1 ACE        -0.0398
     43 CZ        -25.8600   -9.3740    1.5670 C.ar      1 ACE         0.0805
     44 OH        -26.9880  -10.0300    1.8640 O.3       1 ACE        -0.3376
     45 N         -20.5080   -4.6550    1.2220 N.am      1 ACE        -0.2614
     46 CA        -19.1630   -4.1900    1.1460 C.3       1 ACE         0.1539
     47 C         -18.2710   -5.3800    1.0880 C.2       1 ACE         0.2062
     48 O         -18.6430   -6.4950    1.5110 O.2       1 ACE        -0.3943
     49 CB        -18.7960   -3.3370    2.3770 C.3       1 ACE         0.0843
     50 OG        -18.8400   -4.1240    3.5580 O.3       1 ACE        -0.3903
     51 N         -17.0810   -5.1270    0.6030 N.am      1 ACE        -0.2637
     52 CA        -16.0410   -6.0980    0.6210 C.3       1 ACE         0.1308
     53 C         -15.8710   -6.6980    2.0290 C.2       1 ACE         0.2010
     54 O         -15.8370   -7.9140    2.1910 O.2       1 ACE        -0.3947
     55 CB        -14.7620   -5.4210    0.2080 C.3       1 ACE        -0.0092
     56 CG        -13.5930   -6.3360    0.1980 C.3       1 ACE        -0.0156
     57 CD        -12.3260   -5.6060   -0.1210 C.3       1 ACE         0.0627
     58 NE        -11.2620   -6.5830   -0.1260 N.pl3     1 ACE        -0.2723
     59 CZ        -10.5700   -6.9630    0.9440 C.cat     1 ACE         0.2882
     60 NH1       -10.8190   -6.4510    2.1580 N.pl3     1 ACE        -0.2849
     61 NH2        -9.6170   -7.8820    0.7960 N.pl3     1 ACE        -0.2849
     62 C         -16.6850   -7.1680    4.8630 C.2       1 ACE         0.2263
     63 N         -15.7780   -5.8070    3.0350 N.am      1 ACE        -0.2743
     64 O         -16.2990   -8.2070    5.4200 O.2       1 ACE        -0.3419
     65 CA        -15.6080   -6.1980    4.4390 C.3       1 ACE         0.1304
     66 CB        -15.6860   -4.9350    5.3200 C.3       1 ACE        -0.0186
     67 CD        -16.8710   -5.4270    7.5350 C.3       1 ACE        -0.0365
     68 CE        -16.5950   -5.7580    8.9920 C.2       1 ACE        -0.0987
     69 CG        -15.5470   -5.1710    6.8350 C.3       1 ACE        -0.0449
     70 CB1       -14.2080   -6.8040    4.5500 C.3       1 ACE        -0.0320
     71 N         -17.9210   -6.8610    4.5990 N.am      1 ACE        -0.2627
     72 CA        -19.0730   -7.6880    4.9620 C.3       1 ACE         0.1332
     73 C         -18.9700   -9.0660    4.3320 C.2       1 ACE         0.2042
     74 O         -19.2920  -10.0820    4.9720 O.2       1 ACE        -0.3944
     75 CB        -20.4060   -7.0890    4.4780 C.3       1 ACE         0.0047
     76 CG        -20.8220   -5.7540    5.0440 C.3       1 ACE         0.0413
     77 CD        -22.2040   -5.3390    4.5540 C.2       1 ACE         0.1737
     78 OE1       -22.3450   -4.5900    3.5600 O.2       1 ACE        -0.3973
     79 NE2       -23.2340   -5.8120    5.2460 N.am      1 ACE        -0.3009
     80 N         -18.5470   -9.1030    3.0640 N.am      1 ACE        -0.2637
     81 CA        -18.4300  -10.3910    2.3780 C.3       1 ACE         0.1312
     82 C         -17.3830  -11.2650    3.0310 C.2       1 ACE         0.2039
     83 O         -17.6230  -12.4660    3.2270 O.2       1 ACE        -0.3944
     84 CB        -18.1770  -10.2220    0.8650 C.3       1 ACE        -0.0101
     85 CG        -19.3480   -9.5450    0.1300 C.3       1 ACE        -0.0425
     86 CD1       -18.9550   -9.1740   -1.2960 C.3       1 ACE        -0.0625
     87 CD2       -20.6200  -10.3980    0.0970 C.3       1 ACE        -0.0625
     88 N         -16.2350  -10.6920    3.3690 N.am      1 ACE        -0.2637
     89 CA        -15.1950  -11.4620    4.0250 C.3       1 ACE         0.1309
     90 C         -15.6690  -11.9530    5.4020 C.2       1 ACE         0.2010
     91 O         -15.5290  -13.1480    5.6930 O.2       1 ACE        -0.3947
     92 CB        -13.8640  -10.7100    4.0730 C.3       1 ACE        -0.0101
     93 CG        -13.1750  -10.3850    2.7370 C.3       1 ACE        -0.0425
     94 CD1       -11.8400   -9.6980    2.9940 C.3       1 ACE        -0.0625
     95 CD2       -12.9450  -11.6130    1.8630 C.3       1 ACE        -0.0625
     96 C         -17.8160  -12.6290    7.4270 C.2       1 ACE         0.2265
     97 N         -16.3020  -11.0800    6.2160 N.am      1 ACE        -0.2743
     98 O         -17.7640  -13.4980    8.3000 O.2       1 ACE        -0.3419
     99 CA        -16.8410  -11.4460    7.5240 C.3       1 ACE         0.1304
    100 CB        -17.6510  -10.3200    8.1490 C.3       1 ACE        -0.0186
    101 CD        -17.7790   -8.0260    9.0700 C.3       1 ACE        -0.0365
    102 CE        -16.9920   -6.8680    9.6340 C.2       1 ACE        -0.0987
    103 CG        -16.8390   -9.1520    8.6840 C.3       1 ACE        -0.0449
    104 CB1       -15.6510  -11.7960    8.4210 C.3       1 ACE        -0.0320
    105 N         -18.6510  -12.6870    6.4420 N.am      1 ACE        -0.2611
    106 CA        -19.6100  -13.7870    6.2860 C.3       1 ACE         0.1406
    107 C         -19.0110  -15.1180    5.8250 C.2       1 ACE         0.2061
    108 O         -19.7330  -16.1200    5.7390 O.2       1 ACE        -0.3942
    109 CB        -20.7100  -13.3820    5.2940 C.3       1 ACE         0.0216
    110 CG        -21.7450  -12.4440    5.8530 C.ar      1 ACE        -0.0385
    111 CD1       -22.1620  -12.5090    7.1820 C.ar      1 ACE        -0.0601
    112 CD2       -22.3590  -11.5230    5.0160 C.ar      1 ACE        -0.0601
    113 CE1       -23.1080  -11.6390    7.6680 C.ar      1 ACE        -0.0686
    114 CE2       -23.3140  -10.6500    5.5000 C.ar      1 ACE        -0.0686
    115 CZ        -23.6900  -10.7060    6.8250 C.ar      1 ACE        -0.0687
    116 N         -17.7220  -15.1350    5.5220 N.am      1 ACE        -0.2636
    117 CA        -17.0100  -16.3790    5.2650 C.3       1 ACE         0.1311
    118 C         -16.8250  -17.2120    6.5480 C.2       1 ACE         0.2033
    119 O         -16.8980  -18.4350    6.5150 O.2       1 ACE        -0.3944
    120 CB        -15.6520  -16.0540    4.6370 C.3       1 ACE        -0.0092
    121 CG        -14.9750  -17.2200    3.9520 C.3       1 ACE        -0.0156
    122 CD        -13.6730  -16.7860    3.2990 C.3       1 ACE         0.0627
    123 NE        -13.1030  -17.8620    2.5000 N.pl3     1 ACE        -0.2723
    124 CZ        -11.9600  -17.7900    1.8220 C.cat     1 ACE         0.2882
    125 NH1       -11.2140  -16.6810    1.8400 N.pl3     1 ACE        -0.2849
    126 NH2       -11.5710  -18.8220    1.0900 N.pl3     1 ACE        -0.2849
    127 N         -16.5920  -16.5340    7.6730 N.am      1 ACE        -0.2698
    128 CA        -16.1940  -17.1760    8.9360 C.3       1 ACE         0.0916
    129 C         -17.1840  -18.2330    9.4210 C.2       1 ACE         0.0598
    130 O         -18.3940  -18.0130    9.3900 O.co2     1 ACE        -0.5666
    131 CB        -16.0190  -16.1010   10.0140 C.3       1 ACE        -0.0300
    132 OXT       -16.7810  -19.3140    9.8470 O.co2     1 ACE        -0.5666
    133 H1        -35.0379   -2.4374   -2.0250 H         1 ACE         0.0467
    134 H2        -34.8463   -2.7928   -0.2747 H         1 ACE         0.0467
    135 H3        -35.6568   -3.9824   -1.3493 H         1 ACE         0.0467
    136 H4        -33.2721   -2.6174   -3.0895 H         1 ACE         0.1882
    137 H5        -31.8528   -4.8222   -3.7476 H         1 ACE         0.0800
    138 H6        -29.9400   -3.1126   -4.2882 H         1 ACE         0.0312
    139 H7        -31.1281   -1.8873   -3.7280 H         1 ACE         0.0312
    140 H8        -32.7611   -2.9523   -5.3953 H         1 ACE         0.0269
    141 H9        -31.3298   -3.7967   -6.0771 H         1 ACE         0.0269
    142 H10       -30.3852   -1.2376   -5.9479 H         1 ACE         0.0317
    143 H11       -32.1329   -0.9290   -6.2256 H         1 ACE         0.0317
    144 H12       -30.2590   -2.6265   -7.9305 H         1 ACE         0.0813
    145 H13       -30.9821   -1.0390   -8.3591 H         1 ACE         0.0813
    146 H14       -32.1367   -2.8591   -9.3883 H         1 ACE         0.1994
    147 H15       -33.1325   -2.0941   -8.3240 H         1 ACE         0.1994
    148 H16       -32.4699   -3.5488   -7.9313 H         1 ACE         0.1994
    149 H17       -29.9311   -5.8267   -3.3509 H         1 ACE         0.1883
    150 H18       -28.9150   -5.4949   -0.5722 H         1 ACE         0.0800
    151 H19       -28.0224   -7.8300   -0.9309 H         1 ACE         0.0312
    152 H20       -28.8809   -7.8495   -2.5086 H         1 ACE         0.0312
    153 H21       -30.0529   -9.0408   -0.6480 H         1 ACE         0.0269
    154 H22       -31.0121   -7.7505   -1.4491 H         1 ACE         0.0269
    155 H23       -31.2633   -7.8631    1.0486 H         1 ACE         0.0317
    156 H24       -30.7355   -6.2690    0.4105 H         1 ACE         0.0317
    157 H25       -28.3692   -6.9089    1.0263 H         1 ACE         0.0813
    158 H26       -29.0445   -8.3573    1.8465 H         1 ACE         0.0813
    159 H27       -28.7080   -6.5373    3.3708 H         1 ACE         0.1994
    160 H28       -30.3140   -6.8773    3.2506 H         1 ACE         0.1994
    161 H29       -29.6952   -5.5499    2.4991 H         1 ACE         0.1994
    162 H30       -27.1498   -4.3136   -0.4921 H         1 ACE         0.1883
    163 H31       -24.9369   -4.9124   -2.4071 H         1 ACE         0.0800
    164 H32       -24.0458   -2.6481   -1.8090 H         1 ACE         0.0313
    165 H33       -25.5515   -2.3377   -0.8800 H         1 ACE         0.0313
    166 H34       -26.7356   -2.9200   -3.1570 H         1 ACE         0.0301
    167 H35       -25.1282   -2.5415   -3.8639 H         1 ACE         0.0301
    168 H36       -26.6626   -0.6514   -2.0250 H         1 ACE         0.0689
    169 H37       -26.7764   -0.6177   -3.8174 H         1 ACE         0.0689
    170 H38       -24.0589   -0.4918   -3.3490 H         1 ACE         0.2642
    171 H39       -25.8221    2.9284   -2.0078 H         1 ACE         0.2615
    172 H40       -26.8172    1.4554   -2.1593 H         1 ACE         0.2615
    173 H41       -22.8390    1.3726   -3.1388 H         1 ACE         0.2615
    174 H42       -23.5861    2.8773   -2.5384 H         1 ACE         0.2615
    175 H43       -23.1449   -5.7071   -1.5280 H         1 ACE         0.1885
    176 H44       -22.7970   -5.4778    1.4266 H         1 ACE         0.0821
    177 H45       -21.4972   -7.5952    1.2695 H         1 ACE         0.0453
    178 H46       -21.9367   -7.7108   -0.4683 H         1 ACE         0.0453
    179 H47       -23.2788   -7.8085    3.0064 H         1 ACE         0.0530
    180 H48       -24.0787   -8.4939   -1.1352 H         1 ACE         0.0530
    181 H49       -25.3890   -8.9267    3.5873 H         1 ACE         0.0525
    182 H50       -26.1345   -9.6853   -0.5414 H         1 ACE         0.0525
    183 H51       -27.1112  -10.0355    2.8059 H         1 ACE         0.2458
    184 H52       -21.0120   -4.5619    2.0807 H         1 ACE         0.1884
    185 H53       -19.0362   -3.5842    0.2367 H         1 ACE         0.0823
    186 H54       -19.5116   -2.5066    2.4685 H         1 ACE         0.0606
    187 H55       -17.7807   -2.9337    2.2484 H         1 ACE         0.0606
    188 H56       -18.6117   -3.5842    4.3056 H         1 ACE         0.2097
    189 H57       -16.8982   -4.2262    0.2090 H         1 ACE         0.1883
    190 H58       -16.2806   -6.9038   -0.0884 H         1 ACE         0.0800
    191 H59       -14.5577   -4.6005    0.9116 H         1 ACE         0.0313
    192 H60       -14.8942   -5.0116   -0.8044 H         1 ACE         0.0313
    193 H61       -13.7564   -7.1160   -0.5603 H         1 ACE         0.0301
    194 H62       -13.4963   -6.8028    1.1893 H         1 ACE         0.0301
    195 H63       -12.1301   -4.8389    0.6426 H         1 ACE         0.0689
    196 H64       -12.4042   -5.1285   -1.1088 H         1 ACE         0.0689
    197 H65       -11.0208   -7.0187   -1.0276 H         1 ACE         0.2642
    198 H66       -10.2685   -6.7623    2.9710 H         1 ACE         0.2615
    199 H67       -11.5608   -5.7464    2.2775 H         1 ACE         0.2615
    200 H68        -9.4230   -8.2775   -0.1351 H         1 ACE         0.2615
    201 H69        -9.0741   -8.1971    1.6126 H         1 ACE         0.2615
    202 H70       -15.8272   -4.8328    2.8145 H         1 ACE         0.1839
    203 H71       -16.6600   -4.4565    5.1401 H         1 ACE         0.0279
    204 H72       -14.8799   -4.2546    5.0082 H         1 ACE         0.0279
    205 H73       -17.5025   -4.5285    7.4726 H         1 ACE         0.0388
    206 H74       -17.3865   -6.2717    7.0546 H         1 ACE         0.0388
    207 H75       -16.0243   -5.0299    9.5666 H         1 ACE         0.0450
    208 H76       -15.0826   -4.2809    7.2844 H         1 ACE         0.0284
    209 H77       -14.8960   -6.0435    6.9927 H         1 ACE         0.0284
    210 H78       -14.0252   -7.1169    5.5886 H         1 ACE         0.0242
    211 H79       -13.4593   -6.0537    4.2560 H         1 ACE         0.0242
    212 H80       -14.1327   -7.6772    3.8854 H         1 ACE         0.0242
    213 H81       -18.0959   -6.0030    4.1160 H         1 ACE         0.1889
    214 H82       -19.0970   -7.7853    6.0574 H         1 ACE         0.0803
    215 H83       -21.1988   -7.8110    4.7232 H         1 ACE         0.0337
    216 H84       -20.3380   -6.9759    3.3860 H         1 ACE         0.0337
    217 H85       -20.0909   -4.9925    4.7349 H         1 ACE         0.0504
    218 H86       -20.8388   -5.8220    6.1418 H         1 ACE         0.0504
    219 H87       -24.1678   -5.5770    4.9762 H         1 ACE         0.1814
    220 H88       -23.0758   -6.4032    6.0369 H         1 ACE         0.1814
    221 H89       -18.3120   -8.2560    2.5872 H         1 ACE         0.1883
    222 H90       -19.3963  -10.9052    2.4869 H         1 ACE         0.0800
    223 H91       -18.0145  -11.2164    0.4238 H         1 ACE         0.0315
    224 H92       -17.2749   -9.6078    0.7271 H         1 ACE         0.0315
    225 H93       -19.5827   -8.6175    0.6728 H         1 ACE         0.0298
    226 H94       -19.8075   -8.6930   -1.7979 H         1 ACE         0.0232
    227 H95       -18.6708  -10.0830   -1.8463 H         1 ACE         0.0232
    228 H96       -18.1033   -8.4783   -1.2724 H         1 ACE         0.0232
    229 H97       -20.9072  -10.6680    1.1240 H         1 ACE         0.0232
    230 H98       -20.4329  -11.3131   -0.4839 H         1 ACE         0.0232
    231 H99       -21.4334   -9.8254   -0.3726 H         1 ACE         0.0232
    232 H100      -16.0857   -9.7234    3.1703 H         1 ACE         0.1883
    233 H101      -15.0238  -12.3586    3.4111 H         1 ACE         0.0800
    234 H102      -13.1640  -11.3195    4.6633 H         1 ACE         0.0315
    235 H103      -14.0448   -9.7557    4.5894 H         1 ACE         0.0315
    236 H104      -13.8256   -9.6921    2.1833 H         1 ACE         0.0298
    237 H105      -11.3545   -9.4694    2.0338 H         1 ACE         0.0232
    238 H106      -11.1923  -10.3640    3.5829 H         1 ACE         0.0232
    239 H107      -12.0092   -8.7645    3.5507 H         1 ACE         0.0232
    240 H108      -13.9060  -12.1136    1.6739 H         1 ACE         0.0232
    241 H109      -12.2650  -12.3075    2.3780 H         1 ACE         0.0232
    242 H110      -12.4982  -11.3039    0.9066 H         1 ACE         0.0232
    243 H111      -16.4071  -10.1346    5.9075 H         1 ACE         0.1839
    244 H112      -18.2300  -10.7414    8.9839 H         1 ACE         0.0279
    245 H113      -18.3397   -9.9323    7.3840 H         1 ACE         0.0279
    246 H114      -18.3320   -7.6917    8.1798 H         1 ACE         0.0388
    247 H115      -18.4890   -8.3878    9.8283 H         1 ACE         0.0388
    248 H116      -16.7138   -6.9417   10.6843 H         1 ACE         0.0450
    249 H117      -16.1438   -8.8008    7.9072 H         1 ACE         0.0284
    250 H118      -16.2689   -9.4745    9.5677 H         1 ACE         0.0284
    251 H119      -16.0153  -12.0785    9.4197 H         1 ACE         0.0242
    252 H120      -14.9869  -10.9233    8.5063 H         1 ACE         0.0242
    253 H121      -15.0957  -12.6378    7.9817 H         1 ACE         0.0242
    254 H122      -18.6433  -11.9550    5.7608 H         1 ACE         0.1891
    255 H123      -20.0717  -13.9567    7.2699 H         1 ACE         0.0825
    256 H124      -21.2216  -14.2958    4.9575 H         1 ACE         0.0474
    257 H125      -20.2319  -12.8914    4.4334 H         1 ACE         0.0474
    258 H126      -21.7341  -13.2560    7.8407 H         1 ACE         0.0557
    259 H127      -22.0854  -11.4881    3.9677 H         1 ACE         0.0557
    260 H128      -23.3991  -11.6826    8.7113 H         1 ACE         0.0599
    261 H129      -23.7675   -9.9212    4.8380 H         1 ACE         0.0599
    262 H130      -24.4392  -10.0218    7.2065 H         1 ACE         0.0559
    263 H131      -17.2238  -14.2696    5.4682 H         1 ACE         0.1883
    264 H132      -17.5966  -16.9751    4.5505 H         1 ACE         0.0800
    265 H133      -14.9852  -15.6904    5.4327 H         1 ACE         0.0313
    266 H134      -15.8011  -15.2589    3.8917 H         1 ACE         0.0313
    267 H135      -15.6472  -17.6239    3.1807 H         1 ACE         0.0301
    268 H136      -14.7611  -18.0003    4.6972 H         1 ACE         0.0301
    269 H137      -12.9554  -16.5016    4.0827 H         1 ACE         0.0689
    270 H138      -13.8682  -15.9204    2.6489 H         1 ACE         0.0689
    271 H139      -13.6256  -18.7485    2.4562 H         1 ACE         0.2642
    272 H140      -10.3324  -16.6447    1.3087 H         1 ACE         0.2615
    273 H141      -11.5208  -15.8627    2.3852 H         1 ACE         0.2615
    274 H142      -12.1383  -19.6814    1.0689 H         1 ACE         0.2615
    275 H143      -10.7010  -18.7656    0.5415 H         1 ACE         0.2615
    276 H144      -16.6929  -15.5392    7.6573 H         1 ACE         0.1875
    277 H145      -15.2258  -17.6718    8.7727 H         1 ACE         0.0723
    278 H146      -15.7214  -16.5759   10.9605 H         1 ACE         0.0270
    279 H147      -16.9693  -15.5655   10.1555 H         1 ACE         0.0270
    280 H148      -15.2406  -15.3900    9.6999 H         1 ACE         0.0270
@<TRIPOS>BOND
     1    1    2 2  
     2    1    3 1  
     3    4    1 am 
     4    5    4 1  
     5    6    5 1  
     6    5    8 1  
     7    6    7 2  
     8   13    6 am 
     9    8    9 1  
    10    9   10 1  
    11   10   11 1  
    12   11   12 1  
    13   14   13 1  
    14   15   14 1  
    15   14   17 1  
    16   15   16 2  
    17   22   15 am 
    18   17   18 1  
    19   18   19 1  
    20   19   20 1  
    21   20   21 1  
    22   23   22 1  
    23   24   23 1  
    24   23   26 1  
    25   24   25 2  
    26   33   24 am 
    27   26   27 1  
    28   27   28 1  
    29   28   29 1  
    30   29   30 ar 
    31   30   31 ar 
    32   30   32 ar 
    33   34   33 1  
    34   35   34 1  
    35   34   37 1  
    36   35   36 2  
    37   45   35 am 
    38   37   38 1  
    39   38   39 ar 
    40   38   40 ar 
    41   39   41 ar 
    42   40   42 ar 
    43   41   43 ar 
    44   42   43 ar 
    45   43   44 1  
    46   46   45 1  
    47   47   46 1  
    48   46   49 1  
    49   47   48 2  
    50   51   47 am 
    51   49   50 1  
    52   52   51 1  
    53   53   52 1  
    54   52   55 1  
    55   53   54 2  
    56   63   53 am 
    57   55   56 1  
    58   56   57 1  
    59   57   58 1  
    60   58   59 ar 
    61   59   60 ar 
    62   59   61 ar 
    63   62   64 2  
    64   62   65 1  
    65   71   62 am 
    66   65   63 1  
    67   65   66 1  
    68   65   70 1  
    69   66   69 1  
    70   67   68 1  
    71   69   67 1  
    72   68  102 2  
    73   72   71 1  
    74   73   72 1  
    75   72   75 1  
    76   73   74 2  
    77   80   73 am 
    78   75   76 1  
    79   76   77 1  
    80   77   78 2  
    81   77   79 am 
    82   81   80 1  
    83   82   81 1  
    84   81   84 1  
    85   82   83 2  
    86   88   82 am 
    87   84   85 1  
    88   85   86 1  
    89   85   87 1  
    90   89   88 1  
    91   90   89 1  
    92   89   92 1  
    93   90   91 2  
    94   97   90 am 
    95   92   93 1  
    96   93   94 1  
    97   93   95 1  
    98   96   98 2  
    99   99   96 1  
   100   96  105 am 
   101   97   99 1  
   102   99  100 1  
   103   99  104 1  
   104  100  103 1  
   105  102  101 1  
   106  101  103 1  
   107  105  106 1  
   108  106  107 1  
   109  106  109 1  
   110  107  108 2  
   111  107  116 am 
   112  109  110 1  
   113  110  111 ar 
   114  110  112 ar 
   115  111  113 ar 
   116  112  114 ar 
   117  113  115 ar 
   118  114  115 ar 
   119  116  117 1  
   120  117  118 1  
   121  117  120 1  
   122  118  119 2  
   123  118  127 am 
   124  120  121 1  
   125  121  122 1  
   126  122  123 1  
   127  123  124 ar 
   128  124  125 ar 
   129  124  126 ar 
   130  127  128 1  
   131  128  129 1  
   132  128  131 1  
   133  129  130 ar 
   134  129  132 ar 
   135    3  133 1  
   136    3  134 1  
   137    3  135 1  
   138    4  136 1  
   139    5  137 1  
   140    8  138 1  
   141    8  139 1  
   142    9  140 1  
   143    9  141 1  
   144   10  142 1  
   145   10  143 1  
   146   11  144 1  
   147   11  145 1  
   148   12  146 1  
   149   12  147 1  
   150   12  148 1  
   151   13  149 1  
   152   14  150 1  
   153   17  151 1  
   154   17  152 1  
   155   18  153 1  
   156   18  154 1  
   157   19  155 1  
   158   19  156 1  
   159   20  157 1  
   160   20  158 1  
   161   21  159 1  
   162   21  160 1  
   163   21  161 1  
   164   22  162 1  
   165   23  163 1  
   166   26  164 1  
   167   26  165 1  
   168   27  166 1  
   169   27  167 1  
   170   28  168 1  
   171   28  169 1  
   172   29  170 1  
   173   31  171 1  
   174   31  172 1  
   175   32  173 1  
   176   32  174 1  
   177   33  175 1  
   178   34  176 1  
   179   37  177 1  
   180   37  178 1  
   181   39  179 1  
   182   40  180 1  
   183   41  181 1  
   184   42  182 1  
   185   44  183 1  
   186   45  184 1  
   187   46  185 1  
   188   49  186 1  
   189   49  187 1  
   190   50  188 1  
   191   51  189 1  
   192   52  190 1  
   193   55  191 1  
   194   55  192 1  
   195   56  193 1  
   196   56  194 1  
   197   57  195 1  
   198   57  196 1  
   199   58  197 1  
   200   60  198 1  
   201   60  199 1  
   202   61  200 1  
   203   61  201 1  
   204   63  202 1  
   205   66  203 1  
   206   66  204 1  
   207   67  205 1  
   208   67  206 1  
   209   68  207 1  
   210   69  208 1  
   211   69  209 1  
   212   70  210 1  
   213   70  211 1  
   214   70  212 1  
   215   71  213 1  
   216   72  214 1  
   217   75  215 1  
   218   75  216 1  
   219   76  217 1  
   220   76  218 1  
   221   79  219 1  
   222   79  220 1  
   223   80  221 1  
   224   81  222 1  
   225   84  223 1  
   226   84  224 1  
   227   85  225 1  
   228   86  226 1  
   229   86  227 1  
   230   86  228 1  
   231   87  229 1  
   232   87  230 1  
   233   87  231 1  
   234   88  232 1  
   235   89  233 1  
   236   92  234 1  
   237   92  235 1  
   238   93  236 1  
   239   94  237 1  
   240   94  238 1  
   241   94  239 1  
   242   95  240 1  
   243   95  241 1  
   244   95  242 1  
   245   97  243 1  
   246  100  244 1  
   247  100  245 1  
   248  101  246 1  
   249  101  247 1  
   250  102  248 1  
   251  103  249 1  
   252  103  250 1  
   253  104  251 1  
   254  104  252 1  
   255  104  253 1  
   256  105  254 1  
   257  106  255 1  
   258  109  256 1  
   259  109  257 1  
   260  111  258 1  
   261  112  259 1  
   262  113  260 1  
   263  114  261 1  
   264  115  262 1  
   265  116  263 1  
   266  117  264 1  
   267  120  265 1  
   268  120  266 1  
   269  121  267 1  
   270  121  268 1  
   271  122  269 1  
   272  122  270 1  
   273  123  271 1  
   274  125  272 1  
   275  125  273 1  
   276  126  274 1  
   277  126  275 1  
   278  127  276 1  
   279  128  277 1  
   280  131  278 1  
   281  131  279 1  
   282  131  280 1  
@<TRIPOS>SUBSTRUCTURE
     1 ACE         1

