5zml_ligand
  -I-interpret- 

278280  0  0  0  0  0  0  0  0999 V2000
  -33.5200   -3.8880   -1.5640 C   0  0  0  0  0
  -33.1110   -4.7990   -0.8640 O   0  0  0  0  0
  -34.8570   -3.2300   -1.2840 C   0  0  0  0  0
  -32.8630   -3.4040   -2.6270 N   0  0  0  0  0
  -31.6020   -3.9140   -3.1800 C   0  0  0  0  0
  -30.5270   -4.3150   -2.1570 C   0  0  0  0  0
  -30.3610   -3.6560   -1.1350 O   0  0  0  0  0
  -31.0100   -2.8920   -4.1600 C   0  0  0  0  0
  -31.6700   -2.9070   -5.5270 C   0  0  0  0  0
  -31.3220   -1.6640   -6.3360 C   0  0  0  0  0
  -31.1430   -1.9820   -7.8160 C   0  0  0  0  0
  -32.3150   -2.6770   -8.4130 N   0  3  0  0  0
  -29.7830   -5.3810   -2.4680 N   0  0  0  0  0
  -28.7630   -5.9230   -1.5740 C   0  0  0  0  0
  -27.3630   -5.5610   -2.0500 C   0  0  0  0  0
  -26.9290   -6.0150   -3.1050 O   0  0  0  0  0
  -28.8920   -7.4470   -1.4850 C   0  0  0  0  0
  -30.1540   -7.9550   -0.7920 C   0  0  0  0  0
  -30.4350   -7.3140    0.5770 C   0  0  0  0  0
  -29.2490   -7.3200    1.5430 C   0  0  0  0  0
  -29.5130   -6.5050    2.7650 N   0  3  0  0  0
  -26.6830   -4.7250   -1.2750 N   0  0  0  0  0
  -25.2910   -4.3800   -1.5120 C   0  0  0  0  0
  -24.4780   -4.8300   -0.3080 C   0  0  0  0  0
  -24.8620   -4.6040    0.8490 O   0  0  0  0  0
  -25.1210   -2.8700   -1.7410 C   0  0  0  0  0
  -25.8000   -2.3600   -3.0120 C   0  0  0  0  0
  -26.1300   -0.8670   -2.9630 C   0  0  0  0  0
  -24.9240   -0.0370   -3.0240 N   0  0  0  0  0
  -24.8440    1.2580   -2.6960 C   0  0  0  0  0
  -25.9090    1.9320   -2.2540 N   0  0  0  0  0
  -23.6660    1.8840   -2.7990 N   0  0  0  0  0
  -23.3540   -5.4710   -0.5790 N   0  0  0  0  0
  -22.4210   -5.8390    0.4580 C   0  0  0  0  0
  -21.1020   -5.2080    0.1760 C   0  0  0  0  0
  -20.6080   -5.2400   -0.9520 O   0  0  0  0  0
  -22.2640   -7.3530    0.5190 C   0  0  0  0  0
  -23.5290   -8.0610    0.8860 C   0  0  0  0  0
  -23.9120   -8.2050    2.2210 C   0  0  0  0  0
  -24.3540   -8.5990   -0.0920 C   0  0  0  0  0
  -25.0850   -8.8450    2.5500 C   0  0  0  0  0
  -25.5070   -9.2590    0.2330 C   0  0  0  0  0
  -25.8600   -9.3740    1.5670 C   0  0  0  0  0
  -26.9880  -10.0300    1.8640 O   0  0  0  0  0
  -20.5080   -4.6550    1.2220 N   0  0  0  0  0
  -19.1630   -4.1900    1.1460 C   0  0  0  0  0
  -18.2710   -5.3800    1.0880 C   0  0  0  0  0
  -18.6430   -6.4950    1.5110 O   0  0  0  0  0
  -18.7960   -3.3370    2.3770 C   0  0  0  0  0
  -18.8400   -4.1240    3.5580 O   0  0  0  0  0
  -17.0810   -5.1270    0.6030 N   0  0  0  0  0
  -16.0410   -6.0980    0.6210 C   0  0  0  0  0
  -15.8710   -6.6980    2.0290 C   0  0  0  0  0
  -15.8370   -7.9140    2.1910 O   0  0  0  0  0
  -14.7620   -5.4210    0.2080 C   0  0  0  0  0
  -13.5930   -6.3360    0.1980 C   0  0  0  0  0
  -12.3260   -5.6060   -0.1210 C   0  0  0  0  0
  -11.2620   -6.5830   -0.1260 N   0  0  0  0  0
  -10.5700   -6.9630    0.9440 C   0  0  0  0  0
  -10.8190   -6.4510    2.1580 N   0  0  0  0  0
   -9.6170   -7.8820    0.7960 N   0  0  0  0  0
  -16.6850   -7.1680    4.8630 C   0  0  0  0  0
  -15.7780   -5.8070    3.0350 N   0  0  0  0  0
  -16.2990   -8.2070    5.4200 O   0  0  0  0  0
  -15.6080   -6.1980    4.4390 C   0  0  0  0  0
  -15.6860   -4.9350    5.3200 C   0  0  0  0  0
  -16.8710   -5.4270    7.5350 C   0  0  0  0  0
  -16.5950   -5.7580    8.9920 C   0  0  0  0  0
  -15.5470   -5.1710    6.8350 C   0  0  0  0  0
  -14.2080   -6.8040    4.5500 C   0  0  0  0  0
  -17.9210   -6.8610    4.5990 N   0  0  0  0  0
  -19.0730   -7.6880    4.9620 C   0  0  0  0  0
  -18.9700   -9.0660    4.3320 C   0  0  0  0  0
  -19.2920  -10.0820    4.9720 O   0  0  0  0  0
  -20.4060   -7.0890    4.4780 C   0  0  0  0  0
  -20.8220   -5.7540    5.0440 C   0  0  0  0  0
  -22.2040   -5.3390    4.5540 C   0  0  0  0  0
  -22.3450   -4.5900    3.5600 O   0  0  0  0  0
  -23.2340   -5.8120    5.2460 N   0  0  0  0  0
  -18.5470   -9.1030    3.0640 N   0  0  0  0  0
  -18.4300  -10.3910    2.3780 C   0  0  0  0  0
  -17.3830  -11.2650    3.0310 C   0  0  0  0  0
  -17.6230  -12.4660    3.2270 O   0  0  0  0  0
  -18.1770  -10.2220    0.8650 C   0  0  0  0  0
  -19.3480   -9.5450    0.1300 C   0  0  0  0  0
  -18.9550   -9.1740   -1.2960 C   0  0  0  0  0
  -20.6200  -10.3980    0.0970 C   0  0  0  0  0
  -16.2350  -10.6920    3.3690 N   0  0  0  0  0
  -15.1950  -11.4620    4.0250 C   0  0  0  0  0
  -15.6690  -11.9530    5.4020 C   0  0  0  0  0
  -15.5290  -13.1480    5.6930 O   0  0  0  0  0
  -13.8640  -10.7100    4.0730 C   0  0  0  0  0
  -13.1750  -10.3850    2.7370 C   0  0  0  0  0
  -11.8400   -9.6980    2.9940 C   0  0  0  0  0
  -12.9450  -11.6130    1.8630 C   0  0  0  0  0
  -17.8160  -12.6290    7.4270 C   0  0  0  0  0
  -16.3020  -11.0800    6.2160 N   0  0  0  0  0
  -17.7640  -13.4980    8.3000 O   0  0  0  0  0
  -16.8410  -11.4460    7.5240 C   0  0  0  0  0
  -17.6510  -10.3200    8.1490 C   0  0  0  0  0
  -17.7790   -8.0260    9.0700 C   0  0  0  0  0
  -16.9920   -6.8680    9.6340 C   0  0  0  0  0
  -16.8390   -9.1520    8.6840 C   0  0  0  0  0
  -15.6510  -11.7960    8.4210 C   0  0  0  0  0
  -18.6510  -12.6870    6.4420 N   0  0  0  0  0
  -19.6100  -13.7870    6.2860 C   0  0  0  0  0
  -19.0110  -15.1180    5.8250 C   0  0  0  0  0
  -19.7330  -16.1200    5.7390 O   0  0  0  0  0
  -20.7100  -13.3820    5.2940 C   0  0  0  0  0
  -21.7450  -12.4440    5.8530 C   0  0  0  0  0
  -22.1620  -12.5090    7.1820 C   0  0  0  0  0
  -22.3590  -11.5230    5.0160 C   0  0  0  0  0
  -23.1080  -11.6390    7.6680 C   0  0  0  0  0
  -23.3140  -10.6500    5.5000 C   0  0  0  0  0
  -23.6900  -10.7060    6.8250 C   0  0  0  0  0
  -17.7220  -15.1350    5.5220 N   0  0  0  0  0
  -17.0100  -16.3790    5.2650 C   0  0  0  0  0
  -16.8250  -17.2120    6.5480 C   0  0  0  0  0
  -16.8980  -18.4350    6.5150 O   0  0  0  0  0
  -15.6520  -16.0540    4.6370 C   0  0  0  0  0
  -14.9750  -17.2200    3.9520 C   0  0  0  0  0
  -13.6730  -16.7860    3.2990 C   0  0  0  0  0
  -13.1030  -17.8620    2.5000 N   0  0  0  0  0
  -11.9600  -17.7900    1.8220 C   0  0  0  0  0
  -11.2140  -16.6810    1.8400 N   0  0  0  0  0
  -11.5710  -18.8220    1.0900 N   0  0  0  0  0
  -16.5920  -16.5340    7.6730 N   0  0  0  0  0
  -16.1940  -17.1760    8.9360 C   0  0  0  0  0
  -17.1840  -18.2330    9.4210 C   0  0  0  0  0
  -18.3940  -18.0130    9.3900 O   0  0  0  0  0
  -16.0190  -16.1010   10.0140 C   0  0  0  0  0
  -16.7810  -19.3140    9.8470 O   0  0  0  0  0
  -35.6486   -3.9765   -1.3489 H   0  0  0  0  0
  -34.8451   -2.7972   -0.2837 H   0  0  0  0  0
  -35.0351   -2.4449   -2.0188 H   0  0  0  0  0
  -33.2803   -2.6017   -3.0988 H   0  0  0  0  0
  -31.8812   -4.8425   -3.6780 H   0  0  0  0  0
  -29.9595   -3.1459   -4.3017 H   0  0  0  0  0
  -31.1661   -1.9014   -3.7328 H   0  0  0  0  0
  -32.7505   -2.9328   -5.3858 H   0  0  0  0  0
  -31.3124   -3.7813   -6.0709 H   0  0  0  0  0
  -30.3831   -1.2607   -5.9567 H   0  0  0  0  0
  -32.1399   -0.9505   -6.2358 H   0  0  0  0  0
  -30.2832   -2.6455   -7.9093 H   0  0  0  0  0
  -31.0160   -1.0367   -8.3436 H   0  0  0  0  0
  -32.1335   -2.8607   -9.3998 H   0  0  0  0  0
  -32.4707   -3.5589   -7.9248 H   0  0  0  0  0
  -33.1415   -2.0862   -8.3223 H   0  0  0  0  0
  -29.9341   -5.8356   -3.3685 H   0  0  0  0  0
  -28.9189   -5.4842   -0.5885 H   0  0  0  0  0
  -28.0473   -7.7978   -0.8921 H   0  0  0  0  0
  -28.9274   -7.8178   -2.5094 H   0  0  0  0  0
  -30.0150   -9.0225   -0.6208 H   0  0  0  0  0
  -30.9948   -7.7046   -1.4390 H   0  0  0  0  0
  -31.2269   -7.8994    1.0442 H   0  0  0  0  0
  -30.6874   -6.2699    0.3920 H   0  0  0  0  0
  -28.3899   -6.8903    1.0279 H   0  0  0  0  0
  -29.0702   -8.3493    1.8540 H   0  0  0  0  0
  -28.6978   -6.5384    3.3772 H   0  0  0  0  0
  -29.6972   -5.5389    2.4946 H   0  0  0  0  0
  -30.3237   -6.8826    3.2554 H   0  0  0  0  0
  -27.1591   -4.3054   -0.4765 H   0  0  0  0  0
  -24.9413   -4.8829   -2.4136 H   0  0  0  0  0
  -24.0534   -2.6740   -1.8411 H   0  0  0  0  0
  -25.5838   -2.3586   -0.8970 H   0  0  0  0  0
  -26.7391   -2.9018   -3.1244 H   0  0  0  0  0
  -25.1100   -2.5183   -3.8408 H   0  0  0  0  0
  -26.6389   -0.6608   -2.0214 H   0  0  0  0  0
  -26.7534   -0.6269   -3.8243 H   0  0  0  0  0
  -24.0673   -0.4873   -3.3458 H   0  0  0  0  0
  -26.8084    1.4600   -2.1602 H   0  0  0  0  0
  -23.5869    2.8677   -2.5410 H   0  0  0  0  0
  -22.8471    1.3776   -3.1355 H   0  0  0  0  0
  -23.1408   -5.7118   -1.5470 H   0  0  0  0  0
  -22.7996   -5.4903    1.4188 H   0  0  0  0  0
  -21.5242   -7.5781    1.2872 H   0  0  0  0  0
  -21.9694   -7.6952   -0.4731 H   0  0  0  0  0
  -23.2753   -7.8063    3.0108 H   0  0  0  0  0
  -24.0772   -8.4933   -1.1410 H   0  0  0  0  0
  -25.3907   -8.9271    3.5930 H   0  0  0  0  0
  -26.1379   -9.6876   -0.5457 H   0  0  0  0  0
  -27.4038  -10.3325    1.0533 H   0  0  0  0  0
  -21.0221   -4.5601    2.0978 H   0  0  0  0  0
  -19.0470   -3.5657    0.2600 H   0  0  0  0  0
  -19.5123   -2.5205    2.4685 H   0  0  0  0  0
  -17.7865   -2.9463    2.2491 H   0  0  0  0  0
  -18.6093   -3.5785    4.3135 H   0  0  0  0  0
  -16.8945   -4.2082    0.2011 H   0  0  0  0  0
  -16.2914   -6.9085   -0.0635 H   0  0  0  0  0
  -14.5575   -4.6317    0.9313 H   0  0  0  0  0
  -14.8984   -5.0482   -0.8071 H   0  0  0  0  0
  -13.7557   -7.0949   -0.5673 H   0  0  0  0  0
  -13.4947   -6.7806    1.1883 H   0  0  0  0  0
  -12.1322   -4.8302    0.6197 H   0  0  0  0  0
  -12.3999   -5.1129   -1.0903 H   0  0  0  0  0
  -11.0232   -7.0145   -1.0188 H   0  0  0  0  0
  -10.2795   -6.7653    2.9645 H   0  0  0  0  0
  -11.5480   -5.7472    2.2750 H   0  0  0  0  0
   -9.4304   -8.2795   -0.1246 H   0  0  0  0  0
  -15.8281   -4.8134    2.8101 H   0  0  0  0  0
  -16.6768   -4.5087    5.1628 H   0  0  0  0  0
  -14.8488   -4.3014    5.0274 H   0  0  0  0  0
  -17.5021   -4.5407    7.4695 H   0  0  0  0  0
  -17.3877   -6.2595    7.0574 H   0  0  0  0  0
  -16.0238   -5.0293    9.5671 H   0  0  0  0  0
  -15.1176   -4.2677    7.2683 H   0  0  0  0  0
  -14.9281   -6.0577    6.9721 H   0  0  0  0  0
  -14.0184   -7.0903    5.5845 H   0  0  0  0  0
  -14.1427   -7.6841    3.9103 H   0  0  0  0  0
  -13.4688   -6.0679    4.2340 H   0  0  0  0  0
  -18.0994   -5.9859    4.1063 H   0  0  0  0  0
  -19.0606   -7.7400    6.0507 H   0  0  0  0  0
  -21.1747   -7.7930    4.7967 H   0  0  0  0  0
  -20.2805   -6.9255    3.4077 H   0  0  0  0  0
  -20.1024   -5.0034    4.7171 H   0  0  0  0  0
  -20.8537   -5.8368    6.1304 H   0  0  0  0  0
  -24.1863   -5.5679    4.9741 H   0  0  0  0  0
  -23.0728   -6.4194    6.0494 H   0  0  0  0  0
  -18.3073   -8.2390    2.5777 H   0  0  0  0  0
  -19.3892  -10.8991    2.4768 H   0  0  0  0  0
  -18.0474  -11.2162    0.4374 H   0  0  0  0  0
  -17.2987   -9.5878    0.7445 H   0  0  0  0  0
  -19.5726   -8.6450    0.7025 H   0  0  0  0  0
  -18.1110   -8.4847   -1.2712 H   0  0  0  0  0
  -18.6736  -10.0755   -1.8402 H   0  0  0  0  0
  -19.8005   -8.6975   -1.7922 H   0  0  0  0  0
  -20.4121  -11.3385   -0.4133 H   0  0  0  0  0
  -20.9463  -10.6010    1.1170 H   0  0  0  0  0
  -21.4034   -9.8593   -0.4361 H   0  0  0  0  0
  -16.0827   -9.7040    3.1664 H   0  0  0  0  0
  -14.9991  -12.3503    3.4245 H   0  0  0  0  0
  -13.1762  -11.3698    4.6019 H   0  0  0  0  0
  -14.0916   -9.7447    4.5252 H   0  0  0  0  0
  -13.8515   -9.7243    2.1949 H   0  0  0  0  0
  -12.0090   -8.7733    3.5457 H   0  0  0  0  0
  -11.1992  -10.3589    3.5776 H   0  0  0  0  0
  -11.3599   -9.4720    2.0419 H   0  0  0  0  0
  -12.3121  -12.3230    2.3955 H   0  0  0  0  0
  -13.9033  -12.0792    1.6341 H   0  0  0  0  0
  -12.4557  -11.3117    0.9368 H   0  0  0  0  0
  -16.4092  -10.1157    5.9013 H   0  0  0  0  0
  -18.1761  -10.7505    9.0017 H   0  0  0  0  0
  -18.2886   -9.9205    7.3604 H   0  0  0  0  0
  -18.3229   -7.6935    8.1858 H   0  0  0  0  0
  -18.4789   -8.3855    9.8243 H   0  0  0  0  0
  -16.7136   -6.9417   10.6853 H   0  0  0  0  0
  -16.1482   -8.8045    7.9158 H   0  0  0  0  0
  -16.2719   -9.4710    9.5585 H   0  0  0  0  0
  -16.0105  -12.0393    9.4208 H   0  0  0  0  0
  -15.1236  -12.6541    8.0043 H   0  0  0  0  0
  -14.9745  -10.9430    8.4743 H   0  0  0  0  0
  -18.6431  -11.9403    5.7471 H   0  0  0  0  0
  -20.0016  -13.9583    7.2887 H   0  0  0  0  0
  -21.2310  -14.2954    5.0071 H   0  0  0  0  0
  -20.2199  -12.8607    4.4717 H   0  0  0  0  0
  -21.7317  -13.2602    7.8443 H   0  0  0  0  0
  -22.0839  -11.4879    3.9619 H   0  0  0  0  0
  -23.4007  -11.6828    8.7171 H   0  0  0  0  0
  -23.7700   -9.9171    4.8344 H   0  0  0  0  0
  -24.4433  -10.0180    7.2086 H   0  0  0  0  0
  -17.2138  -14.2523    5.4671 H   0  0  0  0  0
  -17.6040  -16.9820    4.5782 H   0  0  0  0  0
  -14.9955  -15.7387    5.4480 H   0  0  0  0  0
  -15.8296  -15.2975    3.8726 H   0  0  0  0  0
  -15.6409  -17.6076    3.1810 H   0  0  0  0  0
  -14.7549  -17.9840    4.6976 H   0  0  0  0  0
  -12.9627  -16.5185    4.0813 H   0  0  0  0  0
  -13.8762  -15.9369    2.6464 H   0  0  0  0  0
  -13.6205  -18.7399    2.4566 H   0  0  0  0  0
  -10.3542  -16.6358    1.2931 H   0  0  0  0  0
  -11.5045  -15.8800    2.4006 H   0  0  0  0  0
  -12.1458  -19.6636    1.0488 H   0  0  0  0  0
  -16.6949  -15.5193    7.6570 H   0  0  0  0  0
  -15.2551  -17.6961    8.7460 H   0  0  0  0  0
  -18.5494  -17.1346    9.0353 H   0  0  0  0  0
  -15.2476  -15.3972    9.7016 H   0  0  0  0  0
  -16.9613  -15.5711   10.1532 H   0  0  0  0  0
  -15.7241  -16.5728   10.9513 H   0  0  0  0  0
  1  2  2  0  0  0
  1  3  1  0  0  0
  4  1  1  0  0  0
  5  4  1  0  0  0
  6  5  1  0  0  0
  5  8  1  0  0  0
  6  7  2  0  0  0
 13  6  1  0  0  0
  8  9  1  0  0  0
  9 10  1  0  0  0
 10 11  1  0  0  0
 11 12  1  0  0  0
 14 13  1  0  0  0
 15 14  1  0  0  0
 14 17  1  0  0  0
 15 16  2  0  0  0
 22 15  1  0  0  0
 17 18  1  0  0  0
 18 19  1  0  0  0
 19 20  1  0  0  0
 20 21  1  0  0  0
 23 22  1  0  0  0
 24 23  1  0  0  0
 23 26  1  0  0  0
 24 25  2  0  0  0
 33 24  1  0  0  0
 26 27  1  0  0  0
 27 28  1  0  0  0
 28 29  1  0  0  0
 29 30  1  0  0  0
 30 31  2  0  0  0
 30 32  1  0  0  0
 34 33  1  0  0  0
 35 34  1  0  0  0
 34 37  1  0  0  0
 35 36  2  0  0  0
 45 35  1  0  0  0
 37 38  1  0  0  0
 38 39  4  0  0  0
 38 40  4  0  0  0
 39 41  4  0  0  0
 40 42  4  0  0  0
 41 43  4  0  0  0
 42 43  4  0  0  0
 43 44  1  0  0  0
 46 45  1  0  0  0
 47 46  1  0  0  0
 46 49  1  0  0  0
 47 48  2  0  0  0
 51 47  1  0  0  0
 49 50  1  0  0  0
 52 51  1  0  0  0
 53 52  1  0  0  0
 52 55  1  0  0  0
 53 54  2  0  0  0
 63 53  1  0  0  0
 55 56  1  0  0  0
 56 57  1  0  0  0
 57 58  1  0  0  0
 58 59  1  0  0  0
 59 60  1  0  0  0
 59 61  2  0  0  0
 62 64  2  0  0  0
 62 65  1  0  0  0
 71 62  1  0  0  0
 65 63  1  0  0  0
 65 66  1  0  0  0
 65 70  1  0  0  0
 66 69  1  0  0  0
 67 68  1  0  0  0
 69 67  1  0  0  0
 68102  2  0  0  0
 72 71  1  0  0  0
 73 72  1  0  0  0
 72 75  1  0  0  0
 73 74  2  0  0  0
 80 73  1  0  0  0
 75 76  1  0  0  0
 76 77  1  0  0  0
 77 78  2  0  0  0
 77 79  1  0  0  0
 81 80  1  0  0  0
 82 81  1  0  0  0
 81 84  1  0  0  0
 82 83  2  0  0  0
 88 82  1  0  0  0
 84 85  1  0  0  0
 85 86  1  0  0  0
 85 87  1  0  0  0
 89 88  1  0  0  0
 90 89  1  0  0  0
 89 92  1  0  0  0
 90 91  2  0  0  0
 97 90  1  0  0  0
 92 93  1  0  0  0
 93 94  1  0  0  0
 93 95  1  0  0  0
 96 98  2  0  0  0
 99 96  1  0  0  0
 96105  1  0  0  0
 97 99  1  0  0  0
 99100  1  0  0  0
 99104  1  0  0  0
100103  1  0  0  0
102101  1  0  0  0
101103  1  0  0  0
105106  1  0  0  0
106107  1  0  0  0
106109  1  0  0  0
107108  2  0  0  0
107116  1  0  0  0
109110  1  0  0  0
110111  4  0  0  0
110112  4  0  0  0
111113  4  0  0  0
112114  4  0  0  0
113115  4  0  0  0
114115  4  0  0  0
116117  1  0  0  0
117118  1  0  0  0
117120  1  0  0  0
118119  2  0  0  0
118127  1  0  0  0
120121  1  0  0  0
121122  1  0  0  0
122123  1  0  0  0
123124  1  0  0  0
124125  1  0  0  0
124126  2  0  0  0
127128  1  0  0  0
128129  1  0  0  0
128131  1  0  0  0
129130  1  0  0  0
129132  2  0  0  0
  3133  1  0  0  0
  3134  1  0  0  0
  3135  1  0  0  0
  4136  1  0  0  0
  5137  1  0  0  0
  8138  1  0  0  0
  8139  1  0  0  0
  9140  1  0  0  0
  9141  1  0  0  0
 10142  1  0  0  0
 10143  1  0  0  0
 11144  1  0  0  0
 11145  1  0  0  0
 12146  1  0  0  0
 12147  1  0  0  0
 12148  1  0  0  0
 13149  1  0  0  0
 14150  1  0  0  0
 17151  1  0  0  0
 17152  1  0  0  0
 18153  1  0  0  0
 18154  1  0  0  0
 19155  1  0  0  0
 19156  1  0  0  0
 20157  1  0  0  0
 20158  1  0  0  0
 21159  1  0  0  0
 21160  1  0  0  0
 21161  1  0  0  0
 22162  1  0  0  0
 23163  1  0  0  0
 26164  1  0  0  0
 26165  1  0  0  0
 27166  1  0  0  0
 27167  1  0  0  0
 28168  1  0  0  0
 28169  1  0  0  0
 29170  1  0  0  0
 31171  1  0  0  0
 32172  1  0  0  0
 32173  1  0  0  0
 33174  1  0  0  0
 34175  1  0  0  0
 37176  1  0  0  0
 37177  1  0  0  0
 39178  1  0  0  0
 40179  1  0  0  0
 41180  1  0  0  0
 42181  1  0  0  0
 44182  1  0  0  0
 45183  1  0  0  0
 46184  1  0  0  0
 49185  1  0  0  0
 49186  1  0  0  0
 50187  1  0  0  0
 51188  1  0  0  0
 52189  1  0  0  0
 55190  1  0  0  0
 55191  1  0  0  0
 56192  1  0  0  0
 56193  1  0  0  0
 57194  1  0  0  0
 57195  1  0  0  0
 58196  1  0  0  0
 60197  1  0  0  0
 60198  1  0  0  0
 61199  1  0  0  0
 63200  1  0  0  0
 66201  1  0  0  0
 66202  1  0  0  0
 67203  1  0  0  0
 67204  1  0  0  0
 68205  1  0  0  0
 69206  1  0  0  0
 69207  1  0  0  0
 70208  1  0  0  0
 70209  1  0  0  0
 70210  1  0  0  0
 71211  1  0  0  0
 72212  1  0  0  0
 75213  1  0  0  0
 75214  1  0  0  0
 76215  1  0  0  0
 76216  1  0  0  0
 79217  1  0  0  0
 79218  1  0  0  0
 80219  1  0  0  0
 81220  1  0  0  0
 84221  1  0  0  0
 84222  1  0  0  0
 85223  1  0  0  0
 86224  1  0  0  0
 86225  1  0  0  0
 86226  1  0  0  0
 87227  1  0  0  0
 87228  1  0  0  0
 87229  1  0  0  0
 88230  1  0  0  0
 89231  1  0  0  0
 92232  1  0  0  0
 92233  1  0  0  0
 93234  1  0  0  0
 94235  1  0  0  0
 94236  1  0  0  0
 94237  1  0  0  0
 95238  1  0  0  0
 95239  1  0  0  0
 95240  1  0  0  0
 97241  1  0  0  0
100242  1  0  0  0
100243  1  0  0  0
101244  1  0  0  0
101245  1  0  0  0
102246  1  0  0  0
103247  1  0  0  0
103248  1  0  0  0
104249  1  0  0  0
104250  1  0  0  0
104251  1  0  0  0
105252  1  0  0  0
106253  1  0  0  0
109254  1  0  0  0
109255  1  0  0  0
111256  1  0  0  0
112257  1  0  0  0
113258  1  0  0  0
114259  1  0  0  0
115260  1  0  0  0
116261  1  0  0  0
117262  1  0  0  0
120263  1  0  0  0
120264  1  0  0  0
121265  1  0  0  0
121266  1  0  0  0
122267  1  0  0  0
122268  1  0  0  0
123269  1  0  0  0
125270  1  0  0  0
125271  1  0  0  0
126272  1  0  0  0
127273  1  0  0  0
128274  1  0  0  0
130275  1  0  0  0
131276  1  0  0  0
131277  1  0  0  0
131278  1  0  0  0
M  END
$$$$
