5t4e_ligand
  -I-interpret- 

 69 74  0  0  0  0  0  0  0  0999 V2000
   38.9680   49.1200   42.1000 C   0  0  0  0  0
   39.7040   49.5340   39.9020 C   0  0  0  0  0
   37.8800   48.4520   41.6540 N   0  0  0  0  0
   40.4000   50.0220   43.9890 C   0  0  0  0  0
   40.8320   51.1400   43.0040 C   0  0  0  0  0
   41.1720   50.4100   41.7120 C   0  0  0  0  0
   38.1100   47.8210   37.1520 C   0  0  0  0  0
   36.7200   48.1950   36.7800 C   0  0  0  0  0
   35.6250   48.4590   36.4180 C   0  0  0  0  0
   34.2350   48.6920   35.9480 C   0  0  0  0  0
   39.9350   49.7010   41.2440 N   0  0  0  0  0
   39.3790   50.2860   35.5370 C   0  0  0  0  0
   40.5990   52.5000   35.5460 C   0  0  0  0  0
   41.6410   51.8780   36.5440 C   0  0  0  0  0
   37.6170   48.2790   40.3300 C   0  0  0  0  0
   38.6080   48.8310   39.4300 C   0  0  0  0  0
   40.5130   49.9850   38.8950 N   0  0  0  0  0
   39.9320   49.5330   37.7780 C   0  0  0  0  0
   38.7550   48.8080   38.0680 N   0  0  0  0  0
   36.6450   47.6920   39.9500 O   0  0  0  0  0
   39.2330   49.2800   43.4460 N   0  0  0  0  0
   40.3780   49.7440   36.5130 N   0  0  0  0  0
   39.2200   51.8210   35.6860 C   0  0  0  0  0
   41.7370   50.3050   36.3560 C   0  0  0  0  0
   38.1660   52.2860   34.7340 N   0  3  0  0  0
   38.3090   48.6250   44.4040 C   0  0  0  0  0
   37.3570   49.5140   45.0790 C   0  0  0  0  0
   37.2170   49.2020   46.3880 N   0  0  0  0  0
   35.8370   51.2770   45.1600 C   0  0  0  0  0
   36.7120   50.5060   44.4210 N   0  0  0  0  0
   35.5970   51.0480   46.5370 C   0  0  0  0  0
   36.3300   49.9700   47.1210 C   0  0  0  0  0
   36.1650   49.6590   48.4930 C   0  0  0  0  0
   35.2690   50.4170   49.2750 C   0  0  0  0  0
   34.5450   51.4870   48.6850 C   0  0  0  0  0
   34.7000   51.8170   47.3460 C   0  0  0  0  0
   35.1580   52.4050   44.4200 C   0  0  0  0  0
   40.1228   50.4740   44.9414 H   0  0  0  0  0
   41.2298   49.3289   44.1271 H   0  0  0  0  0
   41.6803   51.7097   43.3835 H   0  0  0  0  0
   40.0438   51.8785   42.8575 H   0  0  0  0  0
   41.9758   49.6939   41.8831 H   0  0  0  0  0
   41.5102   51.1184   40.9558 H   0  0  0  0  0
   38.6999   47.7834   36.2362 H   0  0  0  0  0
   38.0683   46.8638   37.6718 H   0  0  0  0  0
   34.1330   48.3292   34.9252 H   0  0  0  0  0
   33.5396   48.1578   36.5954 H   0  0  0  0  0
   34.0162   49.7593   35.9797 H   0  0  0  0  0
   38.4145   49.8171   35.7318 H   0  0  0  0  0
   39.7284   50.0701   34.5274 H   0  0  0  0  0
   40.9592   52.3504   34.5282 H   0  0  0  0  0
   40.4897   53.5606   35.7726 H   0  0  0  0  0
   41.3192   52.0899   37.5636 H   0  0  0  0  0
   42.6198   52.3149   36.3459 H   0  0  0  0  0
   38.8701   52.1086   36.6774 H   0  0  0  0  0
   42.4100   49.8767   37.0988 H   0  0  0  0  0
   42.1317   50.0665   35.3684 H   0  0  0  0  0
   38.0515   53.2957   34.8221 H   0  0  0  0  0
   38.4456   52.0563   33.7804 H   0  0  0  0  0
   37.2841   51.8222   34.9520 H   0  0  0  0  0
   38.9321   48.1898   45.1853 H   0  0  0  0  0
   37.7143   47.9184   43.8251 H   0  0  0  0  0
   36.7267   48.8395   48.9413 H   0  0  0  0  0
   35.1323   50.1820   50.3306 H   0  0  0  0  0
   33.8515   52.0624   49.2982 H   0  0  0  0  0
   34.1459   52.6511   46.9155 H   0  0  0  0  0
   35.9124   53.0902   44.0333 H   0  0  0  0  0
   34.5772   51.9974   43.5926 H   0  0  0  0  0
   34.4961   52.9387   45.1020 H   0  0  0  0  0
  3  1  4  0  0  0
 11  1  1  0  0  0
  1 21  1  0  0  0
  2 11  1  0  0  0
 16  2  4  0  0  0
 17  2  4  0  0  0
 15  3  1  0  0  0
  5  4  1  0  0  0
 21  4  1  0  0  0
  6  5  1  0  0  0
 11  6  1  0  0  0
  7  8  1  0  0  0
 19  7  1  0  0  0
  8  9  3  0  0  0
  9 10  1  0  0  0
 22 12  1  0  0  0
 12 23  1  0  0  0
 13 14  1  0  0  0
 23 13  1  0  0  0
 14 24  1  0  0  0
 16 15  1  0  0  0
 15 20  2  0  0  0
 19 16  4  0  0  0
 18 17  4  0  0  0
 18 19  4  0  0  0
 18 22  1  0  0  0
 21 26  1  0  0  0
 22 24  1  0  0  0
 23 25  1  0  0  0
 26 27  1  0  0  0
 27 28  4  0  0  0
 27 30  4  0  0  0
 28 32  4  0  0  0
 30 29  4  0  0  0
 29 31  4  0  0  0
 29 37  1  0  0  0
 31 32  4  0  0  0
 31 36  4  0  0  0
 32 33  4  0  0  0
 33 34  4  0  0  0
 34 35  4  0  0  0
 35 36  4  0  0  0
  4 38  1  0  0  0
  4 39  1  0  0  0
  5 40  1  0  0  0
  5 41  1  0  0  0
  6 42  1  0  0  0
  6 43  1  0  0  0
  7 44  1  0  0  0
  7 45  1  0  0  0
 10 46  1  0  0  0
 10 47  1  0  0  0
 10 48  1  0  0  0
 12 49  1  0  0  0
 12 50  1  0  0  0
 13 51  1  0  0  0
 13 52  1  0  0  0
 14 53  1  0  0  0
 14 54  1  0  0  0
 23 55  1  0  0  0
 24 56  1  0  0  0
 24 57  1  0  0  0
 25 58  1  0  0  0
 25 59  1  0  0  0
 25 60  1  0  0  0
 26 61  1  0  0  0
 26 62  1  0  0  0
 33 63  1  0  0  0
 34 64  1  0  0  0
 35 65  1  0  0  0
 36 66  1  0  0  0
 37 67  1  0  0  0
 37 68  1  0  0  0
 37 69  1  0  0  0
M  END
$$$$
