5ktw_ligand
  -I-interpret- 

 58 61  0  0  0  0  0  0  0  0999 V2000
  -34.0760    0.8480  -15.0390 C   0  0  0  0  0
  -34.1990    2.6470  -16.6320 C   0  0  0  0  0
  -33.1070   -2.8020  -15.1620 C   0  0  0  0  0
  -34.7880    3.4540  -15.6770 C   0  0  0  0  0
  -34.2920   -3.7460  -15.0980 C   0  0  0  0  0
  -31.8680   -3.2670  -15.9040 C   0  0  0  0  0
  -33.4970   -1.4310  -15.5510 N   0  0  0  0  0
  -33.7180   -0.5000  -14.6090 C   0  0  0  0  0
  -33.6230   -0.7650  -13.3890 O   0  0  0  0  0
  -33.8470    1.3370  -16.3380 C   0  0  0  0  0
  -35.0180    2.9790  -14.3910 C   0  0  0  0  0
  -34.6560    1.6840  -14.0820 C   0  0  0  0  0
  -35.5280    3.8590  -13.4350 N   0  0  0  0  0
  -36.1090    3.5070  -12.2130 C   0  0  0  0  0
  -36.0490    4.2780  -11.0410 C   0  0  0  0  0
  -36.7760    3.5610  -10.1310 C   0  0  0  0  0
  -37.2160    2.4340  -10.7210 N   0  0  0  0  0
  -36.7940    2.3920  -12.0240 N   0  0  0  0  0
  -38.0310    1.3570  -10.1580 C   0  0  0  0  0
  -39.4490    1.4110  -10.7280 C   0  0  0  0  0
  -40.5690    0.7880   -9.8930 C   0  0  0  0  0
  -40.4110    2.3000   -9.9640 C   0  0  0  0  0
  -37.0200    3.9770   -8.7040 C   0  0  0  0  0
  -36.6570    5.4510   -8.5680 C   0  0  0  0  0
  -35.3880    5.7120   -9.2550 N   0  0  0  0  0
  -35.3670    5.5850  -10.7310 C   0  0  0  0  0
  -34.3170    6.1080   -8.5420 C   0  0  0  0  0
  -34.3710    6.1860   -7.2930 O   0  0  0  0  0
  -33.0040    6.3940   -9.2230 C   0  0  0  0  0
  -34.0085    3.0445  -17.6289 H   0  0  0  0  0
  -32.7728   -2.8004  -14.1245 H   0  0  0  0  0
  -35.0751    4.4734  -15.9349 H   0  0  0  0  0
  -35.0083   -3.3786  -14.3631 H   0  0  0  0  0
  -34.7679   -3.7966  -16.0773 H   0  0  0  0  0
  -33.9486   -4.7389  -14.8077 H   0  0  0  0  0
  -32.0632   -3.2572  -16.9763 H   0  0  0  0  0
  -31.0381   -2.5973  -15.6783 H   0  0  0  0  0
  -31.6157   -4.2794  -15.5886 H   0  0  0  0  0
  -33.5986   -1.1913  -16.5372 H   0  0  0  0  0
  -33.4009    0.6983  -17.1003 H   0  0  0  0  0
  -34.8256    1.3067  -13.0735 H   0  0  0  0  0
  -35.4713    4.8548  -13.6485 H   0  0  0  0  0
  -38.0779    1.4749   -9.0754 H   0  0  0  0  0
  -37.5805    0.3983  -10.4149 H   0  0  0  0  0
  -39.1288    1.3063  -11.7646 H   0  0  0  0  0
  -40.6960    0.0104   -9.1398 H   0  0  0  0  0
  -41.3533    0.0387  -10.0004 H   0  0  0  0  0
  -41.0331    3.1753  -10.1508 H   0  0  0  0  0
  -40.3672    3.1466   -9.2789 H   0  0  0  0  0
  -36.4090    3.3772   -8.0295 H   0  0  0  0  0
  -38.0672    3.8237   -8.4432 H   0  0  0  0  0
  -36.5551    5.7024   -7.5123 H   0  0  0  0  0
  -37.4425    6.0597   -9.0158 H   0  0  0  0  0
  -35.8779    6.4214  -11.2080 H   0  0  0  0  0
  -34.3472    5.6008  -11.1156 H   0  0  0  0  0
  -32.6910    7.4124   -8.9928 H   0  0  0  0  0
  -32.2506    5.6916   -8.8663 H   0  0  0  0  0
  -33.1237    6.2841  -10.3008 H   0  0  0  0  0
  8  1  1  0  0  0
  1 10  4  0  0  0
  1 12  4  0  0  0
  2  4  4  0  0  0
 10  2  4  0  0  0
  3  5  1  0  0  0
  3  6  1  0  0  0
  7  3  1  0  0  0
  4 11  4  0  0  0
  7  8  1  0  0  0
  8  9  2  0  0  0
 11 12  4  0  0  0
 11 13  1  0  0  0
 13 14  1  0  0  0
 14 15  4  0  0  0
 14 18  4  0  0  0
 15 16  4  0  0  0
 15 26  1  0  0  0
 16 17  4  0  0  0
 16 23  1  0  0  0
 17 18  4  0  0  0
 17 19  1  0  0  0
 19 20  1  0  0  0
 20 21  1  0  0  0
 20 22  1  0  0  0
 21 22  1  0  0  0
 23 24  1  0  0  0
 24 25  1  0  0  0
 25 26  1  0  0  0
 25 27  1  0  0  0
 27 28  2  0  0  0
 27 29  1  0  0  0
  2 30  1  0  0  0
  3 31  1  0  0  0
  4 32  1  0  0  0
  5 33  1  0  0  0
  5 34  1  0  0  0
  5 35  1  0  0  0
  6 36  1  0  0  0
  6 37  1  0  0  0
  6 38  1  0  0  0
  7 39  1  0  0  0
 10 40  1  0  0  0
 12 41  1  0  0  0
 13 42  1  0  0  0
 19 43  1  0  0  0
 19 44  1  0  0  0
 20 45  1  0  0  0
 21 46  1  0  0  0
 21 47  1  0  0  0
 22 48  1  0  0  0
 22 49  1  0  0  0
 23 50  1  0  0  0
 23 51  1  0  0  0
 24 52  1  0  0  0
 24 53  1  0  0  0
 26 54  1  0  0  0
 26 55  1  0  0  0
 29 56  1  0  0  0
 29 57  1  0  0  0
 29 58  1  0  0  0
M  END
$$$$
