6qyp_ligand
  -I-interpret- 

 71 75  0  0  0  0  0  0  0  0999 V2000
    4.2880    0.5830   -5.9160 C   0  0  0  0  0
    5.0720    1.5650   -6.5100 C   0  0  0  0  0
    3.7380    1.4020   -8.4420 N   0  0  0  0  0
    2.9940    0.4770   -7.8220 C   0  0  0  0  0
    3.2700    0.0510   -6.5900 N   0  0  0  0  0
    6.6900    3.1530   -6.9030 C   0  0  0  0  0
    3.6760   -0.8390   -4.1160 C   0  0  0  0  0
    3.9130   -0.9100   -2.6310 C   0  0  0  0  0
    3.9630   -2.1830   -4.8070 C   0  0  0  0  0
    6.1750    2.2460   -6.0030 C   0  0  0  0  0
    4.7720    1.9560   -7.8010 C   0  0  0  0  0
    7.9020    4.0470   -6.6360 C   0  0  0  0  0
    9.8620   -0.8530   -4.1060 C   0  0  0  0  0
   10.6270   -2.1440   -3.7030 C   0  0  0  0  0
    9.6820   -3.1370   -3.2060 N   0  3  0  0  0
   10.3530   -4.4270   -3.0100 C   0  0  0  0  0
    9.1640   -2.6680   -1.9320 C   0  0  0  0  0
    8.1910   -1.5380   -2.1740 C   0  0  0  0  0
    8.7930   -0.4870   -3.0740 N   0  0  0  0  0
    8.1350    0.7420   -3.1950 C   0  0  0  0  0
    7.4830    0.9550   -4.4080 C   0  0  0  0  0
    8.0400    1.7110   -2.2060 C   0  0  0  0  0
    8.5980    1.6060   -1.0080 O   0  0  0  0  0
    7.3300    2.8620   -2.4520 C   0  0  0  0  0
    7.2850    4.0270   -1.1800 Cl  0  0  0  0  0
    6.7050    3.0820   -3.6820 C   0  0  0  0  0
    5.9470    4.3760   -3.9300 C   0  0  0  0  0
    6.7900    2.1000   -4.6690 C   0  0  0  0  0
    8.4540    4.5100   -7.9720 C   0  0  0  0  0
    5.8400    3.1530   -8.3710 S   0  0  0  0  0
    4.5240    0.2090   -4.6420 O   0  0  0  0  0
    4.9970   -2.2670   -5.4280 O   0  0  0  0  0
    3.1670   -3.1240   -4.7870 O   0  0  0  0  0
    3.3870    0.3490   -1.9160 C   0  0  0  0  0
    4.2740    1.3190   -1.5170 C   0  0  0  0  0
    3.7960    2.4320   -0.8510 C   0  0  0  0  0
    2.4450    2.6210   -0.6210 C   0  0  0  0  0
    1.5350    1.6610   -1.0380 C   0  0  0  0  0
    2.0240    0.5230   -1.6670 C   0  0  0  0  0
    2.1331    0.0582   -8.3431 H   0  0  0  0  0
    2.6270   -0.6171   -4.3119 H   0  0  0  0  0
    4.9862   -0.9845   -2.4553 H   0  0  0  0  0
    3.3836   -1.7777   -2.2375 H   0  0  0  0  0
    8.6635    3.4918   -6.0883 H   0  0  0  0  0
    7.6078    4.9068   -6.0341 H   0  0  0  0  0
    9.3711   -1.0280   -5.0634 H   0  0  0  0  0
   10.5777   -0.0331   -4.1664 H   0  0  0  0  0
   11.3493   -1.9081   -2.9215 H   0  0  0  0  0
   11.1478   -2.5432   -4.5734 H   0  0  0  0  0
    8.9273   -3.2625   -3.8806 H   0  0  0  0  0
   10.7630   -4.7699   -3.9600 H   0  0  0  0  0
   11.1594   -4.3094   -2.2861 H   0  0  0  0  0
    9.6334   -5.1567   -2.6388 H   0  0  0  0  0
    9.9873   -2.3140   -1.3115 H   0  0  0  0  0
    8.6542   -3.4855   -1.4222 H   0  0  0  0  0
    7.9448   -1.0784   -1.2168 H   0  0  0  0  0
    7.3003   -1.9415   -2.6557 H   0  0  0  0  0
    7.5285    0.1806   -5.1737 H   0  0  0  0  0
    8.3999    2.3922   -0.4939 H   0  0  0  0  0
    5.1393    4.4674   -3.2038 H   0  0  0  0  0
    6.6283    5.2204   -3.8257 H   0  0  0  0  0
    5.5317    4.3649   -4.9377 H   0  0  0  0  0
    8.7505    3.6424   -8.5615 H   0  0  0  0  0
    7.6862    5.0690   -8.5068 H   0  0  0  0  0
    9.3203    5.1498   -7.8037 H   0  0  0  0  0
    2.4068   -2.8872   -4.2507 H   0  0  0  0  0
    5.3391    1.2126   -1.7225 H   0  0  0  0  0
    4.5035    3.1819   -0.4971 H   0  0  0  0  0
    2.0970    3.5210   -0.1140 H   0  0  0  0  0
    0.4655    1.7958   -0.8766 H   0  0  0  0  0
    1.3251   -0.2549   -1.9744 H   0  0  0  0  0
  2  1  4  0  0  0
  1  5  4  0  0  0
  1 31  1  0  0  0
 10  2  4  0  0  0
  2 11  4  0  0  0
  3  4  4  0  0  0
 11  3  4  0  0  0
  5  4  4  0  0  0
 10  6  4  0  0  0
  6 12  1  0  0  0
  6 30  4  0  0  0
  7  8  1  0  0  0
  7  9  1  0  0  0
 31  7  1  0  0  0
  8 34  1  0  0  0
  9 32  2  0  0  0
  9 33  1  0  0  0
 28 10  1  0  0  0
 30 11  4  0  0  0
 12 29  1  0  0  0
 13 14  1  0  0  0
 19 13  1  0  0  0
 14 15  1  0  0  0
 15 16  1  0  0  0
 17 15  1  0  0  0
 18 17  1  0  0  0
 19 18  1  0  0  0
 20 19  1  0  0  0
 21 20  4  0  0  0
 20 22  4  0  0  0
 21 28  4  0  0  0
 22 23  1  0  0  0
 22 24  4  0  0  0
 24 25  1  0  0  0
 24 26  4  0  0  0
 26 27  1  0  0  0
 26 28  4  0  0  0
 34 35  4  0  0  0
 34 39  4  0  0  0
 35 36  4  0  0  0
 36 37  4  0  0  0
 37 38  4  0  0  0
 38 39  4  0  0  0
  4 40  1  0  0  0
  7 41  1  0  0  0
  8 42  1  0  0  0
  8 43  1  0  0  0
 12 44  1  0  0  0
 12 45  1  0  0  0
 13 46  1  0  0  0
 13 47  1  0  0  0
 14 48  1  0  0  0
 14 49  1  0  0  0
 15 50  1  0  0  0
 16 51  1  0  0  0
 16 52  1  0  0  0
 16 53  1  0  0  0
 17 54  1  0  0  0
 17 55  1  0  0  0
 18 56  1  0  0  0
 18 57  1  0  0  0
 21 58  1  0  0  0
 23 59  1  0  0  0
 27 60  1  0  0  0
 27 61  1  0  0  0
 27 62  1  0  0  0
 29 63  1  0  0  0
 29 64  1  0  0  0
 29 65  1  0  0  0
 33 66  1  0  0  0
 35 67  1  0  0  0
 36 68  1  0  0  0
 37 69  1  0  0  0
 38 70  1  0  0  0
 39 71  1  0  0  0
M  END
$$$$
