5oui_ligand
  -I-interpret- 

 31 32  0  0  0  0  0  0  0  0999 V2000
    9.4770  -27.0300  -17.8580 Br  0  0  0  0  0
    7.9350  -28.1830  -18.0070 C   0  0  0  0  0
    7.2990  -28.7160  -16.8750 C   0  0  0  0  0
    6.1820  -29.5470  -17.0660 C   0  0  0  0  0
    5.7380  -29.7960  -18.3640 C   0  0  0  0  0
    6.3970  -29.2740  -19.4270 N   0  0  0  0  0
    7.4500  -28.4860  -19.2830 C   0  0  0  0  0
    4.6290  -30.6790  -18.6710 N   0  0  0  0  0
    4.7360  -32.0510  -18.1600 C   0  0  0  0  0
    5.6860  -32.3550  -17.4980 O   0  0  0  0  0
    3.7220  -33.1740  -18.4550 C   0  0  0  0  0
    4.2600  -33.8090  -19.7060 C   0  0  0  0  0
    3.4380  -34.9360  -20.1820 C   0  0  0  0  0
    1.9660  -34.5250  -20.3190 C   0  0  0  0  0
    1.4500  -33.8470  -19.1010 N   0  3  0  0  0
    2.2840  -32.7120  -18.6240 C   0  0  0  0  0
    7.6626  -28.4909  -15.8724 H   0  0  0  0  0
    5.6702  -29.9904  -16.2119 H   0  0  0  0  0
    7.9416  -28.0712  -20.1629 H   0  0  0  0  0
    3.8221  -30.3651  -19.2103 H   0  0  0  0  0
    3.6438  -33.8586  -17.6104 H   0  0  0  0  0
    5.2536  -34.1960  -19.4800 H   0  0  0  0  0
    4.2646  -33.0492  -20.4875 H   0  0  0  0  0
    3.5079  -35.7490  -19.4594 H   0  0  0  0  0
    3.8059  -35.2484  -21.1593 H   0  0  0  0  0
    1.3772  -35.4287  -20.4764 H   0  0  0  0  0
    1.8875  -33.8265  -21.1521 H   0  0  0  0  0
    1.4392  -34.5426  -18.3551 H   0  0  0  0  0
    0.5346  -33.4647  -19.3383 H   0  0  0  0  0
    2.2463  -31.9026  -19.3530 H   0  0  0  0  0
    1.9017  -32.3581  -17.6665 H   0  0  0  0  0
  1  2  1  0  0  0
  2  3  4  0  0  0
  2  7  4  0  0  0
  3  4  4  0  0  0
  4  5  4  0  0  0
  5  6  4  0  0  0
  5  8  1  0  0  0
  6  7  4  0  0  0
  8  9  1  0  0  0
  9 10  2  0  0  0
  9 11  1  0  0  0
 11 12  1  0  0  0
 11 16  1  0  0  0
 12 13  1  0  0  0
 13 14  1  0  0  0
 14 15  1  0  0  0
 15 16  1  0  0  0
  3 17  1  0  0  0
  4 18  1  0  0  0
  7 19  1  0  0  0
  8 20  1  0  0  0
 11 21  1  0  0  0
 12 22  1  0  0  0
 12 23  1  0  0  0
 13 24  1  0  0  0
 13 25  1  0  0  0
 14 26  1  0  0  0
 14 27  1  0  0  0
 15 28  1  0  0  0
 15 29  1  0  0  0
 16 30  1  0  0  0
 16 31  1  0  0  0
M  END
$$$$
