2uze_ligand
  -I-interpret- 

 32 34  0  0  0  0  0  0  0  0999 V2000
   68.2170   63.5370   18.4020 O   0  0  0  0  0
   69.5540   64.5860   19.7460 O   0  0  0  0  0
   70.2350   62.3980   18.9630 C   0  0  0  0  0
   71.4600   62.4230   19.6560 C   0  0  0  0  0
   72.3450   61.3300   19.5570 C   0  0  0  0  0
   71.9760   60.2140   18.8030 C   0  0  0  0  0
   70.7530   60.2040   18.1240 C   0  0  0  0  0
   69.8990   61.2880   18.1970 C   0  0  0  0  0
   72.8850   59.0330   18.6660 C   0  0  0  0  0
   72.5470   57.8650   18.0710 O   0  0  0  0  0
   74.1760   58.9460   19.0320 C   0  0  0  0  0
   74.6260   57.7080   18.6750 C   0  0  0  0  0
   73.6080   57.0460   18.0870 C   0  0  0  0  0
   73.6350   55.6710   17.5130 C   0  0  0  0  0
   72.5750   55.2380   16.8470 C   0  0  0  0  0
   71.0780   55.9880   16.8920 S   0  0  0  0  0
   70.4090   54.8630   15.8410 C   0  0  0  0  0
   69.1320   54.8910   15.4370 N   0  0  0  0  0
   71.3130   53.9320   15.4390 N   0  0  0  0  0
   69.2760   63.5690   19.0360 C   0  0  0  0  0
   72.5520   54.1190   15.9800 C   0  0  0  0  0
   73.5260   53.3990   15.7290 O   0  0  0  0  0
   70.4048   64.4552   20.1710 H   0  0  0  0  0
   71.7238   63.2856   20.2679 H   0  0  0  0  0
   73.3092   61.3558   20.0647 H   0  0  0  0  0
   70.4711   59.3333   17.5320 H   0  0  0  0  0
   68.9561   61.2724   17.6505 H   0  0  0  0  0
   74.7584   59.7243   19.5251 H   0  0  0  0  0
   75.6323   57.3215   18.8367 H   0  0  0  0  0
   74.5103   55.0337   17.6388 H   0  0  0  0  0
   68.5076   55.6255   15.7703 H   0  0  0  0  0
   71.0886   53.1708   14.7982 H   0  0  0  0  0
 20  1  2  0  0  0
 20  2  1  0  0  0
  3  4  4  0  0  0
  3  8  4  0  0  0
  3 20  1  0  0  0
  4  5  4  0  0  0
  5  6  4  0  0  0
  6  7  4  0  0  0
  6  9  1  0  0  0
  7  8  4  0  0  0
  9 10  4  0  0  0
  9 11  4  0  0  0
 10 13  4  0  0  0
 11 12  4  0  0  0
 12 13  4  0  0  0
 13 14  1  0  0  0
 14 15  2  0  0  0
 15 16  1  0  0  0
 15 21  1  0  0  0
 16 17  1  0  0  0
 17 18  2  0  0  0
 17 19  1  0  0  0
 19 21  1  0  0  0
 21 22  2  0  0  0
  2 23  1  0  0  0
  4 24  1  0  0  0
  5 25  1  0  0  0
  7 26  1  0  0  0
  8 27  1  0  0  0
 11 28  1  0  0  0
 12 29  1  0  0  0
 14 30  1  0  0  0
 18 31  1  0  0  0
 19 32  1  0  0  0
M  END
$$$$
