### 
### Created by X-TOOL on Mon Sep 10 21:12:55 2018
### 

@<TRIPOS>MOLECULE
2uze_ligand
   31    33     1     0     0
SMALL
GAST_HUCK


@<TRIPOS>ATOM
      1 O4         68.2170   63.5370   18.4020 O.co2     1 C95        -0.5616
      2 O3         69.5540   64.5860   19.7460 O.co2     1 C95        -0.5616
      3 C16        70.2350   62.3980   18.9630 C.ar      1 C95         0.0069
      4 C15        71.4600   62.4230   19.6560 C.ar      1 C95        -0.0502
      5 C14        72.3450   61.3300   19.5570 C.ar      1 C95        -0.0513
      6 C13        71.9760   60.2140   18.8030 C.ar      1 C95         0.0129
      7 C18        70.7530   60.2040   18.1240 C.ar      1 C95        -0.0513
      8 C17        69.8990   61.2880   18.1970 C.ar      1 C95        -0.0502
      9 C4         72.8850   59.0330   18.6660 C.2       1 C95         0.1247
     10 O2         72.5470   57.8650   18.0710 O.3       1 C95        -0.2549
     11 C3         74.1760   58.9460   19.0320 C.2       1 C95        -0.0467
     12 C2         74.6260   57.7080   18.6750 C.2       1 C95        -0.0481
     13 C1         73.6080   57.0460   18.0870 C.2       1 C95         0.1161
     14 C6         73.6350   55.6710   17.5130 C.2       1 C95         0.0011
     15 C7         72.5750   55.2380   16.8470 C.2       1 C95         0.1229
     16 S1         71.0780   55.9880   16.8920 S.3       1 C95         0.0363
     17 C9         70.4090   54.8630   15.8410 C.2       1 C95         0.1926
     18 N3         69.1320   54.8910   15.4370 N.2       1 C95        -0.3843
     19 N2         71.3130   53.9320   15.4390 N.am      1 C95        -0.1897
     20 C19        69.2760   63.5690   19.0360 C.2       1 C95         0.0607
     21 C8         72.5520   54.1190   15.9800 C.2       1 C95         0.2537
     22 O1         73.5260   53.3990   15.7290 O.2       1 C95        -0.3715
     23 H1         71.7223   63.2809   20.2645 H         1 C95         0.0642
     24 H2         73.3039   61.3557   20.0619 H         1 C95         0.0608
     25 H3         70.4726   59.3381   17.5352 H         1 C95         0.0608
     26 H4         68.9612   61.2725   17.6535 H         1 C95         0.0642
     27 H5         74.7578   59.7236   19.5247 H         1 C95         0.0425
     28 H6         75.6313   57.3219   18.8366 H         1 C95         0.0416
     29 H7         74.5095   55.0343   17.6387 H         1 C95         0.0612
     30 H8         68.7882   54.1862   14.8036 H         1 C95         0.0547
     31 H9         71.0930   53.1857   14.8107 H         1 C95         0.2436
@<TRIPOS>BOND
     1   20    1 ar 
     2   20    2 ar 
     3    3    4 ar 
     4    3    8 ar 
     5    3   20 1  
     6    4    5 ar 
     7    5    6 ar 
     8    6    7 ar 
     9    6    9 1  
    10    7    8 ar 
    11    9   10 1  
    12    9   11 2  
    13   10   13 1  
    14   11   12 1  
    15   12   13 2  
    16   13   14 1  
    17   14   15 2  
    18   15   16 1  
    19   15   21 1  
    20   16   17 1  
    21   17   18 2  
    22   17   19 1  
    23   19   21 am 
    24   21   22 2  
    25    4   23 1  
    26    5   24 1  
    27    7   25 1  
    28    8   26 1  
    29   11   27 1  
    30   12   28 1  
    31   14   29 1  
    32   18   30 1  
    33   19   31 1  
@<TRIPOS>SUBSTRUCTURE
     1 C95         1

