3nkk_ligand
  -I-interpret- 

 20 20  0  0  0  0  0  0  0  0999 V2000
   26.9000   14.8450   19.1010 F   0  0  0  0  0
   27.8350   14.4520   18.2380 C   0  0  0  0  0
   28.5800   13.3020   18.5000 C   0  0  0  0  0
   29.5550   12.9020   17.5860 C   0  0  0  0  0
   29.7920   13.6370   16.4250 C   0  0  0  0  0
   29.0490   14.7880   16.1600 C   0  0  0  0  0
   28.0690   15.1900   17.0770 C   0  0  0  0  0
   29.3350   15.5590   14.8890 C   0  0  0  0  0
   28.9450   16.7720   14.8650 N   0  0  0  0  0
   29.9550   14.9930   13.8850 N   0  0  0  0  0
   28.3140   12.5010   19.7780 C   0  0  0  0  0
   30.1393   12.0030   17.7820 H   0  0  0  0  0
   30.5595   13.3117   15.7227 H   0  0  0  0  0
   27.4834   16.0883   16.8816 H   0  0  0  0  0
   29.1125   17.3453   14.0382 H   0  0  0  0  0
   30.1449   15.5266   13.0367 H   0  0  0  0  0
   30.2483   14.0183   13.9508 H   0  0  0  0  0
   28.4885   13.1363   20.6464 H   0  0  0  0  0
   27.2800   12.1561   19.7805 H   0  0  0  0  0
   28.9848   11.6426   19.8135 H   0  0  0  0  0
  1  2  1  0  0  0
  2  3  4  0  0  0
  2  7  4  0  0  0
  3  4  4  0  0  0
  3 11  1  0  0  0
  4  5  4  0  0  0
  5  6  4  0  0  0
  6  7  4  0  0  0
  6  8  1  0  0  0
  8  9  2  0  0  0
  8 10  1  0  0  0
  4 12  1  0  0  0
  5 13  1  0  0  0
  7 14  1  0  0  0
  9 15  1  0  0  0
 10 16  1  0  0  0
 10 17  1  0  0  0
 11 18  1  0  0  0
 11 19  1  0  0  0
 11 20  1  0  0  0
M  END
$$$$
