4djs_ligand
  -I-interpret- 

287293  0  0  0  0  0  0  0  0999 V2000
  -25.6920   -0.5290  -67.7040 N   0  3  0  0  0
  -24.5440   -0.0180  -66.9660 C   0  0  0  0  0
  -23.9590    1.2140  -67.6480 C   0  0  0  0  0
  -22.8070    1.2070  -68.0820 O   0  0  0  0  0
  -23.4750   -1.1030  -66.8250 C   0  0  0  0  0
  -23.7690   -2.3670  -67.6180 C   0  0  0  0  0
  -22.6190   -3.3560  -67.5280 C   0  0  0  0  0
  -21.4020   -2.8330  -68.1410 N   0  0  0  0  0
  -20.2400   -3.4770  -68.1670 C   0  0  0  0  0
  -19.1850   -2.9220  -68.7490 N   0  0  0  0  0
  -20.1290   -4.6750  -67.6100 N   0  0  0  0  0
  -24.7600    2.2710  -67.7380 N   0  0  0  0  0
  -24.3300    3.5070  -68.3840 C   0  0  0  0  0
  -24.7860    4.7380  -67.6050 C   0  0  0  0  0
  -25.9080    4.7800  -67.1000 O   0  0  0  0  0
  -24.8550    3.5720  -69.8210 C   0  0  0  0  0
  -24.5690    4.8740  -70.5070 C   0  0  0  0  0
  -25.3750    5.9760  -70.5430 C   0  0  0  0  0
  -23.3930    5.2130  -71.2540 C   0  0  0  0  0
  -24.7740    6.9780  -71.2650 N   0  0  0  0  0
  -23.5570    6.5360  -71.7130 C   0  0  0  0  0
  -22.2180    4.5270  -71.5790 C   0  0  0  0  0
  -22.5910    7.1860  -72.4800 C   0  0  0  0  0
  -21.2600    5.1750  -72.3410 C   0  0  0  0  0
  -21.4530    6.4910  -72.7830 C   0  0  0  0  0
  -23.9120    5.7520  -67.5120 N   0  0  0  0  0
  -22.5620    5.7410  -68.0830 C   0  0  0  0  0
  -21.5640    5.1280  -67.1100 C   0  0  0  0  0
  -20.3620    5.3590  -67.2250 O   0  0  0  0  0
  -22.2460    7.2340  -68.2670 C   0  0  0  0  0
  -23.5070    7.9850  -67.8690 C   0  0  0  0  0
  -24.2490    7.0700  -66.9590 C   0  0  0  0  0
  -22.0700    4.3490  -66.1610 N   0  0  0  0  0
  -21.2480    3.7930  -65.0950 C   0  0  0  0  0
  -20.0380    3.0330  -65.6280 C   0  0  0  0  0
  -19.0680    2.8180  -64.8960 O   0  0  0  0  0
  -22.0940    2.8830  -64.2020 C   0  0  0  0  0
  -23.5580    3.2950  -64.1080 C   0  0  0  0  0
  -23.7350    4.7440  -63.7010 C   0  0  0  0  0
  -22.8600    5.3340  -63.0670 O   0  0  0  0  0
  -24.8690    5.3280  -64.0710 N   0  0  0  0  0
  -18.0070    2.3070  -67.5250 C   0  0  0  0  0
  -20.2840    2.5590  -66.8880 N   0  0  0  0  0
  -17.0420    1.4760  -67.0160 O   0  0  0  0  0
  -19.3680    1.7290  -67.6370 C   0  0  0  0  0
  -19.7790    1.6770  -69.0820 C   0  0  0  0  0
  -17.6770    1.0010  -70.4470 C   0  0  0  0  0
  -16.8500   -0.1220  -70.9860 C   0  0  0  0  0
  -19.0870    0.7360  -70.0180 C   0  0  0  0  0
  -19.3340    0.3520  -67.0460 C   0  0  0  0  0
  -18.0260    3.5810  -67.7900 N   0  0  0  0  0
  -16.8080    4.3570  -67.9630 C   0  0  0  0  0
  -15.9100    4.2550  -66.7360 C   0  0  0  0  0
  -14.6880    4.1590  -66.8530 O   0  0  0  0  0
  -17.1200    5.8300  -68.2200 C   0  0  0  0  0
  -17.9470    5.9810  -69.4990 C   0  0  0  0  0
  -15.8320    6.6300  -68.3260 C   0  0  0  0  0
  -18.3630    7.3990  -69.7950 C   0  0  0  0  0
  -16.5240    4.2940  -65.5590 N   0  0  0  0  0
  -15.7830    4.2280  -64.3060 C   0  0  0  0  0
  -15.3060    2.8090  -64.0220 C   0  0  0  0  0
  -14.1930    2.5990  -63.5370 O   0  0  0  0  0
  -16.6530    4.7230  -63.1490 C   0  0  0  0  0
  -17.2180    6.1390  -63.2780 C   0  0  0  0  0
  -18.2670    6.4190  -62.2110 C   0  0  0  0  0
  -16.1030    7.1700  -63.2210 C   0  0  0  0  0
  -16.1620    1.8400  -64.3240 N   0  0  0  0  0
  -15.8650    0.4410  -64.0700 C   0  0  0  0  0
  -14.6810   -0.0240  -64.8930 C   0  0  0  0  0
  -13.7120   -0.5310  -64.3350 O   0  0  0  0  0
  -17.0830   -0.4250  -64.3720 C   0  0  0  0  0
  -18.2280   -0.1580  -63.4260 C   0  0  0  0  0
  -18.3460    0.9890  -62.9450 O   0  0  0  0  0
  -19.0040   -1.0990  -63.1580 O   0  0  0  0  0
  -12.2930    0.5370  -66.5500 C   0  0  0  0  0
  -14.6180    0.1530  -66.2200 N   0  0  0  0  0
  -11.0690    0.1720  -67.0370 O   0  0  0  0  0
  -13.4660   -0.2530  -66.9820 C   0  0  0  0  0
  -13.6970   -0.0540  -68.4420 C   0  0  0  0  0
  -14.5460    1.0600  -70.4680 C   0  0  0  0  0
  -15.4680    0.0960  -71.1230 C   0  0  0  0  0
  -14.5430    1.0450  -68.9830 C   0  0  0  0  0
  -13.1840   -1.6870  -66.7040 C   0  0  0  0  0
  -12.3740    1.6860  -66.0390 N   0  0  0  0  0
  -11.2270    2.4470  -65.5860 C   0  0  0  0  0
  -10.6620    1.8660  -64.2900 C   0  0  0  0  0
   -9.4500    1.6820  -64.1530 O   0  0  0  0  0
  -11.6460    3.9020  -65.3950 C   0  0  0  0  0
  -10.6040    4.7480  -64.7410 C   0  0  0  0  0
   -9.3630    4.9640  -65.3010 N   0  0  0  0  0
  -10.6120    5.4270  -63.5700 C   0  0  0  0  0
   -8.6510    5.7380  -64.5020 C   0  0  0  0  0
   -9.3840    6.0320  -63.4440 N   0  0  0  0  0
  -11.5480    1.5940  -63.3370 N   0  0  0  0  0
  -11.1520    0.9920  -62.0730 C   0  0  0  0  0
  -10.3270   -0.2640  -62.3260 C   0  0  0  0  0
   -9.2600   -0.4420  -61.7420 O   0  0  0  0  0
  -12.3750    0.6340  -61.2060 C   0  0  0  0  0
  -11.9440   -0.1660  -59.9880 C   0  0  0  0  0
  -13.1160    1.8950  -60.7880 C   0  0  0  0  0
  -10.8230   -1.1270  -63.2060 N   0  0  0  0  0
  -10.1150   -2.3520  -63.5520 C   0  0  0  0  0
   -8.7090   -2.0350  -64.0510 C   0  0  0  0  0
   -7.7450   -2.6990  -63.6770 O   0  0  0  0  0
  -10.8850   -3.1310  -64.6190 C   0  0  0  0  0
  -12.3090   -3.4940  -64.2260 C   0  0  0  0  0
  -12.3610   -4.6480  -63.2430 C   0  0  0  0  0
  -13.7400   -5.0040  -62.9190 N   0  0  0  0  0
  -14.4920   -5.8190  -63.6500 C   0  0  0  0  0
  -14.0000   -6.3680  -64.7520 N   0  0  0  0  0
  -15.7380   -6.0850  -63.2810 N   0  0  0  0  0
   -8.6030   -1.0120  -64.8950 N   0  0  0  0  0
   -7.3200   -0.5980  -65.4560 C   0  0  0  0  0
   -6.3120   -0.2080  -64.3760 C   0  0  0  0  0
   -5.1100   -0.4230  -64.5300 O   0  0  0  0  0
   -7.5180    0.5710  -66.4270 C   0  0  0  0  0
   -8.0260    0.1730  -67.8090 C   0  0  0  0  0
   -8.8260    1.3010  -68.4580 C   0  0  0  0  0
   -8.1800    2.6040  -68.3250 N   0  0  0  0  0
   -8.7780    3.7640  -68.5880 C   0  0  0  0  0
  -10.0400    3.7840  -68.9950 N   0  0  0  0  0
   -8.1160    4.9040  -68.4390 N   0  0  0  0  0
   -6.8070    0.3640  -63.2830 N   0  0  0  0  0
   -5.9370    0.8990  -62.2400 C   0  0  0  0  0
   -5.9190    0.0390  -60.9780 C   0  0  0  0  0
   -4.9190   -0.6090  -60.6740 O   0  0  0  0  0
   -6.3420    2.3340  -61.8600 C   0  0  0  0  0
   -5.4430    2.8620  -60.7560 C   0  0  0  0  0
   -6.2880    3.2370  -63.0810 C   0  0  0  0  0
   -7.0240    0.0470  -60.2420 N   0  0  0  0  0
   -7.1190   -0.7160  -59.0030 C   0  0  0  0  0
   -7.2280   -2.2110  -59.2830 C   0  0  0  0  0
   -6.9424   -3.0596  -58.3965 O   0  0  0  0  0
   -8.3120   -0.2440  -58.1670 C   0  0  0  0  0
   -8.3310    1.2350  -57.9390 C   0  0  0  0  0
   -9.3600    2.0930  -58.1970 C   0  0  0  0  0
   -7.2610    2.0350  -57.4230 C   0  0  0  0  0
   -9.0010    3.3770  -57.8640 N   0  0  0  0  0
   -7.7170    3.3680  -57.3880 C   0  0  0  0  0
   -5.9640    1.7530  -56.9850 C   0  0  0  0  0
   -6.9210    4.4160  -56.9320 C   0  0  0  0  0
   -5.1760    2.7940  -56.5330 C   0  0  0  0  0
   -5.6560    4.1090  -56.5110 C   0  0  0  0  0
   -7.6094   -2.6036  -60.4179 O   0  0  0  0  0
  -26.3944    0.2057  -67.7890 H   0  0  0  0  0
  -25.3931   -0.8245  -68.6334 H   0  0  0  0  0
  -26.0892   -1.3246  -67.2043 H   0  0  0  0  0
  -24.8840    0.2728  -65.9720 H   0  0  0  0  0
  -23.4354   -1.3833  -65.7724 H   0  0  0  0  0
  -22.5422   -0.6899  -67.2088 H   0  0  0  0  0
  -23.9113   -2.0950  -68.6639 H   0  0  0  0  0
  -24.6624   -2.8355  -67.2050 H   0  0  0  0  0
  -22.9064   -4.2635  -68.0590 H   0  0  0  0  0
  -22.4155   -3.5486  -66.4746 H   0  0  0  0  0
  -21.4464   -1.9125  -68.5782 H   0  0  0  0  0
  -18.2932   -3.4167  -68.7667 H   0  0  0  0  0
  -19.2656   -2.0005  -69.1788 H   0  0  0  0  0
  -20.9370   -5.1050  -67.1598 H   0  0  0  0  0
  -25.6998    2.2168  -67.3453 H   0  0  0  0  0
  -23.2401    3.5047  -68.4009 H   0  0  0  0  0
  -25.9380    3.4563  -69.7785 H   0  0  0  0  0
  -24.3536    2.7873  -70.3876 H   0  0  0  0  0
  -26.3532    6.0496  -70.0678 H   0  0  0  0  0
  -22.0596    3.5034  -71.2395 H   0  0  0  0  0
  -22.7374    8.2095  -72.8251 H   0  0  0  0  0
  -20.3397    4.6523  -72.6016 H   0  0  0  0  0
  -20.6788    6.9711  -73.3815 H   0  0  0  0  0
  -22.5014    5.1583  -69.0021 H   0  0  0  0  0
  -21.9662    7.4530  -69.2975 H   0  0  0  0  0
  -21.3978    7.5354  -67.6523 H   0  0  0  0  0
  -24.1047    8.2496  -68.7413 H   0  0  0  0  0
  -23.2699    8.9287  -67.3778 H   0  0  0  0  0
  -23.9705    7.1831  -65.9113 H   0  0  0  0  0
  -25.3210    7.2652  -66.9299 H   0  0  0  0  0
  -23.0667    4.1330  -66.1792 H   0  0  0  0  0
  -20.8670    4.6297  -64.5094 H   0  0  0  0  0
  -21.6771    2.9383  -63.1964 H   0  0  0  0  0
  -22.0663    1.8847  -64.6387 H   0  0  0  0  0
  -24.0314    2.6743  -63.3473 H   0  0  0  0  0
  -24.0045    3.1682  -65.0942 H   0  0  0  0  0
  -25.0421    6.3040  -63.8305 H   0  0  0  0  0
  -25.5668    4.8005  -64.5957 H   0  0  0  0  0
  -21.1707    2.8074  -67.3267 H   0  0  0  0  0
  -19.5471    2.6692  -69.4692 H   0  0  0  0  0
  -20.8129    1.3324  -69.0610 H   0  0  0  0  0
  -17.7667    1.7023  -71.2766 H   0  0  0  0  0
  -17.1638    1.3112  -69.5368 H   0  0  0  0  0
  -17.3020   -1.0745  -71.2625 H   0  0  0  0  0
  -19.6662    0.7960  -70.9394 H   0  0  0  0  0
  -19.0302   -0.2021  -69.4659 H   0  0  0  0  0
  -18.6175   -0.2597  -67.5942 H   0  0  0  0  0
  -19.0349    0.4144  -65.9997 H   0  0  0  0  0
  -20.3250   -0.0965  -67.1158 H   0  0  0  0  0
  -18.9264    4.0518  -67.8795 H   0  0  0  0  0
  -16.2906    3.9408  -68.8274 H   0  0  0  0  0
  -17.7011    6.2156  -67.3823 H   0  0  0  0  0
  -18.8580    5.3974  -69.3662 H   0  0  0  0  0
  -17.3241    5.6465  -70.3286 H   0  0  0  0  0
  -15.2727    6.5408  -67.3947 H   0  0  0  0  0
  -15.2323    6.2432  -69.1499 H   0  0  0  0  0
  -16.0706    7.6777  -68.5092 H   0  0  0  0  0
  -18.9692    7.7777  -68.9721 H   0  0  0  0  0
  -17.4749    8.0204  -69.9097 H   0  0  0  0  0
  -18.9447    7.4208  -70.7165 H   0  0  0  0  0
  -17.5406    4.3722  -65.5314 H   0  0  0  0  0
  -14.9085    4.8717  -64.4007 H   0  0  0  0  0
  -16.0089    4.7337  -62.2697 H   0  0  0  0  0
  -17.5145    4.0562  -63.1120 H   0  0  0  0  0
  -17.7067    6.2135  -64.2495 H   0  0  0  0  0
  -19.0871    5.7084  -62.3142 H   0  0  0  0  0
  -17.8163    6.3148  -61.2240 H   0  0  0  0  0
  -18.6461    7.4336  -62.3334 H   0  0  0  0  0
  -15.5792    7.0846  -62.2689 H   0  0  0  0  0
  -15.4042    6.9932  -64.0387 H   0  0  0  0  0
  -16.5286    8.1691  -63.3147 H   0  0  0  0  0
  -17.0566    2.0858  -64.7478 H   0  0  0  0  0
  -15.6096    0.3394  -63.0152 H   0  0  0  0  0
  -16.7903   -1.4690  -64.2607 H   0  0  0  0  0
  -17.4194   -0.1929  -65.3825 H   0  0  0  0  0
  -17.6457    1.5509  -63.2849 H   0  0  0  0  0
  -15.4057    0.5861  -66.7020 H   0  0  0  0  0
  -13.2261   -0.7430  -69.1431 H   0  0  0  0  0
  -14.8789    2.0545  -70.7650 H   0  0  0  0  0
  -13.5390    0.7836  -70.7805 H   0  0  0  0  0
  -14.9832   -0.5639  -71.8425 H   0  0  0  0  0
  -15.0937    1.7532  -68.3639 H   0  0  0  0  0
  -12.2975   -1.9957  -67.2580 H   0  0  0  0  0
  -13.0119   -1.8217  -65.6361 H   0  0  0  0  0
  -14.0367   -2.2906  -67.0149 H   0  0  0  0  0
  -13.2990    2.1039  -65.9386 H   0  0  0  0  0
  -10.4371    2.3924  -66.3351 H   0  0  0  0  0
  -12.5220    3.9056  -64.7463 H   0  0  0  0  0
  -11.8300    4.3200  -66.3847 H   0  0  0  0  0
  -11.4373    5.4835  -62.8602 H   0  0  0  0  0
   -7.6312    6.0766  -64.6850 H   0  0  0  0  0
  -12.5314    1.8131  -63.4961 H   0  0  0  0  0
  -10.5533    1.7260  -61.5337 H   0  0  0  0  0
  -13.0536    0.0189  -61.7970 H   0  0  0  0  0
  -11.4565   -1.0853  -60.3126 H   0  0  0  0  0
  -11.2476    0.4259  -59.3940 H   0  0  0  0  0
  -12.8198   -0.4104  -59.3869 H   0  0  0  0  0
  -12.4467    2.5342  -60.2122 H   0  0  0  0  0
  -13.4539    2.4278  -61.6768 H   0  0  0  0  0
  -13.9765    1.6234  -60.1765 H   0  0  0  0  0
  -11.7197   -0.9272  -63.6492 H   0  0  0  0  0
  -10.0378   -2.9665  -62.6550 H   0  0  0  0  0
  -10.3494   -4.0664  -64.7813 H   0  0  0  0  0
  -10.9491   -2.4908  -65.4989 H   0  0  0  0  0
  -12.8416   -3.7951  -65.1281 H   0  0  0  0  0
  -12.7594   -2.6237  -63.7487 H   0  0  0  0  0
  -11.8547   -4.3469  -62.3259 H   0  0  0  0  0
  -11.8756   -5.5127  -63.6955 H   0  0  0  0  0
  -14.1519   -4.6009  -62.0774 H   0  0  0  0  0
  -13.0427   -6.1647  -65.0395 H   0  0  0  0  0
  -16.3143   -6.7101  -63.8444 H   0  0  0  0  0
  -16.1198   -5.6644  -62.4338 H   0  0  0  0  0
   -9.4451   -0.5004  -65.1587 H   0  0  0  0  0
   -6.9132   -1.4564  -65.9906 H   0  0  0  0  0
   -6.5415    1.0340  -66.5693 H   0  0  0  0  0
   -8.2723    1.2239  -65.9877 H   0  0  0  0  0
   -8.6775   -0.6942  -67.7007 H   0  0  0  0  0
   -7.1667   -0.0491  -68.4418 H   0  0  0  0  0
   -9.7924    1.3554  -67.9567 H   0  0  0  0  0
   -8.9126    1.0790  -69.5216 H   0  0  0  0  0
   -7.2098    2.6267  -68.0109 H   0  0  0  0  0
  -10.5537    2.9099  -69.1069 H   0  0  0  0  0
   -8.5778    5.7916  -68.6373 H   0  0  0  0  0
   -7.1452    4.8929  -68.1262 H   0  0  0  0  0
   -7.8186    0.4307  -63.1704 H   0  0  0  0  0
   -4.9333    0.8954  -62.6650 H   0  0  0  0  0
   -7.3665    2.3232  -61.4880 H   0  0  0  0  0
   -5.5338    2.2223  -59.8782 H   0  0  0  0  0
   -4.4090    2.8635  -61.1008 H   0  0  0  0  0
   -5.7432    3.8779  -60.4994 H   0  0  0  0  0
   -5.2736    3.2463  -63.4799 H   0  0  0  0  0
   -6.9747    2.8615  -63.8397 H   0  0  0  0  0
   -6.5771    4.2486  -62.7962 H   0  0  0  0  0
   -7.8243    0.5992  -60.5501 H   0  0  0  0  0
   -6.2046   -0.5426  -58.4356 H   0  0  0  0  0
   -8.2405   -0.7256  -57.1918 H   0  0  0  0  0
   -9.2188   -0.5036  -58.7132 H   0  0  0  0  0
  -10.3268    1.8021  -58.6078 H   0  0  0  0  0
   -5.5819    0.7323  -56.9997 H   0  0  0  0  0
   -7.2915    5.4409  -56.9114 H   0  0  0  0  0
   -4.1630    2.5879  -56.1875 H   0  0  0  0  0
   -5.0068    4.9067  -56.1501 H   0  0  0  0  0
   -7.7867   -1.8426  -60.9756 H   0  0  0  0  0
  2  1  1  0  0  0
  3  2  1  0  0  0
  2  5  1  0  0  0
  3  4  2  0  0  0
 12  3  1  0  0  0
  5  6  1  0  0  0
  6  7  1  0  0  0
  7  8  1  0  0  0
  8  9  1  0  0  0
  9 10  1  0  0  0
  9 11  2  0  0  0
 13 12  1  0  0  0
 14 13  1  0  0  0
 13 16  1  0  0  0
 14 15  2  0  0  0
 26 14  1  0  0  0
 16 17  1  0  0  0
 17 18  4  0  0  0
 17 19  4  0  0  0
 18 20  4  0  0  0
 19 21  4  0  0  0
 19 22  4  0  0  0
 21 20  4  0  0  0
 21 23  4  0  0  0
 22 24  4  0  0  0
 23 25  4  0  0  0
 24 25  4  0  0  0
 27 26  1  0  0  0
 26 32  1  0  0  0
 28 27  1  0  0  0
 27 30  1  0  0  0
 28 29  2  0  0  0
 33 28  1  0  0  0
 30 31  1  0  0  0
 31 32  1  0  0  0
 34 33  1  0  0  0
 35 34  1  0  0  0
 34 37  1  0  0  0
 35 36  2  0  0  0
 43 35  1  0  0  0
 37 38  1  0  0  0
 38 39  1  0  0  0
 39 40  2  0  0  0
 39 41  1  0  0  0
 42 44  2  0  0  0
 42 45  1  0  0  0
 51 42  1  0  0  0
 45 43  1  0  0  0
 45 46  1  0  0  0
 45 50  1  0  0  0
 46 49  1  0  0  0
 47 48  1  0  0  0
 49 47  1  0  0  0
 48 81  2  0  0  0
 52 51  1  0  0  0
 53 52  1  0  0  0
 52 55  1  0  0  0
 53 54  2  0  0  0
 59 53  1  0  0  0
 55 56  1  0  0  0
 55 57  1  0  0  0
 56 58  1  0  0  0
 60 59  1  0  0  0
 61 60  1  0  0  0
 60 63  1  0  0  0
 61 62  2  0  0  0
 67 61  1  0  0  0
 63 64  1  0  0  0
 64 65  1  0  0  0
 64 66  1  0  0  0
 68 67  1  0  0  0
 69 68  1  0  0  0
 68 71  1  0  0  0
 69 70  2  0  0  0
 76 69  1  0  0  0
 71 72  1  0  0  0
 72 73  1  0  0  0
 72 74  2  0  0  0
 75 77  2  0  0  0
 78 75  1  0  0  0
 75 84  1  0  0  0
 76 78  1  0  0  0
 78 79  1  0  0  0
 78 83  1  0  0  0
 79 82  2  0  0  0
 81 80  1  0  0  0
 80 82  1  0  0  0
 84 85  1  0  0  0
 85 86  1  0  0  0
 85 88  1  0  0  0
 86 87  2  0  0  0
 86 94  1  0  0  0
 88 89  1  0  0  0
 89 90  4  0  0  0
 89 91  4  0  0  0
 90 92  4  0  0  0
 91 93  4  0  0  0
 92 93  4  0  0  0
 94 95  1  0  0  0
 95 96  1  0  0  0
 95 98  1  0  0  0
 96 97  2  0  0  0
 96101  1  0  0  0
 98 99  1  0  0  0
 98100  1  0  0  0
101102  1  0  0  0
102103  1  0  0  0
102105  1  0  0  0
103104  2  0  0  0
103112  1  0  0  0
105106  1  0  0  0
106107  1  0  0  0
107108  1  0  0  0
108109  1  0  0  0
109110  2  0  0  0
109111  1  0  0  0
112113  1  0  0  0
113114  1  0  0  0
113116  1  0  0  0
114115  2  0  0  0
114123  1  0  0  0
116117  1  0  0  0
117118  1  0  0  0
118119  1  0  0  0
119120  1  0  0  0
120121  2  0  0  0
120122  1  0  0  0
123124  1  0  0  0
124125  1  0  0  0
124127  1  0  0  0
125126  2  0  0  0
125130  1  0  0  0
127128  1  0  0  0
127129  1  0  0  0
130131  1  0  0  0
131132  1  0  0  0
131134  1  0  0  0
132133  2  0  0  0
134135  1  0  0  0
135136  4  0  0  0
135137  4  0  0  0
136138  4  0  0  0
137139  4  0  0  0
137140  4  0  0  0
138139  4  0  0  0
139141  4  0  0  0
140142  4  0  0  0
141143  4  0  0  0
142143  4  0  0  0
132144  1  0  0  0
  1145  1  0  0  0
  1146  1  0  0  0
  1147  1  0  0  0
  2148  1  0  0  0
  5149  1  0  0  0
  5150  1  0  0  0
  6151  1  0  0  0
  6152  1  0  0  0
  7153  1  0  0  0
  7154  1  0  0  0
  8155  1  0  0  0
 10156  1  0  0  0
 10157  1  0  0  0
 11158  1  0  0  0
 12159  1  0  0  0
 13160  1  0  0  0
 16161  1  0  0  0
 16162  1  0  0  0
 18163  1  0  0  0
 22164  1  0  0  0
 23165  1  0  0  0
 24166  1  0  0  0
 25167  1  0  0  0
 27168  1  0  0  0
 30169  1  0  0  0
 30170  1  0  0  0
 31171  1  0  0  0
 31172  1  0  0  0
 32173  1  0  0  0
 32174  1  0  0  0
 33175  1  0  0  0
 34176  1  0  0  0
 37177  1  0  0  0
 37178  1  0  0  0
 38179  1  0  0  0
 38180  1  0  0  0
 41181  1  0  0  0
 41182  1  0  0  0
 43183  1  0  0  0
 46184  1  0  0  0
 46185  1  0  0  0
 47186  1  0  0  0
 47187  1  0  0  0
 48188  1  0  0  0
 49189  1  0  0  0
 49190  1  0  0  0
 50191  1  0  0  0
 50192  1  0  0  0
 50193  1  0  0  0
 51194  1  0  0  0
 52195  1  0  0  0
 55196  1  0  0  0
 56197  1  0  0  0
 56198  1  0  0  0
 57199  1  0  0  0
 57200  1  0  0  0
 57201  1  0  0  0
 58202  1  0  0  0
 58203  1  0  0  0
 58204  1  0  0  0
 59205  1  0  0  0
 60206  1  0  0  0
 63207  1  0  0  0
 63208  1  0  0  0
 64209  1  0  0  0
 65210  1  0  0  0
 65211  1  0  0  0
 65212  1  0  0  0
 66213  1  0  0  0
 66214  1  0  0  0
 66215  1  0  0  0
 67216  1  0  0  0
 68217  1  0  0  0
 71218  1  0  0  0
 71219  1  0  0  0
 73220  1  0  0  0
 76221  1  0  0  0
 79222  1  0  0  0
 80223  1  0  0  0
 80224  1  0  0  0
 81225  1  0  0  0
 82226  1  0  0  0
 83227  1  0  0  0
 83228  1  0  0  0
 83229  1  0  0  0
 84230  1  0  0  0
 85231  1  0  0  0
 88232  1  0  0  0
 88233  1  0  0  0
 91234  1  0  0  0
 92235  1  0  0  0
 94236  1  0  0  0
 95237  1  0  0  0
 98238  1  0  0  0
 99239  1  0  0  0
 99240  1  0  0  0
 99241  1  0  0  0
100242  1  0  0  0
100243  1  0  0  0
100244  1  0  0  0
101245  1  0  0  0
102246  1  0  0  0
105247  1  0  0  0
105248  1  0  0  0
106249  1  0  0  0
106250  1  0  0  0
107251  1  0  0  0
107252  1  0  0  0
108253  1  0  0  0
110254  1  0  0  0
111255  1  0  0  0
111256  1  0  0  0
112257  1  0  0  0
113258  1  0  0  0
116259  1  0  0  0
116260  1  0  0  0
117261  1  0  0  0
117262  1  0  0  0
118263  1  0  0  0
118264  1  0  0  0
119265  1  0  0  0
121266  1  0  0  0
122267  1  0  0  0
122268  1  0  0  0
123269  1  0  0  0
124270  1  0  0  0
127271  1  0  0  0
128272  1  0  0  0
128273  1  0  0  0
128274  1  0  0  0
129275  1  0  0  0
129276  1  0  0  0
129277  1  0  0  0
130278  1  0  0  0
131279  1  0  0  0
134280  1  0  0  0
134281  1  0  0  0
136282  1  0  0  0
140283  1  0  0  0
141284  1  0  0  0
142285  1  0  0  0
143286  1  0  0  0
144287  1  0  0  0
M  END
$$$$
