### 
### Created by X-TOOL on Mon Sep 10 21:13:12 2018
### 

@<TRIPOS>MOLECULE
4djs_ligand
  291   297     1     0     0
SMALL
GAST_HUCK


@<TRIPOS>ATOM
      1 N         -25.6920   -0.5290  -67.7040 N.4       1 ARG         0.2379
      2 CA        -24.5440   -0.0180  -66.9660 C.3       1 ARG         0.0651
      3 C         -23.9590    1.2140  -67.6480 C.2       1 ARG         0.2268
      4 O         -22.8070    1.2070  -68.0820 O.2       1 ARG        -0.3907
      5 CB        -23.4750   -1.1030  -66.8250 C.3       1 ARG         0.0110
      6 CG        -23.7690   -2.3670  -67.6180 C.3       1 ARG        -0.0125
      7 CD        -22.6190   -3.3560  -67.5280 C.3       1 ARG         0.0629
      8 NE        -21.4020   -2.8330  -68.1410 N.pl3     1 ARG        -0.2723
      9 CZ        -20.2400   -3.4770  -68.1670 C.cat     1 ARG         0.2882
     10 NH1       -19.1850   -2.9220  -68.7490 N.pl3     1 ARG        -0.2849
     11 NH2       -20.1290   -4.6750  -67.6100 N.pl3     1 ARG        -0.2849
     12 N         -24.7600    2.2710  -67.7380 N.am      1 TRP        -0.2599
     13 CA        -24.3300    3.5070  -68.3840 C.3       1 TRP         0.1355
     14 C         -24.7860    4.7380  -67.6050 C.2       1 TRP         0.2077
     15 O         -25.9080    4.7800  -67.1000 O.2       1 TRP        -0.3940
     16 CB        -24.8550    3.5720  -69.8210 C.3       1 TRP         0.0042
     17 CG        -24.5690    4.8740  -70.5070 C.2       1 TRP        -0.0418
     18 CD1       -25.3750    5.9760  -70.5430 C.2       1 TRP         0.0167
     19 CD2       -23.3930    5.2130  -71.2540 C.ar      1 TRP        -0.0214
     20 NE1       -24.7740    6.9780  -71.2650 N.pl3     1 TRP        -0.2890
     21 CE2       -23.5570    6.5360  -71.7130 C.ar      1 TRP         0.0603
     22 CE3       -22.2180    4.5270  -71.5790 C.ar      1 TRP        -0.0747
     23 CZ2       -22.5910    7.1860  -72.4800 C.ar      1 TRP        -0.0443
     24 CZ3       -21.2600    5.1750  -72.3410 C.ar      1 TRP        -0.0792
     25 CH2       -21.4530    6.4910  -72.7830 C.ar      1 TRP        -0.0768
     26 N         -23.9120    5.7520  -67.5120 N.am      1 PRO        -0.2497
     27 CA        -22.5620    5.7410  -68.0830 C.3       1 PRO         0.1338
     28 C         -21.5640    5.1280  -67.1100 C.2       1 PRO         0.2041
     29 O         -20.3620    5.3590  -67.2250 O.2       1 PRO        -0.3944
     30 CB        -22.2460    7.2340  -68.2670 C.3       1 PRO        -0.0104
     31 CG        -23.5070    7.9850  -67.8690 C.3       1 PRO        -0.0281
     32 CD        -24.2490    7.0700  -66.9590 C.3       1 PRO         0.0369
     33 N         -22.0700    4.3490  -66.1610 N.am      1 GLN        -0.2636
     34 CA        -21.2480    3.7930  -65.0950 C.3       1 GLN         0.1327
     35 C         -20.0380    3.0330  -65.6280 C.2       1 GLN         0.2011
     36 O         -19.0680    2.8180  -64.8960 O.2       1 GLN        -0.3947
     37 CB        -22.0940    2.8830  -64.2020 C.3       1 GLN         0.0045
     38 CG        -23.5580    3.2950  -64.1080 C.3       1 GLN         0.0412
     39 CD        -23.7350    4.7440  -63.7010 C.2       1 GLN         0.1737
     40 OE1       -22.8600    5.3340  -63.0670 O.2       1 GLN        -0.3973
     41 NE2       -24.8690    5.3280  -64.0710 N.am      1 GLN        -0.3009
     42 C         -18.0070    2.3070  -67.5250 C.2       1 MK8         0.2263
     43 N         -20.2840    2.5590  -66.8880 N.am      1 MK8        -0.2742
     44 O         -17.0420    1.4760  -67.0160 O.2       1 MK8        -0.3419
     45 CA        -19.3680    1.7290  -67.6370 C.3       1 MK8         0.1304
     46 CB        -19.7790    1.6770  -69.0820 C.3       1 MK8        -0.0184
     47 CD        -17.6770    1.0010  -70.4470 C.3       1 MK8        -0.0313
     48 CE        -16.8500   -0.1220  -70.9860 C.2       1 MK8        -0.0853
     49 CG        -19.0870    0.7360  -70.0180 C.3       1 MK8        -0.0434
     50 CB1       -19.3340    0.3520  -67.0460 C.3       1 MK8        -0.0320
     51 N         -18.0260    3.5810  -67.7900 N.am      1 ILE        -0.2626
     52 CA        -16.8080    4.3570  -67.9630 C.3       1 ILE         0.1336
     53 C         -15.9100    4.2550  -66.7360 C.2       1 ILE         0.2043
     54 O         -14.6880    4.1590  -66.8530 O.2       1 ILE        -0.3944
     55 CB        -17.1200    5.8300  -68.2200 C.3       1 ILE        -0.0035
     56 CG1       -17.9470    5.9810  -69.4990 C.3       1 ILE        -0.0491
     57 CG2       -15.8320    6.6300  -68.3260 C.3       1 ILE        -0.0582
     58 CD1       -18.3630    7.3990  -69.7950 C.3       1 ILE        -0.0648
     59 N         -16.5240    4.2940  -65.5590 N.am      1 LEU        -0.2637
     60 CA        -15.7830    4.2280  -64.3060 C.3       1 LEU         0.1312
     61 C         -15.3060    2.8090  -64.0220 C.2       1 LEU         0.2040
     62 O         -14.1930    2.5990  -63.5370 O.2       1 LEU        -0.3944
     63 CB        -16.6530    4.7230  -63.1490 C.3       1 LEU        -0.0101
     64 CG        -17.2180    6.1390  -63.2780 C.3       1 LEU        -0.0425
     65 CD1       -18.2670    6.4190  -62.2110 C.3       1 LEU        -0.0625
     66 CD2       -16.1030    7.1700  -63.2210 C.3       1 LEU        -0.0625
     67 N         -16.1620    1.8400  -64.3240 N.am      1 ASP        -0.2622
     68 CA        -15.8650    0.4410  -64.0700 C.3       1 ASP         0.1409
     69 C         -14.6810   -0.0240  -64.8930 C.2       1 ASP         0.1907
     70 O         -13.7120   -0.5310  -64.3350 O.2       1 ASP        -0.3957
     71 CB        -17.0830   -0.4250  -64.3720 C.3       1 ASP         0.0406
     72 CG        -18.2280   -0.1580  -63.4260 C.2       1 ASP         0.0393
     73 OD1       -18.3460    0.9890  -62.9450 O.co2     1 ASP        -0.5688
     74 OD2       -19.0040   -1.0990  -63.1580 O.co2     1 ASP        -0.5688
     75 C         -12.2930    0.5370  -66.5500 C.2       1 MK8         0.1615
     76 N         -14.6180    0.1530  -66.2200 N.am      1 MK8        -0.3262
     77 O         -11.0690    0.1720  -67.0370 O.2       1 MK8        -0.3784
     78 CA        -13.4660   -0.2530  -66.9820 C.3       1 MK8         0.0869
     79 CB        -13.6970   -0.0540  -68.4420 C.2       1 MK8        -0.0558
     80 CD        -14.5460    1.0600  -70.4680 C.3       1 MK8         0.0402
     81 CE        -15.4680    0.0960  -71.1230 C.2       1 MK8        -0.0623
     82 CG        -14.5430    1.0450  -68.9830 C.2       1 MK8        -0.0074
     83 CB1       -13.1840   -1.6870  -66.7040 C.3       1 MK8        -0.0741
     84 N         -12.3740    1.6860  -66.0390 N.am      1 HIS        -0.2748
     85 CA        -11.2270    2.4470  -65.5860 C.3       1 HIS         0.1358
     86 C         -10.6620    1.8660  -64.2900 C.2       1 HIS         0.2055
     87 O          -9.4500    1.6820  -64.1530 O.2       1 HIS        -0.3942
     88 CB        -11.6460    3.9020  -65.3950 C.3       1 HIS         0.0146
     89 CG        -10.6040    4.7480  -64.7410 C.2       1 HIS        -0.0027
     90 ND1        -9.3630    4.9640  -65.3010 N.2       1 HIS        -0.3252
     91 CD2       -10.6120    5.4270  -63.5700 C.2       1 HIS         0.0291
     92 CE1        -8.6510    5.7380  -64.5020 C.2       1 HIS         0.0907
     93 NE2        -9.3840    6.0320  -63.4440 N.pl3     1 HIS        -0.2752
     94 N         -11.5480    1.5940  -63.3370 N.am      1 VAL        -0.2633
     95 CA        -11.1520    0.9920  -62.0730 C.3       1 VAL         0.1333
     96 C         -10.3270   -0.2640  -62.3260 C.2       1 VAL         0.2041
     97 O          -9.2600   -0.4420  -61.7420 O.2       1 VAL        -0.3944
     98 CB        -12.3750    0.6340  -61.2060 C.3       1 VAL        -0.0063
     99 CG1       -11.9440   -0.1660  -59.9880 C.3       1 VAL        -0.0584
    100 CG2       -13.1160    1.8950  -60.7880 C.3       1 VAL        -0.0584
    101 N         -10.8230   -1.1270  -63.2060 N.am      1 ARG        -0.2637
    102 CA        -10.1150   -2.3520  -63.5520 C.3       1 ARG         0.1311
    103 C          -8.7090   -2.0350  -64.0510 C.2       1 ARG         0.2039
    104 O          -7.7450   -2.6990  -63.6770 O.2       1 ARG        -0.3944
    105 CB        -10.8850   -3.1310  -64.6190 C.3       1 ARG        -0.0092
    106 CG        -12.3090   -3.4940  -64.2260 C.3       1 ARG        -0.0156
    107 CD        -12.3610   -4.6480  -63.2430 C.3       1 ARG         0.0627
    108 NE        -13.7400   -5.0040  -62.9190 N.pl3     1 ARG        -0.2723
    109 CZ        -14.4920   -5.8190  -63.6500 C.cat     1 ARG         0.2882
    110 NH1       -14.0000   -6.3680  -64.7520 N.pl3     1 ARG        -0.2849
    111 NH2       -15.7380   -6.0850  -63.2810 N.pl3     1 ARG        -0.2849
    112 N          -8.6030   -1.0120  -64.8950 N.am      1 ARG        -0.2637
    113 CA         -7.3200   -0.5980  -65.4560 C.3       1 ARG         0.1311
    114 C          -6.3120   -0.2080  -64.3760 C.2       1 ARG         0.2039
    115 O          -5.1100   -0.4230  -64.5300 O.2       1 ARG        -0.3944
    116 CB         -7.5180    0.5710  -66.4270 C.3       1 ARG        -0.0092
    117 CG         -8.0260    0.1730  -67.8090 C.3       1 ARG        -0.0156
    118 CD         -8.8260    1.3010  -68.4580 C.3       1 ARG         0.0627
    119 NE         -8.1800    2.6040  -68.3250 N.pl3     1 ARG        -0.2723
    120 CZ         -8.7780    3.7640  -68.5880 C.cat     1 ARG         0.2882
    121 NH1       -10.0400    3.7840  -68.9950 N.pl3     1 ARG        -0.2849
    122 NH2        -8.1160    4.9040  -68.4390 N.pl3     1 ARG        -0.2849
    123 N          -6.8070    0.3640  -63.2830 N.am      1 VAL        -0.2635
    124 CA         -5.9370    0.8990  -62.2400 C.3       1 VAL         0.1332
    125 C          -5.9190    0.0390  -60.9780 C.2       1 VAL         0.2037
    126 O          -4.9190   -0.6090  -60.6740 O.2       1 VAL        -0.3944
    127 CB         -6.3420    2.3340  -61.8600 C.3       1 VAL        -0.0063
    128 CG1        -5.4430    2.8620  -60.7560 C.3       1 VAL        -0.0584
    129 CG2        -6.2880    3.2370  -63.0810 C.3       1 VAL        -0.0584
    130 N          -7.0240    0.0470  -60.2420 N.am      1 TRP        -0.2684
    131 CA         -7.1190   -0.7160  -59.0030 C.3       1 TRP         0.0986
    132 C          -7.2280   -2.2110  -59.2830 C.2       1 TRP         0.0613
    133 O          -6.9424   -3.0596  -58.3965 O.co2     1 TRP        -0.5665
    134 CB         -8.3120   -0.2440  -58.1670 C.3       1 TRP        -0.0013
    135 CG         -8.3310    1.2350  -57.9390 C.2       1 TRP        -0.0424
    136 CD1        -9.3600    2.0930  -58.1970 C.2       1 TRP         0.0166
    137 CD2        -7.2610    2.0350  -57.4230 C.ar      1 TRP        -0.0214
    138 NE1        -9.0010    3.3770  -57.8640 N.pl3     1 TRP        -0.2891
    139 CE2        -7.7170    3.3680  -57.3880 C.ar      1 TRP         0.0603
    140 CE3        -5.9640    1.7530  -56.9850 C.ar      1 TRP        -0.0747
    141 CZ2        -6.9210    4.4160  -56.9320 C.ar      1 TRP        -0.0443
    142 CZ3        -5.1760    2.7940  -56.5330 C.ar      1 TRP        -0.0792
    143 CH2        -5.6560    4.1090  -56.5110 C.ar      1 TRP        -0.0768
    144 O          -7.6094   -2.6036  -60.4179 O.co2     1 TRP        -0.5665
    145 H1        -26.0593   -1.3413  -67.2336 H         1 ARG         0.2015
    146 H2        -25.4063   -0.7816  -68.6370 H         1 ARG         0.2015
    147 H3        -26.4045    0.1824  -67.7518 H         1 ARG         0.2015
    148 H4        -24.8813    0.2712  -65.9597 H         1 ARG         0.1098
    149 H5        -23.3939   -1.3727  -65.7617 H         1 ARG         0.0347
    150 H6        -22.5162   -0.6914  -67.1731 H         1 ARG         0.0347
    151 H7        -23.9292   -2.0990  -68.6728 H         1 ARG         0.0302
    152 H8        -24.6786   -2.8380  -67.2171 H         1 ARG         0.0302
    153 H9        -22.9067   -4.2838  -68.0441 H         1 ARG         0.0689
    154 H10       -22.4185   -3.5728  -66.4684 H         1 ARG         0.0689
    155 H11       -21.4469   -1.9035  -68.5825 H         1 ARG         0.2642
    156 H12       -18.2849   -3.4224  -68.7684 H         1 ARG         0.2615
    157 H13       -19.2659   -1.9907  -69.1815 H         1 ARG         0.2615
    158 H14       -20.9454   -5.1099  -67.1569 H         1 ARG         0.2615
    159 H15       -19.2264   -5.1708  -67.6303 H         1 ARG         0.2615
    160 H16       -25.6814    2.2179  -67.3530 H         1 TRP         0.1886
    161 H17       -23.2305    3.5100  -68.4162 H         1 TRP         0.0815
    162 H18       -25.9445    3.4221  -69.8002 H         1 TRP         0.0397
    163 H19       -24.3846    2.7635  -70.3998 H         1 TRP         0.0397
    164 H20       -26.3523    6.0495  -70.0682 H         1 TRP         0.0795
    165 H21       -25.1736    7.9108  -71.4412 H         1 TRP         0.2216
    166 H22       -22.0605    3.5090  -71.2414 H         1 TRP         0.0540
    167 H23       -22.7366    8.2039  -72.8232 H         1 TRP         0.0541
    168 H24       -20.3447    4.6552  -72.6001 H         1 TRP         0.0510
    169 H25       -20.6831    6.9684  -73.3782 H         1 TRP         0.0530
    170 H26       -22.5372    5.2002  -69.0405 H         1 PRO         0.0802
    171 H27       -21.9921    7.4438  -69.3165 H         1 PRO         0.0313
    172 H28       -21.4062    7.5288  -67.6206 H         1 PRO         0.0313
    173 H29       -24.1125    8.2164  -68.7577 H         1 PRO         0.0287
    174 H30       -23.2492    8.9187  -67.3477 H         1 PRO         0.0287
    175 H31       -23.8999    7.1691  -65.9206 H         1 PRO         0.0524
    176 H32       -25.3323    7.2562  -67.0010 H         1 PRO         0.0524
    177 H33       -23.0472    4.1373  -66.1789 H         1 GLN         0.1883
    178 H34       -20.8776    4.6291  -64.4837 H         1 GLN         0.0801
    179 H35       -21.6651    2.8964  -63.1891 H         1 GLN         0.0337
    180 H36       -22.0475    1.8611  -64.6064 H         1 GLN         0.0337
    181 H37       -24.0555    2.6573  -63.3625 H         1 GLN         0.0504
    182 H38       -24.0289    3.1460  -65.0908 H         1 GLN         0.0504
    183 H39       -25.0411    6.2833  -63.8305 H         1 GLN         0.1814
    184 H40       -25.5507    4.8124  -64.5901 H         1 GLN         0.1814
    185 H41       -21.1533    2.8025  -67.3181 H         1 MK8         0.1839
    186 H42       -19.6417    2.6896  -69.4890 H         1 MK8         0.0279
    187 H43       -20.8475    1.4162  -69.1002 H         1 MK8         0.0279
    188 H44       -17.7201    1.7718  -71.2305 H         1 MK8         0.0411
    189 H45       -17.1448    1.3986  -69.5703 H         1 MK8         0.0411
    190 H46       -17.3016   -1.0737  -71.2623 H         1 MK8         0.0539
    191 H47       -19.6945    0.6970  -70.9342 H         1 MK8         0.0287
    192 H48       -19.0901   -0.2516  -69.5336 H         1 MK8         0.0287
    193 H49       -18.6358   -0.2758  -67.6191 H         1 MK8         0.0242
    194 H50       -20.3409   -0.0891  -67.0858 H         1 MK8         0.0242
    195 H51       -19.0002    0.4102  -65.9995 H         1 MK8         0.0242
    196 H52       -18.9088    4.0425  -67.8777 H         1 ILE         0.1889
    197 H53       -16.2655    3.9551  -68.8314 H         1 ILE         0.0805
    198 H54       -17.7064    6.2183  -67.3742 H         1 ILE         0.0345
    199 H55       -18.8547    5.3679  -69.3986 H         1 ILE         0.0267
    200 H56       -17.3473    5.6127  -70.3444 H         1 ILE         0.0267
    201 H57       -15.2495    6.5114  -67.4004 H         1 ILE         0.0235
    202 H58       -16.0719    7.6932  -68.4746 H         1 ILE         0.0235
    203 H59       -15.2424    6.2643  -69.1796 H         1 ILE         0.0235
    204 H60       -18.9502    7.4223  -70.7249 H         1 ILE         0.0230
    205 H61       -17.4675    8.0272  -69.9110 H         1 ILE         0.0230
    206 H62       -18.9749    7.7824  -68.9652 H         1 ILE         0.0230
    207 H63       -17.5207    4.3706  -65.5319 H         1 LEU         0.1883
    208 H64       -14.9023    4.8818  -64.3889 H         1 LEU         0.0800
    209 H65       -16.0437    4.6883  -62.2338 H         1 LEU         0.0315
    210 H66       -17.5029    4.0317  -63.0502 H         1 LEU         0.0315
    211 H67       -17.7060    6.2197  -64.2605 H         1 LEU         0.0298
    212 H68       -18.6504    7.4427  -62.3335 H         1 LEU         0.0232
    213 H69       -17.8134    6.3142  -61.2144 H         1 LEU         0.0232
    214 H70       -19.0953    5.7025  -62.3141 H         1 LEU         0.0232
    215 H71       -15.3582    6.9480  -63.9994 H         1 LEU         0.0232
    216 H72       -15.6217    7.1353  -62.2325 H         1 LEU         0.0232
    217 H73       -16.5220    8.1730  -63.3899 H         1 LEU         0.0232
    218 H74       -17.0391    2.0810  -64.7395 H         1 ASP         0.1884
    219 H75       -15.6125    0.3294  -63.0052 H         1 ASP         0.0818
    220 H76       -16.7940   -1.4829  -64.2870 H         1 ASP         0.0478
    221 H77       -17.4178   -0.2177  -65.3991 H         1 ASP         0.0478
    222 H78       -15.3903    0.5776  -66.6925 H         1 MK8         0.1657
    223 H79       -13.2265   -0.7424  -69.1425 H         1 MK8         0.0503
    224 H80       -14.8280    2.0718  -70.7946 H         1 MK8         0.0831
    225 H81       -13.5248    0.8357  -70.8097 H         1 MK8         0.0831
    226 H82       -14.9836   -0.5633  -71.8418 H         1 MK8         0.0521
    227 H83       -15.0932    1.7525  -68.3645 H         1 MK8         0.1514
    228 H84       -12.3046   -2.0065  -67.2824 H         1 MK8         0.0092
    229 H85       -14.0539   -2.2947  -66.9937 H         1 MK8         0.0092
    230 H86       -12.9849   -1.8201  -65.6304 H         1 MK8         0.0092
    231 H87       -13.2809    2.0958  -65.9405 H         1 HIS         0.1875
    232 H88       -10.4439    2.4015  -66.3572 H         1 HIS         0.0818
    233 H89       -12.5517    3.9231  -64.7711 H         1 HIS         0.0420
    234 H90       -11.8711    4.3307  -66.3827 H         1 HIS         0.0420
    235 H91       -11.4365    5.4834  -62.8608 H         1 HIS         0.0729
    236 H92        -7.6322    6.0763  -64.6849 H         1 HIS         0.1199
    237 H93        -9.0844    6.6193  -62.6527 H         1 HIS         0.2361
    238 H94       -12.5121    1.8088  -63.4930 H         1 VAL         0.1883
    239 H95       -10.5343    1.7170  -61.5227 H         1 VAL         0.0802
    240 H96       -13.0572    0.0133  -61.8053 H         1 VAL         0.0343
    241 H97       -12.8271   -0.4132  -59.3805 H         1 VAL         0.0234
    242 H98       -11.2412    0.4302  -59.3876 H         1 VAL         0.0234
    243 H99       -11.4519   -1.0941  -60.3142 H         1 VAL         0.0234
    244 H100      -13.4177    2.4570  -61.6841 H         1 VAL         0.0234
    245 H101      -12.4560    2.5198  -60.1684 H         1 VAL         0.0234
    246 H102      -14.0102    1.6201  -60.2093 H         1 VAL         0.0234
    247 H103      -11.7021   -0.9311  -63.6405 H         1 ARG         0.1883
    248 H104      -10.0352   -2.9764  -62.6499 H         1 ARG         0.0800
    249 H105      -10.3376   -4.0621  -64.8275 H         1 ARG         0.0313
    250 H106      -10.9255   -2.5173  -65.5310 H         1 ARG         0.0313
    251 H107      -12.8645   -3.7767  -65.1323 H         1 ARG         0.0301
    252 H108      -12.7831   -2.6152  -63.7645 H         1 ARG         0.0301
    253 H109      -11.8393   -4.3565  -62.3195 H         1 ARG         0.0689
    254 H110      -11.8601   -5.5207  -63.6873 H         1 ARG         0.0689
    255 H111      -14.1559   -4.5969  -62.0692 H         1 ARG         0.2642
    256 H112      -14.5845   -6.9998  -65.3178 H         1 ARG         0.2615
    257 H113      -13.0333   -6.1627  -65.0423 H         1 ARG         0.2615
    258 H114      -16.1236   -5.6603  -62.4255 H         1 ARG         0.2615
    259 H115      -16.3200   -6.7163  -63.8500 H         1 ARG         0.2615
    260 H116       -9.4286   -0.5104  -65.1535 H         1 ARG         0.1883
    261 H117       -6.9055   -1.4489  -66.0165 H         1 ARG         0.0800
    262 H118       -6.5512    1.0808  -66.5512 H         1 ARG         0.0313
    263 H119       -8.2448    1.2666  -65.9821 H         1 ARG         0.0313
    264 H120       -8.6714   -0.7124  -67.7112 H         1 ARG         0.0301
    265 H121       -7.1655   -0.0694  -68.4499 H         1 ARG         0.0301
    266 H122       -9.8157    1.3494  -67.9805 H         1 ARG         0.0689
    267 H123       -8.9457    1.0760  -69.5281 H         1 ARG         0.0689
    268 H124       -7.2003    2.6270  -68.0078 H         1 ARG         0.2642
    269 H125      -10.5014    4.6822  -69.1981 H         1 ARG         0.2615
    270 H126      -10.5587    2.9014  -69.1080 H         1 ARG         0.2615
    271 H127       -7.1357    4.8928  -68.1231 H         1 ARG         0.2615
    272 H128       -8.5823    5.8003  -68.6392 H         1 ARG         0.2615
    273 H129       -7.7987    0.4294  -63.1726 H         1 VAL         0.1883
    274 H130       -4.9147    0.9256  -62.6451 H         1 VAL         0.0802
    275 H131       -7.3765    2.3172  -61.4864 H         1 VAL         0.0343
    276 H132       -5.7450    3.8873  -60.4961 H         1 VAL         0.0234
    277 H133       -4.3991    2.8640  -61.1027 H         1 VAL         0.0234
    278 H134       -5.5337    2.2172  -59.8694 H         1 VAL         0.0234
    279 H135       -6.9462    2.8337  -63.8647 H         1 VAL         0.0234
    280 H136       -5.2555    3.2833  -63.4575 H         1 VAL         0.0234
    281 H137       -6.6233    4.2476  -62.8048 H         1 VAL         0.0234
    282 H138       -7.8086    0.5884  -60.5441 H         1 TRP         0.1876
    283 H139       -6.2008   -0.5416  -58.4230 H         1 TRP         0.0741
    284 H140       -8.2733   -0.7468  -57.1894 H         1 TRP         0.0390
    285 H141       -9.2376   -0.5280  -58.6891 H         1 TRP         0.0390
    286 H142      -10.3259    1.8024  -58.6074 H         1 TRP         0.0795
    287 H143       -9.5997    4.2099  -57.9572 H         1 TRP         0.2216
    288 H144       -5.5840    0.7379  -56.9996 H         1 TRP         0.0540
    289 H145       -7.2895    5.4353  -56.9115 H         1 TRP         0.0541
    290 H146       -4.1685    2.5890  -56.1894 H         1 TRP         0.0510
    291 H147       -5.0104    4.9023  -56.1521 H         1 TRP         0.0530
@<TRIPOS>BOND
     1    2    1 1  
     2    3    2 1  
     3    2    5 1  
     4    3    4 2  
     5   12    3 am 
     6    5    6 1  
     7    6    7 1  
     8    7    8 1  
     9    8    9 ar 
    10    9   10 ar 
    11    9   11 ar 
    12   13   12 1  
    13   14   13 1  
    14   13   16 1  
    15   14   15 2  
    16   26   14 am 
    17   16   17 1  
    18   17   18 2  
    19   17   19 1  
    20   18   20 1  
    21   19   21 ar 
    22   19   22 ar 
    23   21   20 1  
    24   21   23 ar 
    25   22   24 ar 
    26   23   25 ar 
    27   24   25 ar 
    28   27   26 1  
    29   26   32 1  
    30   28   27 1  
    31   27   30 1  
    32   28   29 2  
    33   33   28 am 
    34   30   31 1  
    35   31   32 1  
    36   34   33 1  
    37   35   34 1  
    38   34   37 1  
    39   35   36 2  
    40   43   35 am 
    41   37   38 1  
    42   38   39 1  
    43   39   40 2  
    44   39   41 am 
    45   42   44 2  
    46   42   45 1  
    47   51   42 am 
    48   45   43 1  
    49   45   46 1  
    50   45   50 1  
    51   46   49 1  
    52   47   48 1  
    53   49   47 1  
    54   48   81 2  
    55   52   51 1  
    56   53   52 1  
    57   52   55 1  
    58   53   54 2  
    59   59   53 am 
    60   55   56 1  
    61   55   57 1  
    62   56   58 1  
    63   60   59 1  
    64   61   60 1  
    65   60   63 1  
    66   61   62 2  
    67   67   61 am 
    68   63   64 1  
    69   64   65 1  
    70   64   66 1  
    71   68   67 1  
    72   69   68 1  
    73   68   71 1  
    74   69   70 2  
    75   76   69 am 
    76   71   72 1  
    77   72   73 ar 
    78   72   74 ar 
    79   75   77 2  
    80   78   75 1  
    81   75   84 am 
    82   76   78 1  
    83   78   79 1  
    84   78   83 1  
    85   79   82 2  
    86   81   80 1  
    87   80   82 1  
    88   84   85 1  
    89   85   86 1  
    90   85   88 1  
    91   86   87 2  
    92   86   94 am 
    93   88   89 1  
    94   89   90 1  
    95   89   91 2  
    96   90   92 2  
    97   91   93 1  
    98   92   93 1  
    99   94   95 1  
   100   95   96 1  
   101   95   98 1  
   102   96   97 2  
   103   96  101 am 
   104   98   99 1  
   105   98  100 1  
   106  101  102 1  
   107  102  103 1  
   108  102  105 1  
   109  103  104 2  
   110  103  112 am 
   111  105  106 1  
   112  106  107 1  
   113  107  108 1  
   114  108  109 ar 
   115  109  110 ar 
   116  109  111 ar 
   117  112  113 1  
   118  113  114 1  
   119  113  116 1  
   120  114  115 2  
   121  114  123 am 
   122  116  117 1  
   123  117  118 1  
   124  118  119 1  
   125  119  120 ar 
   126  120  121 ar 
   127  120  122 ar 
   128  123  124 1  
   129  124  125 1  
   130  124  127 1  
   131  125  126 2  
   132  125  130 am 
   133  127  128 1  
   134  127  129 1  
   135  130  131 1  
   136  131  132 1  
   137  131  134 1  
   138  132  133 ar 
   139  134  135 1  
   140  135  136 2  
   141  135  137 1  
   142  136  138 1  
   143  137  139 ar 
   144  137  140 ar 
   145  138  139 1  
   146  139  141 ar 
   147  140  142 ar 
   148  141  143 ar 
   149  142  143 ar 
   150  132  144 ar 
   151    1  145 1  
   152    1  146 1  
   153    1  147 1  
   154    2  148 1  
   155    5  149 1  
   156    5  150 1  
   157    6  151 1  
   158    6  152 1  
   159    7  153 1  
   160    7  154 1  
   161    8  155 1  
   162   10  156 1  
   163   10  157 1  
   164   11  158 1  
   165   11  159 1  
   166   12  160 1  
   167   13  161 1  
   168   16  162 1  
   169   16  163 1  
   170   18  164 1  
   171   20  165 1  
   172   22  166 1  
   173   23  167 1  
   174   24  168 1  
   175   25  169 1  
   176   27  170 1  
   177   30  171 1  
   178   30  172 1  
   179   31  173 1  
   180   31  174 1  
   181   32  175 1  
   182   32  176 1  
   183   33  177 1  
   184   34  178 1  
   185   37  179 1  
   186   37  180 1  
   187   38  181 1  
   188   38  182 1  
   189   41  183 1  
   190   41  184 1  
   191   43  185 1  
   192   46  186 1  
   193   46  187 1  
   194   47  188 1  
   195   47  189 1  
   196   48  190 1  
   197   49  191 1  
   198   49  192 1  
   199   50  193 1  
   200   50  194 1  
   201   50  195 1  
   202   51  196 1  
   203   52  197 1  
   204   55  198 1  
   205   56  199 1  
   206   56  200 1  
   207   57  201 1  
   208   57  202 1  
   209   57  203 1  
   210   58  204 1  
   211   58  205 1  
   212   58  206 1  
   213   59  207 1  
   214   60  208 1  
   215   63  209 1  
   216   63  210 1  
   217   64  211 1  
   218   65  212 1  
   219   65  213 1  
   220   65  214 1  
   221   66  215 1  
   222   66  216 1  
   223   66  217 1  
   224   67  218 1  
   225   68  219 1  
   226   71  220 1  
   227   71  221 1  
   228   76  222 1  
   229   79  223 1  
   230   80  224 1  
   231   80  225 1  
   232   81  226 1  
   233   82  227 1  
   234   83  228 1  
   235   83  229 1  
   236   83  230 1  
   237   84  231 1  
   238   85  232 1  
   239   88  233 1  
   240   88  234 1  
   241   91  235 1  
   242   92  236 1  
   243   93  237 1  
   244   94  238 1  
   245   95  239 1  
   246   98  240 1  
   247   99  241 1  
   248   99  242 1  
   249   99  243 1  
   250  100  244 1  
   251  100  245 1  
   252  100  246 1  
   253  101  247 1  
   254  102  248 1  
   255  105  249 1  
   256  105  250 1  
   257  106  251 1  
   258  106  252 1  
   259  107  253 1  
   260  107  254 1  
   261  108  255 1  
   262  110  256 1  
   263  110  257 1  
   264  111  258 1  
   265  111  259 1  
   266  112  260 1  
   267  113  261 1  
   268  116  262 1  
   269  116  263 1  
   270  117  264 1  
   271  117  265 1  
   272  118  266 1  
   273  118  267 1  
   274  119  268 1  
   275  121  269 1  
   276  121  270 1  
   277  122  271 1  
   278  122  272 1  
   279  123  273 1  
   280  124  274 1  
   281  127  275 1  
   282  128  276 1  
   283  128  277 1  
   284  128  278 1  
   285  129  279 1  
   286  129  280 1  
   287  129  281 1  
   288  130  282 1  
   289  131  283 1  
   290  134  284 1  
   291  134  285 1  
   292  136  286 1  
   293  138  287 1  
   294  140  288 1  
   295  141  289 1  
   296  142  290 1  
   297  143  291 1  
@<TRIPOS>SUBSTRUCTURE
     1 ARG         1

