6guf_ligand
  -I-interpret- 

 52 55  0  0  0  0  0  0  0  0999 V2000
   -5.5100  -26.2320   25.2600 C   0  0  0  0  0
   -4.4830  -26.9550   25.8110 C   0  0  0  0  0
   -3.2710  -27.5340   24.7120 Cl  0  0  0  0  0
   -4.4030  -27.2350   27.1610 C   0  0  0  0  0
   -5.3970  -26.7490   27.9860 C   0  0  0  0  0
   -6.4660  -26.0360   27.4560 C   0  0  0  0  0
   -6.5240  -25.7660   26.0890 C   0  0  0  0  0
   -7.5680  -25.0330   25.4820 N   0  0  0  0  0
   -7.5060  -24.0490   24.5430 C   0  0  0  0  0
   -6.3630  -23.6970   23.9060 N   0  0  0  0  0
   -8.6730  -23.3550   24.2180 C   0  0  0  0  0
   -9.9740  -23.4750   24.6610 N   0  0  0  0  0
  -10.6060  -22.5470   23.9830 C   0  0  0  0  0
   -9.8090  -21.8330   23.1400 N   0  0  0  0  0
  -10.2350  -20.7620   22.2370 C   0  0  0  0  0
   -9.4220  -19.5050   22.3880 C   0  0  0  0  0
   -8.5630  -22.3530   23.2790 C   0  0  0  0  0
   -7.4560  -21.9750   22.6300 N   0  0  0  0  0
   -6.3790  -22.6950   22.9910 C   0  0  0  0  0
   -5.2330  -22.3710   22.3880 N   0  0  0  0  0
   -3.9100  -22.8280   22.7910 C   0  0  0  0  0
   -2.8900  -21.7420   22.4580 C   0  0  0  0  0
   -1.4530  -22.2570   22.4500 C   0  0  0  0  0
   -1.3160  -23.6340   23.0610 C   0  0  0  0  0
   -2.1620  -24.6420   22.3000 C   0  0  0  0  0
   -3.6090  -24.1720   22.1170 C   0  0  0  0  0
   -3.9270  -24.0810   20.6610 N   0  3  0  0  0
   -5.5308  -26.0262   24.1898 H   0  0  0  0  0
   -3.5783  -27.8231   27.5635 H   0  0  0  0  0
   -5.3434  -26.9255   29.0603 H   0  0  0  0  0
   -7.2630  -25.6861   28.1121 H   0  0  0  0  0
   -8.5081  -25.2772   25.7935 H   0  0  0  0  0
  -11.6755  -22.3632   24.0852 H   0  0  0  0  0
  -11.2699  -20.5181   22.4771 H   0  0  0  0  0
  -10.1062  -21.1192   21.2153 H   0  0  0  0  0
   -9.5151  -19.1340   23.4087 H   0  0  0  0  0
   -8.3758  -19.7225   22.1732 H   0  0  0  0  0
   -9.7882  -18.7511   21.6912 H   0  0  0  0  0
   -5.2883  -21.7527   21.5787 H   0  0  0  0  0
   -3.8595  -22.9990   23.8663 H   0  0  0  0  0
   -2.9626  -20.9713   23.2253 H   0  0  0  0  0
   -3.1152  -21.3696   21.4586 H   0  0  0  0  0
   -0.8501  -21.5690   23.0427 H   0  0  0  0  0
   -1.1285  -22.3205   21.4114 H   0  0  0  0  0
   -1.6556  -23.5970   24.0961 H   0  0  0  0  0
   -0.2711  -23.9404   23.0118 H   0  0  0  0  0
   -2.1788  -25.5688   22.8734 H   0  0  0  0  0
   -1.7225  -24.7723   21.3111 H   0  0  0  0  0
   -4.2388  -24.9145   22.6069 H   0  0  0  0  0
   -3.7264  -24.9755   20.2138 H   0  0  0  0  0
   -4.9146  -23.8547   20.5434 H   0  0  0  0  0
   -3.3565  -23.3509   20.2346 H   0  0  0  0  0
  1  2  4  0  0  0
  1  7  4  0  0  0
  2  3  1  0  0  0
  2  4  4  0  0  0
  4  5  4  0  0  0
  5  6  4  0  0  0
  6  7  4  0  0  0
  7  8  1  0  0  0
  8  9  1  0  0  0
  9 10  4  0  0  0
  9 11  4  0  0  0
 10 19  4  0  0  0
 11 12  4  0  0  0
 11 17  4  0  0  0
 12 13  4  0  0  0
 13 14  4  0  0  0
 14 15  1  0  0  0
 14 17  4  0  0  0
 15 16  1  0  0  0
 17 18  4  0  0  0
 18 19  4  0  0  0
 19 20  1  0  0  0
 20 21  1  0  0  0
 21 22  1  0  0  0
 21 26  1  0  0  0
 22 23  1  0  0  0
 23 24  1  0  0  0
 24 25  1  0  0  0
 25 26  1  0  0  0
 26 27  1  0  0  0
  1 28  1  0  0  0
  4 29  1  0  0  0
  5 30  1  0  0  0
  6 31  1  0  0  0
  8 32  1  0  0  0
 13 33  1  0  0  0
 15 34  1  0  0  0
 15 35  1  0  0  0
 16 36  1  0  0  0
 16 37  1  0  0  0
 16 38  1  0  0  0
 20 39  1  0  0  0
 21 40  1  0  0  0
 22 41  1  0  0  0
 22 42  1  0  0  0
 23 43  1  0  0  0
 23 44  1  0  0  0
 24 45  1  0  0  0
 24 46  1  0  0  0
 25 47  1  0  0  0
 25 48  1  0  0  0
 26 49  1  0  0  0
 27 50  1  0  0  0
 27 51  1  0  0  0
 27 52  1  0  0  0
M  END
$$$$
