5nkn_ligand
  -I-interpret- 

 54 56  0  0  0  0  0  0  0  0999 V2000
   -9.2070   15.7180  -23.2580 O   0  0  0  0  0
  -10.0710   16.4370  -23.7430 C   0  0  0  0  0
   -9.8620   17.1080  -25.0690 C   0  0  0  0  0
  -11.2460   16.6870  -23.1510 N   0  0  0  0  0
  -11.6220   16.0920  -21.8710 C   0  0  0  0  0
  -12.2290   14.7090  -21.9620 C   0  0  0  0  0
  -12.8770   14.4090  -23.1010 C   0  0  0  0  0
  -12.5930   16.9960  -21.1060 C   0  0  0  0  0
  -12.9570   16.4980  -19.7000 C   0  0  0  0  0
  -11.8520   15.7260  -19.0000 C   0  0  0  0  0
  -11.2540   16.2470  -17.8430 C   0  0  0  0  0
  -10.2260   15.5780  -17.1620 C   0  0  0  0  0
   -9.7470   14.2730  -17.6540 C   0  0  0  0  0
  -10.3480   13.6750  -18.8550 C   0  0  0  0  0
   -9.8830   12.4720  -19.2960 O   0  0  0  0  0
   -8.7270   12.4570  -20.1350 C   0  0  0  0  0
   -8.7750   13.5950  -16.9800 O   0  0  0  0  0
   -9.2020   12.6090  -16.0450 C   0  0  0  0  0
   -9.6130   16.0520  -16.0250 O   0  0  0  0  0
   -9.8270   17.3510  -15.4730 C   0  0  0  0  0
  -11.4180   14.4160  -19.5600 C   0  0  0  0  0
  -12.0910   13.8590  -20.7810 C   0  0  0  0  0
  -12.5940   12.6320  -20.5880 C   0  0  0  0  0
  -13.3180   11.7530  -21.4810 C   0  0  0  0  0
  -13.7360   11.9640  -22.7280 C   0  0  0  0  0
  -13.5690   13.1770  -23.4940 C   0  0  0  0  0
  -14.0790   13.1960  -24.6040 O   0  0  0  0  0
  -14.4550   10.9010  -23.4210 O   0  0  0  0  0
  -14.3750    9.5080  -23.0980 C   0  0  0  0  0
   -8.9907   17.7604  -25.0113 H   0  0  0  0  0
   -9.7005   16.3510  -25.8364 H   0  0  0  0  0
  -10.7436   17.6983  -25.3190 H   0  0  0  0  0
  -11.9032   17.3167  -23.6113 H   0  0  0  0  0
  -10.6758   15.9903  -21.3395 H   0  0  0  0  0
  -12.8901   15.2035  -23.8471 H   0  0  0  0  0
  -13.5181   17.0282  -21.6815 H   0  0  0  0  0
  -12.1006   17.9608  -20.9842 H   0  0  0  0  0
  -13.8009   15.8172  -19.8111 H   0  0  0  0  0
  -13.1645   17.3793  -19.0931 H   0  0  0  0  0
  -11.6006   17.2065  -17.4591 H   0  0  0  0  0
   -8.9297   13.0282  -21.0410 H   0  0  0  0  0
   -7.8874   12.9038  -19.6025 H   0  0  0  0  0
   -8.4849   11.4277  -20.3995 H   0  0  0  0  0
   -9.8166   13.0798  -15.2777 H   0  0  0  0  0
   -9.7851   11.8475  -16.5628 H   0  0  0  0  0
   -8.3299   12.1479  -15.5814 H   0  0  0  0  0
   -9.5437   18.1068  -16.2055 H   0  0  0  0  0
  -10.8804   17.4670  -15.2181 H   0  0  0  0  0
   -9.2197   17.4675  -14.5754 H   0  0  0  0  0
  -12.4300   12.2275  -19.5892 H   0  0  0  0  0
  -13.5570   10.7713  -21.0720 H   0  0  0  0  0
  -13.3438    9.1708  -23.2024 H   0  0  0  0  0
  -14.7065    9.3549  -22.0710 H   0  0  0  0  0
  -15.0141    8.9419  -23.7756 H   0  0  0  0  0
  1  2  2  0  0  0
  2  3  1  0  0  0
  2  4  1  0  0  0
  4  5  1  0  0  0
  5  6  1  0  0  0
  5  8  1  0  0  0
  6  7  2  0  0  0
  6 22  1  0  0  0
  7 26  1  0  0  0
  8  9  1  0  0  0
  9 10  1  0  0  0
 10 11  4  0  0  0
 10 21  4  0  0  0
 11 12  4  0  0  0
 12 13  4  0  0  0
 12 19  1  0  0  0
 13 14  4  0  0  0
 13 17  1  0  0  0
 14 15  1  0  0  0
 14 21  4  0  0  0
 15 16  1  0  0  0
 17 18  1  0  0  0
 19 20  1  0  0  0
 21 22  1  0  0  0
 22 23  2  0  0  0
 23 24  1  0  0  0
 24 25  2  0  0  0
 25 26  1  0  0  0
 25 28  1  0  0  0
 26 27  2  0  0  0
 28 29  1  0  0  0
  3 30  1  0  0  0
  3 31  1  0  0  0
  3 32  1  0  0  0
  4 33  1  0  0  0
  5 34  1  0  0  0
  7 35  1  0  0  0
  8 36  1  0  0  0
  8 37  1  0  0  0
  9 38  1  0  0  0
  9 39  1  0  0  0
 11 40  1  0  0  0
 16 41  1  0  0  0
 16 42  1  0  0  0
 16 43  1  0  0  0
 18 44  1  0  0  0
 18 45  1  0  0  0
 18 46  1  0  0  0
 20 47  1  0  0  0
 20 48  1  0  0  0
 20 49  1  0  0  0
 23 50  1  0  0  0
 24 51  1  0  0  0
 29 52  1  0  0  0
 29 53  1  0  0  0
 29 54  1  0  0  0
M  END
$$$$
