5m6h_ligand
  -I-interpret- 

 75 79  0  0  0  0  0  0  0  0999 V2000
  -15.4280  -21.7040   -0.3500 C   0  0  0  0  0
  -15.9320  -20.3700   -0.8280 C   0  0  0  0  0
  -15.8310  -20.2340   -2.3330 C   0  0  0  0  0
  -16.1590  -18.8730   -2.7890 N   0  3  0  0  0
  -16.3340  -18.8470   -4.2390 C   0  0  0  0  0
  -15.0590  -19.0130   -5.0590 C   0  0  0  0  0
  -16.1180  -18.3050   -8.5160 C   0  0  0  0  0
  -16.7950  -19.5690   -9.0630 C   0  0  0  0  0
  -16.6640  -17.0930   -9.2540 C   0  0  0  0  0
  -14.6220  -18.4090   -8.5840 C   0  0  0  0  0
  -12.5110  -18.4390   -9.4800 C   0  0  0  0  0
  -11.9000  -18.6930   -8.2680 C   0  0  0  0  0
   -9.5900  -20.6980   -9.6660 C   0  0  0  0  0
   -9.4140  -22.9700   -8.9280 C   0  0  0  0  0
   -9.8760  -22.5960   -7.6900 C   0  0  0  0  0
  -10.1890  -21.2710   -7.4340 C   0  0  0  0  0
  -12.7360  -18.8320   -7.1700 C   0  0  0  0  0
  -14.1120  -18.6810   -7.3030 C   0  0  0  0  0
  -15.3090  -17.8650   -2.1250 C   0  0  0  0  0
  -15.5530  -17.9060   -0.6230 C   0  0  0  0  0
  -16.8320  -16.0620   -2.4070 O   0  0  0  0  0
  -12.8020  -15.7270   -4.6700 C   0  0  0  0  0
  -13.3180  -15.8720   -3.2650 C   0  0  0  0  0
  -14.0110  -19.3800   -4.5520 O   0  0  0  0  0
  -15.1610  -18.7340   -6.3830 N   0  0  0  0  0
  -16.3820  -18.1840   -6.9930 C   0  0  0  0  0
  -13.8300  -18.2910   -9.6490 N   0  0  0  0  0
  -10.4040  -18.8690   -8.1390 C   0  0  0  0  0
  -10.0420  -20.3060   -8.4160 C   0  0  0  0  0
   -9.2700  -22.0200   -9.9180 C   0  0  0  0  0
  -15.1460  -19.2720   -0.1750 N   0  3  0  0  0
  -15.7030  -16.4640   -2.6120 C   0  0  0  0  0
  -14.7800  -15.7110   -3.2650 N   0  0  0  0  0
  -15.1390  -14.4090   -3.8430 C   0  0  0  0  0
  -14.5510  -14.2830   -5.2320 C   0  0  0  0  0
  -13.1380  -14.4550   -5.2240 O   0  0  0  0  0
  -14.3746  -21.8075   -0.6103 H   0  0  0  0  0
  -15.5442  -21.7685    0.7319 H   0  0  0  0  0
  -16.0012  -22.4994   -0.8263 H   0  0  0  0  0
  -16.9845  -20.2960   -0.5545 H   0  0  0  0  0
  -16.5423  -20.9250   -2.7854 H   0  0  0  0  0
  -14.8042  -20.4527   -2.6261 H   0  0  0  0  0
  -17.0799  -18.5694   -2.4726 H   0  0  0  0  0
  -16.7347  -17.8636   -4.4851 H   0  0  0  0  0
  -16.9752  -19.6923   -4.4888 H   0  0  0  0  0
  -17.8718  -19.4984   -8.9093 H   0  0  0  0  0
  -16.5840  -19.6605  -10.1285 H   0  0  0  0  0
  -16.4084  -20.4427   -8.5384 H   0  0  0  0  0
  -16.4534  -17.1923  -10.3188 H   0  0  0  0  0
  -17.7412  -17.0301   -9.0997 H   0  0  0  0  0
  -16.1875  -16.1907   -8.8707 H   0  0  0  0  0
  -11.8743  -18.3531  -10.3605 H   0  0  0  0  0
   -9.4856  -19.9571  -10.4587 H   0  0  0  0  0
   -9.1625  -24.0117   -9.1273 H   0  0  0  0  0
   -9.9968  -23.3440   -6.9064 H   0  0  0  0  0
  -10.5552  -20.9848   -6.4481 H   0  0  0  0  0
  -12.3103  -19.0619   -6.1933 H   0  0  0  0  0
  -14.2654  -18.0786   -2.3558 H   0  0  0  0  0
  -16.5991  -17.7096   -0.3881 H   0  0  0  0  0
  -14.9785  -17.1352   -0.1092 H   0  0  0  0  0
  -13.2574  -16.5023   -5.2861 H   0  0  0  0  0
  -11.7160  -15.8178   -4.6493 H   0  0  0  0  0
  -12.8669  -15.1094   -2.6301 H   0  0  0  0  0
  -13.0596  -16.8590   -2.8815 H   0  0  0  0  0
  -17.2794  -18.7191   -6.6826 H   0  0  0  0  0
  -16.5746  -17.1564   -6.6845 H   0  0  0  0  0
  -10.0925  -18.6039   -7.1287 H   0  0  0  0  0
   -9.8986  -18.2220   -8.8561 H   0  0  0  0  0
   -8.9029  -22.3120  -10.9019 H   0  0  0  0  0
  -14.1667  -19.4007   -0.4297 H   0  0  0  0  0
  -15.3129  -19.3292    0.8296 H   0  0  0  0  0
  -14.7434  -13.6136   -3.2114 H   0  0  0  0  0
  -16.2244  -14.3291   -3.9032 H   0  0  0  0  0
  -14.7730  -13.2848   -5.6093 H   0  0  0  0  0
  -14.9875  -15.0588   -5.8611 H   0  0  0  0  0
  2  1  1  0  0  0
  3  2  1  0  0  0
 31  2  1  0  0  0
  4  3  1  0  0  0
  4  5  1  0  0  0
 19  4  1  0  0  0
  5  6  1  0  0  0
  6 24  2  0  0  0
  6 25  1  0  0  0
  7  8  1  0  0  0
  7  9  1  0  0  0
  7 10  1  0  0  0
 26  7  1  0  0  0
 18 10  4  0  0  0
 10 27  4  0  0  0
 12 11  4  0  0  0
 27 11  4  0  0  0
 17 12  4  0  0  0
 12 28  1  0  0  0
 29 13  4  0  0  0
 13 30  4  0  0  0
 15 14  4  0  0  0
 30 14  4  0  0  0
 16 15  4  0  0  0
 29 16  4  0  0  0
 18 17  4  0  0  0
 25 18  1  0  0  0
 19 20  1  0  0  0
 32 19  1  0  0  0
 20 31  1  0  0  0
 32 21  2  0  0  0
 23 22  1  0  0  0
 22 36  1  0  0  0
 33 23  1  0  0  0
 25 26  1  0  0  0
 28 29  1  0  0  0
 32 33  1  0  0  0
 33 34  1  0  0  0
 34 35  1  0  0  0
 35 36  1  0  0  0
  1 37  1  0  0  0
  1 38  1  0  0  0
  1 39  1  0  0  0
  2 40  1  0  0  0
  3 41  1  0  0  0
  3 42  1  0  0  0
  4 43  1  0  0  0
  5 44  1  0  0  0
  5 45  1  0  0  0
  8 46  1  0  0  0
  8 47  1  0  0  0
  8 48  1  0  0  0
  9 49  1  0  0  0
  9 50  1  0  0  0
  9 51  1  0  0  0
 11 52  1  0  0  0
 13 53  1  0  0  0
 14 54  1  0  0  0
 15 55  1  0  0  0
 16 56  1  0  0  0
 17 57  1  0  0  0
 19 58  1  0  0  0
 20 59  1  0  0  0
 20 60  1  0  0  0
 22 61  1  0  0  0
 22 62  1  0  0  0
 23 63  1  0  0  0
 23 64  1  0  0  0
 26 65  1  0  0  0
 26 66  1  0  0  0
 28 67  1  0  0  0
 28 68  1  0  0  0
 30 69  1  0  0  0
 31 70  1  0  0  0
 31 71  1  0  0  0
 34 72  1  0  0  0
 34 73  1  0  0  0
 35 74  1  0  0  0
 35 75  1  0  0  0
M  END
$$$$
