2ok1_ligand
  -I-interpret- 

 42 45  0  0  0  0  0  0  0  0999 V2000
   -3.4060   10.2520   21.9310 C   0  0  0  0  0
   -3.6070   11.6320   22.1580 C   0  0  0  0  0
   -4.9090   12.1740   22.1280 C   0  0  0  0  0
   -6.0190   11.3500   21.8610 C   0  0  0  0  0
   -5.8430    9.9530   21.6340 C   0  0  0  0  0
   -4.5110    9.4160   21.6670 C   0  0  0  0  0
   -7.0010    9.0210   21.3370 C   0  0  0  0  0
   -1.7920    9.5870   21.9640 Cl  0  0  0  0  0
   -6.8530    7.8560   20.6300 C   0  0  0  0  0
   -8.0420    7.2500   20.5290 N   0  0  0  0  0
   -8.9940    8.0230   21.1790 N   0  0  0  0  0
   -8.4240    9.0970   21.6820 C   0  0  0  0  0
   -9.2210   10.1220   22.4430 C   0  0  0  0  0
   -8.8550   10.8910   23.5220 C   0  0  0  0  0
   -9.9060   11.6660   23.8790 N   0  0  0  0  0
  -10.9640   11.4000   23.0350 C   0  0  0  0  0
  -10.5550   10.4520   22.1450 C   0  0  0  0  0
  -12.3010   12.0180   23.0730 C   0  0  0  0  0
  -12.5460   12.8870   23.8990 O   0  0  0  0  0
  -13.2480   11.6100   22.1770 N   0  0  0  0  0
  -14.6020   12.1830   22.1460 C   0  0  0  0  0
  -14.7690   12.9390   20.8550 C   0  0  0  0  0
  -14.5430   14.3340   20.8220 C   0  0  0  0  0
  -14.6960   15.0440   19.6100 C   0  0  0  0  0
  -15.0660   14.3630   18.4320 C   0  0  0  0  0
  -15.2920   12.9700   18.4660 C   0  0  0  0  0
  -15.1390   12.2560   19.6770 C   0  0  0  0  0
   -2.7533   12.2799   22.3569 H   0  0  0  0  0
   -5.0568   13.2380   22.3128 H   0  0  0  0  0
   -7.0190   11.7824   21.8276 H   0  0  0  0  0
   -4.3528    8.3528   21.4864 H   0  0  0  0  0
   -5.9163    7.4827   20.2161 H   0  0  0  0  0
   -7.8801   10.8788   24.0094 H   0  0  0  0  0
  -11.1566   10.0246   21.3428 H   0  0  0  0  0
  -13.0072   10.8814   21.5050 H   0  0  0  0  0
  -14.7418   12.8553   22.9925 H   0  0  0  0  0
  -15.3449   11.3880   22.2113 H   0  0  0  0  0
  -14.2511   14.8612   21.7303 H   0  0  0  0  0
  -14.5276   16.1206   19.5856 H   0  0  0  0  0
  -15.1773   14.9114   17.4966 H   0  0  0  0  0
  -15.5849   12.4439   17.5574 H   0  0  0  0  0
  -15.3067   11.1792   19.7004 H   0  0  0  0  0
  1  2  4  0  0  0
  1  6  4  0  0  0
  1  8  1  0  0  0
  2  3  4  0  0  0
  3  4  4  0  0  0
  4  5  4  0  0  0
  5  6  4  0  0  0
  5  7  1  0  0  0
  7  9  4  0  0  0
  7 12  4  0  0  0
  9 10  4  0  0  0
 10 11  4  0  0  0
 11 12  4  0  0  0
 12 13  1  0  0  0
 13 14  4  0  0  0
 13 17  4  0  0  0
 14 15  4  0  0  0
 15 16  4  0  0  0
 16 17  4  0  0  0
 16 18  1  0  0  0
 18 19  2  0  0  0
 18 20  1  0  0  0
 20 21  1  0  0  0
 21 22  1  0  0  0
 22 23  4  0  0  0
 22 27  4  0  0  0
 23 24  4  0  0  0
 24 25  4  0  0  0
 25 26  4  0  0  0
 26 27  4  0  0  0
  2 28  1  0  0  0
  3 29  1  0  0  0
  4 30  1  0  0  0
  6 31  1  0  0  0
  9 32  1  0  0  0
 14 33  1  0  0  0
 17 34  1  0  0  0
 20 35  1  0  0  0
 21 36  1  0  0  0
 21 37  1  0  0  0
 23 38  1  0  0  0
 24 39  1  0  0  0
 25 40  1  0  0  0
 26 41  1  0  0  0
 27 42  1  0  0  0
M  END
$$$$
