1abf_ligand
  -I-interpret- 

 23 23  0  0  0  0  0  0  0  0999 V2000
   14.2200   56.9530   55.1730 C   0  0  0  0  0
   12.7840   57.2190   54.8070 C   0  0  0  0  0
   12.2730   56.2710   53.7800 C   0  0  0  0  0
   13.1220   56.4430   52.5260 C   0  0  0  0  0
   14.6030   56.1780   52.8770 C   0  0  0  0  0
   15.6060   56.4290   51.7640 C   0  0  0  0  0
   14.4030   55.7180   55.7330 O   0  0  0  0  0
   11.9520   57.2620   56.0600 O   0  0  0  0  0
   10.8700   56.5300   53.4920 O   0  0  0  0  0
   12.9720   57.7720   51.9890 O   0  0  0  0  0
   15.0190   57.0540   53.9120 O   0  0  0  0  0
   14.5361   57.6805   55.9206 H   0  0  0  0  0
   12.7126   58.1952   54.3274 H   0  0  0  0  0
   12.3431   55.2463   54.1450 H   0  0  0  0  0
   12.7900   55.7313   51.7701 H   0  0  0  0  0
   14.6086   55.1184   53.1325 H   0  0  0  0  0
   15.5584   57.4755   51.4629 H   0  0  0  0  0
   16.6093   56.1979   52.1219 H   0  0  0  0  0
   15.3675   55.7931   50.9115 H   0  0  0  0  0
   13.8896   55.6553   56.5418 H   0  0  0  0  0
   12.3359   57.8900   56.6763 H   0  0  0  0  0
   10.3537   56.4165   54.2934 H   0  0  0  0  0
   12.0492   57.9269   51.7742 H   0  0  0  0  0
  1  2  1  0  0  0
  1  7  1  0  0  0
  1 11  1  0  0  0
  2  3  1  0  0  0
  2  8  1  0  0  0
  3  4  1  0  0  0
  3  9  1  0  0  0
  4  5  1  0  0  0
  4 10  1  0  0  0
  5  6  1  0  0  0
  5 11  1  0  0  0
  1 12  1  0  0  0
  2 13  1  0  0  0
  3 14  1  0  0  0
  4 15  1  0  0  0
  5 16  1  0  0  0
  6 17  1  0  0  0
  6 18  1  0  0  0
  6 19  1  0  0  0
  7 20  1  0  0  0
  8 21  1  0  0  0
  9 22  1  0  0  0
 10 23  1  0  0  0
M  END
$$$$
