1h8y_ligand
  -I-interpret- 

 54 55  0  0  0  0  0  0  0  0999 V2000
   28.7060   93.2980   53.4930 C   0  0  0  0  0
   32.7090   91.6290   55.3000 C   0  0  0  0  0
   29.1420   91.9070   54.0820 C   0  0  0  0  0
   30.4480   92.2160   54.9300 C   0  0  0  0  0
   32.6210   92.7510   54.5390 C   0  0  0  0  0
   29.1870   93.6300   52.4070 O   0  0  0  0  0
   27.9080   91.6250   55.0420 C   0  0  0  0  0
   28.2300   90.9800   56.1840 O   0  0  0  0  0
   26.6500   91.2640   54.3030 C   0  0  0  0  0
   31.3550   93.1690   54.4520 N   0  0  0  0  0
   33.7210   93.4460   53.9490 C   0  0  0  0  0
   33.7550   93.5540   52.7030 O   0  0  0  0  0
   34.8790   93.7130   54.6530 O   0  0  0  0  0
   34.0400   90.4070   54.9360 S   0  0  0  0  0
   35.6920   91.1430   55.2400 C   0  0  0  0  0
   35.7440   92.0400   56.4920 C   0  0  0  0  0
   35.3590   91.0110   57.6260 C   0  0  0  0  0
   31.3000   91.0710   55.4210 C   0  0  0  0  0
   35.6290   89.7210   56.9900 N   0  3  0  0  0
   31.3630   89.9300   54.3310 C   0  0  0  0  0
   36.5250   89.9290   55.8300 C   0  0  0  0  0
   36.2410   91.2820   58.9050 C   0  0  0  0  0
   36.7470   92.6250   59.1490 N   0  0  0  0  0
   37.0770   90.3760   59.1300 O   0  0  0  0  0
   38.0680   93.0240   58.7190 C   0  0  0  0  0
   36.1810   93.3040   60.2790 C   0  0  0  0  0
   28.0061   93.9435   54.0236 H   0  0  0  0  0
   33.0967   91.9227   56.2755 H   0  0  0  0  0
   29.3514   91.0907   53.3907 H   0  0  0  0  0
   29.8639   92.6243   55.7547 H   0  0  0  0  0
   27.5955   92.5725   55.4810 H   0  0  0  0  0
   29.0567   91.3290   56.5251 H   0  0  0  0  0
   26.6902   90.2146   54.0109 H   0  0  0  0  0
   25.7893   91.4294   54.9510 H   0  0  0  0  0
   26.5614   91.8871   53.4130 H   0  0  0  0  0
   34.7163   93.5935   55.5915 H   0  0  0  0  0
   35.9966   91.6640   54.3323 H   0  0  0  0  0
   35.0809   92.9035   56.4403 H   0  0  0  0  0
   36.7097   92.5213   56.6464 H   0  0  0  0  0
   34.3305   91.0714   57.9820 H   0  0  0  0  0
   30.9448   90.7150   56.3881 H   0  0  0  0  0
   34.7528   89.3040   56.6756 H   0  0  0  0  0
   36.0760   89.0955   57.6603 H   0  0  0  0  0
   30.3557   89.5650   54.1303 H   0  0  0  0  0
   31.7957   90.3291   53.4136 H   0  0  0  0  0
   31.9809   89.1111   54.6994 H   0  0  0  0  0
   37.5813   90.1003   56.0375 H   0  0  0  0  0
   36.7009   89.0765   55.1739 H   0  0  0  0  0
   38.8121   92.3868   59.1968 H   0  0  0  0  0
   38.1423   92.9227   57.6363 H   0  0  0  0  0
   38.2422   94.0624   59.0008 H   0  0  0  0  0
   35.1042   93.4015   60.1407 H   0  0  0  0  0
   36.3820   92.7306   61.1839 H   0  0  0  0  0
   36.6283   94.2940   60.3678 H   0  0  0  0  0
  3  1  1  0  0  0
  1  6  2  0  0  0
  2  5  1  0  0  0
  2 14  1  0  0  0
 18  2  1  0  0  0
  4  3  1  0  0  0
  3  7  1  0  0  0
  4 10  1  0  0  0
  4 18  1  0  0  0
  5 10  2  0  0  0
  5 11  1  0  0  0
  7  8  1  0  0  0
  7  9  1  0  0  0
 11 12  2  0  0  0
 11 13  1  0  0  0
 14 15  1  0  0  0
 15 16  1  0  0  0
 15 21  1  0  0  0
 16 17  1  0  0  0
 17 19  1  0  0  0
 17 22  1  0  0  0
 18 20  1  0  0  0
 19 21  1  0  0  0
 22 23  1  0  0  0
 22 24  2  0  0  0
 23 25  1  0  0  0
 23 26  1  0  0  0
  1 27  1  0  0  0
  2 28  1  0  0  0
  3 29  1  0  0  0
  4 30  1  0  0  0
  7 31  1  0  0  0
  8 32  1  0  0  0
  9 33  1  0  0  0
  9 34  1  0  0  0
  9 35  1  0  0  0
 13 36  1  0  0  0
 15 37  1  0  0  0
 16 38  1  0  0  0
 16 39  1  0  0  0
 17 40  1  0  0  0
 18 41  1  0  0  0
 19 42  1  0  0  0
 19 43  1  0  0  0
 20 44  1  0  0  0
 20 45  1  0  0  0
 20 46  1  0  0  0
 21 47  1  0  0  0
 21 48  1  0  0  0
 25 49  1  0  0  0
 25 50  1  0  0  0
 25 51  1  0  0  0
 26 52  1  0  0  0
 26 53  1  0  0  0
 26 54  1  0  0  0
M  END
$$$$
