4jpy_ligand
  -I-interpret- 

 24 24  0  0  0  0  0  0  0  0999 V2000
   -7.5630    5.4710   17.0090 N   0  3  0  0  0
   -7.1420    6.5600   16.0780 C   0  0  0  0  0
   -7.4880    7.9230   16.6590 C   0  0  0  0  0
   -7.4310    8.9450   15.9880 O   0  0  0  0  0
   -7.7580    6.3610   14.6820 C   0  0  0  0  0
   -6.9560    5.4250   13.7940 C   0  0  0  0  0
   -5.8360    5.8980   13.0780 C   0  0  0  0  0
   -7.2880    4.0870   13.6870 C   0  0  0  0  0
   -5.0910    5.0420   12.2690 C   0  0  0  0  0
   -6.5420    3.2270   12.8670 C   0  0  0  0  0
   -5.4470    3.7040   12.1560 C   0  0  0  0  0
   -7.8180    8.0190   17.8450 O   0  0  0  0  0
   -7.1418    5.6266   17.9249 H   0  0  0  0  0
   -8.5793    5.4736   17.0959 H   0  0  0  0  0
   -7.2544    4.5716   16.6399 H   0  0  0  0  0
   -6.0592    6.5157   15.9612 H   0  0  0  0  0
   -7.7835    7.3349   14.1931 H   0  0  0  0  0
   -8.7443    5.9177   14.8191 H   0  0  0  0  0
   -5.5497    6.9466   13.1587 H   0  0  0  0  0
   -8.1384    3.6962   14.2457 H   0  0  0  0  0
   -4.2274    5.4231   11.7239 H   0  0  0  0  0
   -6.8232    2.1770   12.7869 H   0  0  0  0  0
   -4.8729    3.0343   11.5156 H   0  0  0  0  0
   -7.8208    7.1471   18.2468 H   0  0  0  0  0
  1  2  1  0  0  0
  2  3  1  0  0  0
  2  5  1  0  0  0
  3  4  2  0  0  0
  3 12  1  0  0  0
  5  6  1  0  0  0
  6  7  4  0  0  0
  6  8  4  0  0  0
  7  9  4  0  0  0
  8 10  4  0  0  0
  9 11  4  0  0  0
 10 11  4  0  0  0
  1 13  1  0  0  0
  1 14  1  0  0  0
  1 15  1  0  0  0
  2 16  1  0  0  0
  5 17  1  0  0  0
  5 18  1  0  0  0
  7 19  1  0  0  0
  8 20  1  0  0  0
  9 21  1  0  0  0
 10 22  1  0  0  0
 11 23  1  0  0  0
 12 24  1  0  0  0
M  END
$$$$
