1o4m_ligand
  -I-interpret- 

 11 10  0  0  0  0  0  0  0  0999 V2000
   15.2370   28.6760   17.6000 C   0  0  0  0  0
   15.0440   28.3250   18.8650 O   0  0  0  0  0
   14.3330   28.8070   16.8260 O   0  0  0  0  0
   16.6990   28.9370   17.2790 C   0  0  0  0  0
   17.4570   27.6520   16.9270 C   0  0  0  0  0
   17.7230   27.2710   15.6590 O   0  0  0  0  0
   17.9020   26.9620   17.7940 O   0  0  0  0  0
   15.8906   28.2752   19.3148 H   0  0  0  0  0
   17.1659   29.3734   18.1619 H   0  0  0  0  0
   16.7419   29.6015   16.4161 H   0  0  0  0  0
   17.3202   27.8925   15.0482 H   0  0  0  0  0
  1  2  1  0  0  0
  1  3  2  0  0  0
  1  4  1  0  0  0
  4  5  1  0  0  0
  5  6  1  0  0  0
  5  7  2  0  0  0
  2  8  1  0  0  0
  4  9  1  0  0  0
  4 10  1  0  0  0
  6 11  1  0  0  0
M  END
$$$$
