4cdr_ligand
  -I-interpret- 

113113  0  0  0  0  0  0  0  0999 V2000
  175.1930  -49.8030   24.5220 C   0  0  0  0  0
  175.9510  -50.1970   25.4290 O   0  0  0  0  0
  175.6310  -50.0180   23.0460 C   0  0  0  0  0
  173.9440  -49.1770   24.6540 N   0  0  0  0  0
  173.1200  -48.7180   25.8690 C   0  0  0  0  0
  173.3370  -47.2020   26.2090 C   0  0  0  0  0
  172.3960  -46.4960   26.5640 O   0  0  0  0  0
  173.0940  -49.6140   27.1840 C   0  0  0  0  0
  171.7650  -49.3950   27.9400 C   0  0  0  0  0
  174.2700  -49.3900   28.1780 C   0  0  0  0  0
  174.5880  -46.7360   26.1290 N   0  0  0  0  0
  174.8970  -45.3240   26.3610 C   0  0  0  0  0
  175.4940  -44.9310   25.0150 C   0  0  0  0  0
  176.5970  -45.3560   24.7040 O   0  0  0  0  0
  175.8480  -45.0960   27.5570 C   0  0  0  0  0
  176.8680  -44.1760   27.1670 O   0  0  0  0  0
  176.4980  -46.4010   28.0420 C   0  0  0  0  0
  174.6990  -44.2340   24.1820 N   0  0  0  0  0
  175.0420  -43.8120   22.7720 C   0  0  0  0  0
  175.9860  -42.7850   22.7190 C   0  0  0  0  0
  175.9860  -41.8440   23.5190 O   0  0  0  0  0
  173.7320  -43.3740   22.1500 C   0  0  0  0  0
  172.8660  -42.9210   23.3370 C   0  0  0  0  0
  173.3230  -43.7460   24.5340 C   0  0  0  0  0
  176.8550  -42.9240   21.7160 N   0  0  0  0  0
  177.9950  -42.0350   21.4610 C   0  0  0  0  0
  178.0780  -41.6700   19.9610 C   0  0  0  0  0
  177.5070  -42.3660   19.1090 O   0  0  0  0  0
  179.1430  -42.9780   21.8450 C   0  0  0  0  0
  179.1400  -43.2040   23.3660 C   0  0  0  0  0
  180.5300  -42.4960   21.3990 C   0  0  0  0  0
  180.5280  -35.4290   20.4760 C   0  0  0  0  0
  179.1810  -35.6220   19.7590 C   0  0  0  0  0
  179.3470  -36.5770   18.5720 C   0  0  0  0  0
  179.2970  -37.9200   19.0660 O   0  0  0  0  0
  179.6470  -38.8230   18.0150 C   0  0  0  0  0
  179.0350  -40.2230   18.2110 C   0  0  0  0  0
  180.0240  -41.2610   17.6520 C   0  0  0  0  0
  181.1430  -41.3950   18.1610 O   0  0  0  0  0
  178.8230  -40.5880   19.6320 N   0  0  0  0  0
  179.5910  -42.0290   16.6430 N   0  0  0  0  0
  180.4710  -43.0790   16.0870 C   0  0  0  0  0
  180.7160  -42.8100   14.6030 C   0  0  0  0  0
  179.8930  -42.1610   13.9690 O   0  0  0  0  0
  179.8270  -44.4400   16.3310 C   0  0  0  0  0
  178.4620  -44.3210   15.9820 O   0  0  0  0  0
  179.9380  -44.8460   17.8210 C   0  0  0  0  0
  181.8720  -43.2810   14.0950 N   0  0  0  0  0
  182.2910  -43.0360   12.6960 C   0  0  0  0  0
  181.4240  -43.7690   11.6780 C   0  0  0  0  0
  181.1210  -45.0720   11.9200 O   0  0  0  0  0
  183.7510  -43.4360   12.4850 C   0  0  0  0  0
  181.0530  -43.0590   10.6080 N   0  0  0  0  0
  176.5729  -49.4989   22.8686 H   0  0  0  0  0
  175.7611  -51.0838   22.8585 H   0  0  0  0  0
  174.8650  -49.6214   22.3796 H   0  0  0  0  0
  173.4892  -48.9875   23.7609 H   0  0  0  0  0
  172.1138  -48.8786   25.4818 H   0  0  0  0  0
  173.2003  -50.6360   26.8204 H   0  0  0  0  0
  171.6963  -50.1046   28.7645 H   0  0  0  0  0
  171.7341  -48.3779   28.3307 H   0  0  0  0  0
  170.9300  -49.5485   27.2564 H   0  0  0  0  0
  174.2261  -48.3729   28.5675 H   0  0  0  0  0
  174.1883  -50.0996   29.0013 H   0  0  0  0  0
  175.2165  -49.5411   27.6590 H   0  0  0  0  0
  175.3453  -47.3801   25.9008 H   0  0  0  0  0
  174.0369  -44.7200   26.6500 H   0  0  0  0  0
  175.2588  -44.6978   28.3831 H   0  0  0  0  0
  177.4638  -44.0287   27.9052 H   0  0  0  0  0
  175.7208  -47.0977   28.3559 H   0  0  0  0  0
  177.0759  -46.8414   27.2295 H   0  0  0  0  0
  177.1568  -46.1864   28.8834 H   0  0  0  0  0
  175.5034  -44.6401   22.2340 H   0  0  0  0  0
  173.2603  -44.1798   21.5876 H   0  0  0  0  0
  173.8751  -42.5742   21.4234 H   0  0  0  0  0
  171.8066  -43.0767   23.1332 H   0  0  0  0  0
  172.9846  -41.8541   23.5261 H   0  0  0  0  0
  173.3310  -43.1530   25.4485 H   0  0  0  0  0
  172.6432  -44.5749   24.7311 H   0  0  0  0  0
  176.7166  -43.7076   21.0779 H   0  0  0  0  0
  177.9706  -41.0822   21.9899 H   0  0  0  0  0
  178.9597  -43.9101   21.3105 H   0  0  0  0  0
  179.2705  -42.2486   23.8742 H   0  0  0  0  0
  178.1906  -43.6489   23.6641 H   0  0  0  0  0
  179.9568  -43.8742   23.6341 H   0  0  0  0  0
  180.5470  -42.3963   20.3137 H   0  0  0  0  0
  180.7422  -41.5300   21.8572 H   0  0  0  0  0
  181.2825  -43.2205   21.7104 H   0  0  0  0  0
  180.8862  -36.3923   20.8390 H   0  0  0  0  0
  181.2529  -35.0099   19.7781 H   0  0  0  0  0
  180.3962  -34.7485   21.3172 H   0  0  0  0  0
  178.8287  -34.6570   19.3946 H   0  0  0  0  0
  178.4607  -36.0445   20.4595 H   0  0  0  0  0
  180.3009  -36.3958   18.0766 H   0  0  0  0  0
  178.5493  -36.4150   17.8471 H   0  0  0  0  0
  180.7319  -38.9282   18.0097 H   0  0  0  0  0
  179.2621  -38.4159   17.0800 H   0  0  0  0  0
  178.0687  -40.2101   17.7067 H   0  0  0  0  0
  179.2417  -40.0195   20.3681 H   0  0  0  0  0
  178.6563  -41.8896   16.2593 H   0  0  0  0  0
  181.4429  -43.0721   16.5805 H   0  0  0  0  0
  180.3307  -45.2030   15.7375 H   0  0  0  0  0
  178.0222  -45.1626   16.1233 H   0  0  0  0  0
  180.9892  -44.8997   18.1043 H   0  0  0  0  0
  179.4318  -44.1031   18.4374 H   0  0  0  0  0
  179.4709  -45.8200   17.9666 H   0  0  0  0  0
  182.4839  -43.8292   14.6995 H   0  0  0  0  0
  182.1687  -41.9654   12.5319 H   0  0  0  0  0
  184.3865  -42.8502   13.1491 H   0  0  0  0  0
  183.8715  -44.4964   12.7066 H   0  0  0  0  0
  184.0325  -43.2457   11.4493 H   0  0  0  0  0
  180.4886  -43.4938    9.8781 H   0  0  0  0  0
  181.3343  -42.0824   10.5214 H   0  0  0  0  0
  1  2  2  0  0  0
  1  3  1  0  0  0
  4  1  1  0  0  0
  5  4  1  0  0  0
  6  5  1  0  0  0
  5  8  1  0  0  0
  6  7  2  0  0  0
 11  6  1  0  0  0
  8  9  1  0  0  0
  8 10  1  0  0  0
 12 11  1  0  0  0
 13 12  1  0  0  0
 12 15  1  0  0  0
 13 14  2  0  0  0
 18 13  1  0  0  0
 15 16  1  0  0  0
 15 17  1  0  0  0
 19 18  1  0  0  0
 18 24  1  0  0  0
 20 19  1  0  0  0
 19 22  1  0  0  0
 20 21  2  0  0  0
 25 20  1  0  0  0
 22 23  1  0  0  0
 23 24  1  0  0  0
 26 25  1  0  0  0
 27 26  1  0  0  0
 26 29  1  0  0  0
 27 28  2  0  0  0
 40 27  1  0  0  0
 29 30  1  0  0  0
 29 31  1  0  0  0
 33 32  1  0  0  0
 34 33  1  0  0  0
 35 34  1  0  0  0
 36 35  1  0  0  0
 37 36  1  0  0  0
 37 38  1  0  0  0
 37 40  1  0  0  0
 38 39  2  0  0  0
 38 41  1  0  0  0
 41 42  1  0  0  0
 42 43  1  0  0  0
 42 45  1  0  0  0
 43 44  2  0  0  0
 43 48  1  0  0  0
 45 46  1  0  0  0
 45 47  1  0  0  0
 48 49  1  0  0  0
 49 50  1  0  0  0
 49 52  1  0  0  0
 50 51  2  0  0  0
 50 53  1  0  0  0
  3 54  1  0  0  0
  3 55  1  0  0  0
  3 56  1  0  0  0
  4 57  1  0  0  0
  5 58  1  0  0  0
  8 59  1  0  0  0
  9 60  1  0  0  0
  9 61  1  0  0  0
  9 62  1  0  0  0
 10 63  1  0  0  0
 10 64  1  0  0  0
 10 65  1  0  0  0
 11 66  1  0  0  0
 12 67  1  0  0  0
 15 68  1  0  0  0
 16 69  1  0  0  0
 17 70  1  0  0  0
 17 71  1  0  0  0
 17 72  1  0  0  0
 19 73  1  0  0  0
 22 74  1  0  0  0
 22 75  1  0  0  0
 23 76  1  0  0  0
 23 77  1  0  0  0
 24 78  1  0  0  0
 24 79  1  0  0  0
 25 80  1  0  0  0
 26 81  1  0  0  0
 29 82  1  0  0  0
 30 83  1  0  0  0
 30 84  1  0  0  0
 30 85  1  0  0  0
 31 86  1  0  0  0
 31 87  1  0  0  0
 31 88  1  0  0  0
 32 89  1  0  0  0
 32 90  1  0  0  0
 32 91  1  0  0  0
 33 92  1  0  0  0
 33 93  1  0  0  0
 34 94  1  0  0  0
 34 95  1  0  0  0
 36 96  1  0  0  0
 36 97  1  0  0  0
 37 98  1  0  0  0
 40 99  1  0  0  0
 41100  1  0  0  0
 42101  1  0  0  0
 45102  1  0  0  0
 46103  1  0  0  0
 47104  1  0  0  0
 47105  1  0  0  0
 47106  1  0  0  0
 48107  1  0  0  0
 49108  1  0  0  0
 52109  1  0  0  0
 52110  1  0  0  0
 52111  1  0  0  0
 53112  1  0  0  0
 53113  1  0  0  0
M  END
$$$$
