### 
### Created by X-TOOL on Mon Sep 10 21:13:14 2018
### 

@<TRIPOS>MOLECULE
4cdr_ligand
  113   113     1     0     0
SMALL
GAST_HUCK


@<TRIPOS>ATOM
      1 C         175.1930  -49.8030   24.5220 C.2       1 ACE         0.1751
      2 O         175.9510  -50.1970   25.4290 O.2       1 ACE        -0.3972
      3 CH3       175.6310  -50.0180   23.0460 C.3       1 ACE         0.0258
      4 N         173.9440  -49.1770   24.6540 N.am      1 VAL        -0.2656
      5 CA        173.1200  -48.7180   25.8690 C.3       1 VAL         0.1332
      6 C         173.3370  -47.2020   26.2090 C.2       1 VAL         0.2042
      7 O         172.3960  -46.4960   26.5640 O.2       1 VAL        -0.3944
      8 CB        173.0940  -49.6140   27.1840 C.3       1 VAL        -0.0063
      9 CG1       171.7650  -49.3950   27.9400 C.3       1 VAL        -0.0584
     10 CG2       174.2700  -49.3900   28.1780 C.3       1 VAL        -0.0584
     11 N         174.5880  -46.7360   26.1290 N.am      1 THR        -0.2613
     12 CA        174.8970  -45.3240   26.3610 C.3       1 THR         0.1567
     13 C         175.4940  -44.9310   25.0150 C.2       1 THR         0.2090
     14 O         176.5970  -45.3560   24.7040 O.2       1 THR        -0.3941
     15 CB        175.8480  -45.0960   27.5570 C.3       1 THR         0.0924
     16 OG1       176.8680  -44.1760   27.1670 O.3       1 THR        -0.3874
     17 CG2       176.4980  -46.4010   28.0420 C.3       1 THR        -0.0346
     18 N         174.6990  -44.2340   24.1820 N.am      1 PRO        -0.2498
     19 CA        175.0420  -43.8120   22.7720 C.3       1 PRO         0.1338
     20 C         175.9860  -42.7850   22.7190 C.2       1 PRO         0.2041
     21 O         175.9860  -41.8440   23.5190 O.2       1 PRO        -0.3944
     22 CB        173.7320  -43.3740   22.1500 C.3       1 PRO        -0.0104
     23 CG        172.8660  -42.9210   23.3370 C.3       1 PRO        -0.0281
     24 CD        173.3230  -43.7460   24.5340 C.3       1 PRO         0.0369
     25 N         176.8550  -42.9240   21.7160 N.am      1 VAL        -0.2635
     26 CA        177.9950  -42.0350   21.4610 C.3       1 VAL         0.1333
     27 C         178.0780  -41.6700   19.9610 C.2       1 VAL         0.2042
     28 O         177.5070  -42.3660   19.1090 O.2       1 VAL        -0.3944
     29 CB        179.1430  -42.9780   21.8450 C.3       1 VAL        -0.0063
     30 CG1       179.1400  -43.2040   23.3660 C.3       1 VAL        -0.0584
     31 CG2       180.5300  -42.4960   21.3990 C.3       1 VAL        -0.0584
     32 CZ        180.5280  -35.4290   20.4760 C.3       1 SRZ        -0.0632
     33 CE        179.1810  -35.6220   19.7590 C.3       1 SRZ        -0.0323
     34 CD        179.3470  -36.5770   18.5720 C.3       1 SRZ         0.0477
     35 OG        179.2970  -37.9200   19.0660 O.3       1 SRZ        -0.3751
     36 CB        179.6470  -38.8230   18.0150 C.3       1 SRZ         0.0878
     37 CA        179.0350  -40.2230   18.2110 C.3       1 SRZ         0.1542
     38 C         180.0240  -41.2610   17.6520 C.2       1 SRZ         0.2063
     39 O         181.1430  -41.3950   18.1610 O.2       1 SRZ        -0.3943
     40 N         178.8230  -40.5880   19.6320 N.am      1 SRZ        -0.2615
     41 N         179.5910  -42.0290   16.6430 N.am      1 THR        -0.2613
     42 CA        180.4710  -43.0790   16.0870 C.3       1 THR         0.1565
     43 C         180.7160  -42.8100   14.6030 C.2       1 THR         0.2065
     44 O         179.8930  -42.1610   13.9690 O.2       1 THR        -0.3943
     45 CB        179.8270  -44.4400   16.3310 C.3       1 THR         0.0924
     46 OG1       178.4620  -44.3210   15.9820 O.3       1 THR        -0.3874
     47 CG2       179.9380  -44.8460   17.8210 C.3       1 THR        -0.0346
     48 N         181.8720  -43.2810   14.0950 N.am      1 ALA        -0.2639
     49 CA        182.2910  -43.0360   12.6960 C.3       1 ALA         0.1279
     50 C         181.4240  -43.7690   11.6780 C.2       1 ALA         0.1989
     51 O         181.1210  -45.0720   11.9200 O.2       1 ALA        -0.3947
     52 CB        183.7510  -43.4360   12.4850 C.3       1 ALA        -0.0244
     53 N         181.0530  -43.0590   10.6080 N.am      1 NH2        -0.2990
     54 H1        174.8587  -49.6182   22.3724 H         1 ACE         0.0467
     55 H2        175.7626  -51.0933   22.8555 H         1 ACE         0.0467
     56 H3        176.5815  -49.4946   22.8656 H         1 ACE         0.0467
     57 H4        173.4981  -48.9912   23.7784 H         1 VAL         0.1883
     58 H5        172.0842  -48.7756   25.5034 H         1 VAL         0.0802
     59 H6        173.1391  -50.6636   26.8580 H         1 VAL         0.0343
     60 H7        171.7527  -50.0165   28.8475 H         1 VAL         0.0234
     61 H8        170.9230  -49.6773   27.2909 H         1 VAL         0.0234
     62 H9        171.6728  -48.3353   28.2201 H         1 VAL         0.0234
     63 H10       175.2259  -49.5422   27.6554 H         1 VAL         0.0234
     64 H11       174.1887  -50.1056   29.0094 H         1 VAL         0.0234
     65 H12       174.2268  -48.3638   28.5718 H         1 VAL         0.0234
     66 H13       175.3304  -47.3675   25.9053 H         1 THR         0.1884
     67 H14       173.9744  -44.7555   26.5494 H         1 THR         0.0826
     68 H15       175.2700  -44.6643   28.3874 H         1 THR         0.0639
     69 H16       177.3534  -44.5353   26.4336 H         1 THR         0.2101
     70 H17       177.1632  -46.1857   28.8912 H         1 THR         0.0257
     71 H18       177.0816  -46.8465   27.2229 H         1 THR         0.0257
     72 H19       175.7146  -47.1051   28.3592 H         1 THR         0.0257
     73 H20       175.4433  -44.6762   22.2224 H         1 PRO         0.0802
     74 H21       173.2553  -44.2118   21.6200 H         1 PRO         0.0313
     75 H22       173.8948  -42.5419   21.4493 H         1 PRO         0.0313
     76 H23       171.8027  -43.1093   23.1274 H         1 PRO         0.0287
     77 H24       173.0170  -41.8491   23.5324 H         1 PRO         0.0287
     78 H25       173.3559  -43.1233   25.4402 H         1 PRO         0.0524
     79 H26       172.6437  -44.5956   24.6973 H         1 PRO         0.0524
     80 H27       176.7193  -43.6923   21.0904 H         1 VAL         0.1883
     81 H28       177.9686  -41.1248   22.0781 H         1 VAL         0.0802
     82 H29       178.9554  -43.9430   21.3514 H         1 VAL         0.0343
     83 H30       179.9639  -43.8802   23.6378 H         1 VAL         0.0234
     84 H31       178.1823  -43.6530   23.6681 H         1 VAL         0.0234
     85 H32       179.2717  -42.2405   23.8801 H         1 VAL         0.0234
     86 H33       180.5298  -42.3350   20.3108 H         1 VAL         0.0234
     87 H34       181.2827  -43.2555   21.6571 H         1 VAL         0.0234
     88 H35       180.7717  -41.5520   21.9092 H         1 VAL         0.0234
     89 H36       180.3962  -34.7423   21.3252 H         1 SRZ         0.0230
     90 H37       181.2605  -35.0060   19.7727 H         1 SRZ         0.0230
     91 H38       180.8906  -36.4005   20.8429 H         1 SRZ         0.0230
     92 H39       178.8201  -34.6488   19.3949 H         1 SRZ         0.0285
     93 H40       178.4503  -36.0432   20.4651 H         1 SRZ         0.0285
     94 H41       180.3151  -36.3967   18.0819 H         1 SRZ         0.0560
     95 H42       178.5341  -36.4162   17.8485 H         1 SRZ         0.0560
     96 H43       180.7423  -38.9185   17.9822 H         1 SRZ         0.0609
     97 H44       179.2861  -38.4108   17.0611 H         1 SRZ         0.0609
     98 H45       178.0767  -40.2734   17.6734 H         1 SRZ         0.0823
     99 H46       179.2335  -40.0306   20.3537 H         1 SRZ         0.1884
    100 H47       178.6746  -41.8923   16.2668 H         1 THR         0.1884
    101 H48       181.4388  -43.0512   16.6091 H         1 THR         0.0826
    102 H49       180.3148  -45.2025   15.7060 H         1 THR         0.0639
    103 H50       178.0268  -45.1538   16.1218 H         1 THR         0.2101
    104 H51       179.4669  -45.8289   17.9692 H         1 THR         0.0257
    105 H52       179.4274  -44.0970   18.4442 H         1 THR         0.0257
    106 H53       180.9984  -44.9006   18.1082 H         1 THR         0.0257
    107 H54       182.4719  -43.8185   14.6876 H         1 ALA         0.1883
    108 H55       182.1971  -41.9566   12.5059 H         1 ALA         0.0797
    109 H56       184.0363  -43.2444   11.4401 H         1 ALA         0.0277
    110 H57       183.8740  -44.5060   12.7083 H         1 ALA         0.0277
    111 H58       184.3935  -42.8454   13.1547 H         1 ALA         0.0277
    112 H59       180.4836  -43.4796    9.9017 H         1 NH2         0.1815
    113 H60       181.3449  -42.1072   10.5138 H         1 NH2         0.1815
@<TRIPOS>BOND
     1    1    2 2  
     2    1    3 1  
     3    4    1 am 
     4    5    4 1  
     5    6    5 1  
     6    5    8 1  
     7    6    7 2  
     8   11    6 am 
     9    8    9 1  
    10    8   10 1  
    11   12   11 1  
    12   13   12 1  
    13   12   15 1  
    14   13   14 2  
    15   18   13 am 
    16   15   16 1  
    17   15   17 1  
    18   19   18 1  
    19   18   24 1  
    20   20   19 1  
    21   19   22 1  
    22   20   21 2  
    23   25   20 am 
    24   22   23 1  
    25   23   24 1  
    26   26   25 1  
    27   27   26 1  
    28   26   29 1  
    29   27   28 2  
    30   40   27 am 
    31   29   30 1  
    32   29   31 1  
    33   33   32 1  
    34   34   33 1  
    35   35   34 1  
    36   36   35 1  
    37   37   36 1  
    38   37   38 1  
    39   37   40 1  
    40   38   39 2  
    41   38   41 am 
    42   41   42 1  
    43   42   43 1  
    44   42   45 1  
    45   43   44 2  
    46   43   48 am 
    47   45   46 1  
    48   45   47 1  
    49   48   49 1  
    50   49   50 1  
    51   49   52 1  
    52   50   51 2  
    53   50   53 am 
    54    3   54 1  
    55    3   55 1  
    56    3   56 1  
    57    4   57 1  
    58    5   58 1  
    59    8   59 1  
    60    9   60 1  
    61    9   61 1  
    62    9   62 1  
    63   10   63 1  
    64   10   64 1  
    65   10   65 1  
    66   11   66 1  
    67   12   67 1  
    68   15   68 1  
    69   16   69 1  
    70   17   70 1  
    71   17   71 1  
    72   17   72 1  
    73   19   73 1  
    74   22   74 1  
    75   22   75 1  
    76   23   76 1  
    77   23   77 1  
    78   24   78 1  
    79   24   79 1  
    80   25   80 1  
    81   26   81 1  
    82   29   82 1  
    83   30   83 1  
    84   30   84 1  
    85   30   85 1  
    86   31   86 1  
    87   31   87 1  
    88   31   88 1  
    89   32   89 1  
    90   32   90 1  
    91   32   91 1  
    92   33   92 1  
    93   33   93 1  
    94   34   94 1  
    95   34   95 1  
    96   36   96 1  
    97   36   97 1  
    98   37   98 1  
    99   40   99 1  
   100   41  100 1  
   101   42  101 1  
   102   45  102 1  
   103   46  103 1  
   104   47  104 1  
   105   47  105 1  
   106   47  106 1  
   107   48  107 1  
   108   49  108 1  
   109   52  109 1  
   110   52  110 1  
   111   52  111 1  
   112   53  112 1  
   113   53  113 1  
@<TRIPOS>SUBSTRUCTURE
     1 ACE         1

