6hry_ligand
  -I-interpret- 

 29 29  0  0  0  0  0  0  0  0999 V2000
  -22.4070   15.4340  -13.0790 C   0  0  0  0  0
  -21.4240   14.4760  -12.9070 C   0  0  0  0  0
  -21.8130   13.0420  -12.6190 C   0  0  0  0  0
  -17.3210   15.4660  -13.4440 C   0  0  0  0  0
  -16.3790   13.1900  -13.4830 C   0  0  0  0  0
  -16.7520   12.1940  -14.5880 C   0  0  0  0  0
  -15.7360   11.0680  -14.6560 C   0  0  0  0  0
  -18.3220   16.3630  -13.3060 N   0  0  0  0  0
  -20.1020   14.8110  -12.9750 N   0  0  0  0  0
  -21.9980   16.7520  -13.3350 C   0  0  0  0  0
  -17.4830   14.1170  -13.3200 N   0  0  0  0  0
  -19.6620   16.0640  -13.2470 C   0  0  0  0  0
  -20.6220   17.0520  -13.4180 C   0  0  0  0  0
  -16.1910   15.8820  -13.7010 O   0  0  0  0  0
  -23.4638   15.1740  -13.0178 H   0  0  0  0  0
  -22.3884   13.0017  -11.6941 H   0  0  0  0  0
  -22.4171   12.6586  -13.4413 H   0  0  0  0  0
  -20.9126   12.4365  -12.5149 H   0  0  0  0  0
  -15.4720   13.7301  -13.7547 H   0  0  0  0  0
  -16.1914   12.6613  -12.5485 H   0  0  0  0  0
  -16.7658   12.7161  -15.5447 H   0  0  0  0  0
  -17.7328   11.7725  -14.3678 H   0  0  0  0  0
  -14.7506   11.4819  -14.8701 H   0  0  0  0  0
  -15.7116   10.5441  -13.7005 H   0  0  0  0  0
  -16.0188   10.3724  -15.4461 H   0  0  0  0  0
  -18.0606   17.3467  -13.2399 H   0  0  0  0  0
  -22.7395   17.5396  -13.4690 H   0  0  0  0  0
  -18.4097   13.7485  -13.1059 H   0  0  0  0  0
  -20.3076   18.0760  -13.6196 H   0  0  0  0  0
  2  1  4  0  0  0
  1 10  4  0  0  0
  2  3  1  0  0  0
  9  2  4  0  0  0
  8  4  1  0  0  0
  4 11  1  0  0  0
  4 14  2  0  0  0
  5  6  1  0  0  0
 11  5  1  0  0  0
  6  7  1  0  0  0
 12  8  1  0  0  0
  9 12  4  0  0  0
 10 13  4  0  0  0
 12 13  4  0  0  0
  1 15  1  0  0  0
  3 16  1  0  0  0
  3 17  1  0  0  0
  3 18  1  0  0  0
  5 19  1  0  0  0
  5 20  1  0  0  0
  6 21  1  0  0  0
  6 22  1  0  0  0
  7 23  1  0  0  0
  7 24  1  0  0  0
  7 25  1  0  0  0
  8 26  1  0  0  0
 10 27  1  0  0  0
 11 28  1  0  0  0
 13 29  1  0  0  0
M  END
$$$$
