2i2b_ligand
  -I-interpret- 

 28 30  0  0  0  0  0  0  0  0999 V2000
   19.7790    4.2800    7.8010 N   0  0  0  0  0
   20.0980    5.3930    8.4510 C   0  0  0  0  0
   19.2200    6.3550    8.6680 N   0  0  0  0  0
   17.9650    6.2340    8.2110 C   0  0  0  0  0
   16.9050    7.0300    8.2790 N   0  0  0  0  0
   15.8900    6.4130    7.6560 C   0  0  0  0  0
   16.3050    5.2300    7.1930 N   0  0  0  0  0
   17.5860    5.0880    7.5270 C   0  0  0  0  0
   18.5360    4.0890    7.3290 C   0  0  0  0  0
   18.2410    2.9660    6.6780 N   0  0  0  0  0
   16.8840    8.3770    8.9400 C   0  0  0  0  0
   16.7340    9.4890    7.8850 C   0  0  0  0  0
   15.5200   10.3030    8.3650 C   0  0  0  0  0
   15.4000    9.9120    9.8450 C   0  0  0  0  0
   15.7720    8.5210    9.8630 O   0  0  0  0  0
   17.9230   10.2990    7.8820 O   0  0  0  0  0
   15.7650   11.7210    8.2420 O   0  0  0  0  0
   21.1172    5.5165    8.8171 H   0  0  0  0  0
   14.8827    6.8143    7.5446 H   0  0  0  0  0
   18.9578    2.2538    6.5389 H   0  0  0  0  0
   17.2981    2.8177    6.3183 H   0  0  0  0  0
   17.8252    8.4618    9.4831 H   0  0  0  0  0
   16.5968    9.1120    6.8715 H   0  0  0  0  0
   14.6194   10.1004    7.7854 H   0  0  0  0  0
   14.3974   10.0790   10.2388 H   0  0  0  0  0
   16.0358   10.5204   10.4882 H   0  0  0  0  0
   17.8339   10.9938    7.2255 H   0  0  0  0  0
   14.9944   12.2054    8.5472 H   0  0  0  0  0
  1  2  4  0  0  0
  1  9  4  0  0  0
  2  3  4  0  0  0
  3  4  4  0  0  0
  4  5  4  0  0  0
  4  8  4  0  0  0
  5  6  4  0  0  0
  5 11  1  0  0  0
  6  7  4  0  0  0
  7  8  4  0  0  0
  8  9  4  0  0  0
  9 10  1  0  0  0
 11 12  1  0  0  0
 11 15  1  0  0  0
 12 13  1  0  0  0
 12 16  1  0  0  0
 13 14  1  0  0  0
 13 17  1  0  0  0
 14 15  1  0  0  0
  2 18  1  0  0  0
  6 19  1  0  0  0
 10 20  1  0  0  0
 10 21  1  0  0  0
 11 22  1  0  0  0
 12 23  1  0  0  0
 13 24  1  0  0  0
 14 25  1  0  0  0
 14 26  1  0  0  0
 16 27  1  0  0  0
 17 28  1  0  0  0
M  END
$$$$
