1hkk_ligand
  -I-interpret- 

 87 90  0  0  0  0  0  0  0  0999 V2000
    0.6930   62.5800   -2.8850 C   0  0  0  0  0
   -0.8410   62.7890   -2.9520 C   0  0  0  0  0
   -1.5520   61.4420   -3.1870 C   0  0  0  0  0
   -0.8990   60.6600   -4.3570 C   0  0  0  0  0
    0.6210   60.5090   -4.1230 C   0  0  0  0  0
    1.3280   59.8670   -5.3350 C   0  0  0  0  0
   -1.6410   64.6470   -1.4830 C   0  0  0  0  0
   -2.0710   64.9850   -0.0530 C   0  0  0  0  0
   -1.3050   63.3680   -1.6660 N   0  0  0  0  0
   -1.4840   60.6590   -1.9890 O   0  0  0  0  0
   -1.4910   59.3680   -4.4290 O   0  0  0  0  0
    1.1880   61.8220   -4.0090 O   0  0  0  0  0
    1.3230   60.8050   -6.4400 O   0  0  0  0  0
   -1.6330   65.5090   -2.3620 O   0  0  0  0  0
    5.2220   64.8900   -1.8860 C   0  0  0  0  0
    5.0280   63.3850   -2.1500 C   0  0  0  0  0
    3.7250   63.1440   -2.9480 C   0  0  0  0  0
    2.5380   63.8980   -2.2630 C   0  0  0  0  0
    2.9000   65.3730   -2.1160 C   0  0  0  0  0
    1.7690   66.1190   -1.4310 C   0  0  0  0  0
    7.1340   62.1230   -2.3840 C   0  0  0  0  0
    8.3730   61.7320   -3.2110 C   0  0  0  0  0
    6.2070   62.9250   -2.9210 N   0  0  0  0  0
    3.8980   63.5900   -4.3070 O   0  0  0  0  0
    1.3030   63.8400   -2.9760 O   0  0  0  0  0
    4.0520   65.4940   -1.2880 O   0  0  0  0  0
    2.1090   67.5010   -1.3420 O   0  0  0  0  0
    7.0250   61.7280   -1.2240 O   0  0  0  0  0
    8.5580   67.6390    0.2700 C   0  0  0  0  0
    7.1820   68.3720    0.3020 C   0  0  0  0  0
    6.1470   67.2730    0.0450 C   0  0  0  0  0
    6.8430   66.3050   -0.9120 C   0  0  0  0  0
    8.1940   66.2240   -0.2160 C   0  0  0  0  0
    9.2960   65.5640   -1.0820 C   0  0  0  0  0
    8.1430   68.3670    2.3680 C   0  0  0  0  0
    7.3550   69.4470    4.4150 C   0  0  0  0  0
    9.5360   68.1280    4.3590 C   0  0  0  0  0
    7.1130   68.8400    1.6730 N   0  0  0  0  0
    8.3270   68.6240    3.6710 N   0  0  0  0  0
    4.9740   67.8330   -0.5540 O   0  0  0  0  0
    6.3020   64.9960   -0.9770 O   0  0  0  0  0
    9.5290   66.3560   -2.2650 O   0  0  0  0  0
    8.9970   67.5680    1.6600 O   0  0  0  0  0
    0.9145   62.0497   -1.9588 H   0  0  0  0  0
   -1.0762   63.4627   -3.7759 H   0  0  0  0  0
   -2.5914   61.6394   -3.4491 H   0  0  0  0  0
   -1.0586   61.2056   -5.2870 H   0  0  0  0  0
    0.7558   59.8911   -3.2352 H   0  0  0  0  0
    0.8035   58.9566   -5.6250 H   0  0  0  0  0
    2.3557   59.6185   -5.0702 H   0  0  0  0  0
   -1.4129   65.7544    0.3507 H   0  0  0  0  0
   -3.0978   65.3507   -0.0606 H   0  0  0  0  0
   -2.0074   64.0896    0.5654 H   0  0  0  0  0
   -1.3720   62.7424   -0.8631 H   0  0  0  0  0
   -1.8887   61.1452   -1.2669 H   0  0  0  0  0
   -2.4357   59.4578   -4.5744 H   0  0  0  0  0
    1.7622   60.4091   -7.1963 H   0  0  0  0  0
    5.4054   65.4064   -2.8283 H   0  0  0  0  0
    4.9423   62.8323   -1.2144 H   0  0  0  0  0
    3.4960   62.0784   -2.9599 H   0  0  0  0  0
    2.3895   63.3939   -1.3080 H   0  0  0  0  0
    3.0834   65.7864   -3.1078 H   0  0  0  0  0
    1.6150   65.7139   -0.4309 H   0  0  0  0  0
    0.8511   66.0033   -2.0074 H   0  0  0  0  0
    9.2704   62.1045   -2.7169 H   0  0  0  0  0
    8.4258   60.6464   -3.2928 H   0  0  0  0  0
    8.2966   62.1694   -4.2065 H   0  0  0  0  0
    6.3151   63.2284   -3.8888 H   0  0  0  0  0
    3.0871   63.4384   -4.7980 H   0  0  0  0  0
    1.3966   67.9774   -0.9094 H   0  0  0  0  0
    9.3257   68.1060   -0.3469 H   0  0  0  0  0
    7.0327   69.1845   -0.4090 H   0  0  0  0  0
    5.8220   66.7767    0.9595 H   0  0  0  0  0
    6.7923   66.6470   -1.9457 H   0  0  0  0  0
    8.1205   65.5554    0.6417 H   0  0  0  0  0
    8.9733   64.5650   -1.3753 H   0  0  0  0  0
   10.2180   65.5002   -0.5041 H   0  0  0  0  0
    8.3192   68.8765    3.3154 H   0  0  0  0  0
    7.2956   70.4362    3.9610 H   0  0  0  0  0
    6.3753   68.9704    4.3801 H   0  0  0  0  0
    7.6783   69.5404    5.4518 H   0  0  0  0  0
    9.5667   67.0401    4.2979 H   0  0  0  0  0
   10.4219   68.5453    3.8803 H   0  0  0  0  0
    9.5085   68.4338    5.4049 H   0  0  0  0  0
    6.2445   68.5125    2.0958 H   0  0  0  0  0
    4.3324   67.1363   -0.7107 H   0  0  0  0  0
   10.2125   65.9416   -2.7967 H   0  0  0  0  0
  1  2  1  0  0  0
  1 12  1  0  0  0
 25  1  1  0  0  0
  2  3  1  0  0  0
  2  9  1  0  0  0
  3  4  1  0  0  0
  3 10  1  0  0  0
  5  4  1  0  0  0
  4 11  1  0  0  0
  5  6  1  0  0  0
 12  5  1  0  0  0
  6 13  1  0  0  0
  7  8  1  0  0  0
  9  7  1  0  0  0
  7 14  2  0  0  0
 15 16  1  0  0  0
 15 26  1  0  0  0
 41 15  1  0  0  0
 16 17  1  0  0  0
 16 23  1  0  0  0
 17 18  1  0  0  0
 17 24  1  0  0  0
 19 18  1  0  0  0
 18 25  1  0  0  0
 19 20  1  0  0  0
 26 19  1  0  0  0
 20 27  1  0  0  0
 21 22  1  0  0  0
 23 21  1  0  0  0
 21 28  2  0  0  0
 29 30  1  0  0  0
 33 29  1  0  0  0
 29 43  1  0  0  0
 31 30  1  0  0  0
 30 38  1  0  0  0
 32 31  1  0  0  0
 31 40  1  0  0  0
 32 33  1  0  0  0
 32 41  1  0  0  0
 33 34  1  0  0  0
 34 42  1  0  0  0
 38 35  1  0  0  0
 35 39  1  0  0  0
 35 43  1  0  0  0
 39 36  1  0  0  0
 39 37  1  0  0  0
  1 44  1  0  0  0
  2 45  1  0  0  0
  3 46  1  0  0  0
  4 47  1  0  0  0
  5 48  1  0  0  0
  6 49  1  0  0  0
  6 50  1  0  0  0
  8 51  1  0  0  0
  8 52  1  0  0  0
  8 53  1  0  0  0
  9 54  1  0  0  0
 10 55  1  0  0  0
 11 56  1  0  0  0
 13 57  1  0  0  0
 15 58  1  0  0  0
 16 59  1  0  0  0
 17 60  1  0  0  0
 18 61  1  0  0  0
 19 62  1  0  0  0
 20 63  1  0  0  0
 20 64  1  0  0  0
 22 65  1  0  0  0
 22 66  1  0  0  0
 22 67  1  0  0  0
 23 68  1  0  0  0
 24 69  1  0  0  0
 27 70  1  0  0  0
 29 71  1  0  0  0
 30 72  1  0  0  0
 31 73  1  0  0  0
 32 74  1  0  0  0
 33 75  1  0  0  0
 34 76  1  0  0  0
 34 77  1  0  0  0
 35 78  1  0  0  0
 36 79  1  0  0  0
 36 80  1  0  0  0
 36 81  1  0  0  0
 37 82  1  0  0  0
 37 83  1  0  0  0
 37 84  1  0  0  0
 38 85  1  0  0  0
 40 86  1  0  0  0
 42 87  1  0  0  0
M  END
$$$$
