### 
### Created by X-TOOL on Mon Sep 10 21:12:56 2018
### 

@<TRIPOS>MOLECULE
2j7w_ligand
   13    12     1     0     0
SMALL
GAST_HUCK


@<TRIPOS>ATOM
      1 PG         19.5690   68.4070   13.1810 P.3       1 GTP         0.2231
      2 O1G        19.3460   69.8550   13.5550 O.co2     1 GTP        -0.5731
      3 O2G        18.8920   67.8560   11.9480 O.co2     1 GTP        -0.5731
      4 O3G        21.1640   68.1440   13.1600 O.co2     1 GTP        -0.5731
      5 O3B        19.1390   67.4990   14.4390 O.3       1 GTP        -0.1463
      6 PB         19.0940   65.8820   14.4470 P.3       1 GTP         0.3646
      7 O1B        18.4750   65.3780   13.1640 O.co2     1 GTP        -0.5400
      8 O2B        20.4370   65.3570   14.9200 O.co2     1 GTP        -0.5400
      9 O3A        17.9900   65.6550   15.5940 O.3       1 GTP        -0.1463
     10 PA         16.8050   66.7350   15.7760 P.3       1 GTP         0.2231
     11 O1A        17.4470   67.9020   16.4990 O.co2     1 GTP        -0.5731
     12 O2A        16.3640   67.0410   14.3610 O.co2     1 GTP        -0.5731
     13 O5'        15.7780   65.9950   16.6000 O.co2     1 GTP        -0.5731
@<TRIPOS>BOND
     1    1    2 ar 
     2    1    3 ar 
     3    1    4 ar 
     4    1    5 1  
     5    5    6 1  
     6    6    7 ar 
     7    6    8 ar 
     8    6    9 1  
     9    9   10 1  
    10   10   11 ar 
    11   10   12 ar 
    12   10   13 ar 
@<TRIPOS>SUBSTRUCTURE
     1 GTP         1

