2j7w_ligand
  -I-interpret- 

 18 17  0  0  0  0  0  0  0  0999 V2000
   19.5690   68.4070   13.1810 P   0  0  0  0  0
   19.3460   69.8550   13.5550 O   0  0  0  0  0
   18.8920   67.8560   11.9480 O   0  0  0  0  0
   21.1640   68.1440   13.1600 O   0  0  0  0  0
   19.1390   67.4990   14.4390 O   0  0  0  0  0
   19.0940   65.8820   14.4470 P   0  0  0  0  0
   18.4750   65.3780   13.1640 O   0  0  0  0  0
   20.4370   65.3570   14.9200 O   0  0  0  0  0
   17.9900   65.6550   15.5940 O   0  0  0  0  0
   16.8050   66.7350   15.7760 P   0  0  0  0  0
   17.4470   67.9020   16.4990 O   0  0  0  0  0
   16.3640   67.0410   14.3610 O   0  0  0  0  0
   15.7780   65.9950   16.6000 O   0  0  0  0  0
   19.8371   70.0570   14.3548 H   0  0  0  0  0
   21.5576   68.5070   13.9568 H   0  0  0  0  0
   20.6736   65.7848   15.7462 H   0  0  0  0  0
   18.0856   68.3239   15.9195 H   0  0  0  0  0
   17.0654   67.5096   13.9027 H   0  0  0  0  0
  1  2  1  0  0  0
  1  3  2  0  0  0
  1  4  1  0  0  0
  1  5  1  0  0  0
  5  6  1  0  0  0
  6  7  2  0  0  0
  6  8  1  0  0  0
  6  9  1  0  0  0
  9 10  1  0  0  0
 10 11  1  0  0  0
 10 12  1  0  0  0
 10 13  2  0  0  0
  2 14  1  0  0  0
  4 15  1  0  0  0
  8 16  1  0  0  0
 11 17  1  0  0  0
 12 18  1  0  0  0
M  END
$$$$
