3bg8_ligand
  -I-interpret- 

 25 24  0  0  0  0  0  0  0  0999 V2000
   50.5930   24.8570   11.6280 C   0  0  0  0  0
   50.6080   24.7300   10.4260 O   0  0  0  0  0
   51.0020   23.8640   12.4520 N   0  0  0  0  0
   51.4800   22.6030   11.8750 C   0  0  0  0  0
   50.3110   21.7560   11.3590 C   0  0  0  0  0
   49.3640   21.4900   12.5340 C   0  0  0  0  0
   48.1690   20.6280   12.1230 C   0  0  0  0  0
   48.5680   19.2220   12.0290 N   0  0  0  0  0
   47.6950   18.2860   11.5050 C   0  0  0  0  0
   46.3850   18.6010   11.2230 N   0  0  0  0  0
   48.1090   17.0770   11.2580 N   0  0  0  0  0
   50.2414   25.7944   12.0591 H   0  0  0  0  0
   50.9780   23.9913   13.4637 H   0  0  0  0  0
   52.0039   22.0413   12.6484 H   0  0  0  0  0
   52.1425   22.8299   11.0397 H   0  0  0  0  0
   50.6792   20.8145   10.9515 H   0  0  0  0  0
   49.7852   22.2845   10.5638 H   0  0  0  0  0
   48.9864   22.4481   12.8911 H   0  0  0  0  0
   49.9195   20.9569   13.3056 H   0  0  0  0  0
   47.8060   20.9616   11.1509 H   0  0  0  0  0
   47.3835   20.7266   12.8722 H   0  0  0  0  0
   49.4916   18.9325   12.3507 H   0  0  0  0  0
   45.7637   17.8940   10.8298 H   0  0  0  0  0
   46.0356   19.5414   11.4072 H   0  0  0  0  0
   49.0771   16.8200   11.4509 H   0  0  0  0  0
  1  2  2  0  0  0
  1  3  1  0  0  0
  3  4  1  0  0  0
  4  5  1  0  0  0
  5  6  1  0  0  0
  6  7  1  0  0  0
  7  8  1  0  0  0
  8  9  1  0  0  0
  9 10  1  0  0  0
  9 11  2  0  0  0
  1 12  1  0  0  0
  3 13  1  0  0  0
  4 14  1  0  0  0
  4 15  1  0  0  0
  5 16  1  0  0  0
  5 17  1  0  0  0
  6 18  1  0  0  0
  6 19  1  0  0  0
  7 20  1  0  0  0
  7 21  1  0  0  0
  8 22  1  0  0  0
 10 23  1  0  0  0
 10 24  1  0  0  0
 11 25  1  0  0  0
M  END
$$$$
