2v7d_ligand
  -I-interpret- 

111110  0  0  0  0  0  0  0  0999 V2000
   25.4590   13.1530   35.7410 N   0  3  0  0  0
   26.5500   14.0570   36.2160 C   0  0  0  0  0
   26.4410   15.4350   35.5290 C   0  0  0  0  0
   25.4970   15.6860   34.7690 O   0  0  0  0  0
   27.9200   13.4130   35.9280 C   0  0  0  0  0
   28.2960   13.3410   34.4460 C   0  0  0  0  0
   29.6800   12.7280   34.2420 C   0  0  0  0  0
   30.3620   13.3030   33.0120 C   0  0  0  0  0
   30.7720   14.7220   33.2210 N   0  3  0  0  0
   27.3970   16.3240   35.8030 N   0  0  0  0  0
   27.4050   17.6620   35.2110 C   0  0  0  0  0
   27.6890   17.5910   33.7070 C   0  0  0  0  0
   28.2490   16.6070   33.2270 O   0  0  0  0  0
   28.4550   18.5180   35.9110 C   0  0  0  0  0
   28.3090   18.4240   37.3210 O   0  0  0  0  0
   27.3140   18.6260   32.9620 N   0  0  0  0  0
   27.5250   18.6230   31.5190 C   0  0  0  0  0
   28.8760   19.1730   31.1450 C   0  0  0  0  0
   29.4990   19.8610   31.9420 O   0  0  0  0  0
   26.4530   19.4290   30.8410 C   0  0  0  0  0
   29.3140   18.8740   29.9230 N   0  0  0  0  0
   30.6040   19.3410   29.4030 C   0  0  0  0  0
   31.7690   18.4600   29.9070 C   0  0  0  0  0
   32.0310   18.6790   31.3980 C   0  0  0  0  0
   31.4610   17.0890   29.6470 O   0  0  0  0  0
   32.5610   15.9440   29.9090 P   0  0  0  0  0
   32.4160   15.2670   31.2180 O   0  0  0  0  0
   32.4340   14.9260   28.6680 O   0  0  0  0  0
   33.9910   16.6600   29.7380 O   0  0  0  0  0
   30.6150   19.3890   27.8560 C   0  0  0  0  0
   29.6950   18.8870   27.2120 O   0  0  0  0  0
   31.6480   19.9970   27.2680 N   0  0  0  0  0
   31.7590   20.1040   25.8100 C   0  0  0  0  0
   31.4260   18.7870   25.1260 C   0  0  0  0  0
   31.4770   17.7330   25.7530 O   0  0  0  0  0
   33.1790   20.5330   25.3870 C   0  0  0  0  0
   33.4500   21.8390   25.9090 O   0  0  0  0  0
   33.3130   20.5670   23.8630 C   0  0  0  0  0
   31.1010   18.8420   23.8370 N   0  0  0  0  0
   30.7430   17.6290   23.1050 C   0  0  0  0  0
   31.2590   17.5310   21.6680 C   0  0  0  0  0
   32.1980   16.7860   21.3740 O   0  0  0  0  0
   29.2200   17.4650   23.0510 C   0  0  0  0  0
   28.6460   18.6280   22.4450 O   0  0  0  0  0
   28.6520   17.2940   24.4420 C   0  0  0  0  0
   30.6130   18.2650   20.7690 N   0  0  0  0  0
   30.9900   18.2490   19.3630 C   0  0  0  0  0
   31.5230   19.6250   18.9600 C   0  0  0  0  0
   31.6050   20.5020   19.8500 O   0  0  0  0  0
   29.7680   17.8630   18.4750 C   0  0  0  0  0
   30.2140   17.5260   17.0590 C   0  0  0  0  0
   29.0490   16.6760   19.0860 C   0  0  0  0  0
   31.8640   19.8050   17.7700 N   0  0  0  0  0
   24.5545   13.5833   35.9337 H   0  0  0  0  0
   25.5577   13.0012   34.7372 H   0  0  0  0  0
   25.5227   12.2596   36.2290 H   0  0  0  0  0
   26.4500   14.2043   37.2914 H   0  0  0  0  0
   27.8704   12.3869   36.2923 H   0  0  0  0  0
   28.6709   14.0349   36.4153 H   0  0  0  0  0
   28.3075   14.3547   34.0455 H   0  0  0  0  0
   27.5646   12.7135   33.9367 H   0  0  0  0  0
   29.5667   11.6526   34.1053 H   0  0  0  0  0
   30.2918   12.9535   35.1155 H   0  0  0  0  0
   29.6577   13.2679   32.1809 H   0  0  0  0  0
   31.2560   12.7137   32.8080 H   0  0  0  0  0
   31.2246   15.0718   32.3765 H   0  0  0  0  0
   29.9472   15.2865   33.4248 H   0  0  0  0  0
   31.4235   14.7746   34.0041 H   0  0  0  0  0
   28.1454   16.0630   36.4450 H   0  0  0  0  0
   26.4222   18.1141   35.3444 H   0  0  0  0  0
   28.3256   19.5572   35.6087 H   0  0  0  0  0
   29.4470   18.1628   35.6318 H   0  0  0  0  0
   28.9757   18.9673   37.7475 H   0  0  0  0  0
   26.8733   19.4322   33.4050 H   0  0  0  0  0
   27.4801   17.5860   31.1862 H   0  0  0  0  0
   25.4784   18.9940   31.0624 H   0  0  0  0  0
   26.4858   20.4553   31.2067 H   0  0  0  0  0
   26.6200   19.4202   29.7639 H   0  0  0  0  0
   28.7269   18.2951   29.3226 H   0  0  0  0  0
   30.7436   20.3542   29.7798 H   0  0  0  0  0
   32.6784   18.7403   29.3754 H   0  0  0  0  0
   32.2875   19.7242   31.5708 H   0  0  0  0  0
   31.1349   18.4250   31.9642 H   0  0  0  0  0
   32.8567   18.0433   31.7177 H   0  0  0  0  0
   32.5347   15.4113   27.8459 H   0  0  0  0  0
   34.0352   17.0825   28.8771 H   0  0  0  0  0
   32.3822   20.3992   27.8507 H   0  0  0  0  0
   31.0405   20.8625   25.4995 H   0  0  0  0  0
   33.8907   19.8080   25.7819 H   0  0  0  0  0
   34.3332   22.1098   25.6479 H   0  0  0  0  0
   33.1134   19.5742   23.4598 H   0  0  0  0  0
   32.5963   21.2782   23.4523 H   0  0  0  0  0
   34.3244   20.8727   23.5952 H   0  0  0  0  0
   31.1017   19.7407   23.3545 H   0  0  0  0  0
   31.2358   16.8395   23.6723 H   0  0  0  0  0
   28.9810   16.5772   22.4655 H   0  0  0  0  0
   27.6917   18.5305   22.4086 H   0  0  0  0  0
   29.0865   16.4076   24.9041 H   0  0  0  0  0
   28.8916   18.1723   25.0414 H   0  0  0  0  0
   27.5698   17.1793   24.3796 H   0  0  0  0  0
   29.8357   18.8527   21.0704 H   0  0  0  0  0
   31.7709   17.5034   19.2136 H   0  0  0  0  0
   29.0896   18.7148   18.4273 H   0  0  0  0  0
   30.7090   18.3920   16.6196 H   0  0  0  0  0
   30.9075   16.6855   17.0882 H   0  0  0  0  0
   29.3438   17.2600   16.4590 H   0  0  0  0  0
   29.7339   15.8303   19.1476 H   0  0  0  0  0
   28.7024   16.9380   20.0856 H   0  0  0  0  0
   28.1957   16.4094   18.4624 H   0  0  0  0  0
   32.2344   20.7090   17.4768 H   0  0  0  0  0
   31.7716   19.0478   17.0929 H   0  0  0  0  0
  1  2  1  0  0  0
  2  3  1  0  0  0
  2  5  1  0  0  0
  3  4  2  0  0  0
  3 10  1  0  0  0
  5  6  1  0  0  0
  6  7  1  0  0  0
  7  8  1  0  0  0
  8  9  1  0  0  0
 10 11  1  0  0  0
 11 12  1  0  0  0
 11 14  1  0  0  0
 12 13  2  0  0  0
 12 16  1  0  0  0
 14 15  1  0  0  0
 16 17  1  0  0  0
 17 18  1  0  0  0
 17 20  1  0  0  0
 18 19  2  0  0  0
 18 21  1  0  0  0
 21 22  1  0  0  0
 22 23  1  0  0  0
 22 30  1  0  0  0
 23 24  1  0  0  0
 23 25  1  0  0  0
 25 26  1  0  0  0
 26 27  2  0  0  0
 26 28  1  0  0  0
 26 29  1  0  0  0
 30 31  2  0  0  0
 30 32  1  0  0  0
 32 33  1  0  0  0
 33 34  1  0  0  0
 33 36  1  0  0  0
 34 35  2  0  0  0
 34 39  1  0  0  0
 36 37  1  0  0  0
 36 38  1  0  0  0
 39 40  1  0  0  0
 40 41  1  0  0  0
 40 43  1  0  0  0
 41 42  2  0  0  0
 41 46  1  0  0  0
 43 44  1  0  0  0
 43 45  1  0  0  0
 46 47  1  0  0  0
 47 48  1  0  0  0
 47 50  1  0  0  0
 48 49  2  0  0  0
 48 53  1  0  0  0
 50 51  1  0  0  0
 50 52  1  0  0  0
  1 54  1  0  0  0
  1 55  1  0  0  0
  1 56  1  0  0  0
  2 57  1  0  0  0
  5 58  1  0  0  0
  5 59  1  0  0  0
  6 60  1  0  0  0
  6 61  1  0  0  0
  7 62  1  0  0  0
  7 63  1  0  0  0
  8 64  1  0  0  0
  8 65  1  0  0  0
  9 66  1  0  0  0
  9 67  1  0  0  0
  9 68  1  0  0  0
 10 69  1  0  0  0
 11 70  1  0  0  0
 14 71  1  0  0  0
 14 72  1  0  0  0
 15 73  1  0  0  0
 16 74  1  0  0  0
 17 75  1  0  0  0
 20 76  1  0  0  0
 20 77  1  0  0  0
 20 78  1  0  0  0
 21 79  1  0  0  0
 22 80  1  0  0  0
 23 81  1  0  0  0
 24 82  1  0  0  0
 24 83  1  0  0  0
 24 84  1  0  0  0
 28 85  1  0  0  0
 29 86  1  0  0  0
 32 87  1  0  0  0
 33 88  1  0  0  0
 36 89  1  0  0  0
 37 90  1  0  0  0
 38 91  1  0  0  0
 38 92  1  0  0  0
 38 93  1  0  0  0
 39 94  1  0  0  0
 40 95  1  0  0  0
 43 96  1  0  0  0
 44 97  1  0  0  0
 45 98  1  0  0  0
 45 99  1  0  0  0
 45100  1  0  0  0
 46101  1  0  0  0
 47102  1  0  0  0
 50103  1  0  0  0
 51104  1  0  0  0
 51105  1  0  0  0
 51106  1  0  0  0
 52107  1  0  0  0
 52108  1  0  0  0
 52109  1  0  0  0
 53110  1  0  0  0
 53111  1  0  0  0
M  END
$$$$
