### 
### Created by X-TOOL on Mon Sep 10 21:12:59 2018
### 

@<TRIPOS>MOLECULE
2v7d_ligand
  109   108     1     0     0
SMALL
GAST_HUCK


@<TRIPOS>ATOM
      1 N          25.4590   13.1530   35.7410 N.4       1 LYS         0.2379
      2 CA         26.5500   14.0570   36.2160 C.3       1 LYS         0.0650
      3 C          26.4410   15.4350   35.5290 C.2       1 LYS         0.2268
      4 O          25.4970   15.6860   34.7690 O.2       1 LYS        -0.3907
      5 CB         27.9200   13.4130   35.9280 C.3       1 LYS         0.0080
      6 CG         28.2960   13.3410   34.4460 C.3       1 LYS        -0.0410
      7 CD         29.6800   12.7280   34.2420 C.3       1 LYS        -0.0123
      8 CE         30.3620   13.3030   33.0120 C.3       1 LYS        -0.0354
      9 NZ         30.7720   14.7220   33.2210 N.4       1 LYS         0.2185
     10 N          27.3970   16.3240   35.8030 N.am      1 SER        -0.2589
     11 CA         27.4050   17.6620   35.2110 C.3       1 SER         0.1540
     12 C          27.6890   17.5910   33.7070 C.2       1 SER         0.2062
     13 O          28.2490   16.6070   33.2270 O.2       1 SER        -0.3943
     14 CB         28.4550   18.5180   35.9110 C.3       1 SER         0.0843
     15 OG         28.3090   18.4240   37.3210 O.3       1 SER        -0.3903
     16 N          27.3140   18.6260   32.9620 N.am      1 ALA        -0.2639
     17 CA         27.5250   18.6230   31.5190 C.3       1 ALA         0.1282
     18 C          28.8760   19.1730   31.1450 C.2       1 ALA         0.2037
     19 O          29.4990   19.8610   31.9420 O.2       1 ALA        -0.3944
     20 CB         26.4530   19.4290   30.8410 C.3       1 ALA        -0.0244
     21 N          29.3140   18.8740   29.9230 N.am      1 TPO        -0.2611
     22 CA         30.6040   19.3410   29.4030 C.3       1 TPO         0.1612
     23 CB         31.7690   18.4600   29.9070 C.3       1 TPO         0.1262
     24 CG2        32.0310   18.6790   31.3980 C.3       1 TPO        -0.0298
     25 OG1        31.4610   17.0890   29.6470 O.3       1 TPO        -0.2685
     26 P          32.5610   15.9440   29.9090 P.3       1 TPO         0.2014
     27 O1P        32.4160   15.2670   31.2180 O.co2     1 TPO        -0.5537
     28 O2P        32.4340   14.9260   28.6680 O.co2     1 TPO        -0.5537
     29 O3P        33.9910   16.6600   29.7380 O.co2     1 TPO        -0.5537
     30 C          30.6150   19.3890   27.8560 C.2       1 TPO         0.2069
     31 O          29.6950   18.8870   27.2120 O.2       1 TPO        -0.3943
     32 N          31.6480   19.9970   27.2680 N.am      1 THR        -0.2613
     33 CA         31.7590   20.1040   25.8100 C.3       1 THR         0.1565
     34 C          31.4260   18.7870   25.1260 C.2       1 THR         0.2065
     35 O          31.4770   17.7330   25.7530 O.2       1 THR        -0.3943
     36 CB         33.1790   20.5330   25.3870 C.3       1 THR         0.0924
     37 OG1        33.4500   21.8390   25.9090 O.3       1 THR        -0.3874
     38 CG2        33.3130   20.5670   23.8630 C.3       1 THR        -0.0346
     39 N          31.1010   18.8420   23.8370 N.am      1 THR        -0.2613
     40 CA         30.7430   17.6290   23.1050 C.3       1 THR         0.1565
     41 C          31.2590   17.5310   21.6680 C.2       1 THR         0.2065
     42 O          32.1980   16.7860   21.3740 O.2       1 THR        -0.3943
     43 CB         29.2200   17.4650   23.0510 C.3       1 THR         0.0924
     44 OG1        28.6460   18.6280   22.4450 O.3       1 THR        -0.3874
     45 CG2        28.6520   17.2940   24.4420 C.3       1 THR        -0.0346
     46 N          30.6130   18.2650   20.7690 N.am      1 VAL        -0.2634
     47 CA         30.9900   18.2490   19.3630 C.3       1 VAL         0.1329
     48 C          31.5230   19.6250   18.9600 C.2       1 VAL         0.1994
     49 O          31.6050   20.5020   19.8500 O.2       1 VAL        -0.3947
     50 CB         29.7680   17.8630   18.4750 C.3       1 VAL        -0.0063
     51 CG1        30.2140   17.5260   17.0590 C.3       1 VAL        -0.0584
     52 CG2        29.0490   16.6760   19.0860 C.3       1 VAL        -0.0584
     53 N          31.8640   19.8050   17.7700 N.am      1 MET        -0.2990
     54 H1         25.5420   12.2579   36.1970 H         1 LYS         0.2015
     55 H2         25.5348   13.0302   34.7434 H         1 LYS         0.2015
     56 H3         24.5643   13.5611   35.9623 H         1 LYS         0.2015
     57 H4         26.4468   14.1970   37.3021 H         1 LYS         0.1098
     58 H5         27.9075   12.3884   36.3281 H         1 LYS         0.0346
     59 H6         28.6906   14.0005   36.4485 H         1 LYS         0.0346
     60 H7         28.2918   14.3583   34.0276 H         1 LYS         0.0270
     61 H8         27.5524   12.7248   33.9193 H         1 LYS         0.0270
     62 H9         29.5754   11.6400   34.1181 H         1 LYS         0.0317
     63 H10        30.2992   12.9385   35.1264 H         1 LYS         0.0317
     64 H11        29.6648   13.2549   32.1626 H         1 LYS         0.0813
     65 H12        31.2561   12.7031   32.7870 H         1 LYS         0.0813
     66 H13        31.2195   15.0687   32.3870 H         1 LYS         0.1994
     67 H14        31.4159   14.7753   33.9947 H         1 LYS         0.1994
     68 H15        29.9577   15.2809   33.4225 H         1 LYS         0.1994
     69 H16        28.1308   16.0681   36.4324 H         1 SER         0.1885
     70 H17        26.4162   18.1206   35.3593 H         1 SER         0.0823
     71 H18        28.3322   19.5668   35.6028 H         1 SER         0.0606
     72 H19        29.4578   18.1671   35.6261 H         1 SER         0.0606
     73 H20        28.4167   17.5192   37.5898 H         1 SER         0.2097
     74 H21        26.8819   19.4164   33.3963 H         1 ALA         0.1883
     75 H22        27.4638   17.5836   31.1642 H         1 ALA         0.0797
     76 H23        26.6205   19.4209   29.7539 H         1 ALA         0.0277
     77 H24        26.4851   20.4651   31.2091 H         1 ALA         0.0277
     78 H25        25.4688   18.9910   31.0636 H         1 ALA         0.0277
     79 H26        28.7384   18.3064   29.3343 H         1 TPO         0.1884
     80 H27        30.7638   20.3635   29.7758 H         1 TPO         0.0830
     81 H28        32.6797   18.7303   29.3524 H         1 TPO         0.0695
     82 H29        32.8641   18.0379   31.7219 H         1 TPO         0.0260
     83 H30        31.1273   18.4230   31.9706 H         1 TPO         0.0260
     84 H31        32.2900   19.7335   31.5738 H         1 TPO         0.0260
     85 H32        32.3678   20.3913   27.8393 H         1 THR         0.1884
     86 H33        31.0444   20.8673   25.4684 H         1 THR         0.0826
     87 H34        33.9070   19.8168   25.7957 H         1 THR         0.0639
     88 H35        34.3240   22.1070   25.6506 H         1 THR         0.2101
     89 H36        34.3334   20.8754   23.5915 H         1 THR         0.0257
     90 H37        32.5903   21.2845   23.4473 H         1 THR         0.0257
     91 H38        33.1118   19.5656   23.4548 H         1 THR         0.0257
     92 H39        31.1017   19.7230   23.3639 H         1 THR         0.1884
     93 H40        31.1669   16.7828   23.6656 H         1 THR         0.0826
     94 H41        28.9729   16.5781   22.4490 H         1 THR         0.0639
     95 H42        27.7016   18.5316   22.4090 H         1 THR         0.2101
     96 H43        27.5599   17.1782   24.3804 H         1 THR         0.0257
     97 H44        28.8931   18.1798   25.0480 H         1 THR         0.0257
     98 H45        29.0897   16.3996   24.9094 H         1 THR         0.0257
     99 H46        29.8510   18.8412   21.0645 H         1 VAL         0.1883
    100 H47        31.7838   17.5018   19.2159 H         1 VAL         0.0802
    101 H48        29.0763   18.7173   18.4336 H         1 VAL         0.0343
    102 H49        29.3366   17.2574   16.4524 H         1 VAL         0.0234
    103 H50        30.9139   16.6779   17.0871 H         1 VAL         0.0234
    104 H51        30.7137   18.3992   16.6143 H         1 VAL         0.0234
    105 H52        28.7301   16.9271   20.1084 H         1 VAL         0.0234
    106 H53        29.7284   15.8114   19.1158 H         1 VAL         0.0234
    107 H54        28.1669   16.4285   18.4772 H         1 VAL         0.0234
    108 H55        32.2158   20.6950   17.4798 H         1 MET         0.1815
    109 H56        31.7848   19.0589   17.1089 H         1 MET         0.1815
@<TRIPOS>BOND
     1    1    2 1  
     2    2    3 1  
     3    2    5 1  
     4    3    4 2  
     5    3   10 am 
     6    5    6 1  
     7    6    7 1  
     8    7    8 1  
     9    8    9 1  
    10   10   11 1  
    11   11   12 1  
    12   11   14 1  
    13   12   13 2  
    14   12   16 am 
    15   14   15 1  
    16   16   17 1  
    17   17   18 1  
    18   17   20 1  
    19   18   19 2  
    20   18   21 am 
    21   21   22 1  
    22   22   23 1  
    23   22   30 1  
    24   23   24 1  
    25   23   25 1  
    26   25   26 1  
    27   26   27 ar 
    28   26   28 ar 
    29   26   29 ar 
    30   30   31 2  
    31   30   32 am 
    32   32   33 1  
    33   33   34 1  
    34   33   36 1  
    35   34   35 2  
    36   34   39 am 
    37   36   37 1  
    38   36   38 1  
    39   39   40 1  
    40   40   41 1  
    41   40   43 1  
    42   41   42 2  
    43   41   46 am 
    44   43   44 1  
    45   43   45 1  
    46   46   47 1  
    47   47   48 1  
    48   47   50 1  
    49   48   49 2  
    50   48   53 am 
    51   50   51 1  
    52   50   52 1  
    53    1   54 1  
    54    1   55 1  
    55    1   56 1  
    56    2   57 1  
    57    5   58 1  
    58    5   59 1  
    59    6   60 1  
    60    6   61 1  
    61    7   62 1  
    62    7   63 1  
    63    8   64 1  
    64    8   65 1  
    65    9   66 1  
    66    9   67 1  
    67    9   68 1  
    68   10   69 1  
    69   11   70 1  
    70   14   71 1  
    71   14   72 1  
    72   15   73 1  
    73   16   74 1  
    74   17   75 1  
    75   20   76 1  
    76   20   77 1  
    77   20   78 1  
    78   21   79 1  
    79   22   80 1  
    80   23   81 1  
    81   24   82 1  
    82   24   83 1  
    83   24   84 1  
    84   32   85 1  
    85   33   86 1  
    86   36   87 1  
    87   37   88 1  
    88   38   89 1  
    89   38   90 1  
    90   38   91 1  
    91   39   92 1  
    92   40   93 1  
    93   43   94 1  
    94   44   95 1  
    95   45   96 1  
    96   45   97 1  
    97   45   98 1  
    98   46   99 1  
    99   47  100 1  
   100   50  101 1  
   101   51  102 1  
   102   51  103 1  
   103   51  104 1  
   104   52  105 1  
   105   52  106 1  
   106   52  107 1  
   107   53  108 1  
   108   53  109 1  
@<TRIPOS>SUBSTRUCTURE
     1 LYS         1

