3bet_ligand
  -I-interpret- 

 56 59  0  0  0  0  0  0  0  0999 V2000
   -4.4080    2.6770   14.5810 C   0  0  0  0  0
   -6.8790    1.2400   16.3670 O   0  0  0  0  0
   -4.5970    1.6080   17.2620 O   0  0  0  0  0
   -5.1710    3.8760   14.6790 C   0  0  0  0  0
   -4.5390    5.0890   14.3360 C   0  0  0  0  0
   -3.1680    5.1750   13.8930 C   0  0  0  0  0
   -5.4840    0.9790   16.3420 S   0  0  0  0  0
   -5.2610   -0.5800   16.3840 N   0  0  0  0  0
   -5.0280    1.4330   14.8830 O   0  0  0  0  0
   -2.4330    3.9510   13.8200 C   0  0  0  0  0
   -3.0490    2.7230   14.1560 C   0  0  0  0  0
   -6.4900    3.9680   15.0750 O   0  0  0  0  0
   -6.8080    4.3590   16.4060 C   0  0  0  0  0
   -2.5450    6.5110   13.4940 C   0  0  0  0  0
   -0.9610    6.4820   13.5260 C   0  0  0  0  0
   -0.4680    5.2600   12.7240 C   0  0  0  0  0
   -0.9740    3.9310   13.3540 C   0  0  0  0  0
   -3.1340    7.6950   14.3210 C   0  0  0  0  0
   -2.5530    9.0820   13.9080 C   0  0  0  0  0
   -1.0300    9.1110   13.8770 C   0  0  0  0  0
   -0.5160    7.8900   13.0240 C   0  0  0  0  0
   -0.5070    9.1600   15.3370 C   0  0  0  0  0
   -0.3620   10.1910   12.9460 C   0  0  0  0  0
    1.0720    9.7350   12.8200 C   0  0  0  0  0
    0.9990    8.2010   12.8830 C   0  0  0  0  0
   -0.3800   11.5900   13.5030 C   0  0  0  0  0
   -1.6340   12.3280   13.1810 C   0  0  0  0  0
   -2.6060   12.8820   12.9830 N   0  0  0  0  0
   -5.1165    6.0106   14.4093 H   0  0  0  0  0
   -6.0630   -1.2091   16.4220 H   0  0  0  0  0
   -4.3146   -0.9603   16.3732 H   0  0  0  0  0
   -2.4757    1.7984   14.0888 H   0  0  0  0  0
   -6.3710    3.6475   17.1066 H   0  0  0  0  0
   -6.4049    5.3535   16.5973 H   0  0  0  0  0
   -7.8908    4.3745   16.5299 H   0  0  0  0  0
   -2.8195    6.6828   12.4532 H   0  0  0  0  0
   -0.5113    6.3352   14.5080 H   0  0  0  0  0
    0.6220    5.2556   12.7322 H   0  0  0  0  0
   -0.8550    5.3322   11.7076 H   0  0  0  0  0
   -0.9011    3.1674   12.5796 H   0  0  0  0  0
   -0.3633    3.7490   14.2383 H   0  0  0  0  0
   -2.8769    7.5274   15.3669 H   0  0  0  0  0
   -4.2089    7.7206   14.1417 H   0  0  0  0  0
   -2.8818    9.8111   14.6485 H   0  0  0  0  0
   -2.9077    9.3016   12.9010 H   0  0  0  0  0
   -0.9790    7.7979   12.0415 H   0  0  0  0  0
   -0.8863   10.0565   15.8275 H   0  0  0  0  0
   -0.8514    8.2767   15.8748 H   0  0  0  0  0
    0.5828    9.1812   15.3307 H   0  0  0  0  0
   -0.9115   10.2540   12.0067 H   0  0  0  0  0
    1.7007   10.1455   13.6101 H   0  0  0  0  0
    1.5302   10.0832   11.8943 H   0  0  0  0  0
    1.4314    7.7345   11.9979 H   0  0  0  0  0
    1.5781    7.7980   13.7138 H   0  0  0  0  0
    0.4510   12.1362   13.0566 H   0  0  0  0  0
   -0.3068   11.5167   14.5881 H   0  0  0  0  0
  1  4  4  0  0  0
  9  1  1  0  0  0
  1 11  4  0  0  0
  7  2  2  0  0  0
  7  3  2  0  0  0
  4  5  4  0  0  0
  4 12  1  0  0  0
  5  6  4  0  0  0
  6 10  4  0  0  0
  6 14  1  0  0  0
  7  8  1  0  0  0
  7  9  1  0  0  0
 10 11  4  0  0  0
 10 17  1  0  0  0
 12 13  1  0  0  0
 14 15  1  0  0  0
 14 18  1  0  0  0
 15 16  1  0  0  0
 15 21  1  0  0  0
 16 17  1  0  0  0
 18 19  1  0  0  0
 19 20  1  0  0  0
 20 21  1  0  0  0
 20 22  1  0  0  0
 20 23  1  0  0  0
 21 25  1  0  0  0
 23 24  1  0  0  0
 23 26  1  0  0  0
 24 25  1  0  0  0
 26 27  1  0  0  0
 27 28  3  0  0  0
  5 29  1  0  0  0
  8 30  1  0  0  0
  8 31  1  0  0  0
 11 32  1  0  0  0
 13 33  1  0  0  0
 13 34  1  0  0  0
 13 35  1  0  0  0
 14 36  1  0  0  0
 15 37  1  0  0  0
 16 38  1  0  0  0
 16 39  1  0  0  0
 17 40  1  0  0  0
 17 41  1  0  0  0
 18 42  1  0  0  0
 18 43  1  0  0  0
 19 44  1  0  0  0
 19 45  1  0  0  0
 21 46  1  0  0  0
 22 47  1  0  0  0
 22 48  1  0  0  0
 22 49  1  0  0  0
 23 50  1  0  0  0
 24 51  1  0  0  0
 24 52  1  0  0  0
 25 53  1  0  0  0
 25 54  1  0  0  0
 26 55  1  0  0  0
 26 56  1  0  0  0
M  END
$$$$
