3hs9_ligand
  -I-interpret- 

171176  0  0  0  0  0  0  0  0999 V2000
  -11.4440   -1.2840   -4.5010 N   0  3  0  0  0
  -10.4260   -2.0540   -3.7390 C   0  0  0  0  0
   -9.8230   -3.1650   -4.5900 C   0  0  0  0  0
  -10.5260   -4.0880   -5.0290 O   0  0  0  0  0
  -11.0110   -2.5780   -2.4280 C   0  0  0  0  0
  -11.2910   -1.4530   -1.4200 C   0  0  0  0  0
  -11.4620   -1.7040   -0.2160 O   0  0  0  0  0
  -11.3260   -0.2080   -1.9070 N   0  0  0  0  0
   -8.5040   -3.0550   -4.7840 N   0  0  0  0  0
   -7.7680   -3.6750   -5.8970 C   0  0  0  0  0
   -6.5840   -4.5560   -5.5060 C   0  0  0  0  0
   -5.4810   -4.4300   -6.0480 O   0  0  0  0  0
   -7.2550   -2.5770   -6.8280 C   0  0  0  0  0
   -8.3560   -1.9360   -7.6310 C   0  0  0  0  0
   -9.2670   -2.6160   -8.1290 O   0  0  0  0  0
   -8.2820   -0.6140   -7.7720 N   0  0  0  0  0
   -6.8280   -5.4730   -4.5910 N   0  0  0  0  0
   -5.7690   -6.2810   -4.0280 C   0  0  0  0  0
   -5.2480   -7.3800   -4.9690 C   0  0  0  0  0
   -4.1860   -7.9750   -4.7170 O   0  0  0  0  0
   -6.2610   -6.8820   -2.7080 C   0  0  0  0  0
   -7.5780   -7.6080   -2.8280 C   0  0  0  0  0
   -8.8240   -7.0950   -2.6080 C   0  0  0  0  0
   -7.7680   -8.9770   -3.2030 C   0  0  0  0  0
   -9.7750   -8.0630   -2.8210 N   0  0  0  0  0
   -9.1500   -9.2270   -3.1840 C   0  0  0  0  0
   -6.9010  -10.0160   -3.5520 C   0  0  0  0  0
   -9.6790  -10.4660   -3.4920 C   0  0  0  0  0
   -7.4300  -11.2380   -3.8660 C   0  0  0  0  0
   -8.8050  -11.4580   -3.8290 C   0  0  0  0  0
   -5.9910   -7.6510   -6.0420 N   0  0  0  0  0
   -5.7060   -8.8180   -6.8910 C   0  0  0  0  0
   -4.7130   -8.4940   -8.0150 C   0  0  0  0  0
   -4.6250   -7.3420   -8.4590 O   0  0  0  0  0
   -7.0000   -9.3860   -7.4590 C   0  0  0  0  0
   -3.9690   -9.5060   -8.4660 N   0  0  0  0  0
   -3.0490   -9.3240   -9.5920 C   0  0  0  0  0
   -3.6680   -9.7080  -10.9260 C   0  0  0  0  0
   -4.3790   -8.8960  -11.5300 O   0  0  0  0  0
   -1.7180  -10.0520   -9.3880 C   0  0  0  0  0
   -0.5390   -9.2740   -9.9820 C   0  0  0  0  0
    0.5840   -9.3650   -9.4210 O   0  0  0  0  0
   -0.7370   -8.5520  -10.9950 O   0  0  0  0  0
   -3.4170  -10.9490  -11.3580 N   0  0  0  0  0
   -3.7690  -11.4360  -12.7090 C   0  0  0  0  0
   -3.0050  -10.6630  -13.7810 C   0  0  0  0  0
   -3.5500   -9.7570  -14.4390 O   0  0  0  0  0
   -5.2770  -11.3610  -13.0200 C   0  0  0  0  0
   -6.1590  -12.0610  -12.0280 C   0  0  0  0  0
   -6.2200  -13.4490  -11.9860 C   0  0  0  0  0
   -6.9680  -11.3220  -11.1670 C   0  0  0  0  0
   -7.0420  -14.0810  -11.0860 C   0  0  0  0  0
   -7.7960  -11.9550  -10.2620 C   0  0  0  0  0
   -7.8350  -13.3270  -10.2260 C   0  0  0  0  0
   -1.7360  -11.0250  -13.9380 N   0  0  0  0  0
   -0.8780  -10.4300  -14.9490 C   0  0  0  0  0
   -0.6700  -11.4580  -16.0570 C   0  0  0  0  0
   -0.5290  -12.6580  -15.7820 O   0  0  0  0  0
    0.4470   -9.9860  -14.3270 C   0  0  0  0  0
    1.3530   -9.4950  -15.3040 O   0  0  0  0  0
   -0.6740  -10.9680  -17.3020 N   0  0  0  0  0
   -0.6470  -11.7970  -18.5260 C   0  0  0  0  0
    0.7640  -12.3330  -18.8810 C   0  0  0  0  0
    0.9170  -13.2820  -19.6770 O   0  0  0  0  0
   -1.2940  -11.0300  -19.7000 C   0  0  0  0  0
   -1.2790   -9.6140  -19.4720 O   0  0  0  0  0
    1.7820  -11.7010  -18.2950 N   0  0  0  0  0
    3.1330  -12.2860  -18.1660 C   0  0  0  0  0
    3.4470  -12.3150  -16.6480 C   0  0  0  0  0
    2.8960  -11.4710  -15.9010 O   0  0  0  0  0
    4.1760  -11.4530  -18.9220 C   0  0  0  0  0
    5.4980  -11.8440  -18.4970 O   0  0  0  0  0
    3.9340   -9.9270  -18.6820 C   0  0  0  0  0
    4.2780  -13.2460  -16.1790 N   0  0  0  0  0
    4.2930  -13.5090  -14.7590 C   0  0  0  0  0
    5.4450  -14.3520  -14.1510 C   0  0  0  0  0
    5.6270  -14.3860  -12.9520 O   0  0  0  0  0
    3.0140  -14.2570  -14.5150 C   0  0  0  0  0
    3.1140  -15.4650  -15.2230 C   0  0  0  0  0
    3.7300  -15.6390  -16.3780 C   0  0  0  0  0
    2.6610  -16.7350  -14.8050 C   0  0  0  0  0
    3.6820  -16.9490  -16.7560 N   0  0  0  0  0
    3.0200  -17.6440  -15.7910 C   0  0  0  0  0
    1.9740  -17.1930  -13.6910 C   0  0  0  0  0
    2.7160  -18.9740  -15.7030 C   0  0  0  0  0
    1.6800  -18.5020  -13.6040 C   0  0  0  0  0
    2.0390  -19.3830  -14.6040 C   0  0  0  0  0
    6.2010  -15.0200  -15.0170 N   0  0  0  0  0
    7.3220  -15.8550  -14.5760 C   0  0  0  0  0
    8.0970  -15.2060  -13.4340 C   0  0  0  0  0
    9.0360  -15.8190  -12.9250 O   0  0  0  0  0
    8.2010  -15.9400  -15.8250 C   0  0  0  0  0
    7.9130  -14.6830  -16.5660 C   0  0  0  0  0
    6.4620  -14.3830  -16.3200 C   0  0  0  0  0
    7.7650  -14.0850  -13.0480 O   0  0  0  0  0
  -11.0317   -0.9450   -5.3702 H   0  0  0  0  0
  -12.2376   -1.8888   -4.7129 H   0  0  0  0  0
  -11.7588   -0.4918   -3.9409 H   0  0  0  0  0
   -9.6091   -1.3805   -3.4798 H   0  0  0  0  0
  -10.2841   -3.2569   -1.9821 H   0  0  0  0  0
  -11.9565   -3.0710   -2.6540 H   0  0  0  0  0
  -11.4984    0.5794   -1.2820 H   0  0  0  0  0
  -11.1803   -0.0459   -2.9034 H   0  0  0  0  0
   -7.9708   -2.5022   -4.1128 H   0  0  0  0  0
   -8.4892   -4.3393   -6.3731 H   0  0  0  0  0
   -6.5519   -3.0312   -7.5262 H   0  0  0  0  0
   -6.7953   -1.8036   -6.2126 H   0  0  0  0  0
   -8.9937   -0.1177   -8.3082 H   0  0  0  0  0
   -7.5136   -0.0977   -7.3438 H   0  0  0  0  0
   -7.7864   -5.6160   -4.2726 H   0  0  0  0  0
   -4.9144   -5.6253   -3.8613 H   0  0  0  0  0
   -6.4043   -6.0590   -2.0078 H   0  0  0  0  0
   -5.5163   -7.6081   -2.3821 H   0  0  0  0  0
   -9.0333   -6.0683   -2.3075 H   0  0  0  0  0
   -5.8231   -9.8557   -3.5736 H   0  0  0  0  0
  -10.7541  -10.6440   -3.4667 H   0  0  0  0  0
   -6.7644  -12.0531   -4.1499 H   0  0  0  0  0
   -9.1921  -12.4467   -4.0753 H   0  0  0  0  0
   -6.7712   -7.0381   -6.2786 H   0  0  0  0  0
   -5.2334   -9.5714   -6.2608 H   0  0  0  0  0
   -7.6516   -9.6911   -6.6402 H   0  0  0  0  0
   -7.4986   -8.6231   -8.0569 H   0  0  0  0  0
   -6.7726  -10.2489   -8.0850 H   0  0  0  0  0
   -4.0419  -10.4204   -8.0200 H   0  0  0  0  0
   -2.8413   -8.2544   -9.6221 H   0  0  0  0  0
   -1.7773  -11.0168   -9.8918 H   0  0  0  0  0
   -1.5496  -10.1590   -8.3164 H   0  0  0  0  0
   -1.6558   -8.6246  -11.2636 H   0  0  0  0  0
   -2.9563  -11.5965  -10.7186 H   0  0  0  0  0
   -3.4839  -12.4880  -12.7206 H   0  0  0  0  0
   -5.4272  -11.8540  -13.9805 H   0  0  0  0  0
   -5.5524  -10.3066  -12.9999 H   0  0  0  0  0
   -5.6118  -14.0391  -12.6715 H   0  0  0  0  0
   -6.9467  -10.2330  -11.2086 H   0  0  0  0  0
   -7.0734  -15.1698  -11.0452 H   0  0  0  0  0
   -8.4142  -11.3701   -9.5810 H   0  0  0  0  0
   -8.4930  -13.8302   -9.5175 H   0  0  0  0  0
   -1.3507  -11.7457  -13.3276 H   0  0  0  0  0
   -1.3414   -9.5386  -15.3717 H   0  0  0  0  0
    0.9027  -10.8491  -13.8417 H   0  0  0  0  0
    0.2401   -9.1834  -13.6191 H   0  0  0  0  0
    2.1695   -9.2274  -14.8758 H   0  0  0  0  0
   -0.6972   -9.9545  -17.4143 H   0  0  0  0  0
   -1.2397  -12.6891  -18.3238 H   0  0  0  0  0
   -2.3303  -11.3541  -19.7959 H   0  0  0  0  0
   -0.7258  -11.2407  -20.6060 H   0  0  0  0  0
   -1.6868   -9.1667  -20.2171 H   0  0  0  0  0
    1.6200  -10.7675  -17.9171 H   0  0  0  0  0
    3.1675  -13.2855  -18.5994 H   0  0  0  0  0
    4.0831  -11.6372  -19.9923 H   0  0  0  0  0
    6.1518  -11.3234  -18.9694 H   0  0  0  0  0
    2.9392   -9.6580  -19.0370 H   0  0  0  0  0
    4.0115   -9.7113  -17.6164 H   0  0  0  0  0
    4.6832   -9.3517  -19.2259 H   0  0  0  0  0
    4.8908  -13.7621  -16.8103 H   0  0  0  0  0
    4.4278  -12.5412  -14.2760 H   0  0  0  0  0
    2.1543  -13.6782  -14.8525 H   0  0  0  0  0
    2.8677  -14.4408  -13.4506 H   0  0  0  0  0
    4.2105  -14.8455  -16.9504 H   0  0  0  0  0
    1.6776  -16.5041  -12.9000 H   0  0  0  0  0
    3.0065  -19.6758  -16.4848 H   0  0  0  0  0
    1.1486  -18.8742  -12.7281 H   0  0  0  0  0
    1.7706  -20.4349  -14.5065 H   0  0  0  0  0
    6.9945  -16.8228  -14.1963 H   0  0  0  0  0
    9.1363  -16.6683  -13.3612 H   0  0  0  0  0
    7.9815  -16.8260  -16.4207 H   0  0  0  0  0
    9.2579  -16.0358  -15.5762 H   0  0  0  0  0
    8.1187  -14.7954  -17.6305 H   0  0  0  0  0
    8.5492  -13.8671  -16.2231 H   0  0  0  0  0
    6.2493  -13.3140  -16.3149 H   0  0  0  0  0
    5.8148  -14.7632  -17.1104 H   0  0  0  0  0
  1  2  1  0  0  0
  2  3  1  0  0  0
  2  5  1  0  0  0
  3  4  2  0  0  0
  3  9  1  0  0  0
  5  6  1  0  0  0
  6  7  2  0  0  0
  6  8  1  0  0  0
  9 10  1  0  0  0
 10 11  1  0  0  0
 10 13  1  0  0  0
 11 12  2  0  0  0
 11 17  1  0  0  0
 13 14  1  0  0  0
 14 15  2  0  0  0
 14 16  1  0  0  0
 17 18  1  0  0  0
 18 19  1  0  0  0
 18 21  1  0  0  0
 19 20  2  0  0  0
 19 31  1  0  0  0
 21 22  1  0  0  0
 22 23  4  0  0  0
 22 24  4  0  0  0
 23 25  4  0  0  0
 24 26  4  0  0  0
 24 27  4  0  0  0
 25 26  4  0  0  0
 26 28  4  0  0  0
 27 29  4  0  0  0
 28 30  4  0  0  0
 29 30  4  0  0  0
 31 32  1  0  0  0
 32 33  1  0  0  0
 32 35  1  0  0  0
 33 34  2  0  0  0
 33 36  1  0  0  0
 36 37  1  0  0  0
 37 38  1  0  0  0
 37 40  1  0  0  0
 38 39  2  0  0  0
 38 44  1  0  0  0
 40 41  1  0  0  0
 41 42  2  0  0  0
 41 43  1  0  0  0
 44 45  1  0  0  0
 45 46  1  0  0  0
 45 48  1  0  0  0
 46 47  2  0  0  0
 46 55  1  0  0  0
 48 49  1  0  0  0
 49 50  4  0  0  0
 49 51  4  0  0  0
 50 52  4  0  0  0
 51 53  4  0  0  0
 52 54  4  0  0  0
 53 54  4  0  0  0
 55 56  1  0  0  0
 56 57  1  0  0  0
 56 59  1  0  0  0
 57 58  2  0  0  0
 57 61  1  0  0  0
 59 60  1  0  0  0
 61 62  1  0  0  0
 62 63  1  0  0  0
 62 65  1  0  0  0
 63 64  2  0  0  0
 63 67  1  0  0  0
 65 66  1  0  0  0
 67 68  1  0  0  0
 68 69  1  0  0  0
 68 71  1  0  0  0
 69 70  2  0  0  0
 69 74  1  0  0  0
 71 72  1  0  0  0
 71 73  1  0  0  0
 74 75  1  0  0  0
 75 76  1  0  0  0
 75 78  1  0  0  0
 76 77  2  0  0  0
 76 88  1  0  0  0
 78 79  1  0  0  0
 79 80  4  0  0  0
 79 81  4  0  0  0
 80 82  4  0  0  0
 81 83  4  0  0  0
 81 84  4  0  0  0
 82 83  4  0  0  0
 83 85  4  0  0  0
 84 86  4  0  0  0
 85 87  4  0  0  0
 86 87  4  0  0  0
 88 89  1  0  0  0
 88 94  1  0  0  0
 89 90  1  0  0  0
 89 92  1  0  0  0
 90 91  1  0  0  0
 90 95  2  0  0  0
 92 93  1  0  0  0
 93 94  1  0  0  0
  1 96  1  0  0  0
  1 97  1  0  0  0
  1 98  1  0  0  0
  2 99  1  0  0  0
  5100  1  0  0  0
  5101  1  0  0  0
  8102  1  0  0  0
  8103  1  0  0  0
  9104  1  0  0  0
 10105  1  0  0  0
 13106  1  0  0  0
 13107  1  0  0  0
 16108  1  0  0  0
 16109  1  0  0  0
 17110  1  0  0  0
 18111  1  0  0  0
 21112  1  0  0  0
 21113  1  0  0  0
 23114  1  0  0  0
 27115  1  0  0  0
 28116  1  0  0  0
 29117  1  0  0  0
 30118  1  0  0  0
 31119  1  0  0  0
 32120  1  0  0  0
 35121  1  0  0  0
 35122  1  0  0  0
 35123  1  0  0  0
 36124  1  0  0  0
 37125  1  0  0  0
 40126  1  0  0  0
 40127  1  0  0  0
 43128  1  0  0  0
 44129  1  0  0  0
 45130  1  0  0  0
 48131  1  0  0  0
 48132  1  0  0  0
 50133  1  0  0  0
 51134  1  0  0  0
 52135  1  0  0  0
 53136  1  0  0  0
 54137  1  0  0  0
 55138  1  0  0  0
 56139  1  0  0  0
 59140  1  0  0  0
 59141  1  0  0  0
 60142  1  0  0  0
 61143  1  0  0  0
 62144  1  0  0  0
 65145  1  0  0  0
 65146  1  0  0  0
 66147  1  0  0  0
 67148  1  0  0  0
 68149  1  0  0  0
 71150  1  0  0  0
 72151  1  0  0  0
 73152  1  0  0  0
 73153  1  0  0  0
 73154  1  0  0  0
 74155  1  0  0  0
 75156  1  0  0  0
 78157  1  0  0  0
 78158  1  0  0  0
 80159  1  0  0  0
 84160  1  0  0  0
 85161  1  0  0  0
 86162  1  0  0  0
 87163  1  0  0  0
 89164  1  0  0  0
 91165  1  0  0  0
 92166  1  0  0  0
 92167  1  0  0  0
 93168  1  0  0  0
 93169  1  0  0  0
 94170  1  0  0  0
 94171  1  0  0  0
M  END
$$$$
