### 
### Created by X-TOOL on Mon Sep 10 21:13:04 2018
### 

@<TRIPOS>MOLECULE
3hs9_ligand
  171   176     1     0     0
SMALL
GAST_HUCK


@<TRIPOS>ATOM
      1 N         -11.4440   -1.2840   -4.5010 N.4       1 ASN         0.2396
      2 CA        -10.4260   -2.0540   -3.7390 C.3       1 ASN         0.0818
      3 C          -9.8230   -3.1650   -4.5900 C.2       1 ASN         0.2292
      4 O         -10.5260   -4.0880   -5.0290 O.2       1 ASN        -0.3905
      5 CB        -11.0110   -2.5780   -2.4280 C.3       1 ASN         0.0972
      6 CG        -11.2910   -1.4530   -1.4200 C.2       1 ASN         0.1813
      7 OD1       -11.4620   -1.7040   -0.2160 O.2       1 ASN        -0.3969
      8 ND2       -11.3260   -0.2080   -1.9070 N.am      1 ASN        -0.3006
      9 N          -8.5040   -3.0550   -4.7840 N.am      1 ASN        -0.2587
     10 CA         -7.7680   -3.6750   -5.8970 C.3       1 ASN         0.1477
     11 C          -6.5840   -4.5560   -5.5060 C.2       1 ASN         0.2063
     12 O          -5.4810   -4.4300   -6.0480 O.2       1 ASN        -0.3942
     13 CB         -7.2550   -2.5770   -6.8280 C.3       1 ASN         0.0773
     14 CG         -8.3560   -1.9360   -7.6310 C.2       1 ASN         0.1780
     15 OD1        -9.2670   -2.6160   -8.1290 O.2       1 ASN        -0.3970
     16 ND2        -8.2820   -0.6140   -7.7720 N.am      1 ASN        -0.3007
     17 N          -6.8280   -5.4730   -4.5910 N.am      1 TRP        -0.2625
     18 CA         -5.7690   -6.2810   -4.0280 C.3       1 TRP         0.1352
     19 C          -5.2480   -7.3800   -4.9690 C.2       1 TRP         0.2052
     20 O          -4.1860   -7.9750   -4.7170 O.2       1 TRP        -0.3942
     21 CB         -6.2610   -6.8820   -2.7080 C.3       1 TRP         0.0042
     22 CG         -7.5780   -7.6080   -2.8280 C.2       1 TRP        -0.0418
     23 CD1        -8.8240   -7.0950   -2.6080 C.2       1 TRP         0.0167
     24 CD2        -7.7680   -8.9770   -3.2030 C.ar      1 TRP        -0.0214
     25 NE1        -9.7750   -8.0630   -2.8210 N.pl3     1 TRP        -0.2890
     26 CE2        -9.1500   -9.2270   -3.1840 C.ar      1 TRP         0.0603
     27 CE3        -6.9010  -10.0160   -3.5520 C.ar      1 TRP        -0.0747
     28 CZ2        -9.6790  -10.4660   -3.4920 C.ar      1 TRP        -0.0443
     29 CZ3        -7.4300  -11.2380   -3.8660 C.ar      1 TRP        -0.0792
     30 CH2        -8.8050  -11.4580   -3.8290 C.ar      1 TRP        -0.0768
     31 N          -5.9910   -7.6510   -6.0420 N.am      1 ALA        -0.2639
     32 CA         -5.7060   -8.8180   -6.8910 C.3       1 ALA         0.1282
     33 C          -4.7130   -8.4940   -8.0150 C.2       1 ALA         0.2037
     34 O          -4.6250   -7.3420   -8.4590 O.2       1 ALA        -0.3944
     35 CB         -7.0000   -9.3860   -7.4590 C.3       1 ALA        -0.0244
     36 N          -3.9690   -9.5060   -8.4660 N.am      1 ASP        -0.2622
     37 CA         -3.0490   -9.3240   -9.5920 C.3       1 ASP         0.1423
     38 C          -3.6680   -9.7080  -10.9260 C.2       1 ASP         0.2057
     39 O          -4.3790   -8.8960  -11.5300 O.2       1 ASP        -0.3943
     40 CB         -1.7180  -10.0520   -9.3880 C.3       1 ASP         0.0406
     41 CG         -0.5390   -9.2740   -9.9820 C.2       1 ASP         0.0393
     42 OD1         0.5840   -9.3650   -9.4210 O.co2     1 ASP        -0.5688
     43 OD2        -0.7370   -8.5520  -10.9950 O.co2     1 ASP        -0.5688
     44 N          -3.4170  -10.9490  -11.3580 N.am      1 PHE        -0.2618
     45 CA         -3.7690  -11.4360  -12.7090 C.3       1 PHE         0.1404
     46 C          -3.0050  -10.6630  -13.7810 C.2       1 PHE         0.2060
     47 O          -3.5500   -9.7570  -14.4390 O.2       1 PHE        -0.3942
     48 CB         -5.2770  -11.3610  -13.0200 C.3       1 PHE         0.0214
     49 CG         -6.1590  -12.0610  -12.0280 C.ar      1 PHE        -0.0386
     50 CD1        -6.2200  -13.4490  -11.9860 C.ar      1 PHE        -0.0601
     51 CD2        -6.9680  -11.3220  -11.1670 C.ar      1 PHE        -0.0601
     52 CE1        -7.0420  -14.0810  -11.0860 C.ar      1 PHE        -0.0686
     53 CE2        -7.7960  -11.9550  -10.2620 C.ar      1 PHE        -0.0686
     54 CZ         -7.8350  -13.3270  -10.2260 C.ar      1 PHE        -0.0687
     55 N          -1.7360  -11.0250  -13.9380 N.am      1 SER        -0.2614
     56 CA         -0.8780  -10.4300  -14.9490 C.3       1 SER         0.1539
     57 C          -0.6700  -11.4580  -16.0570 C.2       1 SER         0.2062
     58 O          -0.5290  -12.6580  -15.7820 O.2       1 SER        -0.3943
     59 CB          0.4470   -9.9860  -14.3270 C.3       1 SER         0.0843
     60 OG          1.3530   -9.4950  -15.3040 O.3       1 SER        -0.3903
     61 N          -0.6740  -10.9680  -17.3020 N.am      1 SER        -0.2615
     62 CA         -0.6470  -11.7970  -18.5260 C.3       1 SER         0.1539
     63 C           0.7640  -12.3330  -18.8810 C.2       1 SER         0.2063
     64 O           0.9170  -13.2820  -19.6770 O.2       1 SER        -0.3943
     65 CB         -1.2940  -11.0300  -19.7000 C.3       1 SER         0.0843
     66 OG         -1.2790   -9.6140  -19.4720 O.3       1 SER        -0.3903
     67 N           1.7820  -11.7010  -18.2950 N.am      1 THR        -0.2613
     68 CA          3.1330  -12.2860  -18.1660 C.3       1 THR         0.1565
     69 C           3.4470  -12.3150  -16.6480 C.2       1 THR         0.2066
     70 O           2.8960  -11.4710  -15.9010 O.2       1 THR        -0.3943
     71 CB          4.1760  -11.4530  -18.9220 C.3       1 THR         0.0924
     72 OG1         5.4980  -11.8440  -18.4970 O.3       1 THR        -0.3874
     73 CG2         3.9340   -9.9270  -18.6820 C.3       1 THR        -0.0346
     74 N           4.2780  -13.2460  -16.1790 N.am      1 TRP        -0.2626
     75 CA          4.2930  -13.5090  -14.7590 C.3       1 TRP         0.1353
     76 C           5.4450  -14.3520  -14.1510 C.2       1 TRP         0.2071
     77 O           5.6270  -14.3860  -12.9520 O.2       1 TRP        -0.3941
     78 CB          3.0140  -14.2570  -14.5150 C.3       1 TRP         0.0042
     79 CG          3.1140  -15.4650  -15.2230 C.2       1 TRP        -0.0418
     80 CD1         3.7300  -15.6390  -16.3780 C.2       1 TRP         0.0167
     81 CD2         2.6610  -16.7350  -14.8050 C.ar      1 TRP        -0.0214
     82 NE1         3.6820  -16.9490  -16.7560 N.pl3     1 TRP        -0.2890
     83 CE2         3.0200  -17.6440  -15.7910 C.ar      1 TRP         0.0603
     84 CE3         1.9740  -17.1930  -13.6910 C.ar      1 TRP        -0.0747
     85 CZ2         2.7160  -18.9740  -15.7030 C.ar      1 TRP        -0.0443
     86 CZ3         1.6800  -18.5020  -13.6040 C.ar      1 TRP        -0.0792
     87 CH2         2.0390  -19.3830  -14.6040 C.ar      1 TRP        -0.0768
     88 N           6.2010  -15.0200  -15.0170 N.am      1 PRO        -0.2555
     89 CA          7.3220  -15.8550  -14.5760 C.3       1 PRO         0.0972
     90 C           8.0970  -15.2060  -13.4340 C.2       1 PRO         0.0603
     91 O           9.0360  -15.8190  -12.9250 O.co2     1 PRO        -0.5666
     92 CB          8.2010  -15.9400  -15.8250 C.3       1 PRO        -0.0159
     93 CG          7.9130  -14.6830  -16.5660 C.3       1 PRO        -0.0288
     94 CD          6.4620  -14.3830  -16.3200 C.3       1 PRO         0.0362
     95 OXT         7.7650  -14.0850  -13.0480 O.co2     1 PRO        -0.5666
     96 H1        -11.8245   -0.5580   -3.9144 H         1 ASN         0.2017
     97 H2        -12.1843   -1.9027   -4.7927 H         1 ASN         0.2017
     98 H3        -11.0134   -0.8691   -5.3125 H         1 ASN         0.2017
     99 H4         -9.6110   -1.3619   -3.4808 H         1 ASN         0.1125
    100 H5        -10.2965   -3.2841   -1.9797 H         1 ASN         0.0585
    101 H6        -11.9545   -3.0998   -2.6459 H         1 ASN         0.0585
    102 H7        -11.5043    0.5631   -1.2958 H         1 ASN         0.1814
    103 H8        -11.1739   -0.0482   -2.8824 H         1 ASN         0.1814
    104 H9         -7.9812   -2.5130   -4.1260 H         1 ASN         0.1886
    105 H10        -8.4805   -4.3053   -6.4492 H         1 ASN         0.0826
    106 H11        -6.5236   -3.0169   -7.5218 H         1 ASN         0.0551
    107 H12        -6.7645   -1.8016   -6.2213 H         1 ASN         0.0551
    108 H13        -8.9822   -0.1269   -8.2940 H         1 ASN         0.1814
    109 H14        -7.5263   -0.1083   -7.3559 H         1 ASN         0.1814
    110 H15        -7.7676   -5.6132   -4.2788 H         1 TRP         0.1884
    111 H16        -4.9226   -5.6136   -3.8084 H         1 TRP         0.0815
    112 H17        -6.3782   -6.0679   -1.9776 H         1 TRP         0.0397
    113 H18        -5.5038   -7.5931   -2.3462 H         1 TRP         0.0397
    114 H19        -9.0331   -6.0693   -2.3078 H         1 TRP         0.0795
    115 H20       -10.7923   -7.9347   -2.7237 H         1 TRP         0.2216
    116 H21        -5.8290   -9.8566   -3.5735 H         1 TRP         0.0540
    117 H22       -10.7481  -10.6431   -3.4668 H         1 TRP         0.0541
    118 H23        -6.7680  -12.0486   -4.1483 H         1 TRP         0.0510
    119 H24        -9.1900  -12.4413   -4.0739 H         1 TRP         0.0530
    120 H25        -6.7559   -7.0501   -6.2740 H         1 ALA         0.1883
    121 H26        -5.2472   -9.5894   -6.2550 H         1 ALA         0.0797
    122 H27        -6.7718  -10.2570   -8.0910 H         1 ALA         0.0277
    123 H28        -7.5042   -8.6170   -8.0627 H         1 ALA         0.0277
    124 H29        -7.6585   -9.6944   -6.6336 H         1 ALA         0.0277
    125 H30        -4.0404  -10.4025   -8.0287 H         1 ASP         0.1884
    126 H31        -2.8228   -8.2486   -9.6411 H         1 ASP         0.0819
    127 H32        -1.7741  -11.0370   -9.8744 H         1 ASP         0.0478
    128 H33        -1.5479  -10.1849   -8.3094 H         1 ASP         0.0478
    129 H34        -2.9653  -11.5838  -10.7311 H         1 PHE         0.1885
    130 H35        -3.4680  -12.4925  -12.7651 H         1 PHE         0.0823
    131 H36        -5.4458  -11.8145  -14.0079 H         1 PHE         0.0474
    132 H37        -5.5683  -10.3007  -13.0486 H         1 PHE         0.0474
    133 H38        -5.6151  -14.0359  -12.6677 H         1 PHE         0.0557
    134 H39        -6.9468  -10.2390  -11.2084 H         1 PHE         0.0557
    135 H40        -7.0732  -15.1638  -11.0454 H         1 PHE         0.0599
    136 H41        -8.4108  -11.3733   -9.5848 H         1 PHE         0.0599
    137 H42        -8.4893  -13.8274   -9.5214 H         1 PHE         0.0559
    138 H43        -1.3582  -11.7315  -13.3396 H         1 SER         0.1884
    139 H44        -1.3771   -9.5460  -15.3725 H         1 SER         0.0823
    140 H45         0.9060  -10.8456  -13.8168 H         1 SER         0.0606
    141 H46         0.2470   -9.1893  -13.5954 H         1 SER         0.0606
    142 H47         1.5357  -10.1793  -15.9371 H         1 SER         0.2097
    143 H48        -0.6968   -9.9743  -17.4121 H         1 SER         0.1884
    144 H49        -1.2749  -12.6784  -18.3290 H         1 SER         0.0823
    145 H50        -2.3362  -11.3630  -19.8140 H         1 SER         0.0606
    146 H51        -0.7358  -11.2499  -20.6220 H         1 SER         0.0606
    147 H52        -1.6826   -9.1714  -20.2093 H         1 SER         0.2097
    148 H53         1.6231  -10.7858  -17.9245 H         1 THR         0.1884
    149 H54         3.1356  -13.3097  -18.5685 H         1 THR         0.0826
    150 H55         4.0785  -11.6554  -19.9988 H         1 THR         0.0639
    151 H56         6.1450  -11.3289  -18.9644 H         1 THR         0.2101
    152 H57         4.6895   -9.3453  -19.2304 H         1 THR         0.0257
    153 H58         4.0120   -9.7080  -17.6069 H         1 THR         0.0257
    154 H59         2.9303   -9.6541  -19.0399 H         1 THR         0.0257
    155 H60         4.8788  -13.7520  -16.7979 H         1 TRP         0.1884
    156 H61         4.2806  -12.5424  -14.2340 H         1 TRP         0.0815
    157 H62         2.1569  -13.6726  -14.8809 H         1 TRP         0.0397
    158 H63         2.8900  -14.4562  -13.4403 H         1 TRP         0.0397
    159 H64         4.2101  -14.8462  -16.9499 H         1 TRP         0.0795
    160 H65         4.0779  -17.3435  -17.6212 H         1 TRP         0.2216
    161 H66         1.6793  -16.5079  -12.9044 H         1 TRP         0.0540
    162 H67         3.0049  -19.6719  -16.4805 H         1 TRP         0.0541
    163 H68         1.1516  -18.8721  -12.7329 H         1 TRP         0.0510
    164 H69         1.7721  -20.4292  -14.5071 H         1 TRP         0.0530
    165 H70         6.9723  -16.8504  -14.2649 H         1 PRO         0.0728
    166 H71         7.9334  -16.8187  -16.4303 H         1 PRO         0.0306
    167 H72         9.2646  -15.9945  -15.5496 H         1 PRO         0.0306
    168 H73         8.0979  -14.8219  -17.6414 H         1 PRO         0.0286
    169 H74         8.5424  -13.8636  -16.1885 H         1 PRO         0.0286
    170 H75         6.2867  -13.2982  -16.2706 H         1 PRO         0.0524
    171 H76         5.8301  -14.8211  -17.1066 H         1 PRO         0.0524
@<TRIPOS>BOND
     1    1    2 1  
     2    2    3 1  
     3    2    5 1  
     4    3    4 2  
     5    3    9 am 
     6    5    6 1  
     7    6    7 2  
     8    6    8 am 
     9    9   10 1  
    10   10   11 1  
    11   10   13 1  
    12   11   12 2  
    13   11   17 am 
    14   13   14 1  
    15   14   15 2  
    16   14   16 am 
    17   17   18 1  
    18   18   19 1  
    19   18   21 1  
    20   19   20 2  
    21   19   31 am 
    22   21   22 1  
    23   22   23 2  
    24   22   24 1  
    25   23   25 1  
    26   24   26 ar 
    27   24   27 ar 
    28   25   26 1  
    29   26   28 ar 
    30   27   29 ar 
    31   28   30 ar 
    32   29   30 ar 
    33   31   32 1  
    34   32   33 1  
    35   32   35 1  
    36   33   34 2  
    37   33   36 am 
    38   36   37 1  
    39   37   38 1  
    40   37   40 1  
    41   38   39 2  
    42   38   44 am 
    43   40   41 1  
    44   41   42 ar 
    45   41   43 ar 
    46   44   45 1  
    47   45   46 1  
    48   45   48 1  
    49   46   47 2  
    50   46   55 am 
    51   48   49 1  
    52   49   50 ar 
    53   49   51 ar 
    54   50   52 ar 
    55   51   53 ar 
    56   52   54 ar 
    57   53   54 ar 
    58   55   56 1  
    59   56   57 1  
    60   56   59 1  
    61   57   58 2  
    62   57   61 am 
    63   59   60 1  
    64   61   62 1  
    65   62   63 1  
    66   62   65 1  
    67   63   64 2  
    68   63   67 am 
    69   65   66 1  
    70   67   68 1  
    71   68   69 1  
    72   68   71 1  
    73   69   70 2  
    74   69   74 am 
    75   71   72 1  
    76   71   73 1  
    77   74   75 1  
    78   75   76 1  
    79   75   78 1  
    80   76   77 2  
    81   76   88 am 
    82   78   79 1  
    83   79   80 2  
    84   79   81 1  
    85   80   82 1  
    86   81   83 ar 
    87   81   84 ar 
    88   82   83 1  
    89   83   85 ar 
    90   84   86 ar 
    91   85   87 ar 
    92   86   87 ar 
    93   88   89 1  
    94   88   94 1  
    95   89   90 1  
    96   89   92 1  
    97   90   91 ar 
    98   90   95 ar 
    99   92   93 1  
   100   93   94 1  
   101    1   96 1  
   102    1   97 1  
   103    1   98 1  
   104    2   99 1  
   105    5  100 1  
   106    5  101 1  
   107    8  102 1  
   108    8  103 1  
   109    9  104 1  
   110   10  105 1  
   111   13  106 1  
   112   13  107 1  
   113   16  108 1  
   114   16  109 1  
   115   17  110 1  
   116   18  111 1  
   117   21  112 1  
   118   21  113 1  
   119   23  114 1  
   120   25  115 1  
   121   27  116 1  
   122   28  117 1  
   123   29  118 1  
   124   30  119 1  
   125   31  120 1  
   126   32  121 1  
   127   35  122 1  
   128   35  123 1  
   129   35  124 1  
   130   36  125 1  
   131   37  126 1  
   132   40  127 1  
   133   40  128 1  
   134   44  129 1  
   135   45  130 1  
   136   48  131 1  
   137   48  132 1  
   138   50  133 1  
   139   51  134 1  
   140   52  135 1  
   141   53  136 1  
   142   54  137 1  
   143   55  138 1  
   144   56  139 1  
   145   59  140 1  
   146   59  141 1  
   147   60  142 1  
   148   61  143 1  
   149   62  144 1  
   150   65  145 1  
   151   65  146 1  
   152   66  147 1  
   153   67  148 1  
   154   68  149 1  
   155   71  150 1  
   156   72  151 1  
   157   73  152 1  
   158   73  153 1  
   159   73  154 1  
   160   74  155 1  
   161   75  156 1  
   162   78  157 1  
   163   78  158 1  
   164   80  159 1  
   165   82  160 1  
   166   84  161 1  
   167   85  162 1  
   168   86  163 1  
   169   87  164 1  
   170   89  165 1  
   171   92  166 1  
   172   92  167 1  
   173   93  168 1  
   174   93  169 1  
   175   94  170 1  
   176   94  171 1  
@<TRIPOS>SUBSTRUCTURE
     1 ASN         1

