6qyk_ligand
  -I-interpret- 

 42 45  0  0  0  0  0  0  0  0999 V2000
   12.0090   56.3380   -3.8300 C   0  0  0  0  0
    8.7570   55.5350   -2.6530 C   0  0  0  0  0
   12.9440   54.5680   -2.8110 C   0  0  0  0  0
   14.9930   53.6250   -3.2940 C   0  0  0  0  0
   11.1760   59.8200   -4.9710 C   0  0  0  0  0
   11.1880   59.6520   -6.3500 C   0  0  0  0  0
   11.4530   58.4050   -6.8950 C   0  0  0  0  0
   11.3810   58.5280   -8.2610 C   0  0  0  0  0
   11.0780   59.8540   -8.5260 C   0  0  0  0  0
   15.1880   54.5170   -4.2490 N   0  0  0  0  0
   14.2620   55.4420   -4.5170 C   0  0  0  0  0
   14.4570   56.3230   -5.4720 O   0  0  0  0  0
   15.7500   56.4430   -6.0120 C   0  0  0  0  0
   15.9220   57.9120   -6.3000 C   0  0  0  0  0
   15.8010   55.7090   -7.3410 C   0  0  0  0  0
   16.8310   55.0920   -7.5710 O   0  0  0  0  0
   14.8310   55.7560   -8.1220 O   0  0  0  0  0
   13.0980   55.4990   -3.8020 C   0  0  0  0  0
   11.1300   55.9640   -2.8620 C   0  0  0  0  0
    9.8000   56.6320   -2.6260 C   0  0  0  0  0
   11.6350   54.6910   -2.0460 S   0  0  0  0  0
   13.8780   53.6510   -2.5890 N   0  0  0  0  0
   11.7380   57.4810   -4.6980 C   0  0  0  0  0
   11.4750   58.7420   -4.1500 C   0  0  0  0  0
   11.7180   57.3200   -6.0840 C   0  0  0  0  0
   10.9640   60.5000   -7.3590 N   0  0  0  0  0
    8.7778   55.0394   -3.6236 H   0  0  0  0  0
    8.9739   54.8098   -1.8687 H   0  0  0  0  0
    7.7710   55.9687   -2.4861 H   0  0  0  0  0
   15.7514   52.8694   -3.0890 H   0  0  0  0  0
   10.9338   60.7904   -4.5376 H   0  0  0  0  0
   11.5328   57.7361   -8.9945 H   0  0  0  0  0
   10.9538   60.2953   -9.5149 H   0  0  0  0  0
   16.5097   56.0429   -5.3405 H   0  0  0  0  0
   15.1593   58.2336   -7.0092 H   0  0  0  0  0
   15.8198   58.4770   -5.3735 H   0  0  0  0  0
   16.9109   58.0843   -6.7250 H   0  0  0  0  0
   14.1368   56.2954   -7.7362 H   0  0  0  0  0
    9.7906   57.1559   -1.6702 H   0  0  0  0  0
    9.5983   57.3811   -3.3917 H   0  0  0  0  0
   11.5053   58.8783   -3.0690 H   0  0  0  0  0
   11.9108   56.3417   -6.5242 H   0  0  0  0  0
  1 18  4  0  0  0
  1 19  4  0  0  0
 23  1  1  0  0  0
 20  2  1  0  0  0
 18  3  4  0  0  0
 21  3  4  0  0  0
  3 22  4  0  0  0
 10  4  4  0  0  0
 22  4  4  0  0  0
  5  6  4  0  0  0
 24  5  4  0  0  0
  6  7  4  0  0  0
  6 26  4  0  0  0
  7  8  4  0  0  0
  7 25  4  0  0  0
  9  8  4  0  0  0
 26  9  4  0  0  0
 11 10  4  0  0  0
 11 12  1  0  0  0
 18 11  4  0  0  0
 12 13  1  0  0  0
 13 14  1  0  0  0
 13 15  1  0  0  0
 15 16  2  0  0  0
 15 17  1  0  0  0
 19 20  1  0  0  0
 19 21  4  0  0  0
 23 24  4  0  0  0
 23 25  4  0  0  0
  2 27  1  0  0  0
  2 28  1  0  0  0
  2 29  1  0  0  0
  4 30  1  0  0  0
  5 31  1  0  0  0
  8 32  1  0  0  0
  9 33  1  0  0  0
 13 34  1  0  0  0
 14 35  1  0  0  0
 14 36  1  0  0  0
 14 37  1  0  0  0
 17 38  1  0  0  0
 20 39  1  0  0  0
 20 40  1  0  0  0
 24 41  1  0  0  0
 25 42  1  0  0  0
M  END
$$$$
