1hvk_ligand
  -I-interpret- 

116119  0  0  0  0  0  0  0  0999 V2000
    3.4420    3.3640   10.6640 C   0  0  0  0  0
    3.1030    4.0650   11.6060 O   0  0  0  0  0
    4.1080    3.8760    9.6230 N   0  0  0  0  0
    4.6590    3.0340    8.5660 C   0  0  0  0  0
    4.3760    5.3220    9.6130 C   0  0  0  0  0
    5.7860    5.6900    9.9970 C   0  0  0  0  0
    6.6870    6.0180    8.9940 C   0  0  0  0  0
    6.0940    5.7110   11.2940 N   0  0  0  0  0
    7.9610    6.3910    9.3940 C   0  0  0  0  0
    7.3140    6.0700   11.6630 C   0  0  0  0  0
    8.2870    6.4200   10.7470 C   0  0  0  0  0
    3.1570    2.0630   10.6230 N   0  0  0  0  0
    2.5380    1.3810   11.7760 C   0  0  0  0  0
    3.5500    0.4420   12.4210 C   0  0  0  0  0
    3.6830   -0.7230   12.0840 O   0  0  0  0  0
    1.1890    0.6750   11.4320 C   0  0  0  0  0
    0.1900    1.6100   10.7090 C   0  0  0  0  0
    0.5290    0.0770   12.6750 C   0  0  0  0  0
    4.2870    1.0030   13.3740 N   0  0  0  0  0
    5.2470    0.2310   14.1980 C   0  0  0  0  0
    6.6590    0.8140   14.1100 C   0  0  0  0  0
    7.1750    0.9510   12.7060 C   0  0  0  0  0
    7.6990   -0.1700   12.0450 C   0  0  0  0  0
    8.1810   -0.0360   10.7380 C   0  0  0  0  0
    8.1250    1.2070   10.0940 C   0  0  0  0  0
    7.6020    2.3230   10.7530 C   0  0  0  0  0
    7.1270    2.1980   12.0640 C   0  0  0  0  0
    4.7040    0.1060   15.6470 C   0  0  0  0  0
    4.7720    1.3930   16.2230 O   0  0  0  0  0
    5.2450   -0.8000   17.8600 O   0  0  0  0  0
    5.4110   -0.9690   16.4710 C   0  0  0  0  0
    5.8480   -3.3620   16.5460 N   0  0  0  0  0
    4.8840   -2.3660   16.1080 C   0  0  0  0  0
    3.4900   -2.7020   16.6590 C   0  0  0  0  0
    3.0970   -4.1240   16.3490 C   0  0  0  0  0
    2.5550   -4.4390   15.0980 C   0  0  0  0  0
    2.2680   -5.7770   14.7770 C   0  0  0  0  0
    2.5240   -6.7940   15.7040 C   0  0  0  0  0
    3.0480   -6.4830   16.9610 C   0  0  0  0  0
    3.3320   -5.1530   17.2930 C   0  0  0  0  0
    7.0960   -6.2180   16.8450 N   0  0  0  0  0
    7.6370   -4.9150   16.4650 C   0  0  0  0  0
    6.6290   -4.0560   15.7260 C   0  0  0  0  0
    6.5580   -3.9890   14.5120 O   0  0  0  0  0
    8.9600   -5.0190   15.7100 C   0  0  0  0  0
    9.9270   -5.8680   16.5510 C   0  0  0  0  0
    9.5560   -3.6280   15.4470 C   0  0  0  0  0
    6.8980   -6.6250   18.1010 C   0  0  0  0  0
    7.2170   -5.9320   19.0590 O   0  0  0  0  0
    6.3220   -7.8510   18.2480 N   0  0  0  0  0
    5.8680   -8.6360   17.0970 C   0  0  0  0  0
    6.0170   -8.3880   19.5770 C   0  0  0  0  0
    4.6530   -7.9530   20.0750 C   0  0  0  0  0
    3.5500   -8.8050   19.9280 C   0  0  0  0  0
    4.5730   -6.7420   20.6480 N   0  0  0  0  0
    2.3010   -8.3770   20.3930 C   0  0  0  0  0
    3.3660   -6.3450   21.0900 C   0  0  0  0  0
    2.2070   -7.1250   20.9900 C   0  0  0  0  0
    4.2805    3.3704    7.6008 H   0  0  0  0  0
    5.7466    3.1055    8.5761 H   0  0  0  0  0
    4.3600    1.9994    8.7344 H   0  0  0  0  0
    3.7126    5.7777   10.3480 H   0  0  0  0  0
    4.2182    5.6718    8.5928 H   0  0  0  0  0
    6.4064    5.9840    7.9413 H   0  0  0  0  0
    8.7083    6.6619    8.6481 H   0  0  0  0  0
    7.5587    6.0900   12.7250 H   0  0  0  0  0
    9.2847    6.7115   11.0753 H   0  0  0  0  0
    3.3703    1.5294    9.7803 H   0  0  0  0  0
    2.2619    2.1440   12.5038 H   0  0  0  0  0
    1.4471   -0.1316   10.7458 H   0  0  0  0  0
   -0.0340    2.4641   11.3481 H   0  0  0  0  0
    0.6314    1.9590    9.7755 H   0  0  0  0  0
   -0.7285    1.0632   10.4960 H   0  0  0  0  0
    1.1976   -0.6592   13.1212 H   0  0  0  0  0
    0.3274    0.8702   13.3950 H   0  0  0  0  0
   -0.4068   -0.4048   12.3917 H   0  0  0  0  0
    4.1881    2.0037   13.5450 H   0  0  0  0  0
    5.3391   -0.7811   13.8039 H   0  0  0  0  0
    7.3254    0.1295   14.6348 H   0  0  0  0  0
    6.6239    1.8144   14.5414 H   0  0  0  0  0
    7.7305   -1.1378   12.5455 H   0  0  0  0  0
    8.6002   -0.8991   10.2208 H   0  0  0  0  0
    8.4918    1.3043    9.0722 H   0  0  0  0  0
    7.5640    3.2880   10.2476 H   0  0  0  0  0
    6.7215    3.0659   12.5841 H   0  0  0  0  0
    3.6707   -0.2405   15.6302 H   0  0  0  0  0
    4.4431    1.3568   17.1242 H   0  0  0  0  0
    5.7086   -1.5009   18.3242 H   0  0  0  0  0
    6.4695   -0.8708   16.2300 H   0  0  0  0  0
    5.9299   -3.5392   17.5471 H   0  0  0  0  0
    4.7647   -2.3724   15.0246 H   0  0  0  0  0
    2.7655   -2.0353   16.1913 H   0  0  0  0  0
    3.5095   -2.5789   17.7419 H   0  0  0  0  0
    2.3558   -3.6487   14.3742 H   0  0  0  0  0
    1.8448   -6.0234   13.8032 H   0  0  0  0  0
    2.3139   -7.8316   15.4443 H   0  0  0  0  0
    3.2359   -7.2767   17.6841 H   0  0  0  0  0
    3.7335   -4.9098   18.2768 H   0  0  0  0  0
    6.8515   -6.8646   16.0950 H   0  0  0  0  0
    7.8558   -4.4038   17.4025 H   0  0  0  0  0
    8.7923   -5.4884   14.7406 H   0  0  0  0  0
   10.0830   -5.3886   17.5174 H   0  0  0  0  0
    9.5013   -6.8602   16.7007 H   0  0  0  0  0
   10.8800   -5.9551   16.0291 H   0  0  0  0  0
    8.8576   -3.0419   14.8496 H   0  0  0  0  0
    9.7343   -3.1249   16.3974 H   0  0  0  0  0
   10.4975   -3.7335   14.9080 H   0  0  0  0  0
    5.1109   -8.0733   16.5509 H   0  0  0  0  0
    6.7145   -8.8398   16.4412 H   0  0  0  0  0
    5.4421   -9.5768   17.4457 H   0  0  0  0  0
    6.7666   -8.0122   20.2734 H   0  0  0  0  0
    6.0214   -9.4760   19.5110 H   0  0  0  0  0
    3.6627   -9.7830   19.4601 H   0  0  0  0  0
    1.4210   -9.0117   20.2892 H   0  0  0  0  0
    3.2855   -5.3610   21.5519 H   0  0  0  0  0
    1.2537   -6.7590   21.3713 H   0  0  0  0  0
  1  2  2  0  0  0
  1  3  1  0  0  0
 12  1  1  0  0  0
  3  4  1  0  0  0
  3  5  1  0  0  0
  5  6  1  0  0  0
  6  7  4  0  0  0
  6  8  4  0  0  0
  7  9  4  0  0  0
  8 10  4  0  0  0
  9 11  4  0  0  0
 10 11  4  0  0  0
 13 12  1  0  0  0
 14 13  1  0  0  0
 13 16  1  0  0  0
 14 15  2  0  0  0
 19 14  1  0  0  0
 16 17  1  0  0  0
 16 18  1  0  0  0
 20 19  1  0  0  0
 20 21  1  0  0  0
 28 20  1  0  0  0
 21 22  1  0  0  0
 22 23  4  0  0  0
 22 27  4  0  0  0
 23 24  4  0  0  0
 24 25  4  0  0  0
 26 25  4  0  0  0
 27 26  4  0  0  0
 28 29  1  0  0  0
 31 28  1  0  0  0
 33 31  1  0  0  0
 33 34  1  0  0  0
 34 35  1  0  0  0
 35 36  4  0  0  0
 35 40  4  0  0  0
 36 37  4  0  0  0
 37 38  4  0  0  0
 39 38  4  0  0  0
 40 39  4  0  0  0
 42 41  1  0  0  0
 41 48  1  0  0  0
 43 42  1  0  0  0
 42 45  1  0  0  0
 43 44  2  0  0  0
 45 46  1  0  0  0
 45 47  1  0  0  0
 48 49  2  0  0  0
 48 50  1  0  0  0
 50 51  1  0  0  0
 50 52  1  0  0  0
 52 53  1  0  0  0
 53 54  4  0  0  0
 53 55  4  0  0  0
 54 56  4  0  0  0
 55 57  4  0  0  0
 56 58  4  0  0  0
 57 58  4  0  0  0
 32 43  1  0  0  0
 33 32  1  0  0  0
 31 30  1  0  0  0
  4 59  1  0  0  0
  4 60  1  0  0  0
  4 61  1  0  0  0
  5 62  1  0  0  0
  5 63  1  0  0  0
  7 64  1  0  0  0
  9 65  1  0  0  0
 10 66  1  0  0  0
 11 67  1  0  0  0
 12 68  1  0  0  0
 13 69  1  0  0  0
 16 70  1  0  0  0
 17 71  1  0  0  0
 17 72  1  0  0  0
 17 73  1  0  0  0
 18 74  1  0  0  0
 18 75  1  0  0  0
 18 76  1  0  0  0
 19 77  1  0  0  0
 20 78  1  0  0  0
 21 79  1  0  0  0
 21 80  1  0  0  0
 23 81  1  0  0  0
 24 82  1  0  0  0
 25 83  1  0  0  0
 26 84  1  0  0  0
 27 85  1  0  0  0
 28 86  1  0  0  0
 29 87  1  0  0  0
 30 88  1  0  0  0
 31 89  1  0  0  0
 32 90  1  0  0  0
 33 91  1  0  0  0
 34 92  1  0  0  0
 34 93  1  0  0  0
 36 94  1  0  0  0
 37 95  1  0  0  0
 38 96  1  0  0  0
 39 97  1  0  0  0
 40 98  1  0  0  0
 41 99  1  0  0  0
 42100  1  0  0  0
 45101  1  0  0  0
 46102  1  0  0  0
 46103  1  0  0  0
 46104  1  0  0  0
 47105  1  0  0  0
 47106  1  0  0  0
 47107  1  0  0  0
 51108  1  0  0  0
 51109  1  0  0  0
 51110  1  0  0  0
 52111  1  0  0  0
 52112  1  0  0  0
 54113  1  0  0  0
 56114  1  0  0  0
 57115  1  0  0  0
 58116  1  0  0  0
M  END
$$$$
