3sfi_ligand
  -I-interpret- 

 42 44  0  0  0  0  0  0  0  0999 V2000
   30.3770  -16.7380   -7.5340 C   0  0  0  0  0
   30.9880  -16.1930   -8.5540 F   0  0  0  0  0
   27.6800  -11.7420   -5.5940 N   0  0  0  0  0
   27.8130  -12.8650   -7.4260 O   0  0  0  0  0
   27.3750   -3.3250   -3.2040 S   0  0  0  0  0
   30.2630  -15.7730   -6.3940 C   0  0  0  0  0
   31.0810  -17.7350   -7.0670 F   0  0  0  0  0
   26.9720   -6.3700   -2.6320 N   0  0  0  0  0
   26.7870   -7.7040   -2.7920 O   0  0  0  0  0
   29.1210  -14.8470   -6.7100 C   0  0  0  0  0
   29.1990  -17.1750   -7.9360 F   0  0  0  0  0
   26.9490   -6.9290   -4.7970 N   0  0  0  0  0
   28.9790  -13.8040   -5.6260 C   0  0  0  0  0
   27.3060   -4.1520   -5.5870 N   0  0  0  0  0
   28.1340  -12.7520   -6.2760 C   0  0  0  0  0
   28.1250  -11.5100   -4.1950 C   0  0  0  0  0
   27.8190  -10.1100   -3.6630 C   0  0  0  0  0
   26.6580   -9.4290   -4.3560 C   0  0  0  0  0
   26.9090   -9.5000   -5.8530 C   0  0  0  0  0
   26.6780  -10.9240   -6.2720 C   0  0  0  0  0
   26.7850   -8.0180   -4.0090 C   0  0  0  0  0
   27.0540   -5.9320   -3.9120 C   0  0  0  0  0
   27.2310   -4.6070   -4.3150 C   0  0  0  0  0
   27.4850   -2.7770   -5.6310 C   0  0  0  0  0
   27.5520   -2.0900   -4.4220 C   0  0  0  0  0
   31.1897  -15.2125   -6.2706 H   0  0  0  0  0
   30.0811  -16.3025   -5.4588 H   0  0  0  0  0
   28.1992  -15.4255   -6.7712 H   0  0  0  0  0
   29.3175  -14.3497   -7.6598 H   0  0  0  0  0
   29.9394  -13.4201   -5.2819 H   0  0  0  0  0
   28.5311  -14.2011   -4.7150 H   0  0  0  0  0
   29.2082  -11.6303   -4.1783 H   0  0  0  0  0
   27.5863  -12.2179   -3.5650 H   0  0  0  0  0
   28.7038   -9.4974   -3.8363 H   0  0  0  0  0
   27.5519  -10.2146   -2.6114 H   0  0  0  0  0
   25.6998   -9.8717   -4.0838 H   0  0  0  0  0
   27.9273   -9.1900   -6.0877 H   0  0  0  0  0
   26.2384   -8.8277   -6.3881 H   0  0  0  0  0
   25.6725  -11.2456   -6.0005 H   0  0  0  0  0
   26.7680  -11.0251   -7.3536 H   0  0  0  0  0
   27.5705   -2.2512   -6.5820 H   0  0  0  0  0
   27.6854   -1.0188   -4.2706 H   0  0  0  0  0
  1  2  1  0  0  0
  6  1  1  0  0  0
  1  7  1  0  0  0
  1 11  1  0  0  0
  3 15  1  0  0  0
 16  3  1  0  0  0
 20  3  1  0  0  0
 15  4  2  0  0  0
 23  5  4  0  0  0
  5 25  4  0  0  0
 10  6  1  0  0  0
  8  9  4  0  0  0
 22  8  4  0  0  0
 21  9  4  0  0  0
 13 10  1  0  0  0
 12 21  4  0  0  0
 22 12  4  0  0  0
 15 13  1  0  0  0
 23 14  4  0  0  0
 14 24  4  0  0  0
 17 16  1  0  0  0
 18 17  1  0  0  0
 18 19  1  0  0  0
 21 18  1  0  0  0
 19 20  1  0  0  0
 22 23  1  0  0  0
 24 25  4  0  0  0
  6 26  1  0  0  0
  6 27  1  0  0  0
 10 28  1  0  0  0
 10 29  1  0  0  0
 13 30  1  0  0  0
 13 31  1  0  0  0
 16 32  1  0  0  0
 16 33  1  0  0  0
 17 34  1  0  0  0
 17 35  1  0  0  0
 18 36  1  0  0  0
 19 37  1  0  0  0
 19 38  1  0  0  0
 20 39  1  0  0  0
 20 40  1  0  0  0
 24 41  1  0  0  0
 25 42  1  0  0  0
M  END
$$$$
