5zun_ligand
  -I-interpret- 

 56 60  0  0  0  0  0  0  0  0999 V2000
   -7.4190   21.7760   -9.3940 C   0  0  0  0  0
   -8.4130   20.9890   -6.3780 C   0  0  0  0  0
  -10.5740   20.1160   -5.7980 C   0  0  0  0  0
   -7.4520   24.5750   -9.3810 C   0  0  0  0  0
  -10.3250   21.5180   -7.7010 C   0  0  0  0  0
  -18.2900   18.2110  -15.8740 C   0  0  0  0  0
  -11.1250   20.7690   -6.8760 C   0  0  0  0  0
  -17.9310   19.2790  -13.7640 C   0  0  0  0  0
  -18.2280   19.8950  -12.4760 C   0  0  0  0  0
  -17.6110   20.7810  -10.2680 C   0  0  0  0  0
  -14.9180   19.9370  -10.7870 C   0  0  0  0  0
  -16.6960   20.2190   -9.2050 C   0  0  0  0  0
  -14.4200   20.0640   -8.4080 C   0  0  0  0  0
   -6.7140   22.5290  -10.3330 C   0  0  0  0  0
   -6.7520   23.8910  -10.3210 C   0  0  0  0  0
   -9.2260   20.2360   -5.5390 C   0  0  0  0  0
  -16.9800   18.3400  -15.5260 C   0  0  0  0  0
   -8.9540   21.6500   -7.4740 C   0  0  0  0  0
   -8.1480   22.4460   -8.4270 C   0  0  0  0  0
   -8.1420   23.8250   -8.4370 C   0  0  0  0  0
  -13.5080   20.6590   -6.2960 C   0  0  0  0  0
  -14.8040   20.5880   -7.0430 C   0  0  0  0  0
  -15.8220   20.4320  -11.9240 C   0  0  0  0  0
  -12.9690   20.5360   -8.5730 C   0  0  0  0  0
  -16.7680   18.9660  -14.3010 N   0  0  0  0  0
  -12.4820   20.6120   -7.1780 N   0  0  0  0  0
  -17.2390   20.2580  -11.5940 N   0  0  0  0  0
  -15.3030   20.5510   -9.4720 N   0  3  0  0  0
  -13.3530   20.7800   -5.0690 O   0  0  0  0  0
  -19.3970   20.0260  -12.1270 O   0  0  0  0  0
  -19.3130   18.8450  -14.6830 S   0  0  0  0  0
   -9.0280   24.6610   -7.2480 Cl  0  0  0  0  0
   -7.3963   20.6866   -9.4212 H   0  0  0  0  0
   -7.3445   21.0614   -6.1750 H   0  0  0  0  0
  -11.2024   19.5049   -5.1501 H   0  0  0  0  0
   -7.4720   25.6647   -9.3673 H   0  0  0  0  0
  -10.7719   22.0237   -8.5569 H   0  0  0  0  0
  -18.6365   17.7568  -16.8023 H   0  0  0  0  0
  -17.5206   21.8672  -10.2764 H   0  0  0  0  0
  -18.6368   20.4872  -10.0453 H   0  0  0  0  0
  -13.8905   20.2216  -11.0136 H   0  0  0  0  0
  -15.0239   18.8551  -10.7074 H   0  0  0  0  0
  -16.7980   19.1338   -9.1993 H   0  0  0  0  0
  -16.9763   20.6504   -8.2440 H   0  0  0  0  0
  -14.5178   18.9811   -8.4844 H   0  0  0  0  0
   -6.1210   22.0178  -11.0913 H   0  0  0  0  0
   -6.2067   24.4448  -11.0853 H   0  0  0  0  0
   -8.7946   19.7374   -4.6710 H   0  0  0  0  0
  -16.1646   17.9825  -16.1548 H   0  0  0  0  0
  -15.5296   19.9445   -6.5456 H   0  0  0  0  0
  -15.2985   21.5577   -7.0999 H   0  0  0  0  0
  -15.6012   19.8515  -12.8198 H   0  0  0  0  0
  -15.6308   21.4935  -12.0813 H   0  0  0  0  0
  -12.8919   21.4874   -9.0993 H   0  0  0  0  0
  -12.3743   19.8638   -9.1916 H   0  0  0  0  0
  -15.2009   21.5653   -9.5069 H   0  0  0  0  0
  1 14  4  0  0  0
 19  1  4  0  0  0
 16  2  4  0  0  0
 18  2  4  0  0  0
  7  3  4  0  0  0
  3 16  4  0  0  0
  4 15  4  0  0  0
 20  4  4  0  0  0
  7  5  4  0  0  0
  5 18  4  0  0  0
  6 17  4  0  0  0
 31  6  4  0  0  0
 26  7  1  0  0  0
  9  8  1  0  0  0
  8 25  4  0  0  0
  8 31  4  0  0  0
 27  9  1  0  0  0
  9 30  2  0  0  0
 12 10  1  0  0  0
 10 27  1  0  0  0
 11 23  1  0  0  0
 28 11  1  0  0  0
 28 12  1  0  0  0
 22 13  1  0  0  0
 13 24  1  0  0  0
 13 28  1  0  0  0
 14 15  4  0  0  0
 25 17  4  0  0  0
 18 19  1  0  0  0
 19 20  4  0  0  0
 20 32  1  0  0  0
 21 22  1  0  0  0
 21 26  1  0  0  0
 21 29  2  0  0  0
 23 27  1  0  0  0
 24 26  1  0  0  0
  1 33  1  0  0  0
  2 34  1  0  0  0
  3 35  1  0  0  0
  4 36  1  0  0  0
  5 37  1  0  0  0
  6 38  1  0  0  0
 10 39  1  0  0  0
 10 40  1  0  0  0
 11 41  1  0  0  0
 11 42  1  0  0  0
 12 43  1  0  0  0
 12 44  1  0  0  0
 13 45  1  0  0  0
 14 46  1  0  0  0
 15 47  1  0  0  0
 16 48  1  0  0  0
 17 49  1  0  0  0
 22 50  1  0  0  0
 22 51  1  0  0  0
 23 52  1  0  0  0
 23 53  1  0  0  0
 24 54  1  0  0  0
 24 55  1  0  0  0
 28 56  1  0  0  0
M  END
$$$$
