2q7o_ligand
  -I-interpret- 

 33 35  0  0  0  0  0  0  0  0999 V2000
   15.6070   10.1350   59.1990 O   0  0  0  0  0
   16.0170   11.3330   59.8650 C   0  0  0  0  0
   14.7600   12.1410   59.8960 C   0  0  0  0  0
   13.7720   11.8250   58.8620 N   0  3  0  0  0
   15.2390   13.4920   59.5480 C   0  0  0  0  0
   14.9920   14.2230   60.7600 O   0  0  0  0  0
   14.4270   13.9530   58.3060 C   0  0  0  0  0
   13.6090   15.1090   58.6080 O   0  0  0  0  0
   13.5700   12.8090   57.8030 C   0  0  0  0  0
   14.1190   12.2240   56.5740 C   0  0  0  0  0
   15.0960   12.7470   55.7730 C   0  0  0  0  0
   15.3390   11.8460   54.7690 N   0  0  0  0  0
   14.5790   10.7690   54.8850 C   0  0  0  0  0
   14.4100    9.5290   54.1450 C   0  0  0  0  0
   15.1740    9.3100   53.0380 O   0  0  0  0  0
   13.4930    8.6490   54.6020 N   0  0  0  0  0
   12.7650    8.8830   55.7080 C   0  0  0  0  0
   12.8570    9.9910   56.4660 N   0  0  0  0  0
   13.7420   10.9120   56.0590 C   0  0  0  0  0
   16.3554    9.5381   59.1270 H   0  0  0  0  0
   16.8362   11.8419   59.3570 H   0  0  0  0  0
   16.4269   11.1476   60.8578 H   0  0  0  0  0
   14.2699   11.9818   60.8565 H   0  0  0  0  0
   12.8777   11.7557   59.3477 H   0  0  0  0  0
   14.1194   10.9866   58.3963 H   0  0  0  0  0
   16.2843   13.6053   59.2607 H   0  0  0  0  0
   15.5371   13.8655   61.4647 H   0  0  0  0  0
   15.1291   14.2456   57.5253 H   0  0  0  0  0
   14.1687   15.8218   58.9246 H   0  0  0  0  0
   12.5440   13.1115   57.5935 H   0  0  0  0  0
   15.5925   13.7079   55.9085 H   0  0  0  0  0
   13.3479    7.7781   54.0912 H   0  0  0  0  0
   12.0486    8.1201   56.0126 H   0  0  0  0  0
  1  2  1  0  0  0
  2  3  1  0  0  0
  3  4  1  0  0  0
  3  5  1  0  0  0
  4  9  1  0  0  0
  5  6  1  0  0  0
  5  7  1  0  0  0
  7  8  1  0  0  0
  7  9  1  0  0  0
  9 10  1  0  0  0
 10 11  4  0  0  0
 10 19  4  0  0  0
 11 12  4  0  0  0
 12 13  4  0  0  0
 13 14  1  0  0  0
 13 19  4  0  0  0
 14 15  2  0  0  0
 14 16  1  0  0  0
 16 17  1  0  0  0
 17 18  2  0  0  0
 18 19  1  0  0  0
  1 20  1  0  0  0
  2 21  1  0  0  0
  2 22  1  0  0  0
  3 23  1  0  0  0
  4 24  1  0  0  0
  4 25  1  0  0  0
  5 26  1  0  0  0
  6 27  1  0  0  0
  7 28  1  0  0  0
  8 29  1  0  0  0
  9 30  1  0  0  0
 11 31  1  0  0  0
 16 32  1  0  0  0
 17 33  1  0  0  0
M  END
$$$$
