1a8i_ligand
  -I-interpret- 

 29 30  0  0  0  0  0  0  0  0999 V2000
   33.9450   22.8240   27.5750 C   0  0  0  0  0
   33.9200   23.1700   26.0400 C   0  0  0  0  0
   33.8830   24.5890   25.9230 O   0  0  0  0  0
   32.6290   22.5860   25.3820 C   0  0  0  0  0
   32.8930   22.6750   23.9970 O   0  0  0  0  0
   32.5680   21.1140   25.7580 C   0  0  0  0  0
   31.4440   20.5260   25.1190 O   0  0  0  0  0
   32.5400   20.8780   27.2650 C   0  0  0  0  0
   32.3740   19.4390   27.7160 C   0  0  0  0  0
   33.4340   18.6670   27.1410 O   0  0  0  0  0
   33.6860   21.4360   27.8970 O   0  0  0  0  0
   35.2410   23.1500   28.1480 N   0  0  0  0  0
   35.0630   23.9880   29.1750 C   0  0  0  0  0
   36.0200   24.4190   29.8700 O   0  0  0  0  0
   33.8110   24.3560   29.4310 N   0  0  0  0  0
   33.0600   23.6720   28.4970 C   0  0  0  0  0
   31.8440   23.7720   28.4710 O   0  0  0  0  0
   34.7955   22.7486   25.5459 H   0  0  0  0  0
   34.6713   24.9627   26.3236 H   0  0  0  0  0
   31.7081   23.0888   25.6772 H   0  0  0  0  0
   32.9355   23.5988   23.7392 H   0  0  0  0  0
   33.4853   20.6379   25.4116 H   0  0  0  0  0
   31.4912   20.6918   24.1746 H   0  0  0  0  0
   31.6300   21.3895   27.5787 H   0  0  0  0  0
   31.4084   19.0524   27.3901 H   0  0  0  0  0
   32.4134   19.3795   28.8037 H   0  0  0  0  0
   33.3465   17.7512   27.4152 H   0  0  0  0  0
   36.1399   22.7969   27.8200 H   0  0  0  0  0
   33.4813   24.9971   30.1526 H   0  0  0  0  0
  1  2  1  0  0  0
  1 11  1  0  0  0
  1 12  1  0  0  0
  1 16  1  0  0  0
  2  3  1  0  0  0
  2  4  1  0  0  0
  4  5  1  0  0  0
  4  6  1  0  0  0
  6  7  1  0  0  0
  6  8  1  0  0  0
  8  9  1  0  0  0
  8 11  1  0  0  0
  9 10  1  0  0  0
 12 13  1  0  0  0
 13 14  2  0  0  0
 13 15  1  0  0  0
 15 16  1  0  0  0
 16 17  2  0  0  0
  2 18  1  0  0  0
  3 19  1  0  0  0
  4 20  1  0  0  0
  5 21  1  0  0  0
  6 22  1  0  0  0
  7 23  1  0  0  0
  8 24  1  0  0  0
  9 25  1  0  0  0
  9 26  1  0  0  0
 10 27  1  0  0  0
 12 28  1  0  0  0
 15 29  1  0  0  0
M  END
$$$$
