5alz_ligand
  -I-interpret- 

 53 56  0  0  0  0  0  0  0  0999 V2000
  -12.5240   11.0880  -22.4160 C   0  0  0  0  0
  -12.0700   11.7530  -20.7900 S   0  0  0  0  0
  -11.0010   10.9930  -20.2310 O   0  0  0  0  0
  -11.9980   13.1750  -20.8370 O   0  0  0  0  0
  -13.4180   11.4290  -19.8580 N   0  0  0  0  0
  -14.5340   12.4020  -19.8040 C   0  0  0  0  0
  -14.9650   12.6420  -18.3520 C   0  0  0  0  0
  -15.2930   11.2880  -17.7040 C   0  0  0  0  0
  -14.0300   10.4070  -17.6710 C   0  0  0  0  0
  -13.5350   10.1530  -19.1120 C   0  0  0  0  0
  -15.8500   11.5020  -16.3610 N   0  0  0  0  0
  -16.6290   10.6060  -15.7170 C   0  0  0  0  0
  -16.8950    9.5640  -16.2830 O   0  0  0  0  0
  -17.1080   10.9120  -14.4700 N   0  0  0  0  0
  -17.9250   10.0860  -13.5400 C   0  0  0  0  0
  -16.9320    9.1440  -12.7860 C   0  0  0  0  0
  -17.6710    8.3060  -11.7060 C   0  0  0  0  0
  -18.3410    9.2540  -10.6700 C   0  0  0  0  0
  -19.3480   10.1800  -11.4020 C   0  0  0  0  0
  -18.6140   11.0180  -12.5010 C   0  0  0  0  0
  -20.4290    9.2920  -12.0730 C   0  0  0  0  0
  -19.7800    8.3570  -13.1290 C   0  0  0  0  0
  -18.7590    7.4410  -12.4010 C   0  0  0  0  0
  -19.0490    9.2290  -14.1950 C   0  0  0  0  0
  -11.6621   11.1386  -23.0814 H   0  0  0  0  0
  -12.8404   10.0506  -22.3074 H   0  0  0  0  0
  -13.3413   11.6767  -22.8326 H   0  0  0  0  0
  -15.3799   12.0031  -20.3639 H   0  0  0  0  0
  -14.2028   13.3461  -20.2365 H   0  0  0  0  0
  -15.8443   13.2858  -18.3288 H   0  0  0  0  0
  -14.1594   13.1294  -17.8028 H   0  0  0  0  0
  -16.0454   10.7651  -18.2944 H   0  0  0  0  0
  -14.2661    9.4544  -17.1968 H   0  0  0  0  0
  -13.2494   10.9154  -17.1050 H   0  0  0  0  0
  -12.5547    9.6783  -19.0695 H   0  0  0  0  0
  -14.2520    9.5104  -19.6229 H   0  0  0  0  0
  -15.6356   12.3793  -15.8870 H   0  0  0  0  0
  -16.8693   11.8432  -14.1290 H   0  0  0  0  0
  -16.1738    9.7550  -12.2963 H   0  0  0  0  0
  -16.4792    8.4637  -13.5073 H   0  0  0  0  0
  -16.9592    7.6629  -11.1884 H   0  0  0  0  0
  -17.5776    9.8585  -10.1803 H   0  0  0  0  0
  -18.8663    8.6630   -9.9197 H   0  0  0  0  0
  -19.8031   10.8643  -10.6860 H   0  0  0  0  0
  -19.3467   11.6383  -13.0173 H   0  0  0  0  0
  -17.8526   11.6340  -12.0227 H   0  0  0  0  0
  -21.1595    9.9330  -12.5667 H   0  0  0  0  0
  -20.9136    8.6836  -11.3094 H   0  0  0  0  0
  -20.5353    7.7475  -13.6251 H   0  0  0  0  0
  -19.2807    6.8486  -11.6493 H   0  0  0  0  0
  -18.2838    6.7837  -13.1292 H   0  0  0  0  0
  -18.5985    8.5696  -14.9369 H   0  0  0  0  0
  -19.7749    9.8984  -14.6566 H   0  0  0  0  0
  1  2  1  0  0  0
  2  3  2  0  0  0
  2  4  2  0  0  0
  2  5  1  0  0  0
  5  6  1  0  0  0
  5 10  1  0  0  0
  6  7  1  0  0  0
  7  8  1  0  0  0
  8  9  1  0  0  0
  8 11  1  0  0  0
  9 10  1  0  0  0
 11 12  1  0  0  0
 12 13  2  0  0  0
 12 14  1  0  0  0
 14 15  1  0  0  0
 15 16  1  0  0  0
 15 20  1  0  0  0
 15 24  1  0  0  0
 16 17  1  0  0  0
 17 18  1  0  0  0
 17 23  1  0  0  0
 18 19  1  0  0  0
 19 20  1  0  0  0
 19 21  1  0  0  0
 21 22  1  0  0  0
 22 23  1  0  0  0
 22 24  1  0  0  0
  1 25  1  0  0  0
  1 26  1  0  0  0
  1 27  1  0  0  0
  6 28  1  0  0  0
  6 29  1  0  0  0
  7 30  1  0  0  0
  7 31  1  0  0  0
  8 32  1  0  0  0
  9 33  1  0  0  0
  9 34  1  0  0  0
 10 35  1  0  0  0
 10 36  1  0  0  0
 11 37  1  0  0  0
 14 38  1  0  0  0
 16 39  1  0  0  0
 16 40  1  0  0  0
 17 41  1  0  0  0
 18 42  1  0  0  0
 18 43  1  0  0  0
 19 44  1  0  0  0
 20 45  1  0  0  0
 20 46  1  0  0  0
 21 47  1  0  0  0
 21 48  1  0  0  0
 22 49  1  0  0  0
 23 50  1  0  0  0
 23 51  1  0  0  0
 24 52  1  0  0  0
 24 53  1  0  0  0
M  END
$$$$
