1o43_ligand
  -I-interpret- 

 77 80  0  0  0  0  0  0  0  0999 V2000
   19.1090   24.6530   20.9790 C   0  0  0  0  0
   19.8740   25.2290   21.9620 C   0  0  0  0  0
   20.1990   26.7220   22.1110 N   0  0  0  0  0
   19.4530   27.4360   22.9610 C   0  0  0  0  0
   19.9140   28.8580   23.2910 C   0  0  0  0  0
   18.5050   26.9250   23.5440 O   0  0  0  0  0
   20.4890   24.3210   23.0460 C   0  0  0  0  0
   21.5830   24.6800   23.5150 O   0  0  0  0  0
   19.7980   23.2000   23.4840 N   0  0  0  0  0
   20.3760   22.3380   24.4690 C   0  0  0  0  0
   19.2390   21.5160   25.0130 C   0  0  0  0  0
   19.5400   20.7790   26.2910 C   0  0  0  0  0
   20.6600   19.7320   26.1690 C   0  0  0  0  0
   22.0260   20.3500   25.8960 C   0  0  0  0  0
   21.4710   21.5380   23.6900 C   0  0  0  0  0
   22.2770   20.6580   24.4650 N   0  0  0  0  0
   21.5960   21.6650   22.4530 O   0  0  0  0  0
   23.3410   19.7770   23.8190 C   0  0  0  0  0
   22.7890   18.4190   23.5060 C   0  0  0  0  0
   23.2840   17.2040   24.0410 C   0  0  0  0  0
   22.5730   15.9950   23.7510 C   0  0  0  0  0
   21.3920   15.9760   22.9450 C   0  0  0  0  0
   20.8810   17.1850   22.4660 C   0  0  0  0  0
   21.5890   18.3930   22.7280 C   0  0  0  0  0
   20.7010   14.7030   22.5220 C   0  0  0  0  0
   21.4360   13.4520   22.4650 C   0  0  0  0  0
   20.6970   12.2360   22.2560 C   0  0  0  0  0
   19.3090   12.2720   22.1050 C   0  0  0  0  0
   18.6080   13.5090   22.0310 C   0  0  0  0  0
   19.2910   14.7110   22.2370 C   0  0  0  0  0
   18.5120   25.4440   19.8810 C   0  0  0  0  0
   19.0000   26.7460   19.5200 C   0  0  0  0  0
   18.4380   27.4950   18.4290 C   0  0  0  0  0
   17.3560   26.9210   17.6610 C   0  0  0  0  0
   16.8850   25.5810   18.0050 C   0  0  0  0  0
   17.4500   24.9080   19.1150 C   0  0  0  0  0
   16.7060   27.8460   16.6030 C   0  0  0  0  0
   15.4030   28.5600   17.2650 C   0  0  0  0  0
   14.5650   29.0270   16.5490 O   0  0  0  0  0
   15.2240   28.5860   18.6430 O   0  0  0  0  0
   16.0550   24.7150   17.1880 C   0  0  0  0  0
   16.6150   24.2000   16.0840 O   0  0  0  0  0
   18.9356   23.5773   21.0084 H   0  0  0  0  0
   20.9562   27.1536   21.5811 H   0  0  0  0  0
   19.0976   29.5557   23.1046 H   0  0  0  0  0
   20.2055   28.9098   24.3400 H   0  0  0  0  0
   20.7660   29.1174   22.6626 H   0  0  0  0  0
   18.8756   22.9900   23.1027 H   0  0  0  0  0
   20.8536   22.8115   25.3268 H   0  0  0  0  0
   19.0092   20.7609   24.2613 H   0  0  0  0  0
   18.4273   22.2092   25.2336 H   0  0  0  0  0
   18.6326   20.2463   26.5754 H   0  0  0  0  0
   19.8716   21.5202   27.0182 H   0  0  0  0  0
   20.4162   19.0814   25.3292 H   0  0  0  0  0
   20.7206   19.1986   27.1176 H   0  0  0  0  0
   22.7767   19.6230   26.2059 H   0  0  0  0  0
   22.0681   21.2930   26.4411 H   0  0  0  0  0
   24.1745   19.6664   24.5127 H   0  0  0  0  0
   23.6694   20.2454   22.8912 H   0  0  0  0  0
   24.1828   17.1898   24.6574 H   0  0  0  0  0
   22.9455   15.0556   24.1594 H   0  0  0  0  0
   19.9508   17.2036   21.8981 H   0  0  0  0  0
   21.2036   19.3284   22.3222 H   0  0  0  0  0
   22.5200   13.4350   22.5777 H   0  0  0  0  0
   21.2226   11.2820   22.2153 H   0  0  0  0  0
   18.7527   11.3367   22.0427 H   0  0  0  0  0
   17.5399   13.5187   21.8139 H   0  0  0  0  0
   18.7534   15.6576   22.1815 H   0  0  0  0  0
   19.8214   27.1793   20.0906 H   0  0  0  0  0
   18.8234   28.4846   18.1837 H   0  0  0  0  0
   17.0488   23.9331   19.3920 H   0  0  0  0  0
   16.4060   27.2609   15.7337 H   0  0  0  0  0
   17.4215   28.6038   16.2839 H   0  0  0  0  0
   15.9793   28.1756   19.0705 H   0  0  0  0  0
   15.2288   25.3355   16.8409 H   0  0  0  0  0
   15.8026   23.8628   17.8190 H   0  0  0  0  0
   15.9744   23.6483   15.6292 H   0  0  0  0  0
  1  2  2  0  0  0
  1 31  1  0  0  0
  2  3  1  0  0  0
  2  7  1  0  0  0
  3  4  1  0  0  0
  4  5  1  0  0  0
  4  6  2  0  0  0
  7  8  2  0  0  0
  7  9  1  0  0  0
  9 10  1  0  0  0
 10 11  1  0  0  0
 10 15  1  0  0  0
 11 12  1  0  0  0
 12 13  1  0  0  0
 13 14  1  0  0  0
 14 16  1  0  0  0
 15 16  1  0  0  0
 15 17  2  0  0  0
 16 18  1  0  0  0
 18 19  1  0  0  0
 19 20  4  0  0  0
 19 24  4  0  0  0
 20 21  4  0  0  0
 21 22  4  0  0  0
 22 23  4  0  0  0
 22 25  1  0  0  0
 23 24  4  0  0  0
 25 26  4  0  0  0
 25 30  4  0  0  0
 26 27  4  0  0  0
 27 28  4  0  0  0
 28 29  4  0  0  0
 29 30  4  0  0  0
 31 32  4  0  0  0
 31 36  4  0  0  0
 32 33  4  0  0  0
 33 34  4  0  0  0
 34 35  4  0  0  0
 34 37  1  0  0  0
 35 36  4  0  0  0
 35 41  1  0  0  0
 37 38  1  0  0  0
 38 39  2  0  0  0
 38 40  1  0  0  0
 41 42  1  0  0  0
  1 43  1  0  0  0
  3 44  1  0  0  0
  5 45  1  0  0  0
  5 46  1  0  0  0
  5 47  1  0  0  0
  9 48  1  0  0  0
 10 49  1  0  0  0
 11 50  1  0  0  0
 11 51  1  0  0  0
 12 52  1  0  0  0
 12 53  1  0  0  0
 13 54  1  0  0  0
 13 55  1  0  0  0
 14 56  1  0  0  0
 14 57  1  0  0  0
 18 58  1  0  0  0
 18 59  1  0  0  0
 20 60  1  0  0  0
 21 61  1  0  0  0
 23 62  1  0  0  0
 24 63  1  0  0  0
 26 64  1  0  0  0
 27 65  1  0  0  0
 28 66  1  0  0  0
 29 67  1  0  0  0
 30 68  1  0  0  0
 32 69  1  0  0  0
 33 70  1  0  0  0
 36 71  1  0  0  0
 37 72  1  0  0  0
 37 73  1  0  0  0
 40 74  1  0  0  0
 41 75  1  0  0  0
 41 76  1  0  0  0
 42 77  1  0  0  0
M  END
$$$$
