4dht_ligand
  -I-interpret- 

 41 42  0  0  0  0  0  0  0  0999 V2000
   22.3510    8.3200  -11.2230 C   0  0  0  0  0
   21.6940    6.9350  -10.9340 C   0  0  0  0  0
   20.8750    7.0270   -9.6370 C   0  0  0  0  0
   21.7360    7.3840   -8.4430 C   0  0  0  0  0
   22.6100    8.6270   -8.7490 C   0  0  0  0  0
   23.3240    8.5940  -10.0960 C   0  0  0  0  0
   23.9530    9.9030  -10.3440 N   0  0  0  0  0
   25.2280   10.0350  -10.6780 C   0  0  0  0  0
   26.0030    9.0800  -10.8200 O   0  0  0  0  0
   25.8040   11.4770  -10.8250 C   0  0  0  0  0
   24.6200   12.3280  -11.0130 O   0  0  0  0  0
   24.7390   13.6840  -10.7360 C   0  0  0  0  0
   26.0130   14.2580  -10.7210 C   0  0  0  0  0
   26.1190   15.6330  -10.4230 C   0  0  0  0  0
   24.9610   16.3590  -10.1380 C   0  0  0  0  0
   23.6690   15.7720  -10.1180 C   0  0  0  0  0
   23.6160   14.4040  -10.3670 C   0  0  0  0  0
   21.9790   13.5290  -10.4290 P   0  0  0  0  0
   20.9160   14.5970   -9.9100 O   0  0  0  0  0
   22.0190   12.2940   -9.4660 O   0  0  0  0  0
   21.6890   13.1150  -11.8330 O   0  0  0  0  0
   21.5935    9.1019  -11.2763 H   0  0  0  0  0
   22.8671    8.3086  -12.1830 H   0  0  0  0  0
   22.4698    6.1772  -10.8245 H   0  0  0  0  0
   21.0401    6.6598  -11.7615 H   0  0  0  0  0
   20.4228    6.0528   -9.4508 H   0  0  0  0  0
   20.1266    7.8095   -9.7624 H   0  0  0  0  0
   22.3892    6.5416   -8.2155 H   0  0  0  0  0
   21.0877    7.6092   -7.5962 H   0  0  0  0  0
   23.3840    8.6649   -7.9825 H   0  0  0  0  0
   21.9402    9.4867   -8.7679 H   0  0  0  0  0
   24.0694    7.7994  -10.0639 H   0  0  0  0  0
   23.3822   10.7436  -10.2547 H   0  0  0  0  0
   26.5008   11.5558  -11.6594 H   0  0  0  0  0
   26.3875   11.7750   -9.9539 H   0  0  0  0  0
   26.8995   13.6605  -10.9335 H   0  0  0  0  0
   27.0929   16.1224  -10.4154 H   0  0  0  0  0
   25.0533   17.4233   -9.9214 H   0  0  0  0  0
   22.7716   16.3579   -9.9194 H   0  0  0  0  0
   21.1272   14.8441   -9.0067 H   0  0  0  0  0
   22.2071   12.5919   -8.5730 H   0  0  0  0  0
  1  2  1  0  0  0
  1  6  1  0  0  0
  2  3  1  0  0  0
  3  4  1  0  0  0
  4  5  1  0  0  0
  5  6  1  0  0  0
  6  7  1  0  0  0
  7  8  1  0  0  0
  8  9  2  0  0  0
  8 10  1  0  0  0
 10 11  1  0  0  0
 11 12  1  0  0  0
 12 13  4  0  0  0
 12 17  4  0  0  0
 13 14  4  0  0  0
 14 15  4  0  0  0
 15 16  4  0  0  0
 16 17  4  0  0  0
 17 18  1  0  0  0
 18 19  1  0  0  0
 18 20  1  0  0  0
 18 21  2  0  0  0
  1 22  1  0  0  0
  1 23  1  0  0  0
  2 24  1  0  0  0
  2 25  1  0  0  0
  3 26  1  0  0  0
  3 27  1  0  0  0
  4 28  1  0  0  0
  4 29  1  0  0  0
  5 30  1  0  0  0
  5 31  1  0  0  0
  6 32  1  0  0  0
  7 33  1  0  0  0
 10 34  1  0  0  0
 10 35  1  0  0  0
 13 36  1  0  0  0
 14 37  1  0  0  0
 15 38  1  0  0  0
 16 39  1  0  0  0
 19 40  1  0  0  0
 20 41  1  0  0  0
M  END
$$$$
