### 
### Created by X-TOOL on Mon Sep 10 21:13:12 2018
### 

@<TRIPOS>MOLECULE
4dht_ligand
   39    40     1     0     0
SMALL
GAST_HUCK


@<TRIPOS>ATOM
      1 CAT        22.3510    8.3200  -11.2230 C.3       1 0KG        -0.0299
      2 CAS        21.6940    6.9350  -10.9340 C.3       1 0KG        -0.0510
      3 CAR        20.8750    7.0270   -9.6370 C.3       1 0KG        -0.0529
      4 CAQ        21.7360    7.3840   -8.4430 C.3       1 0KG        -0.0510
      5 CAU        22.6100    8.6270   -8.7490 C.3       1 0KG        -0.0299
      6 CAP        23.3240    8.5940  -10.0960 C.3       1 0KG         0.0421
      7 NAN        23.9530    9.9030  -10.3440 N.am      1 0KG        -0.2817
      8 CAM        25.2280   10.0350  -10.6780 C.2       1 0KG         0.2074
      9 OAO        26.0030    9.0800  -10.8200 O.2       1 0KG        -0.3941
     10 CAL        25.8040   11.4770  -10.8250 C.3       1 0KG         0.1602
     11 OAK        24.6200   12.3280  -11.0130 O.3       1 0KG        -0.2931
     12 CAB        24.7390   13.6840  -10.7360 C.ar      1 0KG         0.1158
     13 CAA        26.0130   14.2580  -10.7210 C.ar      1 0KG        -0.0277
     14 CAF        26.1190   15.6330  -10.4230 C.ar      1 0KG        -0.0672
     15 CAE        24.9610   16.3590  -10.1380 C.ar      1 0KG        -0.0681
     16 CAD        23.6690   15.7720  -10.1180 C.ar      1 0KG        -0.0499
     17 CAC        23.6160   14.4040  -10.3670 C.ar      1 0KG         0.0641
     18 PAG        21.9790   13.5290  -10.4290 P.3       1 0KG         0.0783
     19 OAI        20.9160   14.5970   -9.9100 O.co2     1 0KG        -0.5643
     20 OAJ        22.0190   12.2940   -9.4660 O.co2     1 0KG        -0.5643
     21 OAH        21.6890   13.1150  -11.8330 O.co2     1 0KG        -0.5643
     22 H1         21.5802    9.1041  -11.2552 H         1 0KG         0.0287
     23 H2         22.8852    8.2912  -12.1842 H         1 0KG         0.0287
     24 H3         22.4781    6.1719  -10.8209 H         1 0KG         0.0266
     25 H4         21.0323    6.6600  -11.7686 H         1 0KG         0.0266
     26 H5         20.3958    6.0546   -9.4505 H         1 0KG         0.0265
     27 H6         20.1016    7.7994   -9.7600 H         1 0KG         0.0265
     28 H7         22.3903    6.5331   -8.2024 H         1 0KG         0.0266
     29 H8         21.0869    7.6023   -7.5822 H         1 0KG         0.0266
     30 H9         23.3721    8.7114   -7.9603 H         1 0KG         0.0287
     31 H10        21.9608    9.5147   -8.7281 H         1 0KG         0.0287
     32 H11        24.0936    7.8082  -10.0781 H         1 0KG         0.0556
     33 H12        23.3934   10.7271  -10.2564 H         1 0KG         0.1855
     34 H13        26.4720   11.5421  -11.6965 H         1 0KG         0.0862
     35 H14        26.3539   11.7705   -9.9187 H         1 0KG         0.0862
     36 H15        26.8947   13.6638  -10.9323 H         1 0KG         0.0552
     37 H16        27.0876   16.1197  -10.4154 H         1 0KG         0.0616
     38 H17        25.0528   17.4174   -9.9226 H         1 0KG         0.0533
     39 H18        22.7765   16.3547   -9.9205 H         1 0KG         0.0634
@<TRIPOS>BOND
     1    1    2 1  
     2    1    6 1  
     3    2    3 1  
     4    3    4 1  
     5    4    5 1  
     6    5    6 1  
     7    6    7 1  
     8    7    8 am 
     9    8    9 2  
    10    8   10 1  
    11   10   11 1  
    12   11   12 1  
    13   12   13 ar 
    14   12   17 ar 
    15   13   14 ar 
    16   14   15 ar 
    17   15   16 ar 
    18   16   17 ar 
    19   17   18 1  
    20   18   19 ar 
    21   18   20 ar 
    22   18   21 ar 
    23    1   22 1  
    24    1   23 1  
    25    2   24 1  
    26    2   25 1  
    27    3   26 1  
    28    3   27 1  
    29    4   28 1  
    30    4   29 1  
    31    5   30 1  
    32    5   31 1  
    33    6   32 1  
    34    7   33 1  
    35   10   34 1  
    36   10   35 1  
    37   13   36 1  
    38   14   37 1  
    39   15   38 1  
    40   16   39 1  
@<TRIPOS>SUBSTRUCTURE
     1 0KG         1

