2e27_ligand
  -I-interpret- 

 46 48  0  0  0  0  0  0  0  0999 V2000
   -2.2050   -2.9410   18.9140 C   0  0  0  0  0
   -1.0870   -3.6720   19.4260 O   0  0  0  0  0
   -1.3900   -4.1940   20.7280 C   0  0  0  0  0
   -1.5150   -3.1340   21.6890 O   0  0  0  0  0
   -0.2330   -2.6080   22.0680 C   0  0  0  0  0
    0.1340   -1.3940   21.2070 C   0  0  0  0  0
    1.4110   -0.7280   21.7300 C   0  0  0  0  0
    1.6520    0.4950   21.0170 O   0  0  0  0  0
    2.8510    1.1860   21.4090 C   0  0  0  0  0
    2.8700    2.3690   20.4330 C   0  0  0  0  0
    3.7270    3.4360   20.6800 C   0  0  0  0  0
    4.5240    3.7730   21.7690 C   0  0  0  0  0
    4.7330    3.1130   22.9740 C   0  0  0  0  0
    4.1480    1.8520   23.3380 O   0  0  0  0  0
    2.8170    1.5470   22.8920 C   0  0  0  0  0
    2.4630    0.2960   23.7020 C   0  0  0  0  0
    2.2950    0.6460   25.0780 O   0  0  0  0  0
    1.1870   -0.3740   23.1920 C   0  0  0  0  0
    0.9310   -1.5780   23.9310 O   0  0  0  0  0
   -0.3150   -2.1620   23.5210 C   0  0  0  0  0
   -0.6360   -3.3540   24.4250 C   0  0  0  0  0
   -0.7520   -2.9070   25.8830 C   0  0  0  0  0
   -1.4540   -1.9430   26.1840 O   0  0  0  0  0
   -0.1350   -3.5040   26.7660 O   0  0  0  0  0
   -3.0679   -3.6030   18.8416 H   0  0  0  0  0
   -2.4352   -2.1140   19.5858 H   0  0  0  0  0
   -1.9607   -2.5509   17.9259 H   0  0  0  0  0
   -0.5801   -4.8544   21.0380 H   0  0  0  0  0
   -2.3352   -4.7346   20.6776 H   0  0  0  0  0
    0.5250   -3.3789   21.9296 H   0  0  0  0  0
   -0.6823   -0.6728   21.2472 H   0  0  0  0  0
    0.3029   -1.7257   20.1825 H   0  0  0  0  0
    2.2565   -1.4038   21.6016 H   0  0  0  0  0
    3.7734    0.6093   21.3407 H   0  0  0  0  0
    2.2206    2.3734   19.5576 H   0  0  0  0  0
    3.7858    4.1491   19.8577 H   0  0  0  0  0
    5.0745    4.7073   21.6594 H   0  0  0  0  0
    5.3923    3.5891   23.6998 H   0  0  0  0  0
    2.1143    2.3702   23.0213 H   0  0  0  0  0
    3.2831   -0.4129   23.5882 H   0  0  0  0  0
    2.0733   -0.1403   25.5822 H   0  0  0  0  0
    0.3360    0.2965   23.3117 H   0  0  0  0  0
   -1.1088   -1.4201   23.6082 H   0  0  0  0  0
    0.1671   -4.0864   24.3427 H   0  0  0  0  0
   -1.5851   -3.7893   24.1122 H   0  0  0  0  0
    0.3625   -4.2259   26.3750 H   0  0  0  0  0
  1  2  1  0  0  0
  2  3  1  0  0  0
  3  4  1  0  0  0
  4  5  1  0  0  0
  5  6  1  0  0  0
  5 20  1  0  0  0
  6  7  1  0  0  0
  7  8  1  0  0  0
  7 18  1  0  0  0
  8  9  1  0  0  0
  9 10  1  0  0  0
  9 15  1  0  0  0
 10 11  2  0  0  0
 11 12  1  0  0  0
 12 13  2  0  0  0
 13 14  1  0  0  0
 14 15  1  0  0  0
 15 16  1  0  0  0
 16 17  1  0  0  0
 16 18  1  0  0  0
 18 19  1  0  0  0
 19 20  1  0  0  0
 20 21  1  0  0  0
 21 22  1  0  0  0
 22 23  2  0  0  0
 22 24  1  0  0  0
  1 25  1  0  0  0
  1 26  1  0  0  0
  1 27  1  0  0  0
  3 28  1  0  0  0
  3 29  1  0  0  0
  5 30  1  0  0  0
  6 31  1  0  0  0
  6 32  1  0  0  0
  7 33  1  0  0  0
  9 34  1  0  0  0
 10 35  1  0  0  0
 11 36  1  0  0  0
 12 37  1  0  0  0
 13 38  1  0  0  0
 15 39  1  0  0  0
 16 40  1  0  0  0
 17 41  1  0  0  0
 18 42  1  0  0  0
 20 43  1  0  0  0
 21 44  1  0  0  0
 21 45  1  0  0  0
 24 46  1  0  0  0
M  END
$$$$
