### 
### Created by X-TOOL on Mon Sep 10 21:13:22 2018
### 

@<TRIPOS>MOLECULE
4z2p_ligand
  164   164     1     0     0
SMALL
GAST_HUCK


@<TRIPOS>ATOM
      1 N          10.8270   51.5120  -34.6300 N.4       1 VAL         0.2381
      2 CA         10.6530   50.7400  -33.3570 C.3       1 VAL         0.0673
      3 C           9.2110   50.2350  -33.2520 C.2       1 VAL         0.2269
      4 O           8.3110   50.7240  -33.9430 O.2       1 VAL        -0.3907
      5 CB         11.0590   51.5390  -32.0750 C.3       1 VAL         0.0139
      6 CG1        12.4240   52.2210  -32.2550 C.3       1 VAL        -0.0553
      7 CG2         9.9890   52.5520  -31.6560 C.3       1 VAL        -0.0553
      8 N           8.9930   49.2720  -32.3620 N.am      1 ALA        -0.2613
      9 CA          7.6700   48.6280  -32.2360 C.3       1 ALA         0.1283
     10 C           6.5560   49.6230  -31.9150 C.2       1 ALA         0.2037
     11 O           6.7770   50.5880  -31.1580 O.2       1 ALA        -0.3944
     12 CB          7.6940   47.5580  -31.1580 C.3       1 ALA        -0.0244
     13 N           5.3700   49.3720  -32.4850 N.am      1 THR        -0.2613
     14 CA          4.1480   50.1080  -32.1380 C.3       1 THR         0.1565
     15 C           3.6570   49.6690  -30.7770 C.2       1 THR         0.2065
     16 O           3.7610   48.4950  -30.4380 O.2       1 THR        -0.3943
     17 CB          2.9990   49.8400  -33.1190 C.3       1 THR         0.0924
     18 OG1         2.7350   48.4260  -33.1890 O.3       1 THR        -0.3874
     19 CG2         3.3510   50.3850  -34.4880 C.3       1 THR        -0.0346
     20 N           3.0780   50.6150  -30.0380 N.am      1 VAL        -0.2634
     21 CA          2.6280   50.3740  -28.6720 C.3       1 VAL         0.1333
     22 C           1.1110   50.4500  -28.6310 C.2       1 VAL         0.2042
     23 O           0.5060   51.4130  -29.0980 O.2       1 VAL        -0.3944
     24 CB          3.2460   51.3900  -27.6850 C.3       1 VAL        -0.0063
     25 CG1         2.8260   51.0630  -26.2480 C.3       1 VAL        -0.0584
     26 CG2         4.7580   51.3610  -27.8120 C.3       1 VAL        -0.0584
     27 N           0.5270   49.4120  -28.0410 N.am      1 SER        -0.2616
     28 CA         -0.9130   49.2660  -27.9100 C.3       1 SER         0.1539
     29 C          -1.1930   49.1490  -26.4310 C.2       1 SER         0.2062
     30 O          -0.4020   48.5600  -25.7000 O.2       1 SER        -0.3943
     31 CB         -1.4120   48.0160  -28.6480 C.3       1 SER         0.0843
     32 OG         -1.3600   48.2390  -30.0560 O.3       1 SER        -0.3903
     33 N          -2.3100   49.7330  -25.9970 N.am      1 GLU        -0.2636
     34 CA         -2.7110   49.6450  -24.5880 C.3       1 GLU         0.1325
     35 C          -2.7720   48.2100  -24.0880 C.2       1 GLU         0.2041
     36 O          -2.4050   47.9270  -22.9320 O.2       1 GLU        -0.3944
     37 CB         -4.0820   50.2870  -24.4090 C.3       1 GLU        -0.0008
     38 CG         -4.5950   50.2950  -22.9730 C.3       1 GLU         0.0044
     39 CD         -6.0130   50.7940  -22.8990 C.2       1 GLU         0.0350
     40 OE1        -6.5300   51.2850  -23.9210 O.co2     1 GLU        -0.5690
     41 OE2        -6.6130   50.6990  -21.8200 O.co2     1 GLU        -0.5690
     42 N          -3.2600   47.3070  -24.9450 N.am      1 SER        -0.2616
     43 CA         -3.3290   45.8730  -24.6000 C.3       1 SER         0.1539
     44 C          -3.4030   45.0170  -25.8680 C.2       1 SER         0.2063
     45 O          -3.5490   45.5170  -27.0070 O.2       1 SER        -0.3943
     46 CB         -4.5240   45.5900  -23.7000 C.3       1 SER         0.0843
     47 OG         -5.7560   45.5340  -24.3930 O.3       1 SER        -0.3903
     48 N          -3.3540   43.7150  -25.6400 N.am      1 PHE        -0.2619
     49 CA         -3.5800   42.7290  -26.6750 C.3       1 PHE         0.1404
     50 C          -5.0140   42.8250  -27.2310 C.2       1 PHE         0.2060
     51 O          -5.2710   42.4100  -28.3540 O.2       1 PHE        -0.3942
     52 CB         -3.3020   41.3530  -26.0530 C.3       1 PHE         0.0214
     53 CG         -3.3990   40.2100  -27.0190 C.ar      1 PHE        -0.0386
     54 CD1        -2.3650   39.9510  -27.8870 C.ar      1 PHE        -0.0601
     55 CD2        -4.5260   39.3620  -27.0400 C.ar      1 PHE        -0.0601
     56 CE1        -2.4210   38.8690  -28.7390 C.ar      1 PHE        -0.0686
     57 CE2        -4.5850   38.2790  -27.8980 C.ar      1 PHE        -0.0686
     58 CZ         -3.5320   38.0300  -28.7540 C.ar      1 PHE        -0.0687
     59 N          -5.9470   43.3720  -26.4470 N.am      1 LEU        -0.2636
     60 CA         -7.3460   43.4950  -26.8880 C.3       1 LEU         0.1312
     61 C          -7.7430   44.8570  -27.4540 C.2       1 LEU         0.2040
     62 O          -8.7530   44.9430  -28.1390 O.2       1 LEU        -0.3944
     63 CB         -8.2990   43.1580  -25.7290 C.3       1 LEU        -0.0101
     64 CG         -8.1730   41.7690  -25.0870 C.3       1 LEU        -0.0425
     65 CD1        -9.2460   41.6710  -24.0110 C.3       1 LEU        -0.0625
     66 CD2        -8.3070   40.6330  -26.1260 C.3       1 LEU        -0.0625
     67 N          -6.9760   45.9010  -27.1450 N.am      1 THR        -0.2613
     68 CA         -7.3830   47.2850  -27.4210 C.3       1 THR         0.1564
     69 C          -6.1700   48.1170  -27.8240 C.2       1 THR         0.2059
     70 O          -5.1330   48.0930  -27.1430 O.2       1 THR        -0.3943
     71 CB         -8.0170   47.9380  -26.1730 C.3       1 THR         0.0924
     72 OG1        -9.1230   47.1420  -25.7240 O.3       1 THR        -0.3874
     73 CG2        -8.4960   49.3870  -26.4690 C.3       1 THR        -0.0346
     74 N          -6.3000   48.8600  -28.9180 N.am      1 GLU        -0.2693
     75 CA         -5.2360   49.7610  -29.3390 C.3       1 GLU         0.0959
     76 C          -5.1450   50.9600  -28.4050 C.2       1 GLU         0.0602
     77 O          -4.0770   51.1860  -27.8440 O.co2     1 GLU        -0.5666
     78 CB         -5.4410   50.2200  -30.7700 C.3       1 GLU        -0.0064
     79 CG         -4.2510   50.9800  -31.3230 C.3       1 GLU         0.0038
     80 CD         -4.3500   51.1800  -32.8200 C.2       1 GLU         0.0350
     81 OE1        -4.5810   50.1820  -33.5380 O.co2     1 GLU        -0.5690
     82 OE2        -4.1980   52.3340  -33.2720 O.co2     1 GLU        -0.5690
     83 OXT        -6.1430   51.6570  -28.2470 O.co2     1 GLU        -0.5666
     84 H1         10.5479   50.9392  -35.4111 H         1 VAL         0.2015
     85 H2         11.7947   51.7742  -34.7344 H         1 VAL         0.2015
     86 H3         10.2554   52.3417  -34.6006 H         1 VAL         0.2015
     87 H4         11.3144   49.8629  -33.4135 H         1 VAL         0.1101
     88 H5         11.1583   50.8118  -31.2557 H         1 VAL         0.0376
     89 H6         12.6814   52.7735  -31.3393 H         1 VAL         0.0236
     90 H7         12.3759   52.9195  -33.1034 H         1 VAL         0.0236
     91 H8         13.1920   51.4583  -32.4511 H         1 VAL         0.0236
     92 H9          9.0244   52.0374  -31.5347 H         1 VAL         0.0236
     93 H10         9.8957   53.3281  -32.4299 H         1 VAL         0.0236
     94 H11        10.2785   53.0179  -30.7025 H         1 VAL         0.0236
     95 H12         9.7399   48.9777  -31.7658 H         1 ALA         0.1884
     96 H13         7.4360   48.1502  -33.1988 H         1 ALA         0.0797
     97 H14         6.7004   47.0924  -31.0814 H         1 ALA         0.0277
     98 H15         7.9600   48.0151  -30.1935 H         1 ALA         0.0277
     99 H16         8.4389   46.7917  -31.4185 H         1 ALA         0.0277
    100 H17         5.3146   48.6521  -33.1769 H         1 THR         0.1884
    101 H18         4.3749   51.1843  -32.1266 H         1 THR         0.0826
    102 H19         2.0948   50.3512  -32.7568 H         1 THR         0.0639
    103 H20         2.4932   48.1071  -32.3273 H         1 THR         0.2101
    104 H21         2.5227   50.1889  -35.1848 H         1 THR         0.0257
    105 H22         4.2634   49.8925  -34.8553 H         1 THR         0.0257
    106 H23         3.5224   51.4693  -34.4181 H         1 THR         0.0257
    107 H24         2.9473   51.5235  -30.4349 H         1 VAL         0.1883
    108 H25         2.9419   49.3636  -28.3711 H         1 VAL         0.0802
    109 H26         2.8856   52.3980  -27.9381 H         1 VAL         0.0343
    110 H27         3.2739   51.7947  -25.5596 H         1 VAL         0.0234
    111 H28         3.1728   50.0526  -25.9855 H         1 VAL         0.0234
    112 H29         1.7299   51.1070  -26.1673 H         1 VAL         0.0234
    113 H30         5.0435   51.5973  -28.8477 H         1 VAL         0.0234
    114 H31         5.1289   50.3594  -27.5489 H         1 VAL         0.0234
    115 H32         5.1975   52.1052  -27.1316 H         1 VAL         0.0234
    116 H33         1.1108   48.6916  -27.6665 H         1 SER         0.1884
    117 H34        -1.4184   50.1524  -28.3210 H         1 SER         0.0823
    118 H35        -2.4491   47.8039  -28.3490 H         1 SER         0.0606
    119 H36        -0.7732   47.1587  -28.3893 H         1 SER         0.0606
    120 H37        -1.6693   47.4639  -30.5099 H         1 SER         0.2097
    121 H38        -2.8835   50.2388  -26.6414 H         1 GLU         0.1883
    122 H39        -1.9745   50.1942  -23.9831 H         1 GLU         0.0801
    123 H40        -4.8036   49.7341  -25.0283 H         1 GLU         0.0330
    124 H41        -4.0217   51.3285  -24.7578 H         1 GLU         0.0330
    125 H42        -3.9527   50.9511  -22.3672 H         1 GLU         0.0433
    126 H43        -4.5546   49.2712  -22.5728 H         1 GLU         0.0433
    127 H44        -3.5859   47.6100  -25.8406 H         1 SER         0.1884
    128 H45        -2.4129   45.6049  -24.0534 H         1 SER         0.0823
    129 H46        -4.5864   46.3869  -22.9444 H         1 SER         0.0606
    130 H47        -4.3619   44.6233  -23.2009 H         1 SER         0.0606
    131 H48        -6.4567   45.3552  -23.7769 H         1 SER         0.2097
    132 H49        -3.1522   43.3985  -24.7131 H         1 PHE         0.1885
    133 H50        -2.8752   42.9012  -27.5018 H         1 PHE         0.0823
    134 H51        -4.0309   41.1855  -25.2464 H         1 PHE         0.0474
    135 H52        -2.2857   41.3637  -25.6324 H         1 PHE         0.0474
    136 H53        -1.4989   40.6027  -27.9015 H         1 PHE         0.0557
    137 H54        -5.3577   39.5621  -26.3741 H         1 PHE         0.0557
    138 H55        -1.5899   38.6688  -29.4055 H         1 PHE         0.0599
    139 H56        -5.4531   37.6298  -27.8980 H         1 PHE         0.0599
    140 H57        -3.5694   37.1865  -29.4339 H         1 PHE         0.0559
    141 H58        -5.6893   43.7054  -25.5401 H         1 LEU         0.1883
    142 H59        -7.4959   42.7535  -27.6865 H         1 LEU         0.0800
    143 H60        -9.3267   43.2527  -26.1096 H         1 LEU         0.0315
    144 H61        -8.1310   43.9030  -24.9373 H         1 LEU         0.0315
    145 H62        -7.1832   41.6836  -24.6148 H         1 LEU         0.0298
    146 H63        -9.1889   40.6859  -23.5249 H         1 LEU         0.0232
    147 H64       -10.2379   41.7966  -24.4697 H         1 LEU         0.0232
    148 H65        -9.0863   42.4597  -23.2610 H         1 LEU         0.0232
    149 H66        -7.5178   40.7357  -26.8854 H         1 LEU         0.0232
    150 H67        -9.2925   40.6939  -26.6108 H         1 LEU         0.0232
    151 H68        -8.2060   39.6608  -25.6214 H         1 LEU         0.0232
    152 H69        -6.0910   45.7367  -26.7093 H         1 THR         0.1884
    153 H70        -8.1156   47.2833  -28.2415 H         1 THR         0.0826
    154 H71        -7.2599   47.9770  -25.3760 H         1 THR         0.0639
    155 H72        -9.5112   47.5455  -24.9565 H         1 THR         0.2101
    156 H73        -8.9406   49.8190  -25.5603 H         1 THR         0.0257
    157 H74        -9.2480   49.3679  -27.2716 H         1 THR         0.0257
    158 H75        -7.6385   49.9995  -26.7844 H         1 THR         0.0257
    159 H76        -7.1389   48.7997  -29.4590 H         1 GLU         0.1875
    160 H77        -4.2840   49.2123  -29.2884 H         1 GLU         0.0727
    161 H78        -6.3233   50.8760  -30.8051 H         1 GLU         0.0323
    162 H79        -5.6162   49.3358  -31.4004 H         1 GLU         0.0323
    163 H80        -3.3342   50.4144  -31.1005 H         1 GLU         0.0432
    164 H81        -4.2015   51.9650  -30.8359 H         1 GLU         0.0432
@<TRIPOS>BOND
     1    1    2 1  
     2    2    3 1  
     3    2    5 1  
     4    3    4 2  
     5    3    8 am 
     6    5    6 1  
     7    5    7 1  
     8    8    9 1  
     9    9   10 1  
    10    9   12 1  
    11   10   11 2  
    12   10   13 am 
    13   13   14 1  
    14   14   15 1  
    15   14   17 1  
    16   15   16 2  
    17   15   20 am 
    18   17   18 1  
    19   17   19 1  
    20   20   21 1  
    21   21   22 1  
    22   21   24 1  
    23   22   23 2  
    24   22   27 am 
    25   24   25 1  
    26   24   26 1  
    27   27   28 1  
    28   28   29 1  
    29   28   31 1  
    30   29   30 2  
    31   29   33 am 
    32   31   32 1  
    33   33   34 1  
    34   34   35 1  
    35   34   37 1  
    36   35   36 2  
    37   35   42 am 
    38   37   38 1  
    39   38   39 1  
    40   39   40 ar 
    41   39   41 ar 
    42   42   43 1  
    43   43   44 1  
    44   43   46 1  
    45   44   45 2  
    46   44   48 am 
    47   46   47 1  
    48   48   49 1  
    49   49   50 1  
    50   49   52 1  
    51   50   51 2  
    52   50   59 am 
    53   52   53 1  
    54   53   54 ar 
    55   53   55 ar 
    56   54   56 ar 
    57   55   57 ar 
    58   56   58 ar 
    59   57   58 ar 
    60   59   60 1  
    61   60   61 1  
    62   60   63 1  
    63   61   62 2  
    64   61   67 am 
    65   63   64 1  
    66   64   65 1  
    67   64   66 1  
    68   67   68 1  
    69   68   69 1  
    70   68   71 1  
    71   69   70 2  
    72   69   74 am 
    73   71   72 1  
    74   71   73 1  
    75   74   75 1  
    76   75   76 1  
    77   75   78 1  
    78   76   77 ar 
    79   76   83 ar 
    80   78   79 1  
    81   79   80 1  
    82   80   81 ar 
    83   80   82 ar 
    84    1   84 1  
    85    1   85 1  
    86    1   86 1  
    87    2   87 1  
    88    5   88 1  
    89    6   89 1  
    90    6   90 1  
    91    6   91 1  
    92    7   92 1  
    93    7   93 1  
    94    7   94 1  
    95    8   95 1  
    96    9   96 1  
    97   12   97 1  
    98   12   98 1  
    99   12   99 1  
   100   13  100 1  
   101   14  101 1  
   102   17  102 1  
   103   18  103 1  
   104   19  104 1  
   105   19  105 1  
   106   19  106 1  
   107   20  107 1  
   108   21  108 1  
   109   24  109 1  
   110   25  110 1  
   111   25  111 1  
   112   25  112 1  
   113   26  113 1  
   114   26  114 1  
   115   26  115 1  
   116   27  116 1  
   117   28  117 1  
   118   31  118 1  
   119   31  119 1  
   120   32  120 1  
   121   33  121 1  
   122   34  122 1  
   123   37  123 1  
   124   37  124 1  
   125   38  125 1  
   126   38  126 1  
   127   42  127 1  
   128   43  128 1  
   129   46  129 1  
   130   46  130 1  
   131   47  131 1  
   132   48  132 1  
   133   49  133 1  
   134   52  134 1  
   135   52  135 1  
   136   54  136 1  
   137   55  137 1  
   138   56  138 1  
   139   57  139 1  
   140   58  140 1  
   141   59  141 1  
   142   60  142 1  
   143   63  143 1  
   144   63  144 1  
   145   64  145 1  
   146   65  146 1  
   147   65  147 1  
   148   65  148 1  
   149   66  149 1  
   150   66  150 1  
   151   66  151 1  
   152   67  152 1  
   153   68  153 1  
   154   71  154 1  
   155   72  155 1  
   156   73  156 1  
   157   73  157 1  
   158   73  158 1  
   159   74  159 1  
   160   75  160 1  
   161   78  161 1  
   162   78  162 1  
   163   79  163 1  
   164   79  164 1  
@<TRIPOS>SUBSTRUCTURE
     1 VAL         1

