4z2p_ligand
  -I-interpret- 

167167  0  0  0  0  0  0  0  0999 V2000
   10.8270   51.5120  -34.6300 N   0  3  0  0  0
   10.6530   50.7400  -33.3570 C   0  0  0  0  0
    9.2110   50.2350  -33.2520 C   0  0  0  0  0
    8.3110   50.7240  -33.9430 O   0  0  0  0  0
   11.0590   51.5390  -32.0750 C   0  0  0  0  0
   12.4240   52.2210  -32.2550 C   0  0  0  0  0
    9.9890   52.5520  -31.6560 C   0  0  0  0  0
    8.9930   49.2720  -32.3620 N   0  0  0  0  0
    7.6700   48.6280  -32.2360 C   0  0  0  0  0
    6.5560   49.6230  -31.9150 C   0  0  0  0  0
    6.7770   50.5880  -31.1580 O   0  0  0  0  0
    7.6940   47.5580  -31.1580 C   0  0  0  0  0
    5.3700   49.3720  -32.4850 N   0  0  0  0  0
    4.1480   50.1080  -32.1380 C   0  0  0  0  0
    3.6570   49.6690  -30.7770 C   0  0  0  0  0
    3.7610   48.4950  -30.4380 O   0  0  0  0  0
    2.9990   49.8400  -33.1190 C   0  0  0  0  0
    2.7350   48.4260  -33.1890 O   0  0  0  0  0
    3.3510   50.3850  -34.4880 C   0  0  0  0  0
    3.0780   50.6150  -30.0380 N   0  0  0  0  0
    2.6280   50.3740  -28.6720 C   0  0  0  0  0
    1.1110   50.4500  -28.6310 C   0  0  0  0  0
    0.5060   51.4130  -29.0980 O   0  0  0  0  0
    3.2460   51.3900  -27.6850 C   0  0  0  0  0
    2.8260   51.0630  -26.2480 C   0  0  0  0  0
    4.7580   51.3610  -27.8120 C   0  0  0  0  0
    0.5270   49.4120  -28.0410 N   0  0  0  0  0
   -0.9130   49.2660  -27.9100 C   0  0  0  0  0
   -1.1930   49.1490  -26.4310 C   0  0  0  0  0
   -0.4020   48.5600  -25.7000 O   0  0  0  0  0
   -1.4120   48.0160  -28.6480 C   0  0  0  0  0
   -1.3600   48.2390  -30.0560 O   0  0  0  0  0
   -2.3100   49.7330  -25.9970 N   0  0  0  0  0
   -2.7110   49.6450  -24.5880 C   0  0  0  0  0
   -2.7720   48.2100  -24.0880 C   0  0  0  0  0
   -2.4050   47.9270  -22.9320 O   0  0  0  0  0
   -4.0820   50.2870  -24.4090 C   0  0  0  0  0
   -4.5950   50.2950  -22.9730 C   0  0  0  0  0
   -6.0130   50.7940  -22.8990 C   0  0  0  0  0
   -6.5300   51.2850  -23.9210 O   0  0  0  0  0
   -6.6130   50.6990  -21.8200 O   0  0  0  0  0
   -3.2600   47.3070  -24.9450 N   0  0  0  0  0
   -3.3290   45.8730  -24.6000 C   0  0  0  0  0
   -3.4030   45.0170  -25.8680 C   0  0  0  0  0
   -3.5490   45.5170  -27.0070 O   0  0  0  0  0
   -4.5240   45.5900  -23.7000 C   0  0  0  0  0
   -5.7560   45.5340  -24.3930 O   0  0  0  0  0
   -3.3540   43.7150  -25.6400 N   0  0  0  0  0
   -3.5800   42.7290  -26.6750 C   0  0  0  0  0
   -5.0140   42.8250  -27.2310 C   0  0  0  0  0
   -5.2710   42.4100  -28.3540 O   0  0  0  0  0
   -3.3020   41.3530  -26.0530 C   0  0  0  0  0
   -3.3990   40.2100  -27.0190 C   0  0  0  0  0
   -2.3650   39.9510  -27.8870 C   0  0  0  0  0
   -4.5260   39.3620  -27.0400 C   0  0  0  0  0
   -2.4210   38.8690  -28.7390 C   0  0  0  0  0
   -4.5850   38.2790  -27.8980 C   0  0  0  0  0
   -3.5320   38.0300  -28.7540 C   0  0  0  0  0
   -5.9470   43.3720  -26.4470 N   0  0  0  0  0
   -7.3460   43.4950  -26.8880 C   0  0  0  0  0
   -7.7430   44.8570  -27.4540 C   0  0  0  0  0
   -8.7530   44.9430  -28.1390 O   0  0  0  0  0
   -8.2990   43.1580  -25.7290 C   0  0  0  0  0
   -8.1730   41.7690  -25.0870 C   0  0  0  0  0
   -9.2460   41.6710  -24.0110 C   0  0  0  0  0
   -8.3070   40.6330  -26.1260 C   0  0  0  0  0
   -6.9760   45.9010  -27.1450 N   0  0  0  0  0
   -7.3830   47.2850  -27.4210 C   0  0  0  0  0
   -6.1700   48.1170  -27.8240 C   0  0  0  0  0
   -5.1330   48.0930  -27.1430 O   0  0  0  0  0
   -8.0170   47.9380  -26.1730 C   0  0  0  0  0
   -9.1230   47.1420  -25.7240 O   0  0  0  0  0
   -8.4960   49.3870  -26.4690 C   0  0  0  0  0
   -6.3000   48.8600  -28.9180 N   0  0  0  0  0
   -5.2360   49.7610  -29.3390 C   0  0  0  0  0
   -5.1450   50.9600  -28.4050 C   0  0  0  0  0
   -4.0770   51.1860  -27.8440 O   0  0  0  0  0
   -5.4410   50.2200  -30.7700 C   0  0  0  0  0
   -4.2510   50.9800  -31.3230 C   0  0  0  0  0
   -4.3500   51.1800  -32.8200 C   0  0  0  0  0
   -4.5810   50.1820  -33.5380 O   0  0  0  0  0
   -4.1980   52.3340  -33.2720 O   0  0  0  0  0
   -6.1430   51.6570  -28.2470 O   0  0  0  0  0
   10.5443   50.9315  -35.4196 H   0  0  0  0  0
   10.2482   52.3513  -34.5991 H   0  0  0  0  0
   11.8065   51.7767  -34.7345 H   0  0  0  0  0
   11.3400   49.8950  -33.4042 H   0  0  0  0  0
   11.1440   50.8138  -31.2657 H   0  0  0  0  0
   12.3469   52.9875  -33.0262 H   0  0  0  0  0
   12.7264   52.6800  -31.3137 H   0  0  0  0  0
   13.1637   51.4777  -32.5524 H   0  0  0  0  0
   10.2770   53.0129  -30.7112 H   0  0  0  0  0
    9.8976   53.3204  -32.4236 H   0  0  0  0  0
    9.0337   52.0409  -31.5361 H   0  0  0  0  0
    9.7549   48.9718  -31.7538 H   0  0  0  0  0
    7.4575   48.1821  -33.2076 H   0  0  0  0  0
    8.4325   46.7993  -31.4173 H   0  0  0  0  0
    7.9578   48.0122  -30.2029 H   0  0  0  0  0
    6.7089   47.0974  -31.0831 H   0  0  0  0  0
    5.3135   48.6377  -33.1907 H   0  0  0  0  0
    4.4119   51.1652  -32.1647 H   0  0  0  0  0
    2.0995   50.3445  -32.7662 H   0  0  0  0  0
    2.0156   48.2660  -33.8041 H   0  0  0  0  0
    3.5206   51.4594  -34.4173 H   0  0  0  0  0
    4.2552   49.8962  -34.8507 H   0  0  0  0  0
    2.5296   50.1901  -35.1775 H   0  0  0  0  0
    2.9447   51.5417  -30.4428 H   0  0  0  0  0
    2.9576   49.3818  -28.3638 H   0  0  0  0  0
    2.8840   52.3893  -27.9269 H   0  0  0  0  0
    1.7397   51.1069  -26.1694 H   0  0  0  0  0
    3.1702   50.0617  -25.9892 H   0  0  0  0  0
    3.2704   51.7887  -25.5669 H   0  0  0  0  0
    5.1217   50.3600  -27.5800 H   0  0  0  0  0
    5.0409   51.6246  -28.8311 H   0  0  0  0  0
    5.1936   52.0777  -27.1158 H   0  0  0  0  0
    1.1225   48.6772  -27.6590 H   0  0  0  0  0
   -1.4304   50.1184  -28.3502 H   0  0  0  0  0
   -2.4400   47.8069  -28.3521 H   0  0  0  0  0
   -0.7781   47.1671  -28.3921 H   0  0  0  0  0
   -1.6726   47.4557  -30.5147 H   0  0  0  0  0
   -2.8950   50.2489  -26.6543 H   0  0  0  0  0
   -1.9546   50.1700  -24.0046 H   0  0  0  0  0
   -4.7879   49.6998  -24.9963 H   0  0  0  0  0
   -3.9897   51.3275  -24.7202 H   0  0  0  0  0
   -3.9631   50.9593  -22.3835 H   0  0  0  0  0
   -4.5666   49.2750  -22.5897 H   0  0  0  0  0
   -5.8960   51.2622  -24.6415 H   0  0  0  0  0
   -3.5924   47.6160  -25.8585 H   0  0  0  0  0
   -2.4209   45.6115  -24.0568 H   0  0  0  0  0
   -4.5911   46.4061  -22.9806 H   0  0  0  0  0
   -4.3631   44.6145  -23.2412 H   0  0  0  0  0
   -6.4641   45.3533  -23.7705 H   0  0  0  0  0
   -3.1482   43.3922  -24.6946 H   0  0  0  0  0
   -2.9172   42.8994  -27.5234 H   0  0  0  0  0
   -4.0574   41.1892  -25.2845 H   0  0  0  0  0
   -2.2787   41.3707  -25.6779 H   0  0  0  0  0
   -1.4941   40.6063  -27.9016 H   0  0  0  0  0
   -5.3623   39.5632  -26.3705 H   0  0  0  0  0
   -1.5853   38.6677  -29.4092 H   0  0  0  0  0
   -5.4579   37.6262  -27.8980 H   0  0  0  0  0
   -3.5696   37.1819  -29.4376 H   0  0  0  0  0
   -5.6841   43.7121  -25.5220 H   0  0  0  0  0
   -7.4313   42.7851  -27.7107 H   0  0  0  0  0
   -9.3019   43.1942  -26.1544 H   0  0  0  0  0
   -8.0610   43.8690  -24.9379 H   0  0  0  0  0
   -7.1811   41.6496  -24.6511 H   0  0  0  0  0
   -9.0867   42.4530  -23.2686 H   0  0  0  0  0
  -10.2283   41.7956  -24.4668 H   0  0  0  0  0
   -9.1884   40.6945  -23.5301 H   0  0  0  0  0
   -9.2822   40.6970  -26.6087 H   0  0  0  0  0
   -7.5219   40.7334  -26.8755 H   0  0  0  0  0
   -8.2110   39.6702  -25.6241 H   0  0  0  0  0
   -6.0733   45.7334  -26.7006 H   0  0  0  0  0
   -8.1141   47.2563  -28.2290 H   0  0  0  0  0
   -7.2568   47.9897  -25.3936 H   0  0  0  0  0
   -9.5153   47.5498  -24.9485 H   0  0  0  0  0
   -7.6454   49.9928  -26.7815 H   0  0  0  0  0
   -9.2410   49.3667  -27.2644 H   0  0  0  0  0
   -8.9363   49.8140  -25.5679 H   0  0  0  0  0
   -7.1557   48.7985  -29.4698 H   0  0  0  0  0
   -4.2961   49.2112  -29.2912 H   0  0  0  0  0
   -6.3000   50.8909  -30.7843 H   0  0  0  0  0
   -5.5847   49.3327  -31.3866 H   0  0  0  0  0
   -3.3512   50.4008  -31.1158 H   0  0  0  0  0
   -4.2242   51.9615  -30.8496 H   0  0  0  0  0
   -4.6614   49.4022  -32.9838 H   0  0  0  0  0
   -6.8639   51.3059  -28.7748 H   0  0  0  0  0
  1  2  1  0  0  0
  2  3  1  0  0  0
  2  5  1  0  0  0
  3  4  2  0  0  0
  3  8  1  0  0  0
  5  6  1  0  0  0
  5  7  1  0  0  0
  8  9  1  0  0  0
  9 10  1  0  0  0
  9 12  1  0  0  0
 10 11  2  0  0  0
 10 13  1  0  0  0
 13 14  1  0  0  0
 14 15  1  0  0  0
 14 17  1  0  0  0
 15 16  2  0  0  0
 15 20  1  0  0  0
 17 18  1  0  0  0
 17 19  1  0  0  0
 20 21  1  0  0  0
 21 22  1  0  0  0
 21 24  1  0  0  0
 22 23  2  0  0  0
 22 27  1  0  0  0
 24 25  1  0  0  0
 24 26  1  0  0  0
 27 28  1  0  0  0
 28 29  1  0  0  0
 28 31  1  0  0  0
 29 30  2  0  0  0
 29 33  1  0  0  0
 31 32  1  0  0  0
 33 34  1  0  0  0
 34 35  1  0  0  0
 34 37  1  0  0  0
 35 36  2  0  0  0
 35 42  1  0  0  0
 37 38  1  0  0  0
 38 39  1  0  0  0
 39 40  1  0  0  0
 39 41  2  0  0  0
 42 43  1  0  0  0
 43 44  1  0  0  0
 43 46  1  0  0  0
 44 45  2  0  0  0
 44 48  1  0  0  0
 46 47  1  0  0  0
 48 49  1  0  0  0
 49 50  1  0  0  0
 49 52  1  0  0  0
 50 51  2  0  0  0
 50 59  1  0  0  0
 52 53  1  0  0  0
 53 54  4  0  0  0
 53 55  4  0  0  0
 54 56  4  0  0  0
 55 57  4  0  0  0
 56 58  4  0  0  0
 57 58  4  0  0  0
 59 60  1  0  0  0
 60 61  1  0  0  0
 60 63  1  0  0  0
 61 62  2  0  0  0
 61 67  1  0  0  0
 63 64  1  0  0  0
 64 65  1  0  0  0
 64 66  1  0  0  0
 67 68  1  0  0  0
 68 69  1  0  0  0
 68 71  1  0  0  0
 69 70  2  0  0  0
 69 74  1  0  0  0
 71 72  1  0  0  0
 71 73  1  0  0  0
 74 75  1  0  0  0
 75 76  1  0  0  0
 75 78  1  0  0  0
 76 77  2  0  0  0
 76 83  1  0  0  0
 78 79  1  0  0  0
 79 80  1  0  0  0
 80 81  1  0  0  0
 80 82  2  0  0  0
  1 84  1  0  0  0
  1 85  1  0  0  0
  1 86  1  0  0  0
  2 87  1  0  0  0
  5 88  1  0  0  0
  6 89  1  0  0  0
  6 90  1  0  0  0
  6 91  1  0  0  0
  7 92  1  0  0  0
  7 93  1  0  0  0
  7 94  1  0  0  0
  8 95  1  0  0  0
  9 96  1  0  0  0
 12 97  1  0  0  0
 12 98  1  0  0  0
 12 99  1  0  0  0
 13100  1  0  0  0
 14101  1  0  0  0
 17102  1  0  0  0
 18103  1  0  0  0
 19104  1  0  0  0
 19105  1  0  0  0
 19106  1  0  0  0
 20107  1  0  0  0
 21108  1  0  0  0
 24109  1  0  0  0
 25110  1  0  0  0
 25111  1  0  0  0
 25112  1  0  0  0
 26113  1  0  0  0
 26114  1  0  0  0
 26115  1  0  0  0
 27116  1  0  0  0
 28117  1  0  0  0
 31118  1  0  0  0
 31119  1  0  0  0
 32120  1  0  0  0
 33121  1  0  0  0
 34122  1  0  0  0
 37123  1  0  0  0
 37124  1  0  0  0
 38125  1  0  0  0
 38126  1  0  0  0
 40127  1  0  0  0
 42128  1  0  0  0
 43129  1  0  0  0
 46130  1  0  0  0
 46131  1  0  0  0
 47132  1  0  0  0
 48133  1  0  0  0
 49134  1  0  0  0
 52135  1  0  0  0
 52136  1  0  0  0
 54137  1  0  0  0
 55138  1  0  0  0
 56139  1  0  0  0
 57140  1  0  0  0
 58141  1  0  0  0
 59142  1  0  0  0
 60143  1  0  0  0
 63144  1  0  0  0
 63145  1  0  0  0
 64146  1  0  0  0
 65147  1  0  0  0
 65148  1  0  0  0
 65149  1  0  0  0
 66150  1  0  0  0
 66151  1  0  0  0
 66152  1  0  0  0
 67153  1  0  0  0
 68154  1  0  0  0
 71155  1  0  0  0
 72156  1  0  0  0
 73157  1  0  0  0
 73158  1  0  0  0
 73159  1  0  0  0
 74160  1  0  0  0
 75161  1  0  0  0
 78162  1  0  0  0
 78163  1  0  0  0
 79164  1  0  0  0
 79165  1  0  0  0
 81166  1  0  0  0
 83167  1  0  0  0
M  END
$$$$
