4ibj_ligand
  -I-interpret- 

 53 56  0  0  0  0  0  0  0  0999 V2000
   -0.3230   21.4850    4.9720 F   0  0  0  0  0
   -0.3360   22.8110    4.8800 C   0  0  0  0  0
    0.2120   23.3210    5.9790 F   0  0  0  0  0
   -1.5910   23.2230    4.7790 F   0  0  0  0  0
    0.3940   23.2350    3.6450 C   0  0  0  0  0
    0.8510   22.2710    2.7640 C   0  0  0  0  0
    0.6070   24.5780    3.3620 C   0  0  0  0  0
    1.2780   24.9540    2.2050 C   0  0  0  0  0
    1.7350   23.9780    1.3290 C   0  0  0  0  0
    1.5080   22.6330    1.6010 C   0  0  0  0  0
    2.0060   21.5510    0.6950 C   0  0  0  0  0
    1.2010   20.7450   -0.0400 N   0  0  0  0  0
    0.1910   21.1080   -1.0070 C   0  0  0  0  0
   -1.0530   20.4940   -0.9440 C   0  0  0  0  0
   -2.0450   20.7930   -1.8700 C   0  0  0  0  0
   -3.3740   20.1190   -1.7710 C   0  0  0  0  0
   -4.2850   20.3730   -2.6050 O   0  0  0  0  0
   -3.5850   19.2880   -0.8480 O   0  0  0  0  0
   -1.7880   21.7160   -2.8760 C   0  0  0  0  0
   -0.5450   22.3290   -2.9470 C   0  0  0  0  0
    0.4450   22.0240   -2.0190 C   0  0  0  0  0
    1.7120   19.5080   -0.0410 C   0  0  0  0  0
    1.1560   18.4210   -0.6740 O   0  0  0  0  0
    2.8880   19.5030    0.6860 C   0  0  0  0  0
    3.7110   18.4190    0.8980 O   0  0  0  0  0
    3.1070   20.8050    1.1400 C   0  0  0  0  0
    4.4750   21.3650    1.3680 C   0  0  0  0  0
    4.3960   22.7210    1.5670 O   0  0  0  0  0
    5.1700   20.7510    2.5410 C   0  0  0  0  0
    6.5500   20.8910    2.6320 C   0  0  0  0  0
    7.2540   20.3530    3.6960 C   0  0  0  0  0
    8.7350   20.5240    3.7480 C   0  0  0  0  0
    9.0430   21.7240    3.2670 F   0  0  0  0  0
    9.1760   20.4100    4.9980 F   0  0  0  0  0
    9.3030   19.5890    2.9960 F   0  0  0  0  0
    6.5680   19.6630    4.6860 C   0  0  0  0  0
    5.1880   19.5150    4.6100 C   0  0  0  0  0
    4.4850   20.0600    3.5380 C   0  0  0  0  0
    0.6920   21.2162    2.9881 H   0  0  0  0  0
    0.2458   25.3411    4.0514 H   0  0  0  0  0
    1.4448   26.0087    1.9861 H   0  0  0  0  0
    2.2729   24.2668    0.4260 H   0  0  0  0  0
    2.2754   22.3193   -0.0297 H   0  0  0  0  0
   -1.2542   19.7672   -0.1570 H   0  0  0  0  0
   -3.9665   21.0210   -3.2377 H   0  0  0  0  0
   -2.5598   21.9578   -3.6068 H   0  0  0  0  0
   -0.3433   23.0543   -3.7353 H   0  0  0  0  0
    1.4211   22.5045   -2.0862 H   0  0  0  0  0
    3.3301   17.6430    0.4805 H   0  0  0  0  0
    7.0865   21.4330    1.8532 H   0  0  0  0  0
    7.1140   19.2353    5.5269 H   0  0  0  0  0
    4.6551   18.9717    5.3904 H   0  0  0  0  0
    3.4025   19.9462    3.4794 H   0  0  0  0  0
  1  2  1  0  0  0
  2  3  1  0  0  0
  2  4  1  0  0  0
  2  5  1  0  0  0
  5  6  4  0  0  0
  5  7  4  0  0  0
  6 10  4  0  0  0
  7  8  4  0  0  0
  8  9  4  0  0  0
  9 10  4  0  0  0
 10 11  1  0  0  0
 11 12  1  0  0  0
 11 26  1  0  0  0
 12 13  1  0  0  0
 12 22  1  0  0  0
 13 14  4  0  0  0
 13 21  4  0  0  0
 14 15  4  0  0  0
 15 16  1  0  0  0
 15 19  4  0  0  0
 16 17  1  0  0  0
 16 18  2  0  0  0
 19 20  4  0  0  0
 20 21  4  0  0  0
 22 23  2  0  0  0
 22 24  1  0  0  0
 24 25  1  0  0  0
 24 26  2  0  0  0
 26 27  1  0  0  0
 27 28  2  0  0  0
 27 29  1  0  0  0
 29 30  4  0  0  0
 29 38  4  0  0  0
 30 31  4  0  0  0
 31 32  1  0  0  0
 31 36  4  0  0  0
 32 33  1  0  0  0
 32 34  1  0  0  0
 32 35  1  0  0  0
 36 37  4  0  0  0
 37 38  4  0  0  0
  6 39  1  0  0  0
  7 40  1  0  0  0
  8 41  1  0  0  0
  9 42  1  0  0  0
 11 43  1  0  0  0
 14 44  1  0  0  0
 17 45  1  0  0  0
 19 46  1  0  0  0
 20 47  1  0  0  0
 21 48  1  0  0  0
 25 49  1  0  0  0
 30 50  1  0  0  0
 36 51  1  0  0  0
 37 52  1  0  0  0
 38 53  1  0  0  0
M  END
$$$$
