2am2_ligand
  -I-interpret- 

 48 50  0  0  0  0  0  0  0  0999 V2000
   11.9860   46.5450   55.9120 C   0  0  0  0  0
   11.4760   46.4450   53.6050 C   0  0  0  0  0
   15.1220   44.7260   54.5920 C   0  0  0  0  0
   14.8400   45.2570   56.9680 C   0  0  0  0  0
   18.2250   42.7950   53.9370 C   0  0  0  0  0
   19.2600   43.3190   53.1500 C   0  0  0  0  0
   20.5750   42.8510   53.2700 C   0  0  0  0  0
   20.8880   41.8250   54.1980 C   0  0  0  0  0
   22.3220   41.3530   50.7970 C   0  0  0  0  0
   21.5470   41.8520   49.5700 C   0  0  0  0  0
   13.1010   45.8600   55.1740 C   0  0  0  0  0
   12.8120   45.8030   53.8720 C   0  0  0  0  0
   14.3910   45.2640   55.5810 C   0  0  0  0  0
   14.1810   44.9820   53.1210 S   0  0  0  0  0
   10.7810   46.4570   54.9660 C   0  0  0  0  0
   16.3430   44.1090   54.7050 N   0  0  0  0  0
   15.2050   45.2590   58.0750 N   0  0  0  0  0
   16.8900   43.3680   53.7300 C   0  0  0  0  0
   16.3290   43.1970   52.6520 O   0  0  0  0  0
   18.5080   41.7510   54.8950 C   0  0  0  0  0
   19.8520   41.2730   55.0120 C   0  0  0  0  0
   17.2650   41.0630   55.9150 Cl  0  0  0  0  0
   21.8400   43.6260   52.2040 S   0  0  0  0  0
   23.0150   42.4590   51.6020 N   0  0  0  0  0
   22.5550   44.5900   52.9760 O   0  0  0  0  0
   21.1950   44.3070   51.1160 O   0  0  0  0  0
   23.9890   43.2380   50.7450 C   0  0  0  0  0
   25.1080   42.3720   50.1430 C   0  0  0  0  0
   12.2352   47.5772   56.1583 H   0  0  0  0  0
   11.7838   46.0723   56.8731 H   0  0  0  0  0
   10.9016   45.8988   52.8568 H   0  0  0  0  0
   11.5792   47.4473   53.1892 H   0  0  0  0  0
   19.0371   44.1065   52.4301 H   0  0  0  0  0
   21.9112   41.4605   54.2893 H   0  0  0  0  0
   23.1030   40.6859   50.4322 H   0  0  0  0  0
   21.5988   40.8795   51.4611 H   0  0  0  0  0
   20.7706   42.5469   49.8901 H   0  0  0  0  0
   22.2322   42.3587   48.8904 H   0  0  0  0  0
   21.0896   41.0036   49.0610 H   0  0  0  0  0
   10.0655   47.2703   55.0877 H   0  0  0  0  0
   10.1448   45.5898   55.1430 H   0  0  0  0  0
   16.8616   44.2199   55.5763 H   0  0  0  0  0
   20.0863   40.4835   55.7261 H   0  0  0  0  0
   24.4612   43.9849   51.3833 H   0  0  0  0  0
   23.4252   43.6661   49.9162 H   0  0  0  0  0
   25.6795   41.9085   50.9472 H   0  0  0  0  0
   24.6681   41.5973   49.5149 H   0  0  0  0  0
   25.7668   42.9985   49.5417 H   0  0  0  0  0
 11  1  1  0  0  0
  1 15  1  0  0  0
 12  2  1  0  0  0
  2 15  1  0  0  0
  3 13  4  0  0  0
  3 14  4  0  0  0
 16  3  1  0  0  0
 13  4  1  0  0  0
  4 17  3  0  0  0
  6  5  4  0  0  0
  5 18  1  0  0  0
  5 20  4  0  0  0
  7  6  4  0  0  0
  7  8  4  0  0  0
 23  7  1  0  0  0
  8 21  4  0  0  0
  9 10  1  0  0  0
 24  9  1  0  0  0
 12 11  4  0  0  0
 13 11  4  0  0  0
 14 12  4  0  0  0
 18 16  1  0  0  0
 18 19  2  0  0  0
 21 20  4  0  0  0
 20 22  1  0  0  0
 23 24  1  0  0  0
 23 25  2  0  0  0
 23 26  2  0  0  0
 24 27  1  0  0  0
 27 28  1  0  0  0
  1 29  1  0  0  0
  1 30  1  0  0  0
  2 31  1  0  0  0
  2 32  1  0  0  0
  6 33  1  0  0  0
  8 34  1  0  0  0
  9 35  1  0  0  0
  9 36  1  0  0  0
 10 37  1  0  0  0
 10 38  1  0  0  0
 10 39  1  0  0  0
 15 40  1  0  0  0
 15 41  1  0  0  0
 16 42  1  0  0  0
 21 43  1  0  0  0
 27 44  1  0  0  0
 27 45  1  0  0  0
 28 46  1  0  0  0
 28 47  1  0  0  0
 28 48  1  0  0  0
M  END
$$$$
