3h98_ligand
  -I-interpret- 

 57 60  0  0  0  0  0  0  0  0999 V2000
    4.9820   -8.8960   -9.6940 C   0  0  0  0  0
    6.4900   -9.1390   -9.6140 C   0  0  0  0  0
    6.7380   -9.4220   -8.1300 C   0  0  0  0  0
    6.9480  -10.2690  -10.5070 C   0  0  0  0  0
    8.4510  -10.4250  -10.5270 C   0  0  0  0  0
    8.9780   -8.9450  -12.4630 C   0  0  0  0  0
    9.5850   -7.6880  -12.9660 C   0  0  0  0  0
    9.1090   -9.2310  -11.0890 N   0  0  0  0  0
   10.5130   -7.3420  -10.7180 N   0  0  0  0  0
    8.3030   -9.6340  -13.2290 O   0  0  0  0  0
   10.4530   -6.9730  -12.0070 C   0  0  0  0  0
   11.0670   -5.8580  -12.3880 O   0  0  0  0  0
   10.1030   -8.6130   -9.0250 N   0  0  0  0  0
   11.1530   -6.8040   -9.6720 C   0  0  0  0  0
   10.8990   -7.6130   -8.6050 C   0  0  0  0  0
    9.8800   -8.4320  -10.3230 C   0  0  0  0  0
    9.6620   -7.4930  -14.3900 C   0  0  0  0  0
   10.1940   -7.6570  -17.2470 C   0  0  0  0  0
    9.4050   -8.6440  -16.5240 C   0  0  0  0  0
    8.7950   -9.6570  -17.2480 C   0  0  0  0  0
    9.8280   -8.7350  -23.0420 O   0  0  0  0  0
   10.2940   -8.1480  -21.8190 S   0  0  0  0  0
    9.7500   -6.9130  -21.4460 O   0  0  0  0  0
   11.9790   -8.0910  -21.9570 C   0  0  0  0  0
    9.8640   -9.1420  -20.6380 N   0  0  0  0  0
    9.7430   -8.8850  -19.3090 C   0  0  0  0  0
   10.3610   -7.8050  -18.6370 C   0  0  0  0  0
   10.7800   -6.3990  -16.3890 S   0  0  0  0  0
    9.9780   -5.2130  -16.7360 O   0  0  0  0  0
   12.1460   -6.2550  -16.7680 O   0  0  0  0  0
   10.5410   -6.5750  -14.8100 N   0  0  0  0  0
    8.9440   -9.7880  -18.6050 C   0  0  0  0  0
    9.1870   -8.4840  -15.1920 N   0  0  0  0  0
    4.7099   -8.6433  -10.7188 H   0  0  0  0  0
    4.4531   -9.7987   -9.3884 H   0  0  0  0  0
    4.7122   -8.0734   -9.0317 H   0  0  0  0  0
    7.0646   -8.2855   -9.9738 H   0  0  0  0  0
    6.1955  -10.3210   -7.8373 H   0  0  0  0  0
    7.8050   -9.5694   -7.9629 H   0  0  0  0  0
    6.3894   -8.5765   -7.5370 H   0  0  0  0  0
    6.6214  -10.0460  -11.5227 H   0  0  0  0  0
    6.5208  -11.1945  -10.1209 H   0  0  0  0  0
    8.7014  -11.2835  -11.1501 H   0  0  0  0  0
    8.7983  -10.5616   -9.5029 H   0  0  0  0  0
    8.8080   -6.9236  -12.9611 H   0  0  0  0  0
   11.2062   -7.7260  -12.2391 H   0  0  0  0  0
   10.9357   -5.7276  -13.3300 H   0  0  0  0  0
   11.7581   -5.8974   -9.6736 H   0  0  0  0  0
   11.2743   -7.4744   -7.5911 H   0  0  0  0  0
    8.1725  -10.3777  -16.7177 H   0  0  0  0  0
   12.3661   -9.1017  -22.0865 H   0  0  0  0  0
   12.2513   -7.4830  -22.8197 H   0  0  0  0  0
   12.4016   -7.6517  -21.0534 H   0  0  0  0  0
    9.6521  -10.0983  -20.9226 H   0  0  0  0  0
   10.9652   -7.0889  -19.1939 H   0  0  0  0  0
    8.4390  -10.5965  -19.1336 H   0  0  0  0  0
    8.6004   -9.1870  -14.7425 H   0  0  0  0  0
  2  1  1  0  0  0
  2  3  1  0  0  0
  4  2  1  0  0  0
  5  4  1  0  0  0
  8  5  1  0  0  0
  7  6  1  0  0  0
  6  8  1  0  0  0
  6 10  2  0  0  0
  7 11  1  0  0  0
 17  7  1  0  0  0
  8 16  1  0  0  0
 11  9  1  0  0  0
  9 14  4  0  0  0
  9 16  4  0  0  0
 11 12  1  0  0  0
 13 15  4  0  0  0
 16 13  4  0  0  0
 14 15  4  0  0  0
 17 31  2  0  0  0
 33 17  1  0  0  0
 18 19  4  0  0  0
 27 18  4  0  0  0
 18 28  1  0  0  0
 19 20  4  0  0  0
 19 33  1  0  0  0
 20 32  4  0  0  0
 22 21  2  0  0  0
 22 23  2  0  0  0
 22 24  1  0  0  0
 25 22  1  0  0  0
 26 25  1  0  0  0
 26 27  4  0  0  0
 26 32  4  0  0  0
 28 29  2  0  0  0
 28 30  2  0  0  0
 28 31  1  0  0  0
  1 34  1  0  0  0
  1 35  1  0  0  0
  1 36  1  0  0  0
  2 37  1  0  0  0
  3 38  1  0  0  0
  3 39  1  0  0  0
  3 40  1  0  0  0
  4 41  1  0  0  0
  4 42  1  0  0  0
  5 43  1  0  0  0
  5 44  1  0  0  0
  7 45  1  0  0  0
 11 46  1  0  0  0
 12 47  1  0  0  0
 14 48  1  0  0  0
 15 49  1  0  0  0
 20 50  1  0  0  0
 24 51  1  0  0  0
 24 52  1  0  0  0
 24 53  1  0  0  0
 25 54  1  0  0  0
 27 55  1  0  0  0
 32 56  1  0  0  0
 33 57  1  0  0  0
M  END
$$$$
