5k9w_ligand
  -I-interpret- 

 29 30  0  0  0  0  0  0  0  0999 V2000
   32.0670  -34.5270  -17.4040 N   0  3  0  0  0
   32.4760  -34.6160  -15.9990 C   0  0  0  0  0
   33.4500  -33.5490  -15.4930 C   0  0  0  0  0
   33.7610  -32.4940  -16.4130 C   0  0  0  0  0
   33.1420  -32.3430  -17.7680 C   0  0  0  0  0
   31.9310  -33.1680  -17.9770 C   0  0  0  0  0
   34.2800  -33.3910  -14.1330 S   0  0  0  0  0
   35.0470  -32.0480  -14.4250 C   0  0  0  0  0
   34.7910  -31.5580  -15.7110 C   0  0  0  0  0
   35.3860  -30.2670  -16.3530 C   0  0  0  0  0
   36.0300  -29.4660  -15.6460 O   0  0  0  0  0
   35.2010  -30.0150  -17.6110 O   0  0  0  0  0
   35.9570  -31.3140  -13.6440 N   0  0  0  0  0
   36.4120  -31.7500  -12.4100 C   0  0  0  0  0
   37.4310  -30.8200  -11.8080 C   0  0  0  0  0
   38.3940  -31.4070  -11.2100 O   0  0  0  0  0
   37.2960  -29.5930  -12.0130 O   0  0  0  0  0
   36.0560  -32.7960  -11.8450 O   0  0  0  0  0
   31.1376  -34.9446  -17.4515 H   0  0  0  0  0
   32.8055  -34.9834  -17.9395 H   0  0  0  0  0
   32.9977  -35.5679  -15.8995 H   0  0  0  0  0
   31.5648  -34.4901  -15.4142 H   0  0  0  0  0
   33.8829  -32.6685  -18.4982 H   0  0  0  0  0
   32.8423  -31.3000  -17.8703 H   0  0  0  0  0
   31.0967  -32.6742  -17.4788 H   0  0  0  0  0
   31.7734  -33.2692  -19.0508 H   0  0  0  0  0
   34.6905  -30.7252  -18.0068 H   0  0  0  0  0
   36.2972  -30.4213  -14.0015 H   0  0  0  0  0
   38.2332  -32.3534  -11.1993 H   0  0  0  0  0
  1  2  1  0  0  0
  1  6  1  0  0  0
  2  3  1  0  0  0
  3  4  4  0  0  0
  3  7  4  0  0  0
  4  5  1  0  0  0
  4  9  4  0  0  0
  5  6  1  0  0  0
  7  8  4  0  0  0
  8  9  4  0  0  0
  8 13  1  0  0  0
  9 10  1  0  0  0
 10 11  2  0  0  0
 10 12  1  0  0  0
 13 14  1  0  0  0
 14 15  1  0  0  0
 14 18  2  0  0  0
 15 16  1  0  0  0
 15 17  2  0  0  0
  1 19  1  0  0  0
  1 20  1  0  0  0
  2 21  1  0  0  0
  2 22  1  0  0  0
  5 23  1  0  0  0
  5 24  1  0  0  0
  6 25  1  0  0  0
  6 26  1  0  0  0
 12 27  1  0  0  0
 13 28  1  0  0  0
 16 29  1  0  0  0
M  END
$$$$
