4yuz_ligand
  -I-interpret- 

 37 39  0  0  0  0  0  0  0  0999 V2000
   -4.1230  -20.8590  -55.4880 C   0  0  0  0  0
   -1.7450  -16.3100  -58.4400 C   0  0  0  0  0
   -4.1260  -16.2290  -58.2210 C   0  0  0  0  0
   -1.6550  -16.5650  -57.0830 C   0  0  0  0  0
   -4.0230  -16.5060  -56.8570 C   0  0  0  0  0
   -5.2570  -21.2830  -54.8270 C   0  0  0  0  0
   -3.6130  -19.5800  -55.3440 C   0  0  0  0  0
   -5.4540  -19.1400  -53.8340 C   0  0  0  0  0
   -2.9870  -16.1370  -59.0110 C   0  0  0  0  0
   -2.7740  -16.6700  -56.2970 C   0  0  0  0  0
   -5.9610  -20.4290  -53.9840 C   0  0  0  0  0
   -4.2920  -18.7200  -54.4990 C   0  0  0  0  0
   -6.1680  -18.3290  -52.9810 C   0  0  0  0  0
   -7.6670  -20.0140  -52.5260 C   0  0  0  0  0
   -3.0910  -15.8210  -60.4810 C   0  0  0  0  0
   -2.5980  -16.9880  -54.8610 C   0  0  0  0  0
   -7.0530  -20.8710  -53.3620 N   0  0  0  0  0
   -7.2540  -18.7690  -52.3250 N   0  0  0  0  0
   -5.7600  -17.0050  -52.7670 N   0  0  0  0  0
   -8.8250  -20.3600  -51.8000 N   0  0  0  0  0
   -3.8400  -17.4170  -54.3230 O   0  0  0  0  0
   -3.6091  -21.5573  -56.1486 H   0  0  0  0  0
   -0.8440  -16.2467  -59.0501 H   0  0  0  0  0
   -5.1084  -16.0836  -58.6702 H   0  0  0  0  0
   -0.6718  -16.6852  -56.6281 H   0  0  0  0  0
   -4.9189  -16.5916  -56.2421 H   0  0  0  0  0
   -5.6078  -22.3054  -54.9676 H   0  0  0  0  0
   -2.7145  -19.2638  -55.8739 H   0  0  0  0  0
   -2.5672  -14.8880  -60.6887 H   0  0  0  0  0
   -2.6400  -16.6285  -61.0577 H   0  0  0  0  0
   -4.1408  -15.7188  -60.7560 H   0  0  0  0  0
   -2.2555  -16.1006  -54.3288 H   0  0  0  0  0
   -1.8576  -17.7801  -54.7495 H   0  0  0  0  0
   -4.9341  -16.6425  -53.2433 H   0  0  0  0  0
   -6.2891  -16.4041  -52.1350 H   0  0  0  0  0
   -9.2291  -21.2914  -51.8981 H   0  0  0  0  0
   -9.2587  -19.6789  -51.1767 H   0  0  0  0  0
  1  6  4  0  0  0
  7  1  4  0  0  0
  4  2  4  0  0  0
  2  9  4  0  0  0
  5  3  4  0  0  0
  3  9  4  0  0  0
 10  4  4  0  0  0
 10  5  4  0  0  0
 11  6  4  0  0  0
 12  7  4  0  0  0
  8 11  4  0  0  0
 12  8  4  0  0  0
  8 13  4  0  0  0
  9 15  1  0  0  0
 16 10  1  0  0  0
 11 17  4  0  0  0
 21 12  1  0  0  0
 13 18  4  0  0  0
 13 19  1  0  0  0
 17 14  4  0  0  0
 18 14  4  0  0  0
 14 20  1  0  0  0
 16 21  1  0  0  0
  1 22  1  0  0  0
  2 23  1  0  0  0
  3 24  1  0  0  0
  4 25  1  0  0  0
  5 26  1  0  0  0
  6 27  1  0  0  0
  7 28  1  0  0  0
 15 29  1  0  0  0
 15 30  1  0  0  0
 15 31  1  0  0  0
 16 32  1  0  0  0
 16 33  1  0  0  0
 19 34  1  0  0  0
 19 35  1  0  0  0
 20 36  1  0  0  0
 20 37  1  0  0  0
M  END
$$$$
