6n5c_ligand
  -I-interpret- 

 60 60  0  0  0  0  0  0  0  0999 V2000
    1.2600   22.3160   13.1860 N   0  0  0  0  0
   -1.0980   20.1800   11.1550 C   0  0  0  0  0
   -0.6840   21.3400   12.0530 C   0  0  0  0  0
    0.8250   21.1890   12.3740 C   0  0  0  0  0
    1.6710   21.1130   11.0800 C   0  0  0  0  0
    1.1320   19.9980   10.1730 C   0  0  0  0  0
   -0.3110   20.2290    9.8420 C   0  0  0  0  0
    4.4580   22.4540   16.0070 O   0  0  0  0  0
    4.0480   23.6220   15.1970 P   0  0  0  0  0
    4.3040   23.5840   13.7280 O   0  0  0  0  0
    3.9380   24.9420   15.8830 O   0  0  0  0  0
    2.1420   23.3230   15.1660 C   0  0  0  0  0
    1.5550   24.3840   14.6220 F   0  0  0  0  0
    1.6430   23.1730   16.4280 F   0  0  0  0  0
    1.8330   22.0300   14.3530 C   0  0  0  0  0
    1.9490   20.8940   14.8790 O   0  0  0  0  0
   -1.5000   21.3350   13.2510 O   0  0  0  0  0
   -2.6790   22.5380   13.4630 P   0  0  0  0  0
   -1.9150   23.5840   14.1520 O   0  0  0  0  0
   -3.6680   21.7740   14.2020 O   0  0  0  0  0
   -3.2140   23.0050   12.1370 O   0  0  0  0  0
   -2.4910   20.2100   10.8310 O   0  0  0  0  0
   -3.4810   18.9550   11.1450 P   0  0  0  0  0
   -2.8980   17.8550   10.4060 O   0  0  0  0  0
   -4.8150   19.4800   10.6840 O   0  0  0  0  0
   -3.3900   18.8330   12.6370 O   0  0  0  0  0
   -0.4570   21.4890    9.2000 O   0  0  0  0  0
   -1.0370   21.5200    7.6510 P   0  0  0  0  0
   -0.7200   20.2320    7.0420 O   0  0  0  0  0
   -0.3770   22.6570    7.0820 O   0  0  0  0  0
   -2.5040   21.6480    7.8350 O   0  0  0  0  0
    1.8950   19.8190    8.9440 O   0  0  0  0  0
    1.9310   18.3110    8.2160 P   0  0  0  0  0
    0.6540   18.1010    7.4580 O   0  0  0  0  0
    3.1370   18.5420    7.4060 O   0  0  0  0  0
    2.1150   17.3050    9.3250 O   0  0  0  0  0
    2.9910   20.7170   11.4130 O   0  0  0  0  0
    4.3040   21.6500   11.1150 P   0  0  0  0  0
    3.9050   23.0830   11.2710 O   0  0  0  0  0
    4.6560   21.1230    9.7770 O   0  0  0  0  0
    5.1590   21.1530   12.2200 O   0  0  0  0  0
    1.1319   23.2791   12.8756 H   0  0  0  0  0
   -0.8866   19.2662   11.7103 H   0  0  0  0  0
   -0.8386   22.2990   11.5585 H   0  0  0  0  0
    0.9699   20.2585   12.9229 H   0  0  0  0  0
    1.6371   22.0868   10.5914 H   0  0  0  0  0
    1.2394   19.0780   10.7476 H   0  0  0  0  0
   -0.6881   19.4669    9.1600 H   0  0  0  0  0
    3.9910   24.3989   13.3286 H   0  0  0  0  0
    3.6659   25.6093   15.2487 H   0  0  0  0  0
   -1.3066   23.9945   13.5332 H   0  0  0  0  0
   -2.5354   23.5049   11.6775 H   0  0  0  0  0
   -5.0877   20.2025   11.2543 H   0  0  0  0  0
   -3.7983   19.6000   13.0452 H   0  0  0  0  0
   -1.2089   19.5382    7.4906 H   0  0  0  0  0
   -2.8489   20.8389    8.2198 H   0  0  0  0  0
   -0.0654   17.9603    8.0779 H   0  0  0  0  0
    1.2906   17.2075    9.8071 H   0  0  0  0  0
    3.7105   23.2612   12.1941 H   0  0  0  0  0
    4.8664   21.5400   13.0484 H   0  0  0  0  0
  1  4  1  0  0  0
 15  1  1  0  0  0
  3  2  1  0  0  0
  2  7  1  0  0  0
  2 22  1  0  0  0
  4  3  1  0  0  0
  3 17  1  0  0  0
  4  5  1  0  0  0
  5  6  1  0  0  0
  5 37  1  0  0  0
  6  7  1  0  0  0
  6 32  1  0  0  0
  7 27  1  0  0  0
  9  8  2  0  0  0
  9 10  1  0  0  0
  9 11  1  0  0  0
 12  9  1  0  0  0
 12 13  1  0  0  0
 12 14  1  0  0  0
 12 15  1  0  0  0
 15 16  2  0  0  0
 17 18  1  0  0  0
 18 19  1  0  0  0
 18 20  2  0  0  0
 18 21  1  0  0  0
 22 23  1  0  0  0
 23 24  2  0  0  0
 23 25  1  0  0  0
 23 26  1  0  0  0
 27 28  1  0  0  0
 28 29  1  0  0  0
 28 30  2  0  0  0
 28 31  1  0  0  0
 32 33  1  0  0  0
 33 34  1  0  0  0
 33 35  2  0  0  0
 33 36  1  0  0  0
 37 38  1  0  0  0
 38 39  1  0  0  0
 38 40  2  0  0  0
 38 41  1  0  0  0
  1 42  1  0  0  0
  2 43  1  0  0  0
  3 44  1  0  0  0
  4 45  1  0  0  0
  5 46  1  0  0  0
  6 47  1  0  0  0
  7 48  1  0  0  0
 10 49  1  0  0  0
 11 50  1  0  0  0
 19 51  1  0  0  0
 21 52  1  0  0  0
 25 53  1  0  0  0
 26 54  1  0  0  0
 29 55  1  0  0  0
 31 56  1  0  0  0
 34 57  1  0  0  0
 36 58  1  0  0  0
 39 59  1  0  0  0
 41 60  1  0  0  0
M  END
$$$$
