### 
### Created by X-TOOL on Mon Aug  2 16:12:03 2021
### 

@<TRIPOS>MOLECULE
6n5c_ligand
   48    48     1     0     0
SMALL
GAST_HUCK


@<TRIPOS>ATOM
      1 N15         1.2600   22.3160   13.1860 N.am      1 KDJ        -0.2711
      2 C3         -1.0980   20.1800   11.1550 C.3       1 KDJ         0.1550
      3 C4         -0.6840   21.3400   12.0530 C.3       1 KDJ         0.1481
      4 C5          0.8250   21.1890   12.3740 C.3       1 KDJ         0.1090
      5 C6          1.6710   21.1130   11.0800 C.3       1 KDJ         0.1481
      6 C1          1.1320   19.9980   10.1730 C.3       1 KDJ         0.1550
      7 C2         -0.3110   20.2290    9.8420 C.3       1 KDJ         0.1556
      8 O75         4.4580   22.4540   16.0070 O.co2     1 KDJ        -0.5592
      9 PB5         4.0480   23.6220   15.1970 P.3       1 KDJ         0.1402
     10 O85         4.3040   23.5840   13.7280 O.co2     1 KDJ        -0.5592
     11 O95         3.9380   24.9420   15.8830 O.co2     1 KDJ        -0.5592
     12 C45         2.1420   23.3230   15.1660 C.3       1 KDJ         0.3907
     13 F55         1.5550   24.3840   14.6220 F         1 KDJ        -0.1838
     14 F65         1.6430   23.1730   16.4280 F         1 KDJ        -0.1838
     15 C25         1.8330   22.0300   14.3530 C.2       1 KDJ         0.2836
     16 O35         1.9490   20.8940   14.8790 O.2       1 KDJ        -0.3366
     17 O14        -1.5000   21.3350   13.2510 O.3       1 KDJ        -0.2675
     18 PA4        -2.6790   22.5380   13.4630 P.3       1 KDJ         0.2013
     19 O34        -1.9150   23.5840   14.1520 O.co2     1 KDJ        -0.5537
     20 O44        -3.6680   21.7740   14.2020 O.co2     1 KDJ        -0.5537
     21 O24        -3.2140   23.0050   12.1370 O.co2     1 KDJ        -0.5537
     22 O13        -2.4910   20.2100   10.8310 O.3       1 KDJ        -0.2669
     23 PA3        -3.4810   18.9550   11.1450 P.3       1 KDJ         0.2013
     24 O33        -2.8980   17.8550   10.4060 O.co2     1 KDJ        -0.5537
     25 O43        -4.8150   19.4800   10.6840 O.co2     1 KDJ        -0.5537
     26 O23        -3.3900   18.8330   12.6370 O.co2     1 KDJ        -0.5537
     27 O12        -0.4570   21.4890    9.2000 O.3       1 KDJ        -0.2668
     28 PA2        -1.0370   21.5200    7.6510 P.3       1 KDJ         0.2013
     29 O32        -0.7200   20.2320    7.0420 O.co2     1 KDJ        -0.5537
     30 O42        -0.3770   22.6570    7.0820 O.co2     1 KDJ        -0.5537
     31 O22        -2.5040   21.6480    7.8350 O.co2     1 KDJ        -0.5537
     32 O11         1.8950   19.8190    8.9440 O.3       1 KDJ        -0.2669
     33 PA1         1.9310   18.3110    8.2160 P.3       1 KDJ         0.2013
     34 O31         0.6540   18.1010    7.4580 O.co2     1 KDJ        -0.5537
     35 O41         3.1370   18.5420    7.4060 O.co2     1 KDJ        -0.5537
     36 O21         2.1150   17.3050    9.3250 O.co2     1 KDJ        -0.5537
     37 O16         2.9910   20.7170   11.4130 O.3       1 KDJ        -0.2675
     38 PA6         4.3040   21.6500   11.1150 P.3       1 KDJ         0.2013
     39 O36         3.9050   23.0830   11.2710 O.co2     1 KDJ        -0.5537
     40 O46         4.6560   21.1230    9.7770 O.co2     1 KDJ        -0.5537
     41 O26         5.1590   21.1530   12.2200 O.co2     1 KDJ        -0.5537
     42 H1          1.1344   23.2602   12.8816 H         1 KDJ         0.1864
     43 H2         -0.8753   19.2385   11.6785 H         1 KDJ         0.0710
     44 H3         -0.8427   22.2902   11.5220 H         1 KDJ         0.0704
     45 H4          0.9727   20.2598   12.9439 H         1 KDJ         0.0618
     46 H5          1.6648   22.0831   10.5615 H         1 KDJ         0.0704
     47 H6          1.2018   19.0584   10.7407 H         1 KDJ         0.0710
     48 H7         -0.6710   19.4378    9.1680 H         1 KDJ         0.0710
@<TRIPOS>BOND
     1    1    4 1  
     2   15    1 am 
     3    3    2 1  
     4    2    7 1  
     5    2   22 1  
     6    4    3 1  
     7    3   17 1  
     8    4    5 1  
     9    5    6 1  
    10    5   37 1  
    11    6    7 1  
    12    6   32 1  
    13    7   27 1  
    14    9    8 ar 
    15    9   10 ar 
    16    9   11 ar 
    17   12    9 1  
    18   12   13 1  
    19   12   14 1  
    20   12   15 1  
    21   15   16 2  
    22   17   18 1  
    23   18   19 ar 
    24   18   20 ar 
    25   18   21 ar 
    26   22   23 1  
    27   23   24 ar 
    28   23   25 ar 
    29   23   26 ar 
    30   27   28 1  
    31   28   29 ar 
    32   28   30 ar 
    33   28   31 ar 
    34   32   33 1  
    35   33   34 ar 
    36   33   35 ar 
    37   33   36 ar 
    38   37   38 1  
    39   38   39 ar 
    40   38   40 ar 
    41   38   41 ar 
    42    1   42 1  
    43    2   43 1  
    44    3   44 1  
    45    4   45 1  
    46    5   46 1  
    47    6   47 1  
    48    7   48 1  
@<TRIPOS>SUBSTRUCTURE
     1 KDJ         1

