4btt_ligand
  -I-interpret- 

 75 79  0  0  0  0  0  0  0  0999 V2000
   33.3960  -21.6360  -42.1050 C   0  0  0  0  0
   32.2110  -21.0200  -42.2490 C   0  0  0  0  0
   31.2480  -21.7990  -42.7340 C   0  0  0  0  0
   29.6400  -21.2610  -43.0580 Cl  0  0  0  0  0
   31.8540  -23.3520  -42.9360 S   0  0  0  0  0
   33.4000  -22.9390  -42.4040 C   0  0  0  0  0
   34.4740  -23.8120  -42.3030 C   0  0  0  0  0
   34.5350  -25.0090  -41.7280 C   0  0  0  0  0
   35.7110  -23.4640  -42.7430 O   0  0  0  0  0
   36.5410  -24.5460  -42.4280 N   0  0  0  0  0
   35.7890  -25.4610  -41.8220 C   0  0  0  0  0
   36.3020  -26.8080  -41.3070 C   0  0  0  0  0
   36.6740  -26.8250  -39.8090 C   0  0  0  0  0
   36.8040  -25.4240  -39.1520 C   0  0  0  0  0
   35.7860  -24.8770  -38.7210 O   0  0  0  0  0
   38.0060  -24.8310  -38.9490 N   0  0  0  0  0
   38.0890  -23.5040  -38.2570 C   0  0  0  0  0
   38.7470  -22.4460  -39.1630 C   0  0  0  0  0
   39.9010  -23.0020  -40.0580 C   0  0  0  0  0
   41.1790  -22.4120  -39.7530 O   0  0  0  0  0
   41.5610  -21.4900  -40.7900 C   0  0  0  0  0
   40.0030  -24.5190  -40.4190 C   0  0  0  0  0
   39.2980  -25.4410  -39.4050 C   0  0  0  0  0
   35.7080  -27.6590  -39.0690 N   0  0  0  0  0
   36.4250  -28.5700  -37.9000 S   0  0  0  0  0
   35.4060  -29.4990  -37.3080 O   0  0  0  0  0
   37.5060  -29.4180  -38.5100 O   0  0  0  0  0
   37.1180  -27.5180  -36.6360 C   0  0  0  0  0
   36.3280  -26.6760  -35.8110 C   0  0  0  0  0
   34.7880  -26.6300  -35.9380 C   0  0  0  0  0
   34.1040  -27.5360  -34.9140 C   0  0  0  0  0
   38.5130  -27.5250  -36.5210 C   0  0  0  0  0
   39.1650  -26.7260  -35.5870 C   0  0  0  0  0
   38.4070  -25.9020  -34.7600 C   0  0  0  0  0
   37.0110  -25.8650  -34.8700 C   0  0  0  0  0
   36.3250  -25.0110  -33.9700 N   0  0  0  0  0
   35.9780  -23.6170  -34.4070 C   0  0  0  0  0
   35.0550  -22.8720  -33.4180 C   0  0  0  0  0
   34.4950  -23.6230  -32.3010 O   0  0  0  0  0
   35.3920  -24.6150  -31.7570 C   0  0  0  0  0
   36.0570  -25.4580  -32.6450 C   0  0  0  0  0
   36.3460  -26.5990  -32.2830 O   0  0  0  0  0
   34.2901  -21.1112  -41.7685 H   0  0  0  0  0
   32.0524  -19.9730  -41.9909 H   0  0  0  0  0
   33.7025  -25.5334  -41.2589 H   0  0  0  0  0
   37.2117  -27.0351  -41.8629 H   0  0  0  0  0
   35.4950  -27.5281  -41.4422 H   0  0  0  0  0
   37.6746  -27.2536  -39.7526 H   0  0  0  0  0
   38.6936  -23.6172  -37.3571 H   0  0  0  0  0
   37.0792  -23.1744  -38.0126 H   0  0  0  0  0
   39.1809  -21.6878  -38.5111 H   0  0  0  0  0
   37.9737  -22.0678  -39.8316 H   0  0  0  0  0
   39.5294  -22.6456  -41.0187 H   0  0  0  0  0
   41.6300  -22.0212  -41.7393 H   0  0  0  0  0
   40.8125  -20.7014  -40.8670 H   0  0  0  0  0
   42.5288  -21.0517  -40.5463 H   0  0  0  0  0
   41.0602  -24.7844  -40.4232 H   0  0  0  0  0
   39.5156  -24.6597  -41.3837 H   0  0  0  0  0
   39.0882  -26.3978  -39.8831 H   0  0  0  0  0
   39.9482  -25.5796  -38.5412 H   0  0  0  0  0
   34.7062  -27.6700  -39.2605 H   0  0  0  0  0
   34.5169  -26.9761  -36.9354 H   0  0  0  0  0
   34.4609  -25.6055  -35.7602 H   0  0  0  0  0
   34.4291  -28.5651  -35.0668 H   0  0  0  0  0
   34.3739  -27.2139  -33.9082 H   0  0  0  0  0
   33.0231  -27.4726  -35.0394 H   0  0  0  0  0
   39.1000  -28.1689  -37.1759 H   0  0  0  0  0
   40.2517  -26.7450  -35.5043 H   0  0  0  0  0
   38.9055  -25.2782  -34.0181 H   0  0  0  0  0
   35.4468  -23.6942  -35.3556 H   0  0  0  0  0
   36.9088  -23.0537  -34.4736 H   0  0  0  0  0
   34.1968  -22.5531  -34.0096 H   0  0  0  0  0
   35.6804  -22.1036  -32.9636 H   0  0  0  0  0
   34.7642  -25.2705  -31.1534 H   0  0  0  0  0
   36.1768  -24.0490  -31.2552 H   0  0  0  0  0
  1  2  4  0  0  0
  1  6  4  0  0  0
  2  3  4  0  0  0
  3  4  1  0  0  0
  3  5  4  0  0  0
  5  6  4  0  0  0
  6  7  1  0  0  0
  7  8  4  0  0  0
  7  9  4  0  0  0
  8 11  4  0  0  0
  9 10  4  0  0  0
 10 11  4  0  0  0
 11 12  1  0  0  0
 12 13  1  0  0  0
 13 14  1  0  0  0
 13 24  1  0  0  0
 14 15  2  0  0  0
 14 16  1  0  0  0
 16 17  1  0  0  0
 16 23  1  0  0  0
 17 18  1  0  0  0
 18 19  1  0  0  0
 19 20  1  0  0  0
 19 22  1  0  0  0
 20 21  1  0  0  0
 22 23  1  0  0  0
 24 25  1  0  0  0
 25 26  2  0  0  0
 25 27  2  0  0  0
 25 28  1  0  0  0
 28 29  4  0  0  0
 28 32  4  0  0  0
 29 30  1  0  0  0
 29 35  4  0  0  0
 30 31  1  0  0  0
 32 33  4  0  0  0
 33 34  4  0  0  0
 34 35  4  0  0  0
 35 36  1  0  0  0
 36 37  1  0  0  0
 36 41  1  0  0  0
 37 38  1  0  0  0
 38 39  1  0  0  0
 39 40  1  0  0  0
 40 41  1  0  0  0
 41 42  2  0  0  0
  1 43  1  0  0  0
  2 44  1  0  0  0
  8 45  1  0  0  0
 12 46  1  0  0  0
 12 47  1  0  0  0
 13 48  1  0  0  0
 17 49  1  0  0  0
 17 50  1  0  0  0
 18 51  1  0  0  0
 18 52  1  0  0  0
 19 53  1  0  0  0
 21 54  1  0  0  0
 21 55  1  0  0  0
 21 56  1  0  0  0
 22 57  1  0  0  0
 22 58  1  0  0  0
 23 59  1  0  0  0
 23 60  1  0  0  0
 24 61  1  0  0  0
 30 62  1  0  0  0
 30 63  1  0  0  0
 31 64  1  0  0  0
 31 65  1  0  0  0
 31 66  1  0  0  0
 32 67  1  0  0  0
 33 68  1  0  0  0
 34 69  1  0  0  0
 37 70  1  0  0  0
 37 71  1  0  0  0
 38 72  1  0  0  0
 38 73  1  0  0  0
 40 74  1  0  0  0
 40 75  1  0  0  0
M  END
$$$$
