3idp_ligand
  -I-interpret- 

 53 58  0  0  0  0  0  0  0  0999 V2000
   24.2920   38.8990   39.7170 C   0  0  0  0  0
   26.4640   41.8060   39.4810 C   0  0  0  0  0
   27.8340   42.0940   39.4910 C   0  0  0  0  0
   27.3430   44.4120   39.0390 C   0  0  0  0  0
   23.2710   43.7030   37.3040 C   0  0  0  0  0
   21.4560   45.2890   37.5460 C   0  0  0  0  0
   22.4530   44.1200   41.0060 C   0  0  0  0  0
   24.1350   43.0030   36.4680 C   0  0  0  0  0
   24.0500   43.1760   35.0940 C   0  0  0  0  0
   22.3030   44.7060   35.3460 C   0  0  0  0  0
   20.9820   45.3750   33.5270 C   0  0  0  0  0
   20.2800   43.9820   31.6780 C   0  0  0  0  0
   20.7510   44.1050   32.9830 C   0  0  0  0  0
   20.0440   45.1360   30.9260 C   0  0  0  0  0
   19.4520   45.0050   29.3080 Cl  0  0  0  0  0
   20.2720   46.4050   31.4620 C   0  0  0  0  0
   20.7400   46.5240   32.7670 C   0  0  0  0  0
   21.4300   45.5300   34.7740 N   0  0  0  0  0
   23.1570   44.0070   34.5810 N   0  0  0  0  0
   22.3380   44.5740   36.7360 C   0  0  0  0  0
   21.5150   45.1260   38.9230 C   0  0  0  0  0
   22.4460   44.2560   39.4890 C   0  0  0  0  0
   23.3420   43.5350   38.6830 C   0  0  0  0  0
   24.2400   42.6770   39.2040 N   0  0  0  0  0
   25.5670   42.8800   39.2280 C   0  0  0  0  0
   26.0420   44.1350   39.0230 N   0  0  0  0  0
   28.2720   43.3990   39.2710 C   0  0  0  0  0
   26.0290   40.4760   39.6840 C   0  0  0  0  0
   24.7260   40.1470   39.5450 N   0  0  0  0  0
   25.1060   37.9010   40.0140 N   0  0  0  0  0
   26.4200   38.1420   40.1530 C   0  0  0  0  0
   26.9180   39.4350   39.9940 C   0  0  0  0  0
   28.2360   39.3630   40.1860 N   0  0  0  0  0
   28.5690   38.1000   40.4560 C   0  0  0  0  0
   27.4600   37.3560   40.4360 N   0  0  0  0  0
   23.2270   38.6937   39.6088 H   0  0  0  0  0
   28.5574   41.2987   39.6706 H   0  0  0  0  0
   27.6834   45.4336   38.8703 H   0  0  0  0  0
   20.7282   45.9684   37.1024 H   0  0  0  0  0
   22.6565   45.0918   41.4557 H   0  0  0  0  0
   21.4807   43.7594   41.3417 H   0  0  0  0  0
   23.2268   43.4118   41.3025 H   0  0  0  0  0
   24.8745   42.3225   36.8900 H   0  0  0  0  0
   24.7212   42.6255   34.4348 H   0  0  0  0  0
   20.0976   42.9970   31.2483 H   0  0  0  0  0
   20.9398   43.2133   33.5808 H   0  0  0  0  0
   20.0848   47.2959   30.8625 H   0  0  0  0  0
   20.9176   47.5102   33.1959 H   0  0  0  0  0
   21.0850   46.3216   35.3168 H   0  0  0  0  0
   20.8305   45.6806   39.5648 H   0  0  0  0  0
   23.8864   41.8105   39.6096 H   0  0  0  0  0
   29.3379   43.6266   39.2804 H   0  0  0  0  0
   29.5763   37.7364   40.6588 H   0  0  0  0  0
 29  1  4  0  0  0
  1 30  4  0  0  0
  2  3  4  0  0  0
  2 25  4  0  0  0
 28  2  1  0  0  0
  3 27  4  0  0  0
 26  4  4  0  0  0
 27  4  4  0  0  0
  5  8  4  0  0  0
  5 20  4  0  0  0
 23  5  4  0  0  0
 20  6  4  0  0  0
 21  6  4  0  0  0
 22  7  1  0  0  0
  8  9  4  0  0  0
  9 19  4  0  0  0
 10 18  1  0  0  0
 10 19  4  0  0  0
 20 10  4  0  0  0
 11 13  4  0  0  0
 11 17  4  0  0  0
 18 11  1  0  0  0
 13 12  4  0  0  0
 12 14  4  0  0  0
 14 15  1  0  0  0
 16 14  4  0  0  0
 17 16  4  0  0  0
 22 21  4  0  0  0
 23 22  4  0  0  0
 24 23  1  0  0  0
 25 24  1  0  0  0
 25 26  4  0  0  0
 28 29  4  0  0  0
 28 32  4  0  0  0
 30 31  4  0  0  0
 31 32  4  0  0  0
 31 35  4  0  0  0
 32 33  4  0  0  0
 33 34  4  0  0  0
 34 35  4  0  0  0
  1 36  1  0  0  0
  3 37  1  0  0  0
  4 38  1  0  0  0
  6 39  1  0  0  0
  7 40  1  0  0  0
  7 41  1  0  0  0
  7 42  1  0  0  0
  8 43  1  0  0  0
  9 44  1  0  0  0
 12 45  1  0  0  0
 13 46  1  0  0  0
 16 47  1  0  0  0
 17 48  1  0  0  0
 18 49  1  0  0  0
 21 50  1  0  0  0
 24 51  1  0  0  0
 27 52  1  0  0  0
 34 53  1  0  0  0
M  END
$$$$
