4k0y_ligand
  -I-interpret- 

 45 48  0  0  0  0  0  0  0  0999 V2000
  -68.1470   45.2320    3.5330 C   0  0  0  0  0
  -68.6290   44.4120    4.5350 C   0  0  0  0  0
  -69.6850   43.5510    4.2590 C   0  0  0  0  0
  -70.2560   43.5140    2.9900 C   0  0  0  0  0
  -69.7770   44.3290    1.9860 C   0  0  0  0  0
  -68.7380   45.2130    2.2660 C   0  0  0  0  0
  -68.1640   46.0390    1.2960 N   0  0  0  0  0
  -68.4010   46.0360   -0.0370 C   0  0  0  0  0
  -69.1950   45.3050   -0.6080 O   0  0  0  0  0
  -67.5560   46.9450   -0.7910 C   0  0  0  0  0
  -67.4150   47.0330   -2.1900 C   0  0  0  0  0
  -66.5160   47.9540   -2.4500 N   0  0  0  0  0
  -66.0100   48.4710   -1.2530 N   0  0  0  0  0
  -66.6400   47.8440   -0.2110 C   0  0  0  0  0
  -66.3370   48.1430    1.0590 N   0  0  0  0  0
  -65.4220   49.0610    1.3370 C   0  0  0  0  0
  -64.7460   49.7130    0.2990 C   0  0  0  0  0
  -65.0590   49.4160   -0.9960 C   0  0  0  0  0
  -64.4160   50.0280   -2.0100 O   0  0  0  0  0
  -65.0190   49.4020    2.7520 C   0  0  0  0  0
  -66.0150   48.8780    3.7860 C   0  0  0  0  0
  -65.4390   49.1700    5.1750 C   0  0  0  0  0
  -64.2090   48.3840    5.3670 N   0  3  0  0  0
  -63.1580   48.8220    4.4320 C   0  0  0  0  0
  -63.6620   48.7030    2.9850 C   0  0  0  0  0
  -70.1660   42.7380    5.2290 F   0  0  0  0  0
  -67.3046   45.8949    3.7305 H   0  0  0  0  0
  -68.1863   44.4398    5.5307 H   0  0  0  0  0
  -71.0863   42.8371    2.7888 H   0  0  0  0  0
  -70.2065   44.2819    0.9853 H   0  0  0  0  0
  -67.4872   46.7244    1.6315 H   0  0  0  0  0
  -67.9570   46.4406   -2.9271 H   0  0  0  0  0
  -63.9763   50.4515    0.5229 H   0  0  0  0  0
  -63.7858   50.6584   -1.6537 H   0  0  0  0  0
  -64.9769   50.4850    2.8681 H   0  0  0  0  0
  -66.1690   47.8068    3.6562 H   0  0  0  0  0
  -66.9812   49.3677    3.6649 H   0  0  0  0  0
  -66.1689   48.8974    5.9373 H   0  0  0  0  0
  -65.2099   50.2323    5.2590 H   0  0  0  0  0
  -64.4161   47.4006    5.1923 H   0  0  0  0  0
  -63.8774   48.5196    6.3220 H   0  0  0  0  0
  -62.2782   48.1912    4.5592 H   0  0  0  0  0
  -62.9028   49.8612    4.6394 H   0  0  0  0  0
  -62.9278   49.1851    2.3395 H   0  0  0  0  0
  -63.7958   47.6431    2.7687 H   0  0  0  0  0
  1  2  4  0  0  0
  1  6  4  0  0  0
  2  3  4  0  0  0
  3  4  4  0  0  0
  3 26  1  0  0  0
  4  5  4  0  0  0
  5  6  4  0  0  0
  6  7  1  0  0  0
  7  8  1  0  0  0
  8  9  2  0  0  0
  8 10  1  0  0  0
 10 11  4  0  0  0
 10 14  4  0  0  0
 11 12  4  0  0  0
 12 13  4  0  0  0
 13 14  4  0  0  0
 13 18  4  0  0  0
 14 15  4  0  0  0
 15 16  4  0  0  0
 16 17  4  0  0  0
 16 20  1  0  0  0
 17 18  4  0  0  0
 18 19  1  0  0  0
 20 21  1  0  0  0
 20 25  1  0  0  0
 21 22  1  0  0  0
 22 23  1  0  0  0
 23 24  1  0  0  0
 24 25  1  0  0  0
  1 27  1  0  0  0
  2 28  1  0  0  0
  4 29  1  0  0  0
  5 30  1  0  0  0
  7 31  1  0  0  0
 11 32  1  0  0  0
 17 33  1  0  0  0
 19 34  1  0  0  0
 20 35  1  0  0  0
 21 36  1  0  0  0
 21 37  1  0  0  0
 22 38  1  0  0  0
 22 39  1  0  0  0
 23 40  1  0  0  0
 23 41  1  0  0  0
 24 42  1  0  0  0
 24 43  1  0  0  0
 25 44  1  0  0  0
 25 45  1  0  0  0
M  END
$$$$
