3t3h_ligand
  -I-interpret- 

 33 34  0  0  0  0  0  0  0  0999 V2000
   38.1540   23.5600   30.1550 I   0  0  0  0  0
   33.9570   23.4420   28.9090 N   0  0  0  0  0
   33.2990   24.3500   29.7320 C   0  0  0  0  0
   32.0870   24.5350   29.6100 O   0  0  0  0  0
   34.0290   25.0860   30.6810 N   0  0  0  0  0
   35.4100   24.8850   30.8160 C   0  0  0  0  0
   36.0100   25.5320   31.6600 O   0  0  0  0  0
   36.0700   23.9760   29.9920 C   0  0  0  0  0
   35.3230   23.2640   29.0430 C   0  0  0  0  0
   33.1890   22.7020   27.8670 C   0  0  0  0  0
   33.6510   23.0250   26.4160 C   0  0  0  0  0
   33.6920   24.4600   26.1840 O   0  0  0  0  0
   32.6460   22.3380   25.4780 C   0  0  0  0  0
   32.9630   22.4940   24.1160 O   0  0  0  0  0
   32.3990   20.8900   25.8260 C   0  0  0  0  0
   31.2280   20.5070   25.1000 O   0  0  0  0  0
   32.1260   20.7190   27.3290 C   0  0  0  0  0
   33.2280   21.2730   27.9590 O   0  0  0  0  0
   32.1550   19.2830   27.9090 C   0  0  0  0  0
   33.0890   18.4730   27.2030 O   0  0  0  0  0
   33.5534   25.7674   31.2725 H   0  0  0  0  0
   35.8315   22.5514   28.3935 H   0  0  0  0  0
   32.1783   23.0558   28.0706 H   0  0  0  0  0
   34.6628   22.6606   26.2381 H   0  0  0  0  0
   33.9794   24.6294   25.2838 H   0  0  0  0  0
   31.7065   22.8649   25.6448 H   0  0  0  0  0
   32.3032   22.0459   23.5817 H   0  0  0  0  0
   33.2695   20.2836   25.5756 H   0  0  0  0  0
   31.0240   19.5876   25.2860 H   0  0  0  0  0
   31.1302   21.1364   27.4781 H   0  0  0  0  0
   31.1625   18.8433   27.8103 H   0  0  0  0  0
   32.4528   19.3323   28.9564 H   0  0  0  0  0
   33.0914   17.5890   27.5774 H   0  0  0  0  0
  8  1  1  0  0  0
  3  2  1  0  0  0
  2  9  1  0  0  0
  2 10  1  0  0  0
  3  4  2  0  0  0
  5  3  1  0  0  0
  6  5  1  0  0  0
  6  7  2  0  0  0
  6  8  1  0  0  0
  8  9  2  0  0  0
 10 11  1  0  0  0
 10 18  1  0  0  0
 11 12  1  0  0  0
 11 13  1  0  0  0
 13 14  1  0  0  0
 13 15  1  0  0  0
 15 16  1  0  0  0
 15 17  1  0  0  0
 17 18  1  0  0  0
 17 19  1  0  0  0
 19 20  1  0  0  0
  5 21  1  0  0  0
  9 22  1  0  0  0
 10 23  1  0  0  0
 11 24  1  0  0  0
 12 25  1  0  0  0
 13 26  1  0  0  0
 14 27  1  0  0  0
 15 28  1  0  0  0
 16 29  1  0  0  0
 17 30  1  0  0  0
 19 31  1  0  0  0
 19 32  1  0  0  0
 20 33  1  0  0  0
M  END
$$$$
