3chs_ligand
  -I-interpret- 

 49 50  0  0  0  0  0  0  0  0999 V2000
   12.1870   40.9890   65.8760 O   0  0  0  0  0
   11.5650   42.0710   65.7190 C   0  0  0  0  0
   12.2270   43.2830   65.1480 C   0  0  0  0  0
   13.7450   42.8790   65.1520 C   0  0  0  0  0
   14.4240   42.0820   63.9840 C   0  0  0  0  0
   13.7190   40.8210   63.6870 N   0  3  0  0  0
   15.8270   41.6970   64.2240 C   0  0  0  0  0
   16.7990   42.3890   63.8720 O   0  0  0  0  0
   16.0810   40.6180   64.7990 O   0  0  0  0  0
   10.2430   42.1600   66.0620 N   0  0  0  0  0
    9.5490   41.3280   66.8970 C   0  0  0  0  0
    8.6280   41.9020   67.8130 C   0  0  0  0  0
    7.8950   41.0730   68.6980 C   0  0  0  0  0
    8.0710   39.6690   68.6930 C   0  0  0  0  0
    8.9800   39.0950   67.7830 C   0  0  0  0  0
    9.7060   39.9140   66.8980 C   0  0  0  0  0
    7.3420   38.9360   69.5820 O   0  0  0  0  0
    7.4130   37.5580   70.0110 C   0  0  0  0  0
    8.2740   37.7090   71.3070 C   0  0  0  0  0
    7.4760   38.4900   72.2070 O   0  0  0  0  0
    8.8250   36.4640   71.9420 C   0  0  0  0  0
    8.6580   35.1590   71.4030 C   0  0  0  0  0
    9.2260   34.0320   72.0320 C   0  0  0  0  0
    9.9670   34.1960   73.2170 C   0  0  0  0  0
   10.1390   35.4760   73.7820 C   0  0  0  0  0
    9.5780   36.5990   73.1450 C   0  0  0  0  0
   12.0256   44.1881   65.7210 H   0  0  0  0  0
   11.8579   43.5423   64.1557 H   0  0  0  0  0
   13.8149   42.1904   65.9940 H   0  0  0  0  0
   14.2566   43.8411   65.1244 H   0  0  0  0  0
   14.3765   42.7926   63.1588 H   0  0  0  0  0
   12.7339   41.0173   63.5095 H   0  0  0  0  0
   14.1343   40.3867   62.8628 H   0  0  0  0  0
   13.8030   40.1901   64.4840 H   0  0  0  0  0
   15.2594   40.1743   65.0218 H   0  0  0  0  0
    9.7178   42.9312   65.6499 H   0  0  0  0  0
    8.4847   42.9823   67.8353 H   0  0  0  0  0
    7.1856   41.5231   69.3924 H   0  0  0  0  0
    9.1215   38.0144   67.7641 H   0  0  0  0  0
   10.4039   39.4548   66.1979 H   0  0  0  0  0
    7.8374   36.8810   69.2696 H   0  0  0  0  0
    6.4418   37.0902   70.1724 H   0  0  0  0  0
    9.2108   38.1908   71.0271 H   0  0  0  0  0
    7.9553   38.6181   73.0289 H   0  0  0  0  0
    8.0809   35.0274   70.4877 H   0  0  0  0  0
    9.0918   33.0392   71.6026 H   0  0  0  0  0
   10.4114   33.3267   73.7017 H   0  0  0  0  0
   10.7032   35.5955   74.7069 H   0  0  0  0  0
    9.7218   37.5885   73.5789 H   0  0  0  0  0
  1  2  2  0  0  0
  2  3  1  0  0  0
  2 10  1  0  0  0
  3  4  1  0  0  0
  4  5  1  0  0  0
  5  6  1  0  0  0
  5  7  1  0  0  0
  7  8  2  0  0  0
  7  9  1  0  0  0
 10 11  1  0  0  0
 11 12  4  0  0  0
 11 16  4  0  0  0
 12 13  4  0  0  0
 13 14  4  0  0  0
 14 15  4  0  0  0
 14 17  1  0  0  0
 15 16  4  0  0  0
 17 18  1  0  0  0
 18 19  1  0  0  0
 19 20  1  0  0  0
 19 21  1  0  0  0
 21 22  4  0  0  0
 21 26  4  0  0  0
 22 23  4  0  0  0
 23 24  4  0  0  0
 24 25  4  0  0  0
 25 26  4  0  0  0
  3 27  1  0  0  0
  3 28  1  0  0  0
  4 29  1  0  0  0
  4 30  1  0  0  0
  5 31  1  0  0  0
  6 32  1  0  0  0
  6 33  1  0  0  0
  6 34  1  0  0  0
  9 35  1  0  0  0
 10 36  1  0  0  0
 12 37  1  0  0  0
 13 38  1  0  0  0
 15 39  1  0  0  0
 16 40  1  0  0  0
 18 41  1  0  0  0
 18 42  1  0  0  0
 19 43  1  0  0  0
 20 44  1  0  0  0
 22 45  1  0  0  0
 23 46  1  0  0  0
 24 47  1  0  0  0
 25 48  1  0  0  0
 26 49  1  0  0  0
M  END
$$$$
