3ds6_ligand
  -I-interpret- 

 53 57  0  0  0  0  0  0  0  0999 V2000
   32.8580   28.2820   61.5970 C   0  0  0  0  0
   31.5310   28.7610   61.2360 C   0  0  0  0  0
   30.4450   27.9900   61.8540 C   0  0  0  0  0
   30.6030   26.8550   62.7570 C   0  0  0  0  0
   34.0770   28.9360   61.1690 C   0  0  0  0  0
   32.2720   24.0930   63.7260 C   0  0  0  0  0
   32.7600   23.0250   64.5770 C   0  0  0  0  0
   32.8610   25.8060   65.4580 C   0  0  0  0  0
   32.3220   21.5960   62.7420 O   0  0  0  0  0
   33.3300   24.7020   66.3000 C   0  0  0  0  0
   31.9360   26.4200   63.1110 C   0  0  0  0  0
   33.0140   27.1600   62.4970 C   0  0  0  0  0
   33.9520   30.1050   60.3850 N   0  0  0  0  0
   32.6230   30.6290   60.0000 N   0  0  0  0  0
   31.4440   29.9580   60.4070 C   0  0  0  0  0
   32.3110   25.4840   64.1410 C   0  0  0  0  0
   33.3050   23.2960   65.8960 C   0  0  0  0  0
   33.1050   27.1580   65.9490 C   0  0  0  0  0
   32.5390   21.6710   63.9480 C   0  0  0  0  0
   32.3990   19.2150   64.3420 C   0  0  0  0  0
   33.2340   18.3170   65.1090 C   0  0  0  0  0
   33.6340   18.7220   63.7760 C   0  0  0  0  0
   30.1920   30.4980   59.8930 C   0  0  0  0  0
   29.8290   31.8340   60.3520 C   0  0  0  0  0
   28.5960   32.4750   59.9190 C   0  0  0  0  0
   27.6810   31.8220   59.0080 C   0  0  0  0  0
   28.0610   30.4970   58.5590 C   0  0  0  0  0
   29.2810   29.8160   58.9750 C   0  0  0  0  0
   29.5000   28.4730   58.4490 C   0  0  0  0  0
   32.5630   20.5710   64.7070 N   0  0  0  0  0
   29.4257   28.2939   61.6160 H   0  0  0  0  0
   29.7291   26.3424   63.1590 H   0  0  0  0  0
   35.0556   28.5409   61.4417 H   0  0  0  0  0
   31.8640   23.8444   62.7463 H   0  0  0  0  0
   33.7216   24.9432   67.2882 H   0  0  0  0  0
   34.0312   26.8465   62.7316 H   0  0  0  0  0
   33.6726   22.5009   66.5447 H   0  0  0  0  0
   32.6092   27.2889   66.9109 H   0  0  0  0  0
   34.1775   27.3120   66.0677 H   0  0  0  0  0
   32.7099   27.8797   65.2340 H   0  0  0  0  0
   31.3431   19.2170   64.0713 H   0  0  0  0  0
   33.1323   17.4004   65.6900 H   0  0  0  0  0
   33.6642   18.2523   66.1084 H   0  0  0  0  0
   34.5164   19.1148   63.2708 H   0  0  0  0  0
   33.9839   18.2619   62.8519 H   0  0  0  0  0
   30.4949   32.3634   61.0335 H   0  0  0  0  0
   28.3561   33.4714   60.2901 H   0  0  0  0  0
   26.7583   32.2993   58.6780 H   0  0  0  0  0
   27.3947   29.9790   57.8692 H   0  0  0  0  0
   30.4354   28.4513   57.8898 H   0  0  0  0  0
   29.5529   27.7646   59.2757 H   0  0  0  0  0
   28.6748   28.2033   57.7899 H   0  0  0  0  0
   32.7242   20.7348   65.7008 H   0  0  0  0  0
  1  2  4  0  0  0
  1  5  4  0  0  0
 12  1  4  0  0  0
  3  2  4  0  0  0
  2 15  4  0  0  0
  4  3  4  0  0  0
 11  4  4  0  0  0
  5 13  4  0  0  0
  7  6  4  0  0  0
  6 16  4  0  0  0
  7 17  4  0  0  0
 19  7  1  0  0  0
 10  8  4  0  0  0
 16  8  4  0  0  0
  8 18  1  0  0  0
 19  9  2  0  0  0
 17 10  4  0  0  0
 11 12  4  0  0  0
 16 11  1  0  0  0
 13 14  4  0  0  0
 15 14  4  0  0  0
 15 23  1  0  0  0
 30 19  1  0  0  0
 20 21  1  0  0  0
 20 22  1  0  0  0
 20 30  1  0  0  0
 21 22  1  0  0  0
 23 24  4  0  0  0
 23 28  4  0  0  0
 24 25  4  0  0  0
 25 26  4  0  0  0
 26 27  4  0  0  0
 27 28  4  0  0  0
 28 29  1  0  0  0
  3 31  1  0  0  0
  4 32  1  0  0  0
  5 33  1  0  0  0
  6 34  1  0  0  0
 10 35  1  0  0  0
 12 36  1  0  0  0
 17 37  1  0  0  0
 18 38  1  0  0  0
 18 39  1  0  0  0
 18 40  1  0  0  0
 20 41  1  0  0  0
 21 42  1  0  0  0
 21 43  1  0  0  0
 22 44  1  0  0  0
 22 45  1  0  0  0
 24 46  1  0  0  0
 25 47  1  0  0  0
 26 48  1  0  0  0
 27 49  1  0  0  0
 29 50  1  0  0  0
 29 51  1  0  0  0
 29 52  1  0  0  0
 30 53  1  0  0  0
M  END
$$$$
