5wfz_ligand
  -I-interpret- 

 58 61  0  0  0  0  0  0  0  0999 V2000
  127.3410  105.3460  414.7020 C   0  0  0  0  0
  134.2200  102.2090  417.5880 C   0  0  0  0  0
  134.0820  103.2430  418.4980 C   0  0  0  0  0
  133.0290  103.2240  419.3940 C   0  0  0  0  0
  132.1250  102.1860  419.3820 C   0  0  0  0  0
  132.2650  101.1600  418.4770 C   0  0  0  0  0
  133.3120  101.1630  417.5740 C   0  0  0  0  0
  131.0600  105.7720  417.8420 C   0  0  0  0  0
  129.8050  105.5790  418.4160 C   0  0  0  0  0
  128.8440  101.2980  416.8040 C   0  0  0  0  0
  129.9080  100.7290  415.8780 C   0  0  0  0  0
  128.5210  104.8430  414.1520 C   0  0  0  0  0
  129.3830  101.1460  414.5260 C   0  0  0  0  0
  129.5560  105.7540  413.9390 C   0  0  0  0  0
  129.3760  107.0900  414.2650 C   0  0  0  0  0
  127.2440  106.6980  414.9970 C   0  0  0  0  0
  128.7290  103.4000  413.8000 C   0  0  0  0  0
  128.6270  102.7130  416.2350 C   0  0  0  0  0
  129.4800  103.8060  416.8400 C   0  0  0  0  0
  131.4600  104.9870  416.8020 C   0  0  0  0  0
  132.8160  105.1780  416.1760 C   0  0  0  0  0
  134.5330  104.1580  414.7650 C   0  0  0  0  0
  135.6100  103.8760  415.7950 C   0  0  0  0  0
  128.8840  102.5060  414.7900 N   0  0  0  0  0
  130.6850  104.0130  416.3060 N   0  0  0  0  0
  133.1970  104.2160  415.3370 N   0  0  0  0  0
  129.0280  104.5760  417.8790 N   0  0  0  0  0
  128.2420  107.5510  414.7830 N   0  0  0  0  0
  128.8470  103.0650  412.6230 O   0  0  0  0  0
  133.5110  106.1510  416.4650 O   0  0  0  0  0
  136.7700  101.9960  417.1770 O   0  0  0  0  0
  135.2390  101.3270  415.3660 O   0  0  0  0  0
  131.8090  106.7500  418.3710 O   0  0  0  0  0
  129.3710  106.2540  419.3610 O   0  0  0  0  0
  135.5610  102.2210  416.4400 S   0  0  0  0  0
  125.9970  104.3120  415.0070 Cl  0  0  0  0  0
  131.0570  105.2340  413.2710 Cl  0  0  0  0  0
  134.7974  104.0653  418.5081 H   0  0  0  0  0
  132.9142  104.0349  420.1133 H   0  0  0  0  0
  131.2970  102.1772  420.0908 H   0  0  0  0  0
  131.5468  100.3401  418.4716 H   0  0  0  0  0
  133.4220  100.3492  416.8572 H   0  0  0  0  0
  129.1471  101.3011  417.8510 H   0  0  0  0  0
  127.9319  100.7015  416.8232 H   0  0  0  0  0
  130.0454   99.6525  415.9801 H   0  0  0  0  0
  130.9123  101.0965  416.0888 H   0  0  0  0  0
  128.6164  100.4754  414.1378 H   0  0  0  0  0
  130.1398  101.1111  413.7423 H   0  0  0  0  0
  130.1948  107.7878  414.0899 H   0  0  0  0  0
  126.3136  107.0761  415.4207 H   0  0  0  0  0
  127.6323  103.0932  416.4679 H   0  0  0  0  0
  134.5475  103.3445  414.0397 H   0  0  0  0  0
  134.7457  105.1307  414.3214 H   0  0  0  0  0
  135.4498  104.5574  416.6305 H   0  0  0  0  0
  136.5743  104.0071  415.3040 H   0  0  0  0  0
  132.5249  103.4911  415.0857 H   0  0  0  0  0
  128.0986  104.4035  418.2623 H   0  0  0  0  0
  131.3276  107.1674  419.0891 H   0  0  0  0  0
 12  1  4  0  0  0
  1 16  4  0  0  0
  1 36  1  0  0  0
  2  3  4  0  0  0
  2  7  4  0  0  0
 35  2  1  0  0  0
  3  4  4  0  0  0
  4  5  4  0  0  0
  6  5  4  0  0  0
  7  6  4  0  0  0
  8  9  1  0  0  0
 20  8  2  0  0  0
  8 33  1  0  0  0
  9 27  1  0  0  0
  9 34  2  0  0  0
 10 11  1  0  0  0
 18 10  1  0  0  0
 13 11  1  0  0  0
 12 14  4  0  0  0
 17 12  1  0  0  0
 24 13  1  0  0  0
 14 15  4  0  0  0
 14 37  1  0  0  0
 15 28  4  0  0  0
 16 28  4  0  0  0
 24 17  1  0  0  0
 17 29  2  0  0  0
 19 18  1  0  0  0
 18 24  1  0  0  0
 25 19  2  0  0  0
 19 27  1  0  0  0
 21 20  1  0  0  0
 20 25  1  0  0  0
 26 21  1  0  0  0
 21 30  2  0  0  0
 23 22  1  0  0  0
 22 26  1  0  0  0
 23 35  1  0  0  0
 35 31  2  0  0  0
 35 32  2  0  0  0
  3 38  1  0  0  0
  4 39  1  0  0  0
  5 40  1  0  0  0
  6 41  1  0  0  0
  7 42  1  0  0  0
 10 43  1  0  0  0
 10 44  1  0  0  0
 11 45  1  0  0  0
 11 46  1  0  0  0
 13 47  1  0  0  0
 13 48  1  0  0  0
 15 49  1  0  0  0
 16 50  1  0  0  0
 18 51  1  0  0  0
 22 52  1  0  0  0
 22 53  1  0  0  0
 23 54  1  0  0  0
 23 55  1  0  0  0
 26 56  1  0  0  0
 27 57  1  0  0  0
 33 58  1  0  0  0
M  END
$$$$
