3oui_ligand
  -I-interpret- 

 24 25  0  0  0  0  0  0  0  0999 V2000
   14.3860   -7.6370   -7.2240 C   0  0  0  0  0
   13.2930   -7.5520   -8.0600 C   0  0  0  0  0
   11.9710   -8.0550   -7.6700 C   0  0  0  0  0
   15.6890   -8.2880   -4.9220 Cl  0  0  0  0  0
   11.8200   -8.6320   -6.4160 C   0  0  0  0  0
   12.6830   -9.4830   -3.9640 Cl  0  0  0  0  0
   12.9110   -8.7140   -5.5760 C   0  0  0  0  0
   14.2330   -8.1990   -5.9740 C   0  0  0  0  0
   11.1380   -7.8390   -8.6790 N   0  0  0  0  0
   11.8620   -7.2320   -9.6460 C   0  0  0  0  0
   13.1500   -7.0720   -9.3060 N   0  0  0  0  0
   11.4180   -6.8130  -10.9730 C   0  0  0  0  0
   10.3050   -7.2660  -11.5110 N   0  0  0  0  0
    8.8010   -7.5560  -13.4130 C   0  0  0  0  0
    7.9660   -7.9420  -12.6380 O   0  0  0  0  0
    8.5300   -7.4620  -14.6980 O   0  0  0  0  0
   12.2230   -6.1250  -11.5620 O   0  0  0  0  0
   10.1530   -7.1250  -12.9390 C   0  0  0  0  0
   15.3583   -7.2649   -7.5468 H   0  0  0  0  0
   10.8503   -9.0158   -6.0990 H   0  0  0  0  0
    9.5788   -7.6995  -10.9409 H   0  0  0  0  0
    9.3047   -7.1399  -15.1645 H   0  0  0  0  0
   10.8976   -7.7579  -13.4219 H   0  0  0  0  0
   10.2786   -6.0716  -13.1895 H   0  0  0  0  0
  2  1  4  0  0  0
  1  8  4  0  0  0
  2  3  4  0  0  0
 11  2  4  0  0  0
  3  5  4  0  0  0
  9  3  4  0  0  0
  8  4  1  0  0  0
  5  7  4  0  0  0
  7  6  1  0  0  0
  8  7  4  0  0  0
 10  9  4  0  0  0
 10 11  4  0  0  0
 12 10  1  0  0  0
 13 12  1  0  0  0
 12 17  2  0  0  0
 18 13  1  0  0  0
 14 15  2  0  0  0
 14 16  1  0  0  0
 14 18  1  0  0  0
  1 19  1  0  0  0
  5 20  1  0  0  0
 13 21  1  0  0  0
 16 22  1  0  0  0
 18 23  1  0  0  0
 18 24  1  0  0  0
M  END
$$$$
