4fil_ligand
  -I-interpret- 

 89 93  0  0  0  0  0  0  0  0999 V2000
   22.1360   14.1070   25.0340 O   0  0  0  0  0
   20.0630   14.4810   23.6290 O   0  0  0  0  0
   19.7910   14.3770   26.6190 O   0  0  0  0  0
   18.9690   16.4750   25.4610 O   0  0  0  0  0
   21.4090   17.0440   24.2680 O   0  0  0  0  0
   21.8320   16.4110   26.7080 O   0  0  0  0  0
   21.8170   13.1740   24.0690 N   0  0  0  0  0
   20.7270   13.4000   23.3650 C   0  0  0  0  0
   20.1880   12.5370   22.2580 C   0  0  0  0  0
   20.0160   11.0520   22.5560 C   0  0  0  0  0
   18.6440   10.6200   23.0490 C   0  0  0  0  0
   17.8660   10.0330   22.2710 O   0  0  0  0  0
   18.3840   10.8920   24.3010 N   0  0  0  0  0
   17.1180   10.5380   24.9310 C   0  0  0  0  0
   17.1190   10.9120   26.4060 C   0  0  0  0  0
   17.8940   12.7570   27.9470 C   0  0  0  0  0
   17.1860   12.3990   26.6580 C   0  0  0  0  0
   18.0200   14.2650   28.1840 C   0  0  0  0  0
   18.6290   14.9620   27.0640 N   0  0  0  0  0
   18.2470   16.0450   26.4320 C   0  0  0  0  0
   17.0120   16.7960   26.8000 C   0  0  0  0  0
   17.2980   18.2020   27.3400 C   0  0  0  0  0
   17.5840   19.1970   26.2320 C   0  0  0  0  0
   16.8110   19.3310   25.2870 O   0  0  0  0  0
   18.7090   19.9090   26.3500 N   0  0  0  0  0
   19.1300   20.9120   25.3770 C   0  0  0  0  0
   20.4840   20.6570   24.7780 C   0  0  0  0  0
   20.5600   19.9340   23.4470 C   0  0  0  0  0
   21.9220   19.4740   23.1340 C   0  0  0  0  0
   22.7840   19.0290   24.3580 C   0  0  0  0  0
   22.2200   17.8510   25.0320 N   0  0  0  0  0
   22.4020   17.4700   26.2910 C   0  0  0  0  0
   23.2660   18.2630   27.2240 C   0  0  0  0  0
   22.8120   12.0880   24.0490 C   0  0  0  0  0
   23.1790   11.6730   25.4600 C   0  0  0  0  0
   24.6670   11.3600   25.6760 C   0  0  0  0  0
   25.2420   11.9420   26.9570 C   0  0  0  0  0
   26.7520   12.0200   26.8950 C   0  0  0  0  0
   27.2210   13.0100   25.8970 N   0  3  0  0  0
   20.7330   15.4770   25.2830 Fe  0  0  0  0  0
   21.2055   12.4209   23.3430 H   0  0  0  0  0
   20.9206   12.5951   21.4530 H   0  0  0  0  0
   19.1876   12.9151   22.0474 H   0  0  0  0  0
   20.7148   10.8202   23.3597 H   0  0  0  0  0
   20.1777   10.5317   21.6120 H   0  0  0  0  0
   19.0931   11.3695   24.8575 H   0  0  0  0  0
   16.9731    9.4612   24.8435 H   0  0  0  0  0
   16.3155   11.0822   24.4330 H   0  0  0  0  0
   18.0073   10.4663   26.8536 H   0  0  0  0  0
   16.1830   10.5520   26.8331 H   0  0  0  0  0
   18.9040   12.3517   27.8868 H   0  0  0  0  0
   17.3042   12.3470   28.7668 H   0  0  0  0  0
   16.1626   12.7670   26.7313 H   0  0  0  0  0
   17.7479   12.8469   25.8384 H   0  0  0  0  0
   18.6569   14.4138   29.0560 H   0  0  0  0  0
   17.0159   14.6664   28.3209 H   0  0  0  0  0
   17.5368   15.7083   27.1872 H   0  0  0  0  0
   16.5075   16.2362   27.5875 H   0  0  0  0  0
   16.4106   16.9050   25.8975 H   0  0  0  0  0
   18.1788   18.1458   27.9797 H   0  0  0  0  0
   16.4150   18.5426   27.8807 H   0  0  0  0  0
   19.3038   19.7428   27.1618 H   0  0  0  0  0
   19.1842   21.8662   25.9011 H   0  0  0  0  0
   18.4078   20.8919   24.5608 H   0  0  0  0  0
   20.9916   20.0034   25.4874 H   0  0  0  0  0
   20.9041   21.6452   24.5906 H   0  0  0  0  0
   20.2524   20.6308   22.6673 H   0  0  0  0  0
   19.9132   19.0584   23.5020 H   0  0  0  0  0
   22.4387   20.3219   22.6843 H   0  0  0  0  0
   21.8128   18.5959   22.4976 H   0  0  0  0  0
   22.8085   19.8509   25.0735 H   0  0  0  0  0
   23.7793   18.7702   23.9969 H   0  0  0  0  0
   22.9043   18.4292   26.1657 H   0  0  0  0  0
   24.2795   18.3115   26.8258 H   0  0  0  0  0
   22.8637   19.2714   27.3210 H   0  0  0  0  0
   23.2810   17.7809   28.2015 H   0  0  0  0  0
   23.7092   12.4409   23.5405 H   0  0  0  0  0
   22.3872   11.2299   23.5281 H   0  0  0  0  0
   22.6297   10.7557   25.6719 H   0  0  0  0  0
   22.9361   12.5141   26.1094 H   0  0  0  0  0
   25.2147   11.8043   24.8449 H   0  0  0  0  0
   24.7630   10.2762   25.7418 H   0  0  0  0  0
   24.9614   11.2957   27.7887 H   0  0  0  0  0
   24.8473   12.9495   27.0886 H   0  0  0  0  0
   27.1305   11.0400   26.6043 H   0  0  0  0  0
   27.1162   12.3280   27.8751 H   0  0  0  0  0
   28.2408   13.0276   25.8907 H   0  0  0  0  0
   26.8785   12.7476   24.9727 H   0  0  0  0  0
   26.8653   13.9338   26.1431 H   0  0  0  0  0
  7  1  1  0  0  0
  8  2  1  0  0  0
 19  3  1  0  0  0
 20  4  1  0  0  0
 31  5  1  0  0  0
 32  6  1  0  0  0
  8  7  1  0  0  0
  7 34  1  0  0  0
  9  8  1  0  0  0
 10  9  1  0  0  0
 11 10  1  0  0  0
 11 12  2  0  0  0
 13 11  1  0  0  0
 14 13  1  0  0  0
 15 14  1  0  0  0
 17 15  1  0  0  0
 16 17  1  0  0  0
 18 16  1  0  0  0
 19 18  1  0  0  0
 20 19  1  0  0  0
 21 20  1  0  0  0
 22 21  1  0  0  0
 23 22  1  0  0  0
 23 24  2  0  0  0
 25 23  1  0  0  0
 26 25  1  0  0  0
 27 26  1  0  0  0
 28 27  1  0  0  0
 29 28  1  0  0  0
 30 29  1  0  0  0
 31 30  1  0  0  0
 31 32  1  0  0  0
 32 33  1  0  0  0
 34 35  1  0  0  0
 35 36  1  0  0  0
 36 37  1  0  0  0
 37 38  1  0  0  0
 38 39  1  0  0  0
  1 40  1  0  0  0
 40  2  1  0  0  0
 40  3  1  0  0  0
 40  4  1  0  0  0
 40  5  1  0  0  0
 40  6  1  0  0  0
  8 41  1  0  0  0
  9 42  1  0  0  0
  9 43  1  0  0  0
 10 44  1  0  0  0
 10 45  1  0  0  0
 13 46  1  0  0  0
 14 47  1  0  0  0
 14 48  1  0  0  0
 15 49  1  0  0  0
 15 50  1  0  0  0
 16 51  1  0  0  0
 16 52  1  0  0  0
 17 53  1  0  0  0
 17 54  1  0  0  0
 18 55  1  0  0  0
 18 56  1  0  0  0
 20 57  1  0  0  0
 21 58  1  0  0  0
 21 59  1  0  0  0
 22 60  1  0  0  0
 22 61  1  0  0  0
 25 62  1  0  0  0
 26 63  1  0  0  0
 26 64  1  0  0  0
 27 65  1  0  0  0
 27 66  1  0  0  0
 28 67  1  0  0  0
 28 68  1  0  0  0
 29 69  1  0  0  0
 29 70  1  0  0  0
 30 71  1  0  0  0
 30 72  1  0  0  0
 32 73  1  0  0  0
 33 74  1  0  0  0
 33 75  1  0  0  0
 33 76  1  0  0  0
 34 77  1  0  0  0
 34 78  1  0  0  0
 35 79  1  0  0  0
 35 80  1  0  0  0
 36 81  1  0  0  0
 36 82  1  0  0  0
 37 83  1  0  0  0
 37 84  1  0  0  0
 38 85  1  0  0  0
 38 86  1  0  0  0
 39 87  1  0  0  0
 39 88  1  0  0  0
 39 89  1  0  0  0
M  END
$$$$
