### 
### Created by X-TOOL on Mon Sep 10 21:13:14 2018
### 

@<TRIPOS>MOLECULE
4fil_ligand
   86    90     1     0     0
SMALL
GAST_HUCK


@<TRIPOS>ATOM
      1 O11        22.1360   14.1070   25.0340 O.3       1 0UE        -0.0763
      2 O12        20.0630   14.4810   23.6290 O.3       1 0UE        -0.1816
      3 O21        19.7910   14.3770   26.6190 O.3       1 0UE        -0.0763
      4 O22        18.9690   16.4750   25.4610 O.3       1 0UE        -0.1816
      5 O31        21.4090   17.0440   24.2680 O.3       1 0UE        -0.0763
      6 O32        21.8320   16.4110   26.7080 O.3       1 0UE        -0.1821
      7 N11        21.8170   13.1740   24.0690 N.pl3     1 0UE        -0.1664
      8 C11        20.7270   13.4000   23.3650 C.2       1 0UE         0.1625
      9 C12        20.1880   12.5370   22.2580 C.3       1 0UE         0.0124
     10 C13        20.0160   11.0520   22.5560 C.3       1 0UE         0.0423
     11 C14        18.6440   10.6200   23.0490 C.2       1 0UE         0.1773
     12 O13        17.8660   10.0330   22.2710 O.2       1 0UE        -0.3969
     13 N12        18.3840   10.8920   24.3010 N.am      1 0UE        -0.2868
     14 C15        17.1180   10.5380   24.9310 C.3       1 0UE         0.0309
     15 C16        17.1190   10.9120   26.4060 C.3       1 0UE        -0.0327
     16 C18        17.8940   12.7570   27.9470 C.3       1 0UE        -0.0310
     17 C17        17.1860   12.3990   26.6580 C.3       1 0UE        -0.0493
     18 C19        18.0200   14.2650   28.1840 C.3       1 0UE         0.0511
     19 N21        18.6290   14.9620   27.0640 N.pl3     1 0UE        -0.1664
     20 C21        18.2470   16.0450   26.4320 C.2       1 0UE         0.1625
     21 C22        17.0120   16.7960   26.8000 C.3       1 0UE         0.0124
     22 C23        17.2980   18.2020   27.3400 C.3       1 0UE         0.0423
     23 C24        17.5840   19.1970   26.2320 C.2       1 0UE         0.1773
     24 O23        16.8110   19.3310   25.2870 O.2       1 0UE        -0.3969
     25 N22        18.7090   19.9090   26.3500 N.am      1 0UE        -0.2868
     26 C25        19.1300   20.9120   25.3770 C.3       1 0UE         0.0309
     27 C26        20.4840   20.6570   24.7780 C.3       1 0UE        -0.0327
     28 C27        20.5600   19.9340   23.4470 C.3       1 0UE        -0.0493
     29 C28        21.9220   19.4740   23.1340 C.3       1 0UE        -0.0310
     30 C29        22.7840   19.0290   24.3580 C.3       1 0UE         0.0511
     31 N31        22.2200   17.8510   25.0320 N.pl3     1 0UE        -0.1668
     32 C31        22.4020   17.4700   26.2910 C.2       1 0UE         0.1573
     33 C32        23.2660   18.2630   27.2240 C.3       1 0UE        -0.0165
     34 C39        22.8120   12.0880   24.0490 C.3       1 0UE         0.0511
     35 C40        23.1790   11.6730   25.4600 C.3       1 0UE        -0.0308
     36 C41        24.6670   11.3600   25.6760 C.3       1 0UE        -0.0464
     37 C42        25.2420   11.9420   26.9570 C.3       1 0UE        -0.0126
     38 C43        26.7520   12.0200   26.8950 C.3       1 0UE        -0.0354
     39 N44        27.2210   13.0100   25.8970 N.4       1 0UE         0.2185
     40 FE         20.7330   15.4770   25.2830 Fe        1 0UE         0.0000
     41 H1         20.8754   12.6260   21.4039 H         1 0UE         0.0385
     42 H2         19.2016   12.9351   21.9779 H         1 0UE         0.0385
     43 H3         20.7512   10.7771   23.3267 H         1 0UE         0.0518
     44 H4         20.2299   10.4971   21.6306 H         1 0UE         0.0518
     45 H5         19.0792   11.3601   24.8466 H         1 0UE         0.1851
     46 H6         16.9593    9.4538   24.8351 H         1 0UE         0.0520
     47 H7         16.3019   11.0743   24.4246 H         1 0UE         0.0520
     48 H8         17.9907   10.4400   26.8828 H         1 0UE         0.0285
     49 H9         16.1965   10.5242   26.8627 H         1 0UE         0.0285
     50 H10        18.9050   12.3245   27.9192 H         1 0UE         0.0285
     51 H11        17.3311   12.3200   28.7850 H         1 0UE         0.0285
     52 H12        16.1596   12.7920   26.7028 H         1 0UE         0.0267
     53 H13        17.7232   12.8708   25.8221 H         1 0UE         0.0267
     54 H14        18.6384   14.4297   29.0787 H         1 0UE         0.0539
     55 H15        17.0150   14.6797   28.3515 H         1 0UE         0.0539
     56 H16        16.4744   16.2274   27.5731 H         1 0UE         0.0385
     57 H17        16.3788   16.8874   25.9052 H         1 0UE         0.0385
     58 H18        18.1718   18.1540   28.0065 H         1 0UE         0.0518
     59 H19        16.4219   18.5477   27.9083 H         1 0UE         0.0518
     60 H20        19.2922   19.7461   27.1458 H         1 0UE         0.1851
     61 H21        19.1531   21.8909   25.8783 H         1 0UE         0.0520
     62 H22        18.3910   20.9344   24.5626 H         1 0UE         0.0520
     63 H23        21.0540   20.0601   25.5052 H         1 0UE         0.0285
     64 H24        20.9700   21.6348   24.6450 H         1 0UE         0.0285
     65 H25        20.2279   20.6195   22.6534 H         1 0UE         0.0267
     66 H26        19.8917   19.0610   23.4808 H         1 0UE         0.0267
     67 H27        22.4496   20.2975   22.6305 H         1 0UE         0.0285
     68 H28        21.8404   18.6174   22.4487 H         1 0UE         0.0285
     69 H29        22.8337   19.8595   25.0776 H         1 0UE         0.0539
     70 H30        23.7981   18.7858   24.0081 H         1 0UE         0.0539
     71 H31        23.6715   19.1375   26.6941 H         1 0UE         0.0325
     72 H32        24.0947   17.6336   27.5806 H         1 0UE         0.0325
     73 H33        22.6660   18.6001   28.0821 H         1 0UE         0.0325
     74 H34        23.7162   12.4359   23.5281 H         1 0UE         0.0539
     75 H35        22.3916   11.2226   23.5157 H         1 0UE         0.0539
     76 H36        22.6003   10.7723   25.7126 H         1 0UE         0.0285
     77 H37        22.8998   12.4911   26.1403 H         1 0UE         0.0285
     78 H38        25.2333   11.7684   24.8260 H         1 0UE         0.0268
     79 H39        24.7896   10.2673   25.7072 H         1 0UE         0.0268
     80 H40        24.9505   11.3030   27.8036 H         1 0UE         0.0317
     81 H41        24.8366   12.9538   27.1047 H         1 0UE         0.0317
     82 H42        27.1470   11.0297   26.6242 H         1 0UE         0.0813
     83 H43        27.1328   12.3083   27.8859 H         1 0UE         0.0813
     84 H44        28.2288   13.0283   25.8899 H         1 0UE         0.1994
     85 H45        26.8701   13.9234   26.1392 H         1 0UE         0.1994
     86 H46        26.8832   12.7517   24.9831 H         1 0UE         0.1994
@<TRIPOS>BOND
     1    7    1 1  
     2    8    2 1  
     3   19    3 1  
     4   20    4 1  
     5   31    5 1  
     6   32    6 1  
     7    8    7 1  
     8    7   34 1  
     9    9    8 1  
    10   10    9 1  
    11   11   10 1  
    12   11   12 2  
    13   13   11 am 
    14   14   13 1  
    15   15   14 1  
    16   17   15 1  
    17   16   17 1  
    18   18   16 1  
    19   19   18 1  
    20   20   19 1  
    21   21   20 1  
    22   22   21 1  
    23   23   22 1  
    24   23   24 2  
    25   25   23 am 
    26   26   25 1  
    27   27   26 1  
    28   28   27 1  
    29   29   28 1  
    30   30   29 1  
    31   31   30 1  
    32   31   32 1  
    33   32   33 1  
    34   34   35 1  
    35   35   36 1  
    36   36   37 1  
    37   37   38 1  
    38   38   39 1  
    39    1   40 1  
    40   40    2 1  
    41   40    3 1  
    42   40    4 1  
    43   40    5 1  
    44   40    6 1  
    45    9   41 1  
    46    9   42 1  
    47   10   43 1  
    48   10   44 1  
    49   13   45 1  
    50   14   46 1  
    51   14   47 1  
    52   15   48 1  
    53   15   49 1  
    54   16   50 1  
    55   16   51 1  
    56   17   52 1  
    57   17   53 1  
    58   18   54 1  
    59   18   55 1  
    60   21   56 1  
    61   21   57 1  
    62   22   58 1  
    63   22   59 1  
    64   25   60 1  
    65   26   61 1  
    66   26   62 1  
    67   27   63 1  
    68   27   64 1  
    69   28   65 1  
    70   28   66 1  
    71   29   67 1  
    72   29   68 1  
    73   30   69 1  
    74   30   70 1  
    75   33   71 1  
    76   33   72 1  
    77   33   73 1  
    78   34   74 1  
    79   34   75 1  
    80   35   76 1  
    81   35   77 1  
    82   36   78 1  
    83   36   79 1  
    84   37   80 1  
    85   37   81 1  
    86   38   82 1  
    87   38   83 1  
    88   39   84 1  
    89   39   85 1  
    90   39   86 1  
@<TRIPOS>SUBSTRUCTURE
     1 0UE         1

