1f0r_ligand
  -I-interpret- 

 50 54  0  0  0  0  0  0  0  0999 V2000
    7.7410    9.1240   22.8480 C   0  0  0  0  0
    9.0880    9.4590   23.1410 C   0  0  0  0  0
    9.7550    8.8810   24.2720 C   0  0  0  0  0
    9.0680    7.9360   25.1490 C   0  0  0  0  0
    7.7300    7.5870   24.8810 C   0  0  0  0  0
    7.0170    8.2060   23.6710 C   0  0  0  0  0
   11.1090    9.2260   24.5460 C   0  0  0  0  0
   11.7210    8.6290   25.6650 C   0  0  0  0  0
   11.0810    7.7380   26.4960 N   0  0  0  0  0
    9.7720    7.3880   26.2540 C   0  0  0  0  0
    7.7850    1.0920   19.6120 C   0  0  0  0  0
    9.0610    0.9520   19.0840 C   0  0  0  0  0
    9.2710    0.4420   17.7740 C   0  0  0  0  0
    8.1400    0.0760   17.0030 C   0  0  0  0  0
    6.8780    0.2040   17.5050 N   0  0  0  0  0
    6.6740    0.7000   18.7800 C   0  0  0  0  0
    5.4160    0.9140   19.4960 C   0  0  0  0  0
    5.6160    1.4400   20.7820 C   0  0  0  0  0
    7.2850    1.6670   21.1220 S   0  0  0  0  0
    5.5450    6.5380   22.6240 N   0  0  0  0  0
    5.0640    5.3650   23.0920 C   0  0  0  0  0
    5.2120    4.3180   22.0020 C   0  0  0  0  0
    5.4240    5.1650   20.7410 C   0  0  0  0  0
    6.0400    6.4550   21.2450 C   0  0  0  0  0
    4.0250    3.4980   21.9110 N   0  0  0  0  0
    4.2360    1.7790   21.8030 S   0  0  0  0  0
    2.9910    1.4090   21.1640 O   0  0  0  0  0
    4.5080    1.3770   23.1580 O   0  0  0  0  0
    4.5910    5.1490   24.2020 O   0  0  0  0  0
    9.2240    6.5130   27.1140 N   0  0  0  0  0
    5.5990    7.7970   23.3850 C   0  0  0  0  0
    7.2513    9.5726   21.9837 H   0  0  0  0  0
    9.6211   10.1620   22.5009 H   0  0  0  0  0
    7.2054    6.8834   25.5274 H   0  0  0  0  0
   11.6523    9.9270   23.9124 H   0  0  0  0  0
   12.7571    8.8864   25.8847 H   0  0  0  0  0
    9.9217    1.2397   19.6878 H   0  0  0  0  0
   10.2785    0.3350   17.3720 H   0  0  0  0  0
    8.2802   -0.3133   15.9946 H   0  0  0  0  0
    4.4345    0.6903   19.0780 H   0  0  0  0  0
    6.0260    3.6145   22.1766 H   0  0  0  0  0
    4.4903    5.3410   20.2069 H   0  0  0  0  0
    6.0654    4.6633   20.0165 H   0  0  0  0  0
    7.1284    6.4559   21.1853 H   0  0  0  0  0
    5.7623    7.3201   20.6429 H   0  0  0  0  0
    3.0945    3.9159   21.9103 H   0  0  0  0  0
    8.2574    6.2121   26.9888 H   0  0  0  0  0
    9.7746    6.1496   27.8920 H   0  0  0  0  0
    5.1263    8.5799   22.7920 H   0  0  0  0  0
    5.0836    7.6497   24.3341 H   0  0  0  0  0
  1  6  4  0  0  0
  1  2  4  0  0  0
  2  3  4  0  0  0
  3  7  4  0  0  0
  3  4  4  0  0  0
  4 10  4  0  0  0
  4  5  4  0  0  0
  5  6  4  0  0  0
  6 31  1  0  0  0
 31 20  1  0  0  0
 20 24  1  0  0  0
 20 21  1  0  0  0
 21 29  2  0  0  0
 21 22  1  0  0  0
 22 25  1  0  0  0
 22 23  1  0  0  0
 23 24  1  0  0  0
 25 26  1  0  0  0
 26 28  2  0  0  0
 26 27  2  0  0  0
 26 18  1  0  0  0
 18 19  4  0  0  0
 18 17  4  0  0  0
 17 16  4  0  0  0
 16 15  4  0  0  0
 16 11  4  0  0  0
 11 19  4  0  0  0
 11 12  4  0  0  0
 12 13  4  0  0  0
 13 14  4  0  0  0
 14 15  4  0  0  0
 10 30  1  0  0  0
 10  9  4  0  0  0
  9  8  4  0  0  0
  8  7  4  0  0  0
  1 32  1  0  0  0
  2 33  1  0  0  0
  5 34  1  0  0  0
  7 35  1  0  0  0
  8 36  1  0  0  0
 12 37  1  0  0  0
 13 38  1  0  0  0
 14 39  1  0  0  0
 17 40  1  0  0  0
 22 41  1  0  0  0
 23 42  1  0  0  0
 23 43  1  0  0  0
 24 44  1  0  0  0
 24 45  1  0  0  0
 25 46  1  0  0  0
 30 47  1  0  0  0
 30 48  1  0  0  0
 31 49  1  0  0  0
 31 50  1  0  0  0
M  END
$$$$
