4kjv_ligand
  -I-interpret- 

 74 78  0  0  0  0  0  0  0  0999 V2000
   27.8440   28.0450   10.7760 C   0  0  0  0  0
   27.8590   29.4480   11.1160 O   0  0  0  0  0
   28.5050   29.9000   12.2720 C   0  0  0  0  0
   29.3100   29.0850   13.0900 C   0  0  0  0  0
   29.8970   29.5910   14.2480 C   0  0  0  0  0
   29.7080   30.9650   14.5830 C   0  0  0  0  0
   30.2890   31.5110   15.7380 C   0  0  0  0  0
   30.1260   32.8710   16.1200 C   0  0  0  0  0
   30.7320   33.4090   17.2670 C   0  0  0  0  0
   30.3870   34.5340   17.7290 O   0  0  0  0  0
   31.6110   32.7670   17.8710 O   0  0  0  0  0
   29.3220   33.7020   15.3210 C   0  0  0  0  0
   28.7610   33.1700   14.1640 C   0  0  0  0  0
   28.9130   31.8040   13.7710 C   0  0  0  0  0
   28.3170   31.2920   12.6160 C   0  0  0  0  0
   27.4890   32.1200   11.8140 C   0  0  0  0  0
   28.2940   33.1620   11.0470 N   0  0  0  0  0
   27.9320   34.4970   11.0520 C   0  0  0  0  0
   27.0020   34.9040   11.8040 O   0  0  0  0  0
   29.4510   32.7560   10.3470 C   0  0  0  0  0
   29.4590   31.5990    9.5540 C   0  0  0  0  0
   30.6210   31.2300    8.8180 C   0  0  0  0  0
   31.7710   32.0220    8.8980 C   0  0  0  0  0
   31.8090   33.1690    9.7160 C   0  0  0  0  0
   30.6150   33.5360   10.4150 C   0  0  0  0  0
   30.7420   34.6840   11.2000 O   0  0  0  0  0
   30.0620   35.8770   10.7730 C   0  0  0  0  0
   30.8340   36.4970    9.6210 C   0  0  0  0  0
   32.0340   37.2800   10.1710 C   0  0  0  0  0
   31.8320   38.0250   11.3490 O   0  0  0  0  0
   31.3900   37.2310   12.3990 C   0  0  0  0  0
   29.9690   36.7830   11.9910 C   0  0  0  0  0
   28.6350   35.4810   10.2010 C   0  0  0  0  0
   27.7280   36.6140    9.8590 N   0  0  0  0  0
   26.8940   36.5690    8.8080 C   0  0  0  0  0
   26.8140   35.6210    8.0130 O   0  0  0  0  0
   25.8590   37.7300    8.7820 C   0  0  0  0  0
   24.6830   37.3850    9.8060 C   0  0  0  0  0
   25.3230   37.9140    7.4420 N   0  3  0  0  0
   26.3220   38.3710    6.4080 C   0  0  0  0  0
   28.8676   27.6917   10.6512 H   0  0  0  0  0
   27.3596   27.4840   11.5752 H   0  0  0  0  0
   27.2936   27.9037    9.8459 H   0  0  0  0  0
   29.4765   28.0438   12.8138 H   0  0  0  0  0
   30.4940   28.9442   14.8909 H   0  0  0  0  0
   30.8935   30.8622   16.3719 H   0  0  0  0  0
   29.7068   34.9141   17.1682 H   0  0  0  0  0
   29.1420   34.7398   15.6013 H   0  0  0  0  0
   28.1750   33.8294   13.5238 H   0  0  0  0  0
   26.7927   32.6427   12.4698 H   0  0  0  0  0
   26.9736   31.4879   11.0909 H   0  0  0  0  0
   28.5664   30.9757    9.5005 H   0  0  0  0  0
   30.6142   30.3351    8.1957 H   0  0  0  0  0
   32.6523   31.7476    8.3182 H   0  0  0  0  0
   32.7203   33.7590    9.8135 H   0  0  0  0  0
   30.1814   37.1733    9.0689 H   0  0  0  0  0
   31.1883   35.7095    8.9559 H   0  0  0  0  0
   32.2901   38.0078    9.4011 H   0  0  0  0  0
   32.7864   36.5316   10.4198 H   0  0  0  0  0
   31.3863   37.7754   13.3433 H   0  0  0  0  0
   32.0494   36.3794   12.5668 H   0  0  0  0  0
   29.5048   36.2418   12.8154 H   0  0  0  0  0
   29.3639   37.6575   11.7516 H   0  0  0  0  0
   28.8846   35.0166    9.2470 H   0  0  0  0  0
   27.7417   37.4504   10.4426 H   0  0  0  0  0
   26.3476   38.6594    9.0746 H   0  0  0  0  0
   24.2042   36.4527    9.5067 H   0  0  0  0  0
   25.0962   37.2771   10.8089 H   0  0  0  0  0
   23.9488   38.1906    9.7989 H   0  0  0  0  0
   24.6144   38.6447    7.5077 H   0  0  0  0  0
   24.9804   37.0033    7.1359 H   0  0  0  0  0
   26.7419   39.3306    6.7096 H   0  0  0  0  0
   27.1204   37.6335    6.3251 H   0  0  0  0  0
   25.8230   38.4779    5.4449 H   0  0  0  0  0
  1  2  1  0  0  0
  2  3  1  0  0  0
  3  4  4  0  0  0
  3 15  4  0  0  0
  4  5  4  0  0  0
  5  6  4  0  0  0
  6  7  4  0  0  0
  6 14  4  0  0  0
  7  8  4  0  0  0
  8  9  1  0  0  0
  8 12  4  0  0  0
  9 10  1  0  0  0
  9 11  2  0  0  0
 12 13  4  0  0  0
 13 14  4  0  0  0
 14 15  4  0  0  0
 15 16  1  0  0  0
 16 17  1  0  0  0
 17 18  1  0  0  0
 17 20  1  0  0  0
 18 19  2  0  0  0
 18 33  1  0  0  0
 20 21  4  0  0  0
 20 25  4  0  0  0
 21 22  4  0  0  0
 22 23  4  0  0  0
 23 24  4  0  0  0
 24 25  4  0  0  0
 25 26  1  0  0  0
 26 27  1  0  0  0
 27 28  1  0  0  0
 27 32  1  0  0  0
 27 33  1  0  0  0
 28 29  1  0  0  0
 29 30  1  0  0  0
 30 31  1  0  0  0
 31 32  1  0  0  0
 33 34  1  0  0  0
 34 35  1  0  0  0
 35 36  2  0  0  0
 35 37  1  0  0  0
 37 38  1  0  0  0
 37 39  1  0  0  0
 39 40  1  0  0  0
  1 41  1  0  0  0
  1 42  1  0  0  0
  1 43  1  0  0  0
  4 44  1  0  0  0
  5 45  1  0  0  0
  7 46  1  0  0  0
 10 47  1  0  0  0
 12 48  1  0  0  0
 13 49  1  0  0  0
 16 50  1  0  0  0
 16 51  1  0  0  0
 21 52  1  0  0  0
 22 53  1  0  0  0
 23 54  1  0  0  0
 24 55  1  0  0  0
 28 56  1  0  0  0
 28 57  1  0  0  0
 29 58  1  0  0  0
 29 59  1  0  0  0
 31 60  1  0  0  0
 31 61  1  0  0  0
 32 62  1  0  0  0
 32 63  1  0  0  0
 33 64  1  0  0  0
 34 65  1  0  0  0
 37 66  1  0  0  0
 38 67  1  0  0  0
 38 68  1  0  0  0
 38 69  1  0  0  0
 39 70  1  0  0  0
 39 71  1  0  0  0
 40 72  1  0  0  0
 40 73  1  0  0  0
 40 74  1  0  0  0
M  END
$$$$
