5dtw_ligand
  -I-interpret- 

143145  0  0  0  0  0  0  0  0999 V2000
  -30.2010  -21.6010  -31.0750 O   0  0  0  0  0
  -28.7590  -21.1320  -31.1470 P   0  0  0  0  0
  -27.7500  -22.2490  -30.9280 O   0  0  0  0  0
  -28.5330  -20.2050  -32.3330 O   0  0  0  0  0
  -28.4770  -20.1720  -29.8630 O   0  0  0  0  0
  -28.6910  -20.5880  -28.5060 C   0  0  0  0  0
  -27.6720  -19.9550  -27.5770 C   0  0  0  0  0
  -26.3800  -19.8250  -28.1710 O   0  0  0  0  0
  -28.2770  -18.5860  -27.3170 C   0  0  0  0  0
  -27.8130  -18.0360  -26.0240 N   0  0  0  0  0
  -28.1870  -18.4920  -24.8190 C   0  0  0  0  0
  -27.5760  -17.7670  -23.8710 N   0  0  0  0  0
  -26.8150  -16.8550  -24.4830 C   0  0  0  0  0
  -25.9810  -15.8770  -24.0090 C   0  0  0  0  0
  -25.8350  -15.7080  -22.6780 N   0  0  0  0  0
  -25.3290  -15.0940  -24.8840 N   0  0  0  0  0
  -25.4770  -15.2650  -26.2040 C   0  0  0  0  0
  -26.2820  -16.2190  -26.6870 N   0  0  0  0  0
  -26.9650  -17.0230  -25.8440 C   0  0  0  0  0
  -29.6840  -18.8340  -27.2700 O   0  0  0  0  0
  -30.0120  -19.9910  -28.0470 C   0  0  0  0  0
  -30.8040  -20.9760  -27.1990 C   0  0  0  0  0
  -29.8810  -21.5830  -26.3040 O   0  0  0  0  0
  -30.1630  -22.9920  -25.6120 P   0  0  0  0  0
  -30.4610  -24.0280  -26.6670 O   0  0  0  0  0
  -29.0390  -23.1890  -24.6290 O   0  0  0  0  0
  -31.5590  -22.5850  -24.9010 O   0  0  0  0  0
  -32.3060  -23.3220  -23.6830 P   0  0  0  0  0
  -33.7240  -22.8210  -23.7650 O   0  0  0  0  0
  -32.0510  -24.7970  -23.7420 O   0  0  0  0  0
  -31.5380  -22.7610  -22.3760 O   0  0  0  0  0
  -31.7690  -21.4760  -21.7620 C   0  0  0  0  0
  -30.5290  -21.0440  -20.9610 C   0  0  0  0  0
  -30.4480  -21.8490  -19.6710 C   0  0  0  0  0
  -30.5280  -19.5600  -20.6370 C   0  0  0  0  0
  -29.3600  -21.3390  -21.8820 C   0  0  0  0  0
  -29.2210  -22.7570  -21.9710 O   0  0  0  0  0
  -28.0770  -20.6880  -21.4500 C   0  0  0  0  0
  -27.6370  -19.8100  -22.1540 O   0  0  0  0  0
  -27.4430  -21.0690  -20.3460 N   0  0  0  0  0
  -26.1830  -20.4340  -19.9590 C   0  0  0  0  0
  -26.1310  -18.8980  -19.9790 C   0  0  0  0  0
  -24.8170  -18.3650  -19.4470 C   0  0  0  0  0
  -23.7870  -19.0320  -19.4730 O   0  0  0  0  0
  -24.8580  -17.1270  -18.9580 N   0  0  0  0  0
  -23.6650  -16.5170  -18.4150 C   0  0  0  0  0
  -23.0850  -15.4630  -19.3380 C   0  0  0  0  0
  -22.0100  -14.4640  -18.3620 S   0  0  0  0  0
  -22.8610  -13.4000  -17.3500 C   0  0  0  0  0
  -24.0430  -13.1510  -17.5480 O   0  0  0  0  0
  -22.1750  -12.7150  -16.1770 C   0  0  0  0  0
  -21.0470  -11.7970  -16.6380 C   0  0  0  0  0
  -21.1970  -10.3400  -16.2100 C   0  0  0  0  0
  -21.5120  -10.2360  -14.7190 C   0  0  0  0  0
  -20.4960   -9.3510  -13.9960 C   0  0  0  0  0
  -20.5400   -7.9260  -14.5430 C   0  0  0  0  0
  -19.3930   -7.0830  -13.9850 C   0  0  0  0  0
  -19.8310   -6.1090  -12.8870 C   0  0  0  0  0
  -20.8440   -5.0850  -13.4010 C   0  0  0  0  0
  -22.2500   -5.3990  -12.8950 C   0  0  0  0  0
  -22.8700   -4.2340  -12.1270 C   0  0  0  0  0
  -24.3500   -4.4750  -11.8490 C   0  0  0  0  0
  -24.7410   -3.8250  -10.5250 C   0  0  0  0  0
  -24.7760   -2.3060  -10.6360 C   0  0  0  0  0
  -24.8010   -1.6200   -9.2750 C   0  0  0  0  0
  -25.9300   -2.1280   -8.3870 C   0  0  0  0  0
  -26.5140   -0.9980   -7.5430 C   0  0  0  0  0
  -27.1060    0.0940   -8.4260 C   0  0  0  0  0
  -27.4740    1.3270   -7.6300 C   0  0  0  0  0
  -26.8609  -21.8913  -30.9852 H   0  0  0  0  0
  -27.6142  -19.9272  -32.3500 H   0  0  0  0  0
  -28.6434  -21.6765  -28.4751 H   0  0  0  0  0
  -27.4999  -20.5546  -26.6832 H   0  0  0  0  0
  -26.0122  -20.6976  -28.3285 H   0  0  0  0  0
  -27.9950  -17.8585  -28.0782 H   0  0  0  0  0
  -28.8757  -19.3177  -24.6398 H   0  0  0  0  0
  -26.3447  -16.3074  -22.0289 H   0  0  0  0  0
  -25.2150  -14.9809  -22.3212 H   0  0  0  0  0
  -24.9347  -14.6187  -26.8941 H   0  0  0  0  0
  -30.6341  -19.7414  -28.9066 H   0  0  0  0  0
  -31.2864  -21.7261  -27.8256 H   0  0  0  0  0
  -31.5964  -20.4659  -26.6513 H   0  0  0  0  0
  -31.2046  -23.7362  -27.1994 H   0  0  0  0  0
  -33.7269  -21.8624  -23.7142 H   0  0  0  0  0
  -32.6229  -21.5491  -21.0885 H   0  0  0  0  0
  -31.9683  -20.7382  -22.5392 H   0  0  0  0  0
  -31.3440  -21.6711  -19.0764 H   0  0  0  0  0
  -30.3738  -22.9098  -19.9103 H   0  0  0  0  0
  -29.5684  -21.5403  -19.1062 H   0  0  0  0  0
  -30.5436  -18.9870  -21.5641 H   0  0  0  0  0
  -31.4101  -19.3183  -20.0441 H   0  0  0  0  0
  -29.6296  -19.3136  -20.0711 H   0  0  0  0  0
  -29.5728  -20.9092  -22.8608 H   0  0  0  0  0
  -28.4854  -22.9696  -22.5501 H   0  0  0  0  0
  -27.8372  -21.8087  -19.7648 H   0  0  0  0  0
  -25.4491  -20.7632  -20.6946 H   0  0  0  0  0
  -26.0151  -20.7210  -18.9209 H   0  0  0  0  0
  -26.9325  -18.5225  -19.3428 H   0  0  0  0  0
  -26.2383  -18.5678  -21.0122 H   0  0  0  0  0
  -25.7353  -16.6067  -18.9666 H   0  0  0  0  0
  -22.9167  -17.2983  -18.2821 H   0  0  0  0  0
  -23.9308  -16.0334  -17.4750 H   0  0  0  0  0
  -23.8768  -14.8596  -19.7820 H   0  0  0  0  0
  -22.5412  -15.9265  -20.1611 H   0  0  0  0  0
  -21.7492  -13.4840  -15.5324 H   0  0  0  0  0
  -22.9153  -12.1113  -15.6521 H   0  0  0  0  0
  -21.0521  -11.8101  -17.7279 H   0  0  0  0  0
  -20.1289  -12.1688  -16.1832 H   0  0  0  0  0
  -22.0171   -9.8934  -16.7723 H   0  0  0  0  0
  -20.2593   -9.8200  -16.4060 H   0  0  0  0  0
  -21.4717  -11.2353  -14.2856 H   0  0  0  0  0
  -22.5014   -9.7933  -14.6038 H   0  0  0  0  0
  -19.4974   -9.7589  -14.1525 H   0  0  0  0  0
  -20.7390   -9.3294  -12.9336 H   0  0  0  0  0
  -21.4839   -7.4687  -14.2462 H   0  0  0  0  0
  -20.4453   -7.9671  -15.6281 H   0  0  0  0  0
  -18.9903   -6.4913  -14.8071 H   0  0  0  0  0
  -18.6662   -7.7668  -13.5464 H   0  0  0  0  0
  -18.9500   -5.5711  -12.5370 H   0  0  0  0  0
  -20.3017   -6.6836  -12.0893 H   0  0  0  0  0
  -20.8504   -5.1180  -14.4905 H   0  0  0  0  0
  -20.5559   -4.0980  -13.0391 H   0  0  0  0  0
  -22.1808   -6.2495  -12.2168 H   0  0  0  0  0
  -22.8803   -5.6043  -13.7602 H   0  0  0  0  0
  -22.7738   -3.3315  -12.7306 H   0  0  0  0  0
  -22.3510   -4.1326  -11.1739 H   0  0  0  0  0
  -24.5356   -5.5476  -11.7921 H   0  0  0  0  0
  -24.9429   -4.0390  -12.6530 H   0  0  0  0  0
  -23.9997   -4.0988   -9.7743 H   0  0  0  0  0
  -25.7366   -4.1737  -10.2505 H   0  0  0  0  0
  -25.6861   -2.0292  -11.1682 H   0  0  0  0  0
  -23.8731   -1.9865  -11.1564 H   0  0  0  0  0
  -24.9553   -0.5534   -9.4385 H   0  0  0  0  0
  -23.8568   -1.8326   -8.7736 H   0  0  0  0  0
  -25.5326   -2.8929   -7.7198 H   0  0  0  0  0
  -26.7181   -2.5334   -9.0215 H   0  0  0  0  0
  -25.7167   -0.5650   -6.9388 H   0  0  0  0  0
  -27.3049   -1.4051   -6.9130 H   0  0  0  0  0
  -28.0120   -0.2959   -8.8899 H   0  0  0  0  0
  -26.3583    0.3766   -9.1670 H   0  0  0  0  0
  -28.2122    1.0622   -6.8730 H   0  0  0  0  0
  -26.5821    1.7251   -7.1461 H   0  0  0  0  0
  -27.8919    2.0788   -8.2995 H   0  0  0  0  0
  1  2  2  0  0  0
  2  3  1  0  0  0
  2  4  1  0  0  0
  2  5  1  0  0  0
  5  6  1  0  0  0
  6  7  1  0  0  0
  6 21  1  0  0  0
  7  8  1  0  0  0
  7  9  1  0  0  0
  9 10  1  0  0  0
  9 20  1  0  0  0
 10 11  4  0  0  0
 10 19  4  0  0  0
 11 12  4  0  0  0
 12 13  4  0  0  0
 13 14  4  0  0  0
 13 19  4  0  0  0
 14 15  1  0  0  0
 14 16  4  0  0  0
 16 17  4  0  0  0
 17 18  4  0  0  0
 18 19  4  0  0  0
 20 21  1  0  0  0
 21 22  1  0  0  0
 22 23  1  0  0  0
 23 24  1  0  0  0
 24 25  1  0  0  0
 24 26  2  0  0  0
 24 27  1  0  0  0
 27 28  1  0  0  0
 28 29  1  0  0  0
 28 30  2  0  0  0
 28 31  1  0  0  0
 31 32  1  0  0  0
 32 33  1  0  0  0
 33 34  1  0  0  0
 33 35  1  0  0  0
 33 36  1  0  0  0
 36 37  1  0  0  0
 36 38  1  0  0  0
 38 39  2  0  0  0
 38 40  1  0  0  0
 40 41  1  0  0  0
 41 42  1  0  0  0
 42 43  1  0  0  0
 43 44  2  0  0  0
 43 45  1  0  0  0
 45 46  1  0  0  0
 46 47  1  0  0  0
 47 48  1  0  0  0
 48 49  1  0  0  0
 49 50  2  0  0  0
 49 51  1  0  0  0
 51 52  1  0  0  0
 52 53  1  0  0  0
 53 54  1  0  0  0
 54 55  1  0  0  0
 55 56  1  0  0  0
 56 57  1  0  0  0
 57 58  1  0  0  0
 58 59  1  0  0  0
 59 60  1  0  0  0
 60 61  1  0  0  0
 61 62  1  0  0  0
 62 63  1  0  0  0
 63 64  1  0  0  0
 64 65  1  0  0  0
 65 66  1  0  0  0
 66 67  1  0  0  0
 67 68  1  0  0  0
 68 69  1  0  0  0
  3 70  1  0  0  0
  4 71  1  0  0  0
  6 72  1  0  0  0
  7 73  1  0  0  0
  8 74  1  0  0  0
  9 75  1  0  0  0
 11 76  1  0  0  0
 15 77  1  0  0  0
 15 78  1  0  0  0
 17 79  1  0  0  0
 21 80  1  0  0  0
 22 81  1  0  0  0
 22 82  1  0  0  0
 25 83  1  0  0  0
 29 84  1  0  0  0
 32 85  1  0  0  0
 32 86  1  0  0  0
 34 87  1  0  0  0
 34 88  1  0  0  0
 34 89  1  0  0  0
 35 90  1  0  0  0
 35 91  1  0  0  0
 35 92  1  0  0  0
 36 93  1  0  0  0
 37 94  1  0  0  0
 40 95  1  0  0  0
 41 96  1  0  0  0
 41 97  1  0  0  0
 42 98  1  0  0  0
 42 99  1  0  0  0
 45100  1  0  0  0
 46101  1  0  0  0
 46102  1  0  0  0
 47103  1  0  0  0
 47104  1  0  0  0
 51105  1  0  0  0
 51106  1  0  0  0
 52107  1  0  0  0
 52108  1  0  0  0
 53109  1  0  0  0
 53110  1  0  0  0
 54111  1  0  0  0
 54112  1  0  0  0
 55113  1  0  0  0
 55114  1  0  0  0
 56115  1  0  0  0
 56116  1  0  0  0
 57117  1  0  0  0
 57118  1  0  0  0
 58119  1  0  0  0
 58120  1  0  0  0
 59121  1  0  0  0
 59122  1  0  0  0
 60123  1  0  0  0
 60124  1  0  0  0
 61125  1  0  0  0
 61126  1  0  0  0
 62127  1  0  0  0
 62128  1  0  0  0
 63129  1  0  0  0
 63130  1  0  0  0
 64131  1  0  0  0
 64132  1  0  0  0
 65133  1  0  0  0
 65134  1  0  0  0
 66135  1  0  0  0
 66136  1  0  0  0
 67137  1  0  0  0
 67138  1  0  0  0
 68139  1  0  0  0
 68140  1  0  0  0
 69141  1  0  0  0
 69142  1  0  0  0
 69143  1  0  0  0
M  END
$$$$
