### 
### Created by X-TOOL on Mon Sep 10 21:13:29 2018
### 

@<TRIPOS>MOLECULE
5dtw_ligand
  139   141     1     0     0
SMALL
GAST_HUCK


@<TRIPOS>ATOM
      1 O19       -30.2010  -21.6010  -31.0750 O.co2     1 5F9        -0.5537
      2 P18       -28.7590  -21.1320  -31.1470 P.3       1 5F9         0.2013
      3 O20       -27.7500  -22.2490  -30.9280 O.co2     1 5F9        -0.5537
      4 O21       -28.5330  -20.2050  -32.3330 O.co2     1 5F9        -0.5537
      5 O17       -28.4770  -20.1720  -29.8630 O.3       1 5F9        -0.2674
      6 C14       -28.6910  -20.5880  -28.5060 C.3       1 5F9         0.1487
      7 C15       -27.6720  -19.9550  -27.5770 C.3       1 5F9         0.1432
      8 O16       -26.3800  -19.8250  -28.1710 O.3       1 5F9        -0.3832
      9 C11       -28.2770  -18.5860  -27.3170 C.3       1 5F9         0.2013
     10 N10       -27.8130  -18.0360  -26.0240 N.pl3     1 5F9        -0.1919
     11 C9        -28.1870  -18.4920  -24.8190 C.2       1 5F9         0.1123
     12 N8        -27.5760  -17.7670  -23.8710 N.2       1 5F9        -0.2958
     13 C7        -26.8150  -16.8550  -24.4830 C.ar      1 5F9         0.1045
     14 C80       -25.9810  -15.8770  -24.0090 C.ar      1 5F9         0.1298
     15 N81       -25.8350  -15.7080  -22.6780 N.pl3     1 5F9        -0.3152
     16 N82       -25.3290  -15.0940  -24.8840 N.ar      1 5F9        -0.2698
     17 C83       -25.4770  -15.2650  -26.2040 C.ar      1 5F9         0.0533
     18 N84       -26.2820  -16.2190  -26.6870 N.ar      1 5F9        -0.2714
     19 C6        -26.9650  -17.0230  -25.8440 C.ar      1 5F9         0.1613
     20 O12       -29.6840  -18.8340  -27.2700 O.3       1 5F9        -0.3360
     21 C13       -30.0120  -19.9910  -28.0470 C.3       1 5F9         0.1235
     22 C22       -30.8040  -20.9760  -27.1990 C.3       1 5F9         0.1131
     23 O23       -29.8810  -21.5830  -26.3040 O.3       1 5F9        -0.2476
     24 P26       -30.1630  -22.9920  -25.6120 P.3       1 5F9         0.2972
     25 O28       -30.4610  -24.0280  -26.6670 O.co2     1 5F9        -0.6127
     26 O29       -29.0390  -23.1890  -24.6290 O.co2     1 5F9        -0.6127
     27 O27       -31.5590  -22.5850  -24.9010 O.3       1 5F9        -0.1319
     28 P32       -32.3060  -23.3220  -23.6830 P.3       1 5F9         0.2971
     29 O34       -33.7240  -22.8210  -23.7650 O.co2     1 5F9        -0.6127
     30 O35       -32.0510  -24.7970  -23.7420 O.co2     1 5F9        -0.6127
     31 O33       -31.5380  -22.7610  -22.3760 O.3       1 5F9        -0.2496
     32 C36       -31.7690  -21.4760  -21.7620 C.3       1 5F9         0.0936
     33 C37       -30.5290  -21.0440  -20.9610 C.3       1 5F9         0.0367
     34 C38       -30.4480  -21.8490  -19.6710 C.3       1 5F9        -0.0528
     35 C39       -30.5280  -19.5600  -20.6370 C.3       1 5F9        -0.0528
     36 C40       -29.3600  -21.3390  -21.8820 C.3       1 5F9         0.1510
     37 O41       -29.2210  -22.7570  -21.9710 O.3       1 5F9        -0.3708
     38 C42       -28.0770  -20.6880  -21.4500 C.2       1 5F9         0.2057
     39 O44       -27.6370  -19.8100  -22.1540 O.2       1 5F9        -0.3942
     40 N43       -27.4430  -21.0690  -20.3460 N.am      1 5F9        -0.2826
     41 C45       -26.1830  -20.4340  -19.9590 C.3       1 5F9         0.0477
     42 C46       -26.1310  -18.8980  -19.9790 C.3       1 5F9         0.0574
     43 C47       -24.8170  -18.3650  -19.4470 C.2       1 5F9         0.1779
     44 O49       -23.7870  -19.0320  -19.4730 O.2       1 5F9        -0.3970
     45 N48       -24.8580  -17.1270  -18.9580 N.am      1 5F9        -0.2860
     46 C50       -23.6650  -16.5170  -18.4150 C.3       1 5F9         0.0422
     47 C51       -23.0850  -15.4630  -19.3380 C.3       1 5F9         0.0336
     48 S52       -22.0100  -14.4640  -18.3620 S.3       1 5F9        -0.0482
     49 C53       -22.8610  -13.4000  -17.3500 C.2       1 5F9         0.1642
     50 O54       -24.0430  -13.1510  -17.5480 O.2       1 5F9        -0.3791
     51 C55       -22.1750  -12.7150  -16.1770 C.3       1 5F9         0.0317
     52 C56       -21.0470  -11.7970  -16.6380 C.3       1 5F9        -0.0363
     53 C57       -21.1970  -10.3400  -16.2100 C.3       1 5F9        -0.0509
     54 C58       -21.5120  -10.2360  -14.7190 C.3       1 5F9        -0.0529
     55 C59       -20.4960   -9.3510  -13.9960 C.3       1 5F9        -0.0531
     56 C60       -20.5400   -7.9260  -14.5430 C.3       1 5F9        -0.0531
     57 C61       -19.3930   -7.0830  -13.9850 C.3       1 5F9        -0.0531
     58 C62       -19.8310   -6.1090  -12.8870 C.3       1 5F9        -0.0531
     59 C63       -20.8440   -5.0850  -13.4010 C.3       1 5F9        -0.0531
     60 C64       -22.2500   -5.3990  -12.8950 C.3       1 5F9        -0.0531
     61 C65       -22.8700   -4.2340  -12.1270 C.3       1 5F9        -0.0531
     62 C66       -24.3500   -4.4750  -11.8490 C.3       1 5F9        -0.0531
     63 C67       -24.7410   -3.8250  -10.5250 C.3       1 5F9        -0.0531
     64 C68       -24.7760   -2.3060  -10.6360 C.3       1 5F9        -0.0531
     65 C69       -24.8010   -1.6200   -9.2750 C.3       1 5F9        -0.0531
     66 C70       -25.9300   -2.1280   -8.3870 C.3       1 5F9        -0.0531
     67 C71       -26.5140   -0.9980   -7.5430 C.3       1 5F9        -0.0533
     68 C72       -27.1060    0.0940   -8.4260 C.3       1 5F9        -0.0559
     69 C73       -27.4740    1.3270   -7.6300 C.3       1 5F9        -0.0653
     70 H1        -28.6808  -21.6852  -28.4286 H         1 5F9         0.0704
     71 H2        -27.5831  -20.5340  -26.6459 H         1 5F9         0.0680
     72 H3        -26.4425  -19.2794  -28.9462 H         1 5F9         0.2101
     73 H4        -28.0260  -17.8864  -28.1278 H         1 5F9         0.0996
     74 H5        -28.8750  -19.3169  -24.6400 H         1 5F9         0.1349
     75 H6        -25.2089  -14.9738  -22.3177 H         1 5F9         0.1820
     76 H7        -26.3497  -16.3132  -22.0225 H         1 5F9         0.1820
     77 H8        -24.9377  -14.6223  -26.8903 H         1 5F9         0.0996
     78 H9        -30.6143  -19.7022  -28.9209 H         1 5F9         0.0654
     79 H10       -31.2679  -21.7400  -27.8401 H         1 5F9         0.0648
     80 H11       -31.5860  -20.4466  -26.6349 H         1 5F9         0.0648
     81 H12       -32.6333  -21.5459  -21.0853 H         1 5F9         0.0628
     82 H13       -31.9750  -20.7305  -22.5441 H         1 5F9         0.0628
     83 H14       -29.5606  -21.5383  -19.1001 H         1 5F9         0.0238
     84 H15       -30.3731  -22.9198  -19.9111 H         1 5F9         0.0238
     85 H16       -31.3517  -21.6703  -19.0699 H         1 5F9         0.0238
     86 H17       -30.5866  -18.9809  -21.5704 H         1 5F9         0.0238
     87 H18       -29.6017  -19.3019  -20.1029 H         1 5F9         0.0238
     88 H19       -31.3951  -19.3225  -20.0032 H         1 5F9         0.0238
     89 H20       -29.6058  -20.9492  -22.8808 H         1 5F9         0.0844
     90 H21       -30.0205  -23.1310  -22.3224 H         1 5F9         0.2133
     91 H22       -27.8295  -21.7942  -19.7762 H         1 5F9         0.1853
     92 H23       -25.4046  -20.7996  -20.6449 H         1 5F9         0.0545
     93 H24       -25.9507  -20.7589  -18.9341 H         1 5F9         0.0545
     94 H25       -26.9499  -18.5073  -19.3571 H         1 5F9         0.0522
     95 H26       -26.2604  -18.5523  -21.0152 H         1 5F9         0.0522
     96 H27       -25.7181  -16.6169  -18.9664 H         1 5F9         0.1851
     97 H28       -22.9095  -17.3001  -18.2538 H         1 5F9         0.0529
     98 H29       -23.9154  -16.0455  -17.4532 H         1 5F9         0.0529
     99 H30       -23.8913  -14.8473  -19.7632 H         1 5F9         0.0424
    100 H31       -22.5211  -15.9419  -20.1521 H         1 5F9         0.0424
    101 H32       -21.7582  -13.4838  -15.5098 H         1 5F9         0.0503
    102 H33       -22.9186  -12.1178  -15.6289 H         1 5F9         0.0503
    103 H34       -21.0062  -11.8291  -17.7368 H         1 5F9         0.0290
    104 H35       -20.1024  -12.1802  -16.2246 H         1 5F9         0.0290
    105 H36       -22.0150   -9.8793  -16.7832 H         1 5F9         0.0267
    106 H37       -20.2579   -9.8059  -16.4171 H         1 5F9         0.0267
    107 H38       -21.4885  -11.2429  -14.2769 H         1 5F9         0.0265
    108 H39       -22.5159   -9.8041  -14.5943 H         1 5F9         0.0265
    109 H40       -19.4872   -9.7639  -14.1434 H         1 5F9         0.0265
    110 H41       -20.7316   -9.3333  -12.9217 H         1 5F9         0.0265
    111 H42       -21.4965   -7.4625  -14.2597 H         1 5F9         0.0265
    112 H43       -20.4595   -7.9601  -15.6395 H         1 5F9         0.0265
    113 H44       -18.9532   -6.5033  -14.8099 H         1 5F9         0.0265
    114 H45       -18.6337   -7.7605  -13.5673 H         1 5F9         0.0265
    115 H46       -18.9455   -5.5751  -12.5118 H         1 5F9         0.0265
    116 H47       -20.2892   -6.6810  -12.0668 H         1 5F9         0.0265
    117 H48       -20.8460   -5.1028  -14.5008 H         1 5F9         0.0265
    118 H49       -20.5518   -4.0840  -13.0510 H         1 5F9         0.0265
    119 H50       -22.1980   -6.2726  -12.2286 H         1 5F9         0.0265
    120 H51       -22.8910   -5.6335  -13.7576 H         1 5F9         0.0265
    121 H52       -22.7628   -3.3154  -12.7225 H         1 5F9         0.0265
    122 H53       -22.3411   -4.1144  -11.1700 H         1 5F9         0.0265
    123 H54       -24.5396   -5.5571  -11.7943 H         1 5F9         0.0265
    124 H55       -24.9498   -4.0382  -12.6611 H         1 5F9         0.0265
    125 H56       -24.0073   -4.1101   -9.7567 H         1 5F9         0.0265
    126 H57       -25.7381   -4.1847  -10.2312 H         1 5F9         0.0265
    127 H58       -25.6776   -2.0141  -11.1944 H         1 5F9         0.0265
    128 H59       -23.8819   -1.9718  -11.1827 H         1 5F9         0.0265
    129 H60       -24.9313   -0.5384   -9.4273 H         1 5F9         0.0265
    130 H61       -23.8426   -1.8061   -8.7683 H         1 5F9         0.0265
    131 H62       -25.5385   -2.9098   -7.7196 H         1 5F9         0.0265
    132 H63       -26.7236   -2.5505   -9.0208 H         1 5F9         0.0265
    133 H64       -25.7169   -0.5647   -6.9210 H         1 5F9         0.0265
    134 H65       -27.3046   -1.4046   -6.8952 H         1 5F9         0.0265
    135 H66       -28.0106   -0.2961   -8.9155 H         1 5F9         0.0263
    136 H67       -26.3663    0.3725   -9.1910 H         1 5F9         0.0263
    137 H68       -27.8959    2.0865   -8.3046 H         1 5F9         0.0230
    138 H69       -26.5747    1.7298   -7.1411 H         1 5F9         0.0230
    139 H70       -28.2190    1.0612   -6.8656 H         1 5F9         0.0230
@<TRIPOS>BOND
     1    1    2 ar 
     2    2    3 ar 
     3    2    4 ar 
     4    2    5 1  
     5    5    6 1  
     6    6    7 1  
     7    6   21 1  
     8    7    8 1  
     9    7    9 1  
    10    9   10 1  
    11    9   20 1  
    12   10   11 1  
    13   10   19 1  
    14   11   12 2  
    15   12   13 1  
    16   13   14 ar 
    17   13   19 ar 
    18   14   15 1  
    19   14   16 ar 
    20   16   17 ar 
    21   17   18 ar 
    22   18   19 ar 
    23   20   21 1  
    24   21   22 1  
    25   22   23 1  
    26   23   24 1  
    27   24   25 ar 
    28   24   26 ar 
    29   24   27 1  
    30   27   28 1  
    31   28   29 ar 
    32   28   30 ar 
    33   28   31 1  
    34   31   32 1  
    35   32   33 1  
    36   33   34 1  
    37   33   35 1  
    38   33   36 1  
    39   36   37 1  
    40   36   38 1  
    41   38   39 2  
    42   38   40 am 
    43   40   41 1  
    44   41   42 1  
    45   42   43 1  
    46   43   44 2  
    47   43   45 am 
    48   45   46 1  
    49   46   47 1  
    50   47   48 1  
    51   48   49 1  
    52   49   50 2  
    53   49   51 1  
    54   51   52 1  
    55   52   53 1  
    56   53   54 1  
    57   54   55 1  
    58   55   56 1  
    59   56   57 1  
    60   57   58 1  
    61   58   59 1  
    62   59   60 1  
    63   60   61 1  
    64   61   62 1  
    65   62   63 1  
    66   63   64 1  
    67   64   65 1  
    68   65   66 1  
    69   66   67 1  
    70   67   68 1  
    71   68   69 1  
    72    6   70 1  
    73    7   71 1  
    74    8   72 1  
    75    9   73 1  
    76   11   74 1  
    77   15   75 1  
    78   15   76 1  
    79   17   77 1  
    80   21   78 1  
    81   22   79 1  
    82   22   80 1  
    83   32   81 1  
    84   32   82 1  
    85   34   83 1  
    86   34   84 1  
    87   34   85 1  
    88   35   86 1  
    89   35   87 1  
    90   35   88 1  
    91   36   89 1  
    92   37   90 1  
    93   40   91 1  
    94   41   92 1  
    95   41   93 1  
    96   42   94 1  
    97   42   95 1  
    98   45   96 1  
    99   46   97 1  
   100   46   98 1  
   101   47   99 1  
   102   47  100 1  
   103   51  101 1  
   104   51  102 1  
   105   52  103 1  
   106   52  104 1  
   107   53  105 1  
   108   53  106 1  
   109   54  107 1  
   110   54  108 1  
   111   55  109 1  
   112   55  110 1  
   113   56  111 1  
   114   56  112 1  
   115   57  113 1  
   116   57  114 1  
   117   58  115 1  
   118   58  116 1  
   119   59  117 1  
   120   59  118 1  
   121   60  119 1  
   122   60  120 1  
   123   61  121 1  
   124   61  122 1  
   125   62  123 1  
   126   62  124 1  
   127   63  125 1  
   128   63  126 1  
   129   64  127 1  
   130   64  128 1  
   131   65  129 1  
   132   65  130 1  
   133   66  131 1  
   134   66  132 1  
   135   67  133 1  
   136   67  134 1  
   137   68  135 1  
   138   68  136 1  
   139   69  137 1  
   140   69  138 1  
   141   69  139 1  
@<TRIPOS>SUBSTRUCTURE
     1 5F9         1

