4q1b_ligand
  -I-interpret- 

 58 60  0  0  0  0  0  0  0  0999 V2000
  -37.7080   10.2310    3.2900 C   0  0  0  0  0
  -36.4460    9.0000    3.5560 S   0  0  0  0  0
  -37.0190    7.8890    4.4460 O   0  0  0  0  0
  -35.2610    9.6430    4.2770 O   0  0  0  0  0
  -35.8400    8.3120    2.0000 N   0  0  0  0  0
  -36.7360    8.5500    0.8480 C   0  0  0  0  0
  -36.0010    9.0080   -0.4320 C   0  0  0  0  0
  -36.9370    9.7030   -1.2970 O   0  0  0  0  0
  -36.5570   10.5160   -2.3370 C   0  0  0  0  0
  -35.2270   10.9250   -2.5800 C   0  0  0  0  0
  -37.5810   10.9690   -3.1700 C   0  0  0  0  0
  -37.2980   11.8200   -4.2270 C   0  0  0  0  0
  -35.9830   12.2210   -4.4690 C   0  0  0  0  0
  -34.9280   11.7850   -3.6560 C   0  0  0  0  0
  -33.6680   12.2200   -3.9020 C   0  0  0  0  0
  -32.5870   11.9650   -3.1610 N   0  0  0  0  0
  -33.2080   13.2110   -5.1400 S   0  0  0  0  0
  -31.6870   13.2800   -4.7340 C   0  0  0  0  0
  -30.6140   14.0470   -5.5010 C   0  0  0  0  0
  -30.9910   15.4990   -5.5270 C   0  0  0  0  0
  -29.9580   16.2390   -6.3680 C   0  0  0  0  0
  -31.4940   12.5570   -3.6470 C   0  0  0  0  0
  -30.1210   12.3820   -3.0230 C   0  0  0  0  0
  -29.3280   10.8930   -3.7720 S   0  0  0  0  0
  -27.6170   11.3580   -3.8620 C   0  0  0  0  0
  -27.2570   12.6300   -3.7520 N   0  0  0  0  0
  -26.6760   10.4160   -4.0210 N   0  0  0  0  0
  -25.3630   10.7240   -4.0810 C   0  0  0  0  0
  -24.4580    9.7600   -4.2460 N   0  0  0  0  0
  -24.9610   12.0510   -3.9820 C   0  0  0  0  0
  -25.9680   12.9970   -3.8030 C   0  0  0  0  0
  -25.6570   14.2820   -3.6950 N   0  0  0  0  0
  -38.5659    9.7701    2.8004 H   0  0  0  0  0
  -38.0158   10.6471    4.2493 H   0  0  0  0  0
  -37.3112   11.0257    2.6583 H   0  0  0  0  0
  -34.9585    7.8046    1.9228 H   0  0  0  0  0
  -37.4229    9.3477    1.1307 H   0  0  0  0  0
  -37.2280    7.6047    0.6189 H   0  0  0  0  0
  -35.5973    8.1396   -0.9526 H   0  0  0  0  0
  -35.1835    9.6776   -0.1647 H   0  0  0  0  0
  -34.4257   10.5728   -1.9304 H   0  0  0  0  0
  -38.6080   10.6522   -2.9886 H   0  0  0  0  0
  -38.1030   12.1764   -4.8697 H   0  0  0  0  0
  -35.7726   12.8861   -5.3065 H   0  0  0  0  0
  -30.5399   13.6642   -6.5189 H   0  0  0  0  0
  -29.6477   13.9229   -5.0122 H   0  0  0  0  0
  -31.0099   15.9013   -4.5141 H   0  0  0  0  0
  -31.9849   15.6223   -5.9572 H   0  0  0  0  0
  -28.9712   16.1137   -5.9222 H   0  0  0  0  0
  -29.9556   15.8320   -7.3792 H   0  0  0  0  0
  -30.2108   17.2987   -6.4021 H   0  0  0  0  0
  -30.2145   12.2528   -1.9447 H   0  0  0  0  0
  -29.5100   13.2649   -3.2110 H   0  0  0  0  0
  -24.7570    8.7882   -4.3271 H   0  0  0  0  0
  -23.4662    9.9939   -4.2912 H   0  0  0  0  0
  -23.9109   12.3370   -4.0414 H   0  0  0  0  0
  -26.3941   14.9768   -3.5749 H   0  0  0  0  0
  -24.6808   14.5753   -3.7321 H   0  0  0  0  0
  1  2  1  0  0  0
  2  3  2  0  0  0
  2  4  2  0  0  0
  2  5  1  0  0  0
  5  6  1  0  0  0
  6  7  1  0  0  0
  7  8  1  0  0  0
  8  9  1  0  0  0
  9 10  4  0  0  0
  9 11  4  0  0  0
 10 14  4  0  0  0
 11 12  4  0  0  0
 12 13  4  0  0  0
 13 14  4  0  0  0
 14 15  1  0  0  0
 15 16  4  0  0  0
 15 17  4  0  0  0
 16 22  4  0  0  0
 17 18  4  0  0  0
 18 19  1  0  0  0
 18 22  4  0  0  0
 19 20  1  0  0  0
 20 21  1  0  0  0
 22 23  1  0  0  0
 23 24  1  0  0  0
 24 25  1  0  0  0
 25 26  4  0  0  0
 25 27  4  0  0  0
 26 31  4  0  0  0
 27 28  4  0  0  0
 28 29  1  0  0  0
 28 30  4  0  0  0
 30 31  4  0  0  0
 31 32  1  0  0  0
  1 33  1  0  0  0
  1 34  1  0  0  0
  1 35  1  0  0  0
  5 36  1  0  0  0
  6 37  1  0  0  0
  6 38  1  0  0  0
  7 39  1  0  0  0
  7 40  1  0  0  0
 10 41  1  0  0  0
 11 42  1  0  0  0
 12 43  1  0  0  0
 13 44  1  0  0  0
 19 45  1  0  0  0
 19 46  1  0  0  0
 20 47  1  0  0  0
 20 48  1  0  0  0
 21 49  1  0  0  0
 21 50  1  0  0  0
 21 51  1  0  0  0
 23 52  1  0  0  0
 23 53  1  0  0  0
 29 54  1  0  0  0
 29 55  1  0  0  0
 30 56  1  0  0  0
 32 57  1  0  0  0
 32 58  1  0  0  0
M  END
$$$$
