4kba_ligand
  -I-interpret- 

 42 45  0  0  0  0  0  0  0  0999 V2000
   -6.4420    0.5270    9.0030 N   0  0  0  0  0
   -6.1520   -1.2490   10.3160 C   0  0  0  0  0
   -7.5490   -0.2390    8.7920 N   0  0  0  0  0
   -9.0710   -2.7430    8.4930 C   0  0  0  0  0
   -8.4460   -2.3250    9.6670 C   0  0  0  0  0
  -10.5770   -4.0750    9.7980 C   0  0  0  0  0
   -6.2610    1.8110    8.3180 C   0  0  0  0  0
  -10.1360   -3.6320    8.5480 C   0  0  0  0  0
   -3.6360   -2.6170   14.4610 C   0  0  0  0  0
   -3.0850   -0.3760   12.4400 C   0  0  0  0  0
   -5.6050   -2.2380   11.2070 C   0  0  0  0  0
   -5.8890   -3.5860   10.9810 C   0  0  0  0  0
   -5.3850   -4.5430   11.8630 C   0  0  0  0  0
   -4.6590   -4.2450   12.9620 N   0  0  0  0  0
   -7.3910   -1.3310    9.6000 C   0  0  0  0  0
   -9.9510   -3.6720   10.9820 C   0  0  0  0  0
   -8.8740   -2.8030   10.9050 C   0  0  0  0  0
  -11.6140   -4.9010    9.8710 F   0  0  0  0  0
   -5.5710   -0.0410    9.9260 C   0  0  0  0  0
   -4.3880   -2.9390   13.1870 C   0  0  0  0  0
   -4.7960   -1.9250   12.3080 C   0  0  0  0  0
   -4.4730   -0.6190   12.5580 O   0  0  0  0  0
   -2.3220   -2.0120   14.2230 N   0  3  0  0  0
   -2.3720   -0.6150   13.7840 C   0  0  0  0  0
   -8.7227   -2.3709    7.5295 H   0  0  0  0  0
   -6.2516    1.6482    7.2403 H   0  0  0  0  0
   -7.0817    2.4793    8.5786 H   0  0  0  0  0
   -5.3156    2.2565    8.6277 H   0  0  0  0  0
  -10.6188   -3.9777    7.6340 H   0  0  0  0  0
   -3.4751   -3.5542   14.9938 H   0  0  0  0  0
   -4.2325   -1.8978   15.0223 H   0  0  0  0  0
   -2.9338    0.6614   12.1414 H   0  0  0  0  0
   -2.6709   -1.0569   11.6964 H   0  0  0  0  0
   -6.4961   -3.8870   10.1273 H   0  0  0  0  0
   -5.5894   -5.5927   11.6524 H   0  0  0  0  0
  -10.3036   -4.0347   11.9475 H   0  0  0  0  0
   -8.3602   -2.4924   11.8147 H   0  0  0  0  0
   -4.6251    0.3734   10.2748 H   0  0  0  0  0
   -1.8768   -2.5455   13.4763 H   0  0  0  0  0
   -1.8182   -2.0301   15.1097 H   0  0  0  0  0
   -2.9369   -0.0692   14.5397 H   0  0  0  0  0
   -1.3396   -0.2907   13.6529 H   0  0  0  0  0
  1  3  4  0  0  0
  1  7  1  0  0  0
 19  1  4  0  0  0
 11  2  1  0  0  0
  2 15  4  0  0  0
  2 19  4  0  0  0
 15  3  4  0  0  0
  5  4  4  0  0  0
  4  8  4  0  0  0
 15  5  1  0  0  0
  5 17  4  0  0  0
  8  6  4  0  0  0
 16  6  4  0  0  0
  6 18  1  0  0  0
 20  9  1  0  0  0
  9 23  1  0  0  0
 22 10  1  0  0  0
 10 24  1  0  0  0
 11 12  4  0  0  0
 21 11  4  0  0  0
 12 13  4  0  0  0
 14 13  4  0  0  0
 20 14  4  0  0  0
 17 16  4  0  0  0
 21 20  4  0  0  0
 21 22  1  0  0  0
 23 24  1  0  0  0
  4 25  1  0  0  0
  7 26  1  0  0  0
  7 27  1  0  0  0
  7 28  1  0  0  0
  8 29  1  0  0  0
  9 30  1  0  0  0
  9 31  1  0  0  0
 10 32  1  0  0  0
 10 33  1  0  0  0
 12 34  1  0  0  0
 13 35  1  0  0  0
 16 36  1  0  0  0
 17 37  1  0  0  0
 19 38  1  0  0  0
 23 39  1  0  0  0
 23 40  1  0  0  0
 24 41  1  0  0  0
 24 42  1  0  0  0
M  END
$$$$
