3u5l_ligand
  -I-interpret- 

 37 40  0  0  0  0  0  0  0  0999 V2000
   25.6140   14.4260    0.4450 Cl  0  0  0  0  0
   27.2140   15.1170    0.2300 C   0  0  0  0  0
   27.7530   15.1830   -1.0310 C   0  0  0  0  0
   29.0240   15.7610   -1.1890 C   0  0  0  0  0
   29.5910   15.8440   -2.5730 C   0  0  0  0  0
   28.6920   16.3060   -3.6880 C   0  0  0  0  0
   27.5290   17.0560   -3.4490 C   0  0  0  0  0
   26.7600   17.5440   -4.5090 C   0  0  0  0  0
   27.1560   17.3000   -5.8190 C   0  0  0  0  0
   28.3390   16.5890   -6.0520 C   0  0  0  0  0
   29.0880   16.0890   -5.0080 C   0  0  0  0  0
   30.8580   15.6870   -2.7930 N   0  0  0  0  0
   31.8580   15.3230   -1.7940 N   0  0  0  0  0
   32.9820   14.4960   -2.1690 C   0  0  0  0  0
   31.9910   16.2740   -0.8350 C   0  0  0  0  0
   31.0080   16.8110   -0.1470 N   0  0  0  0  0
   31.4960   17.8510    0.5570 C   0  0  0  0  0
   30.8030   18.7450    1.5250 C   0  0  0  0  0
   32.7760   17.9960    0.2410 N   0  0  0  0  0
   33.1250   16.9750   -0.6610 N   0  0  0  0  0
   29.7390   16.2560   -0.0790 C   0  0  0  0  0
   29.1360   16.0960    1.1840 C   0  0  0  0  0
   27.8780   15.5630    1.3510 C   0  0  0  0  0
   27.2068   14.7954   -1.8910 H   0  0  0  0  0
   27.2221   17.2602   -2.4232 H   0  0  0  0  0
   25.8527   18.1141   -4.3092 H   0  0  0  0  0
   26.5532   17.6576   -6.6538 H   0  0  0  0  0
   28.6739   16.4278   -7.0767 H   0  0  0  0  0
   29.9948   15.5208   -5.2152 H   0  0  0  0  0
   32.6185   13.5384   -2.5419 H   0  0  0  0  0
   33.5558   14.9969   -2.9487 H   0  0  0  0  0
   33.6166   14.3311   -1.2983 H   0  0  0  0  0
   29.9803   19.2540    1.0228 H   0  0  0  0  0
   30.4138   18.1509    2.3519 H   0  0  0  0  0
   31.5093   19.4823    1.9066 H   0  0  0  0  0
   29.6906   16.4083    2.0689 H   0  0  0  0  0
   27.4220   15.4961    2.3388 H   0  0  0  0  0
  1  2  1  0  0  0
  2  3  4  0  0  0
  2 23  4  0  0  0
  3  4  4  0  0  0
  4  5  1  0  0  0
  4 21  4  0  0  0
  5  6  1  0  0  0
  5 12  2  0  0  0
  6  7  4  0  0  0
  6 11  4  0  0  0
  7  8  4  0  0  0
  8  9  4  0  0  0
  9 10  4  0  0  0
 10 11  4  0  0  0
 12 13  1  0  0  0
 13 14  1  0  0  0
 13 15  1  0  0  0
 15 16  4  0  0  0
 15 20  4  0  0  0
 16 17  4  0  0  0
 16 21  1  0  0  0
 17 18  1  0  0  0
 17 19  4  0  0  0
 19 20  4  0  0  0
 21 22  4  0  0  0
 22 23  4  0  0  0
  3 24  1  0  0  0
  7 25  1  0  0  0
  8 26  1  0  0  0
  9 27  1  0  0  0
 10 28  1  0  0  0
 11 29  1  0  0  0
 14 30  1  0  0  0
 14 31  1  0  0  0
 14 32  1  0  0  0
 18 33  1  0  0  0
 18 34  1  0  0  0
 18 35  1  0  0  0
 22 36  1  0  0  0
 23 37  1  0  0  0
M  END
$$$$
