4zw8_ligand
  -I-interpret- 

 53 54  0  0  0  0  0  0  0  0999 V2000
   93.5030  117.5330  127.7480 C   0  0  0  0  0
   92.0670  118.0620  127.6490 C   0  0  0  0  0
   91.1900  116.9630  127.0450 C   0  0  0  0  0
   92.0210  119.2830  126.7270 C   0  0  0  0  0
   91.5450  118.3700  128.9590 O   0  0  0  0  0
   91.9340  119.5180  129.5990 C   0  0  0  0  0
   93.0690  119.9720  129.4830 O   0  0  0  0  0
   91.0700  120.1390  130.4100 N   0  0  0  0  0
   89.7040  119.6400  130.6110 C   0  0  0  0  0
   88.7860  120.2400  129.5500 C   0  0  0  0  0
   87.7360  119.6840  129.2380 O   0  0  0  0  0
   89.2430  121.3650  128.9820 N   0  0  0  0  0
   88.4220  121.9630  127.9690 O   0  0  0  0  0
   89.2930  119.9610  131.9010 C   0  0  0  0  0
   89.1730  121.2870  132.3090 C   0  0  0  0  0
   88.7750  121.5760  133.6120 C   0  0  0  0  0
   89.0260  118.9320  132.7940 C   0  0  0  0  0
   88.6270  119.2170  134.0920 C   0  0  0  0  0
   88.4980  120.5380  134.4970 C   0  0  0  0  0
   88.1100  120.8030  135.8040 C   0  0  0  0  0
   88.8730  121.6700  136.5720 C   0  0  0  0  0
   86.9890  120.1880  136.3480 C   0  0  0  0  0
   86.6170  120.4530  137.6610 C   0  0  0  0  0
   87.3750  121.3280  138.4280 C   0  0  0  0  0
   88.5020  121.9330  137.8830 C   0  0  0  0  0
   89.2620  122.8050  138.6470 C   0  0  0  0  0
   88.6270  123.7490  139.3340 N   0  0  0  0  0
   90.5920  122.6460  138.6550 N   0  0  0  0  0
   91.3770  123.5710  139.4750 O   0  0  0  0  0
   94.1364  118.2895  128.2112 H   0  0  0  0  0
   93.5142  116.6272  128.3541 H   0  0  0  0  0
   93.8755  117.3077  126.7487 H   0  0  0  0  0
   91.2238  116.0807  127.6841 H   0  0  0  0  0
   90.1628  117.3198  126.9700 H   0  0  0  0  0
   91.5610  116.7085  126.0522 H   0  0  0  0  0
   90.9889  119.6162  126.6187 H   0  0  0  0  0
   92.6198  120.0852  127.1584 H   0  0  0  0  0
   92.4217  119.0140  125.7497 H   0  0  0  0  0
   91.3682  120.9814  130.9017 H   0  0  0  0  0
   89.6664  118.5559  130.5043 H   0  0  0  0  0
   90.1343  121.7772  129.2577 H   0  0  0  0  0
   88.8499  122.7564  127.6390 H   0  0  0  0  0
   89.3898  122.0958  131.6112 H   0  0  0  0  0
   88.6807  122.6119  133.9377 H   0  0  0  0  0
   89.1303  117.8953  132.4739 H   0  0  0  0  0
   88.4159  118.4071  134.7903 H   0  0  0  0  0
   89.7592  122.1422  136.1481 H   0  0  0  0  0
   86.4006  119.4969  135.7445 H   0  0  0  0  0
   85.7341  119.9760  138.0866 H   0  0  0  0  0
   87.0864  121.5405  139.4574 H   0  0  0  0  0
   87.6102  123.8157  139.2891 H   0  0  0  0  0
   91.0406  121.9091  138.1109 H   0  0  0  0  0
   92.3090  123.3545  139.3965 H   0  0  0  0  0
  1  2  1  0  0  0
  2  3  1  0  0  0
  2  4  1  0  0  0
  2  5  1  0  0  0
  5  6  1  0  0  0
  6  7  2  0  0  0
  6  8  1  0  0  0
  8  9  1  0  0  0
  9 10  1  0  0  0
  9 14  1  0  0  0
 10 11  2  0  0  0
 10 12  1  0  0  0
 12 13  1  0  0  0
 14 15  4  0  0  0
 14 17  4  0  0  0
 15 16  4  0  0  0
 16 19  4  0  0  0
 17 18  4  0  0  0
 18 19  4  0  0  0
 19 20  1  0  0  0
 20 21  4  0  0  0
 20 22  4  0  0  0
 21 25  4  0  0  0
 22 23  4  0  0  0
 23 24  4  0  0  0
 24 25  4  0  0  0
 25 26  1  0  0  0
 26 27  2  0  0  0
 26 28  1  0  0  0
 28 29  1  0  0  0
  1 30  1  0  0  0
  1 31  1  0  0  0
  1 32  1  0  0  0
  3 33  1  0  0  0
  3 34  1  0  0  0
  3 35  1  0  0  0
  4 36  1  0  0  0
  4 37  1  0  0  0
  4 38  1  0  0  0
  8 39  1  0  0  0
  9 40  1  0  0  0
 12 41  1  0  0  0
 13 42  1  0  0  0
 15 43  1  0  0  0
 16 44  1  0  0  0
 17 45  1  0  0  0
 18 46  1  0  0  0
 21 47  1  0  0  0
 22 48  1  0  0  0
 23 49  1  0  0  0
 24 50  1  0  0  0
 27 51  1  0  0  0
 28 52  1  0  0  0
 29 53  1  0  0  0
M  END
$$$$
