5uwk_ligand
  -I-interpret- 

 62 65  0  0  0  0  0  0  0  0999 V2000
   -7.1220    3.4910   17.0070 C   0  0  0  0  0
   -7.7660    3.7930   15.7990 C   0  0  0  0  0
   -4.5590    0.7740   22.5210 C   0  0  0  0  0
   -6.2020    0.5970   19.1300 C   0  0  0  0  0
   -5.5420    0.2350   20.2960 C   0  0  0  0  0
   -5.6560    2.5140   21.0650 C   0  0  0  0  0
   -6.6170    1.9200   18.9140 C   0  0  0  0  0
   -5.9070    2.6750   13.2980 C   0  0  0  0  0
   -5.4270    1.6210   13.7910 O   0  0  0  0  0
   -5.3950    3.7930   13.5000 O   0  0  0  0  0
   -7.1320    2.5810   12.4100 C   0  0  0  0  0
   -6.6810    2.7250   10.9490 C   0  0  0  0  0
   -5.5700    1.7250   10.6470 C   0  0  0  0  0
   -7.7910    2.4930    9.9270 C   0  0  0  0  0
   -8.1360    3.6330   12.7210 N   0  0  0  0  0
   -9.3150    3.2110   13.7560 S   0  0  0  0  0
  -10.0490    2.0490   13.3010 O   0  0  0  0  0
  -10.1990    4.3450   13.8850 O   0  0  0  0  0
   -8.6050    2.8700   15.1730 C   0  0  0  0  0
   -8.7900    1.6320   15.7960 C   0  0  0  0  0
   -8.1630    1.3350   17.0050 C   0  0  0  0  0
   -7.3130    2.2610   17.6290 C   0  0  0  0  0
   -5.2640    1.1930   21.2600 C   0  0  0  0  0
   -6.3280    2.8730   19.8910 C   0  0  0  0  0
   -5.7160    0.6100   23.8480 S   0  0  0  0  0
   -4.8100    0.1270   25.2140 C   0  0  0  0  0
   -3.4990   -0.1950   25.0560 N   0  0  0  0  0
   -2.7640   -0.5730   26.1250 C   0  0  0  0  0
   -1.3100   -0.9660   26.1840 C   0  0  0  0  0
   -1.0500   -1.1460   27.6880 C   0  0  0  0  0
   -2.3700   -1.0470   28.4790 C   0  0  0  0  0
   -3.3620   -0.6210   27.4410 C   0  0  0  0  0
   -4.7830   -0.2620   27.5730 C   0  0  0  0  0
   -5.4210    0.0870   26.4300 N   0  0  0  0  0
   -5.3730   -0.2760   28.6760 O   0  0  0  0  0
   -6.4633    4.2290   17.4648 H   0  0  0  0  0
   -7.6082    4.7686   15.3393 H   0  0  0  0  0
   -3.8216    1.5323   22.7844 H   0  0  0  0  0
   -4.0723   -0.1868   22.3533 H   0  0  0  0  0
   -6.4012   -0.1584   18.3699 H   0  0  0  0  0
   -5.2424   -0.8010   20.4541 H   0  0  0  0  0
   -5.4405    3.2663   21.8238 H   0  0  0  0  0
   -5.9609    0.8705   13.5204 H   0  0  0  0  0
   -7.6087    1.6165   12.5847 H   0  0  0  0  0
   -6.3462    3.7578   10.8530 H   0  0  0  0  0
   -4.7226    1.9154   11.3056 H   0  0  0  0  0
   -5.9394    0.7128   10.8115 H   0  0  0  0  0
   -5.2566    1.8346    9.6088 H   0  0  0  0  0
   -8.1850    1.4834   10.0433 H   0  0  0  0  0
   -8.5896    3.2169   10.0892 H   0  0  0  0  0
   -7.3882    2.6137    8.9214 H   0  0  0  0  0
   -8.0873    4.5647   12.3088 H   0  0  0  0  0
   -9.4346    0.8874   15.3289 H   0  0  0  0  0
   -8.3360    0.3664   17.4740 H   0  0  0  0  0
   -6.6291    3.9094   19.7382 H   0  0  0  0  0
   -0.6561   -0.2199   25.7326 H   0  0  0  0  0
   -1.0969   -1.8687   25.6114 H   0  0  0  0  0
   -0.3738   -0.3613   28.0272 H   0  0  0  0  0
   -0.6087   -2.1284   27.8563 H   0  0  0  0  0
   -2.3083   -0.3476   29.3128 H   0  0  0  0  0
   -2.6427   -1.9864   28.9598 H   0  0  0  0  0
   -6.4096    0.3323   26.4832 H   0  0  0  0  0
  2  1  4  0  0  0
  1 22  4  0  0  0
 19  2  4  0  0  0
 23  3  1  0  0  0
  3 25  1  0  0  0
  4  5  4  0  0  0
  7  4  4  0  0  0
  5 23  4  0  0  0
  6 23  4  0  0  0
 24  6  4  0  0  0
 22  7  1  0  0  0
  7 24  4  0  0  0
  8  9  1  0  0  0
  8 10  2  0  0  0
 11  8  1  0  0  0
 11 12  1  0  0  0
 15 11  1  0  0  0
 12 13  1  0  0  0
 12 14  1  0  0  0
 16 15  1  0  0  0
 16 17  2  0  0  0
 16 18  2  0  0  0
 16 19  1  0  0  0
 19 20  4  0  0  0
 20 21  4  0  0  0
 21 22  4  0  0  0
 25 26  1  0  0  0
 26 27  2  0  0  0
 26 34  1  0  0  0
 27 28  1  0  0  0
 28 29  1  0  0  0
 28 32  2  0  0  0
 29 30  1  0  0  0
 30 31  1  0  0  0
 31 32  1  0  0  0
 32 33  1  0  0  0
 33 34  1  0  0  0
 33 35  2  0  0  0
  1 36  1  0  0  0
  2 37  1  0  0  0
  3 38  1  0  0  0
  3 39  1  0  0  0
  4 40  1  0  0  0
  5 41  1  0  0  0
  6 42  1  0  0  0
  9 43  1  0  0  0
 11 44  1  0  0  0
 12 45  1  0  0  0
 13 46  1  0  0  0
 13 47  1  0  0  0
 13 48  1  0  0  0
 14 49  1  0  0  0
 14 50  1  0  0  0
 14 51  1  0  0  0
 15 52  1  0  0  0
 20 53  1  0  0  0
 21 54  1  0  0  0
 24 55  1  0  0  0
 29 56  1  0  0  0
 29 57  1  0  0  0
 30 58  1  0  0  0
 30 59  1  0  0  0
 31 60  1  0  0  0
 31 61  1  0  0  0
 34 62  1  0  0  0
M  END
$$$$
