5c20_ligand
  -I-interpret- 

 60 61  0  0  0  0  0  0  0  0999 V2000
   -6.9810    5.6410    2.0910 O   0  0  0  0  0
   -7.3260    6.8080    1.9940 C   0  0  0  0  0
   -8.0020    7.1250    0.7120 C   0  0  0  0  0
   -9.2510    6.2330    0.7080 C   0  0  0  0  0
  -10.4210    6.8780    0.0130 C   0  0  0  0  0
  -10.4630    8.2590   -0.1930 C   0  0  0  0  0
  -11.5610    8.8340   -0.8430 C   0  0  0  0  0
  -12.6190    8.0420   -1.2890 C   0  0  0  0  0
  -12.5790    6.6620   -1.0770 C   0  0  0  0  0
  -11.4830    6.0780   -0.4260 C   0  0  0  0  0
   -7.2720    6.7350   -0.4950 N   0  0  0  0  0
   -6.0130    7.0740   -0.8510 C   0  0  0  0  0
   -5.5240    6.5360   -2.1400 O   0  0  0  0  0
   -4.2550    6.8420   -2.7570 C   0  0  0  0  0
   -4.4540    7.7580   -3.9840 C   0  0  0  0  0
   -5.2670    7.7940   -0.1750 O   0  0  0  0  0
   -7.1740    7.7350    2.8740 N   0  0  0  0  0
   -6.5410    7.4900    4.1850 C   0  0  0  0  0
   -7.7050    7.6490    5.1870 C   0  0  0  0  0
   -7.3330    7.0330    6.4140 O   0  0  0  0  0
   -5.2890    8.3810    4.3770 C   0  0  0  0  0
   -4.3110    8.3270    3.1770 C   0  0  0  0  0
   -3.4150    7.0750    3.1740 C   0  0  0  0  0
   -1.9690    7.5350    3.2260 C   0  0  0  0  0
   -2.1320    8.9680    3.2800 N   0  0  0  0  0
   -3.3000    9.4270    3.2790 C   0  0  0  0  0
   -3.5780   10.7290    3.3530 O   0  0  0  0  0
   -3.9200    9.1620   -3.7110 C   0  0  0  0  0
   -3.8460    7.2150   -5.2820 C   0  0  0  0  0
   -8.1451    8.2049    0.6746 H   0  0  0  0  0
   -9.5357    6.0498    1.7441 H   0  0  0  0  0
   -9.0065    5.3159    0.1721 H   0  0  0  0  0
   -9.6421    8.8877    0.1519 H   0  0  0  0  0
  -11.5897    9.9119   -1.0024 H   0  0  0  0  0
  -13.4692    8.4958   -1.7983 H   0  0  0  0  0
  -13.4034    6.0363   -1.4191 H   0  0  0  0  0
  -11.4577    5.0008   -0.2616 H   0  0  0  0  0
   -7.7750    6.1337   -1.1475 H   0  0  0  0  0
   -3.7872    5.9127   -3.0822 H   0  0  0  0  0
   -3.6243    7.3557   -2.0314 H   0  0  0  0  0
   -5.5322    7.7924   -4.1400 H   0  0  0  0  0
   -7.5038    8.6755    2.6571 H   0  0  0  0  0
   -6.1028    6.5011    4.3198 H   0  0  0  0  0
   -8.6036    7.1758    4.7910 H   0  0  0  0  0
   -7.9132    8.7064    5.3501 H   0  0  0  0  0
   -8.0490    7.1248    7.0468 H   0  0  0  0  0
   -4.7553    8.0158    5.2545 H   0  0  0  0  0
   -5.6296    9.4114    4.4791 H   0  0  0  0  0
   -4.9612    8.3725    2.3033 H   0  0  0  0  0
   -3.5916    6.4869    2.2734 H   0  0  0  0  0
   -3.6421    6.4465    4.0351 H   0  0  0  0  0
   -1.3689    7.1929    2.3828 H   0  0  0  0  0
   -1.4079    7.1251    4.0658 H   0  0  0  0  0
   -1.3232    9.5883    3.3178 H   0  0  0  0  0
   -4.4515    9.5929   -2.8625 H   0  0  0  0  0
   -2.8553    9.1067   -3.4843 H   0  0  0  0  0
   -4.0733    9.7853   -4.5919 H   0  0  0  0  0
   -2.7717    7.0844   -5.1517 H   0  0  0  0  0
   -4.3034    6.2553   -5.5223 H   0  0  0  0  0
   -4.0320    7.9205   -6.0918 H   0  0  0  0  0
  1  2  2  0  0  0
  2  3  1  0  0  0
  2 17  1  0  0  0
  3  4  1  0  0  0
  3 11  1  0  0  0
  4  5  1  0  0  0
  5  6  4  0  0  0
  5 10  4  0  0  0
  6  7  4  0  0  0
  7  8  4  0  0  0
  8  9  4  0  0  0
  9 10  4  0  0  0
 11 12  1  0  0  0
 12 13  1  0  0  0
 12 16  2  0  0  0
 13 14  1  0  0  0
 14 15  1  0  0  0
 15 28  1  0  0  0
 15 29  1  0  0  0
 17 18  1  0  0  0
 18 19  1  0  0  0
 18 21  1  0  0  0
 19 20  1  0  0  0
 21 22  1  0  0  0
 22 23  1  0  0  0
 22 26  1  0  0  0
 23 24  1  0  0  0
 24 25  1  0  0  0
 25 26  1  0  0  0
 26 27  2  0  0  0
  3 30  1  0  0  0
  4 31  1  0  0  0
  4 32  1  0  0  0
  6 33  1  0  0  0
  7 34  1  0  0  0
  8 35  1  0  0  0
  9 36  1  0  0  0
 10 37  1  0  0  0
 11 38  1  0  0  0
 14 39  1  0  0  0
 14 40  1  0  0  0
 15 41  1  0  0  0
 17 42  1  0  0  0
 18 43  1  0  0  0
 19 44  1  0  0  0
 19 45  1  0  0  0
 20 46  1  0  0  0
 21 47  1  0  0  0
 21 48  1  0  0  0
 22 49  1  0  0  0
 23 50  1  0  0  0
 23 51  1  0  0  0
 24 52  1  0  0  0
 24 53  1  0  0  0
 25 54  1  0  0  0
 28 55  1  0  0  0
 28 56  1  0  0  0
 28 57  1  0  0  0
 29 58  1  0  0  0
 29 59  1  0  0  0
 29 60  1  0  0  0
M  END
$$$$
