5th7_ligand
  -I-interpret- 

 57 59  0  0  0  0  0  0  0  0999 V2000
  -25.9250   -2.0420  149.8500 C   0  0  0  0  0
  -26.5720   -2.4440  148.6550 C   0  0  0  0  0
  -25.8050   -2.2920  147.4450 C   0  0  0  0  0
  -24.5790   -1.7830  147.4600 N   0  0  0  0  0
  -24.6430   -1.5470  149.8590 N   0  0  0  0  0
  -22.1820   -0.5390  147.3350 C   0  0  0  0  0
  -20.9070    0.1710  147.7440 C   0  0  0  0  0
  -20.6670   -0.1610  149.1780 C   0  0  0  0  0
  -22.0560   -0.3520  149.7500 C   0  0  0  0  0
  -22.8150   -0.8770  148.6120 N   0  0  0  0  0
  -24.0510   -1.4210  148.6470 C   0  0  0  0  0
  -26.6290   -2.1260  151.0740 C   0  0  0  0  0
  -27.9260   -2.5670  151.1050 C   0  0  0  0  0
  -28.7240   -2.5980  152.2180 O   0  0  0  0  0
  -28.1450   -2.2250  153.4770 C   0  0  0  0  0
  -28.5680   -2.9790  149.9130 C   0  0  0  0  0
  -29.8640   -3.3870  150.0720 O   0  0  0  0  0
  -30.5400   -3.9450  148.9360 C   0  0  0  0  0
  -27.9060   -2.9240  148.7200 C   0  0  0  0  0
  -26.3640   -2.6290  146.2220 N   0  0  0  0  0
  -25.6410   -2.5310  144.9620 C   0  0  0  0  0
  -25.9010   -1.2150  144.2570 C   0  0  0  0  0
  -27.3560   -1.0230  143.9290 C   0  0  0  0  0
  -27.6500    0.2410  143.2640 N   0  0  0  0  0
  -28.8800    0.7550  143.2560 C   0  0  0  0  0
  -29.7960    0.2650  143.9160 O   0  0  0  0  0
  -29.0850    1.9580  142.3730 C   0  0  0  0  0
  -30.3400    1.8530  141.4950 C   0  0  0  0  0
  -21.9898   -1.4183  146.7201 H   0  0  0  0  0
  -22.8201    0.0812  146.7055 H   0  0  0  0  0
  -21.0034    1.2481  147.6074 H   0  0  0  0  0
  -20.0691   -0.1528  147.1267 H   0  0  0  0  0
  -20.1123    0.6220  149.6951 H   0  0  0  0  0
  -20.0464   -1.0491  149.2972 H   0  0  0  0  0
  -22.4781    0.5706  150.1483 H   0  0  0  0  0
  -22.0691   -1.0216  150.6100 H   0  0  0  0  0
  -26.1349   -1.8371  152.0016 H   0  0  0  0  0
  -27.3150   -2.8933  153.7060 H   0  0  0  0  0
  -27.7816   -1.1990  153.4186 H   0  0  0  0  0
  -28.9002   -2.3003  154.2593 H   0  0  0  0  0
  -30.5716   -3.2066  148.1348 H   0  0  0  0  0
  -30.0040   -4.8306  148.5947 H   0  0  0  0  0
  -31.5561   -4.2202  149.2185 H   0  0  0  0  0
  -28.4068   -3.2518  147.8091 H   0  0  0  0  0
  -27.3281   -2.9616  146.2040 H   0  0  0  0  0
  -25.9795   -3.3378  144.3119 H   0  0  0  0  0
  -24.5743   -2.5974  145.1759 H   0  0  0  0  0
  -25.3401   -1.2147  143.3224 H   0  0  0  0  0
  -25.5943   -0.4079  144.9223 H   0  0  0  0  0
  -27.9042   -1.0288  144.8711 H   0  0  0  0  0
  -27.6427   -1.8228  143.2462 H   0  0  0  0  0
  -26.8970    0.7436  142.7940 H   0  0  0  0  0
  -28.2226    2.0338  141.7107 H   0  0  0  0  0
  -29.2047    2.8272  143.0197 H   0  0  0  0  0
  -30.2581    0.9786  140.8494 H   0  0  0  0  0
  -31.2198    1.7555  142.1311 H   0  0  0  0  0
  -30.4301    2.7507  140.8833 H   0  0  0  0  0
  1  2  4  0  0  0
  5  1  4  0  0  0
  1 12  4  0  0  0
  3  2  4  0  0  0
  2 19  4  0  0  0
  4  3  4  0  0  0
  3 20  1  0  0  0
 11  4  4  0  0  0
 11  5  4  0  0  0
  6  7  1  0  0  0
 10  6  1  0  0  0
  8  7  1  0  0  0
  9  8  1  0  0  0
 10  9  1  0  0  0
 10 11  1  0  0  0
 12 13  4  0  0  0
 13 14  1  0  0  0
 13 16  4  0  0  0
 14 15  1  0  0  0
 16 17  1  0  0  0
 16 19  4  0  0  0
 17 18  1  0  0  0
 20 21  1  0  0  0
 21 22  1  0  0  0
 22 23  1  0  0  0
 23 24  1  0  0  0
 24 25  1  0  0  0
 25 26  2  0  0  0
 25 27  1  0  0  0
 27 28  1  0  0  0
  6 29  1  0  0  0
  6 30  1  0  0  0
  7 31  1  0  0  0
  7 32  1  0  0  0
  8 33  1  0  0  0
  8 34  1  0  0  0
  9 35  1  0  0  0
  9 36  1  0  0  0
 12 37  1  0  0  0
 15 38  1  0  0  0
 15 39  1  0  0  0
 15 40  1  0  0  0
 18 41  1  0  0  0
 18 42  1  0  0  0
 18 43  1  0  0  0
 19 44  1  0  0  0
 20 45  1  0  0  0
 21 46  1  0  0  0
 21 47  1  0  0  0
 22 48  1  0  0  0
 22 49  1  0  0  0
 23 50  1  0  0  0
 23 51  1  0  0  0
 24 52  1  0  0  0
 27 53  1  0  0  0
 27 54  1  0  0  0
 28 55  1  0  0  0
 28 56  1  0  0  0
 28 57  1  0  0  0
M  END
$$$$
