### 
### Created by X-TOOL on Wed Jan  1 15:39:35 2020
### 

@<TRIPOS>MOLECULE
6g22_ligand
   51    54     1     0     0
SMALL
GAST_HUCK


@<TRIPOS>ATOM
      1 CAV        -3.2290   22.5310   30.8050 C.ar      1 2O2        -0.0333
      2 CAW        -2.9900   21.2380   30.3380 C.ar      1 2O2        -0.0322
      3 CAX        -3.7510   20.7330   29.2660 C.ar      1 2O2        -0.0340
      4 CAY        -4.7290   21.5520   28.6220 C.ar      1 2O2        -0.0322
      5 CAZ        -4.9250   22.8080   29.0710 C.ar      1 2O2        -0.0333
      6 CAU        -4.2170   23.3360   30.1600 C.ar      1 2O2         0.0228
      7 CAB        -4.4940   24.7100   30.6030 C.3       1 2O2         0.2365
      8 PAA        -5.7370   24.6370   32.0270 P.3       1 2O2         0.0922
      9 OBB        -6.2140   25.9910   32.3080 O.co2     1 2O2        -0.5660
     10 OBC        -6.7930   23.7100   31.5740 O.co2     1 2O2        -0.5660
     11 OBA        -4.8370   23.9580   33.0760 O.co2     1 2O2        -0.5660
     12 OAH        -4.9440   25.4370   29.4340 O.3       1 2O2        -0.3659
     13 OAD        -3.3010   25.3900   30.9780 O.3       1 2O2        -0.3694
     14 CAC        -3.4580   26.8440   31.3870 C.3       1 2O2         0.0697
     15 CAE        -4.0070   27.5680   30.2160 C.3       1 2O2         0.1097
     16 OAF        -3.0170   27.5740   29.1860 O.3       1 2O2        -0.3399
     17 CAG        -5.1650   26.8280   29.5550 C.3       1 2O2         0.0853
     18 CAI        -5.2030   27.3850   28.1380 C.3       1 2O2         0.0301
     19 CAJ        -3.6960   27.7540   27.9180 C.3       1 2O2         0.1756
     20 N1         -3.0220   26.9810   26.8730 N.am      1 2O2        -0.1736
     21 C6         -3.4920   25.7470   26.3680 C.2       1 2O2         0.0528
     22 C2         -1.8720   27.5070   26.4320 C.2       1 2O2         0.3265
     23 O2         -1.4260   28.5730   26.8940 O.2       1 2O2        -0.3843
     24 N3         -1.1780   26.8150   25.4810 N.am      1 2O2        -0.1859
     25 C4         -1.6210   25.6010   24.9260 C.2       1 2O2         0.1933
     26 O4         -0.9130   25.0960   24.0390 O.2       1 2O2        -0.4079
     27 C5         -2.8040   25.0020   25.4070 C.2       1 2O2         0.0268
     28 CAR        -3.3560   23.7320   24.8970 C.3       1 2O2        -0.0165
     29 CAS        -2.5500   22.5990   25.4540 C.3       1 2O2         0.0227
     30 PBD        -2.9250   21.0310   24.5890 P.3       1 2O2         0.0589
     31 OBF        -1.9650   20.0940   25.1470 O.co2     1 2O2        -0.5622
     32 OBG        -2.7420   21.3480   23.1650 O.co2     1 2O2        -0.5622
     33 OBE        -4.3850   20.8150   24.9810 O.co2     1 2O2        -0.5622
     34 H1         -2.6706   22.9205   31.6486 H         1 2O2         0.0852
     35 H2         -2.2228   20.6256   30.7978 H         1 2O2         0.0698
     36 H3         -3.5937   19.7155   28.9269 H         1 2O2         0.0856
     37 H4         -5.3038   21.1697   27.7862 H         1 2O2         0.0698
     38 H5         -5.6569   23.4327   28.5718 H         1 2O2         0.0852
     39 H6         -2.4811   27.2650   31.6671 H         1 2O2         0.0577
     40 H7         -4.1496   26.9241   32.2386 H         1 2O2         0.0577
     41 H8         -4.3034   28.5859   30.5092 H         1 2O2         0.0645
     42 H9         -6.1036   27.0163   30.0968 H         1 2O2         0.0615
     43 H10        -5.8496   28.2723   28.0704 H         1 2O2         0.0344
     44 H11        -5.5426   26.6279   27.4158 H         1 2O2         0.0344
     45 H12        -3.6434   28.8146   27.6312 H         1 2O2         0.0959
     46 H13        -4.4362   25.3583   26.7465 H         1 2O2         0.1011
     47 H14        -0.3082   27.1916   25.1621 H         1 2O2         0.2259
     48 H15        -3.3017   23.7196   23.7984 H         1 2O2         0.0345
     49 H16        -4.4046   23.6307   25.2135 H         1 2O2         0.0345
     50 H17        -2.7839   22.4838   26.5227 H         1 2O2         0.0463
     51 H18        -1.4805   22.8272   25.3352 H         1 2O2         0.0463
@<TRIPOS>BOND
     1    1    2 ar 
     2    1    6 ar 
     3    2    3 ar 
     4    3    4 ar 
     5    4    5 ar 
     6    5    6 ar 
     7    6    7 1  
     8    7    8 1  
     9    7   12 1  
    10    7   13 1  
    11    8    9 ar 
    12    8   10 ar 
    13    8   11 ar 
    14   12   17 1  
    15   13   14 1  
    16   14   15 1  
    17   15   16 1  
    18   15   17 1  
    19   16   19 1  
    20   17   18 1  
    21   18   19 1  
    22   19   20 1  
    23   20   21 1  
    24   20   22 am 
    25   21   27 2  
    26   22   23 2  
    27   22   24 am 
    28   24   25 am 
    29   25   26 2  
    30   25   27 1  
    31   27   28 1  
    32   28   29 1  
    33   29   30 1  
    34   30   31 ar 
    35   30   32 ar 
    36   30   33 ar 
    37    1   34 1  
    38    2   35 1  
    39    3   36 1  
    40    4   37 1  
    41    5   38 1  
    42   14   39 1  
    43   14   40 1  
    44   15   41 1  
    45   17   42 1  
    46   18   43 1  
    47   18   44 1  
    48   19   45 1  
    49   21   46 1  
    50   24   47 1  
    51   28   48 1  
    52   28   49 1  
    53   29   50 1  
    54   29   51 1  
@<TRIPOS>SUBSTRUCTURE
     1 2O2         1

