6g22_ligand
  -I-interpret- 

 55 58  0  0  0  0  0  0  0  0999 V2000
   -3.2290   22.5310   30.8050 C   0  0  0  0  0
   -2.9900   21.2380   30.3380 C   0  0  0  0  0
   -3.7510   20.7330   29.2660 C   0  0  0  0  0
   -4.7290   21.5520   28.6220 C   0  0  0  0  0
   -4.9250   22.8080   29.0710 C   0  0  0  0  0
   -4.2170   23.3360   30.1600 C   0  0  0  0  0
   -4.4940   24.7100   30.6030 C   0  0  0  0  0
   -5.7370   24.6370   32.0270 P   0  0  0  0  0
   -6.2140   25.9910   32.3080 O   0  0  0  0  0
   -6.7930   23.7100   31.5740 O   0  0  0  0  0
   -4.8370   23.9580   33.0760 O   0  0  0  0  0
   -4.9440   25.4370   29.4340 O   0  0  0  0  0
   -3.3010   25.3900   30.9780 O   0  0  0  0  0
   -3.4580   26.8440   31.3870 C   0  0  0  0  0
   -4.0070   27.5680   30.2160 C   0  0  0  0  0
   -3.0170   27.5740   29.1860 O   0  0  0  0  0
   -5.1650   26.8280   29.5550 C   0  0  0  0  0
   -5.2030   27.3850   28.1380 C   0  0  0  0  0
   -3.6960   27.7540   27.9180 C   0  0  0  0  0
   -3.0220   26.9810   26.8730 N   0  0  0  0  0
   -3.4920   25.7470   26.3680 C   0  0  0  0  0
   -1.8720   27.5070   26.4320 C   0  0  0  0  0
   -1.4260   28.5730   26.8940 O   0  0  0  0  0
   -1.1780   26.8150   25.4810 N   0  0  0  0  0
   -1.6210   25.6010   24.9260 C   0  0  0  0  0
   -0.9130   25.0960   24.0390 O   0  0  0  0  0
   -2.8040   25.0020   25.4070 C   0  0  0  0  0
   -3.3560   23.7320   24.8970 C   0  0  0  0  0
   -2.5500   22.5990   25.4540 C   0  0  0  0  0
   -2.9250   21.0310   24.5890 P   0  0  0  0  0
   -1.9650   20.0940   25.1470 O   0  0  0  0  0
   -2.7420   21.3480   23.1650 O   0  0  0  0  0
   -4.3850   20.8150   24.9810 O   0  0  0  0  0
   -2.6676   22.9227   31.6532 H   0  0  0  0  0
   -2.2186   20.6222   30.8004 H   0  0  0  0  0
   -3.5928   19.7099   28.9250 H   0  0  0  0  0
   -5.3070   21.1676   27.7816 H   0  0  0  0  0
   -5.6609   23.4361   28.5690 H   0  0  0  0  0
   -6.4094   22.8455   31.4095 H   0  0  0  0  0
   -4.5967   23.0804   32.7699 H   0  0  0  0  0
   -2.4983   27.2660   31.6855 H   0  0  0  0  0
   -4.1266   26.9333   32.2432 H   0  0  0  0  0
   -4.3140   28.5470   30.5839 H   0  0  0  0  0
   -6.0702   26.9632   30.1470 H   0  0  0  0  0
   -5.8846   28.2265   28.0142 H   0  0  0  0  0
   -5.5968   26.6854   27.4007 H   0  0  0  0  0
   -3.6577   28.7855   27.5677 H   0  0  0  0  0
   -4.4371   25.3579   26.7468 H   0  0  0  0  0
   -0.2908   27.1991   25.1558 H   0  0  0  0  0
   -3.3092   23.7191   23.8081 H   0  0  0  0  0
   -4.3971   23.6314   25.2039 H   0  0  0  0  0
   -2.7977   22.4819   26.5090 H   0  0  0  0  0
   -1.4924   22.8258   25.3197 H   0  0  0  0  0
   -3.4181   21.9705   22.8875 H   0  0  0  0  0
   -4.9303   21.4840   24.5607 H   0  0  0  0  0
  1  2  4  0  0  0
  1  6  4  0  0  0
  2  3  4  0  0  0
  3  4  4  0  0  0
  4  5  4  0  0  0
  5  6  4  0  0  0
  6  7  1  0  0  0
  7  8  1  0  0  0
  7 12  1  0  0  0
  7 13  1  0  0  0
  8  9  2  0  0  0
  8 10  1  0  0  0
  8 11  1  0  0  0
 12 17  1  0  0  0
 13 14  1  0  0  0
 14 15  1  0  0  0
 15 16  1  0  0  0
 15 17  1  0  0  0
 16 19  1  0  0  0
 17 18  1  0  0  0
 18 19  1  0  0  0
 19 20  1  0  0  0
 20 21  1  0  0  0
 20 22  1  0  0  0
 21 27  2  0  0  0
 22 23  2  0  0  0
 22 24  1  0  0  0
 24 25  1  0  0  0
 25 26  2  0  0  0
 25 27  1  0  0  0
 27 28  1  0  0  0
 28 29  1  0  0  0
 29 30  1  0  0  0
 30 31  2  0  0  0
 30 32  1  0  0  0
 30 33  1  0  0  0
  1 34  1  0  0  0
  2 35  1  0  0  0
  3 36  1  0  0  0
  4 37  1  0  0  0
  5 38  1  0  0  0
 10 39  1  0  0  0
 11 40  1  0  0  0
 14 41  1  0  0  0
 14 42  1  0  0  0
 15 43  1  0  0  0
 17 44  1  0  0  0
 18 45  1  0  0  0
 18 46  1  0  0  0
 19 47  1  0  0  0
 21 48  1  0  0  0
 24 49  1  0  0  0
 28 50  1  0  0  0
 28 51  1  0  0  0
 29 52  1  0  0  0
 29 53  1  0  0  0
 32 54  1  0  0  0
 33 55  1  0  0  0
M  END
$$$$
