6duh_ligand
  -I-interpret- 

 71 75  0  0  0  0  0  0  0  0999 V2000
   52.9200  -27.7500   38.4750 C   0  0  0  0  0
   51.4310  -27.4520   38.6900 C   0  0  0  0  0
   50.5260  -28.3320   39.3290 C   0  0  0  0  0
   49.1490  -28.0520   39.5220 C   0  0  0  0  0
   48.1690  -28.9390   40.2210 C   0  0  0  0  0
   47.4520  -28.6090   41.3170 C   0  0  0  0  0
   46.5820  -29.5170   41.8910 C   0  0  0  0  0
   48.7070  -26.8140   39.0460 C   0  0  0  0  0
   49.5440  -25.8940   38.3990 C   0  0  0  0  0
   48.9730  -24.5860   37.9050 C   0  0  0  0  0
   50.9070  -26.2190   38.2040 C   0  0  0  0  0
   52.1420  -25.3440   36.3160 C   0  0  0  0  0
   52.1550  -26.4730   34.3140 C   0  0  0  0  0
   50.7400  -28.5500   33.9330 C   0  0  0  0  0
   51.2530  -29.4790   34.9900 C   0  0  0  0  0
   50.3300  -30.6110   35.2510 C   0  0  0  0  0
   49.0990  -32.3580   34.4810 C   0  0  0  0  0
   49.8170  -33.5780   34.9850 C   0  0  0  0  0
   51.1780  -33.7660   34.6300 C   0  0  0  0  0
   51.8950  -34.8740   35.0750 C   0  0  0  0  0
   51.3600  -35.8940   35.8890 C   0  0  0  0  0
   50.0120  -35.6630   36.2050 C   0  0  0  0  0
   49.2550  -34.5640   35.7780 C   0  0  0  0  0
   49.3660  -30.4610   32.9560 C   0  0  0  0  0
   50.2430  -29.2520   32.6520 C   0  0  0  0  0
   53.4170  -24.5480   34.4610 C   0  0  0  0  0
   54.3180  -23.4790   34.0250 C   0  0  0  0  0
   54.5530  -22.5730   35.0000 C   0  0  0  0  0
   53.0030  -24.3860   35.7940 C   0  0  0  0  0
   45.8390  -30.2770   42.4080 N   0  0  0  0  0
   51.6940  -26.4050   35.6160 N   0  0  0  0  0
   51.7550  -27.5590   33.4550 N   0  0  0  0  0
   50.0290  -31.3360   33.9590 N   0  3  0  0  0
   52.6910  -38.1540   35.0740 N   0  0  0  0  0
   53.0020  -25.5840   33.7020 N   0  0  0  0  0
   51.6990  -25.2510   37.5910 O   0  0  0  0  0
   53.5270  -36.8820   37.0260 O   0  0  0  0  0
   51.4970  -38.1030   37.2710 O   0  0  0  0  0
   52.2990  -37.2860   36.4260 S   0  0  0  0  0
   53.7060  -22.9820   36.4410 S   0  0  0  0  0
   53.4025  -27.8996   39.4409 H   0  0  0  0  0
   53.0253  -28.6514   37.8713 H   0  0  0  0  0
   53.3867  -26.9100   37.9605 H   0  0  0  0  0
   50.9107  -29.2837   39.6955 H   0  0  0  0  0
   48.0205  -29.9379   39.8108 H   0  0  0  0  0
   47.5605  -27.6161   41.7535 H   0  0  0  0  0
   47.6584  -26.5507   39.1850 H   0  0  0  0  0
   48.1835  -24.7862   37.1806 H   0  0  0  0  0
   48.5624  -24.0291   38.7472 H   0  0  0  0  0
   49.7624  -24.0020   37.4319 H   0  0  0  0  0
   49.9169  -28.0631   34.4560 H   0  0  0  0  0
   51.3570  -28.9108   35.9144 H   0  0  0  0  0
   52.2004  -29.8916   34.6431 H   0  0  0  0  0
   49.4012  -30.2281   35.6738 H   0  0  0  0  0
   50.7978  -31.3028   35.9515 H   0  0  0  0  0
   48.5491  -31.9208   35.3144 H   0  0  0  0  0
   48.4418  -32.6644   33.6672 H   0  0  0  0  0
   51.6719  -33.0290   33.9968 H   0  0  0  0  0
   52.9392  -34.9585   34.7741 H   0  0  0  0  0
   49.5128  -36.3995   36.8347 H   0  0  0  0  0
   48.2091  -34.4842   36.0743 H   0  0  0  0  0
   49.2071  -31.0268   32.0380 H   0  0  0  0  0
   48.4118  -30.1184   33.3562 H   0  0  0  0  0
   51.1148  -29.5984   32.0970 H   0  0  0  0  0
   49.6472  -28.5369   32.0847 H   0  0  0  0  0
   54.7506  -23.4206   33.0262 H   0  0  0  0  0
   55.1943  -21.6987   34.8883 H   0  0  0  0  0
   52.1622  -27.6520   32.5244 H   0  0  0  0  0
   50.8470  -31.6871   33.4610 H   0  0  0  0  0
   53.6700  -38.3000   34.8277 H   0  0  0  0  0
   51.9538  -38.5434   34.4864 H   0  0  0  0  0
  2  1  1  0  0  0
  2  3  4  0  0  0
 11  2  4  0  0  0
  3  4  4  0  0  0
  4  5  1  0  0  0
  8  4  4  0  0  0
  5  6  2  0  0  0
  6  7  1  0  0  0
  7 30  3  0  0  0
  9  8  4  0  0  0
  9 10  1  0  0  0
 11  9  4  0  0  0
 36 11  1  0  0  0
 29 12  4  0  0  0
 12 31  4  0  0  0
 12 36  1  0  0  0
 31 13  4  0  0  0
 13 32  1  0  0  0
 13 35  4  0  0  0
 14 15  1  0  0  0
 14 25  1  0  0  0
 32 14  1  0  0  0
 15 16  1  0  0  0
 16 33  1  0  0  0
 17 18  1  0  0  0
 33 17  1  0  0  0
 18 19  4  0  0  0
 18 23  4  0  0  0
 19 20  4  0  0  0
 20 21  4  0  0  0
 22 21  4  0  0  0
 21 39  1  0  0  0
 23 22  4  0  0  0
 25 24  1  0  0  0
 24 33  1  0  0  0
 26 27  4  0  0  0
 26 29  4  0  0  0
 26 35  4  0  0  0
 27 28  4  0  0  0
 28 40  4  0  0  0
 29 40  4  0  0  0
 39 34  1  0  0  0
 39 37  2  0  0  0
 39 38  2  0  0  0
  1 41  1  0  0  0
  1 42  1  0  0  0
  1 43  1  0  0  0
  3 44  1  0  0  0
  5 45  1  0  0  0
  6 46  1  0  0  0
  8 47  1  0  0  0
 10 48  1  0  0  0
 10 49  1  0  0  0
 10 50  1  0  0  0
 14 51  1  0  0  0
 15 52  1  0  0  0
 15 53  1  0  0  0
 16 54  1  0  0  0
 16 55  1  0  0  0
 17 56  1  0  0  0
 17 57  1  0  0  0
 19 58  1  0  0  0
 20 59  1  0  0  0
 22 60  1  0  0  0
 23 61  1  0  0  0
 24 62  1  0  0  0
 24 63  1  0  0  0
 25 64  1  0  0  0
 25 65  1  0  0  0
 27 66  1  0  0  0
 28 67  1  0  0  0
 32 68  1  0  0  0
 33 69  1  0  0  0
 34 70  1  0  0  0
 34 71  1  0  0  0
M  END
$$$$
