3amv_ligand
  -I-interpret- 

 50 51  0  0  0  0  0  0  0  0999 V2000
   27.9610    2.2690   52.9470 C   0  0  0  0  0
   27.3160    3.6340   53.3400 C   0  0  0  0  0
   27.4490    4.1200   54.7240 C   0  0  0  0  0
   28.2340    3.2640   55.6850 C   0  0  0  0  0
   28.8210    2.0640   55.3710 C   0  0  0  0  0
   28.6870    1.5600   54.0220 C   0  0  0  0  0
   27.8800    1.6580   51.4890 C   0  0  0  0  0
   26.9280    0.2460   51.4410 C   0  0  0  0  0
   29.9290    0.3110   50.6910 C   0  0  0  0  0
   27.5580   -1.0210   51.1960 C   0  0  0  0  0
   29.2760    1.6510   50.8680 C   0  0  0  0  0
   29.9820    3.0590   50.5500 C   0  0  0  0  0
   31.2980    0.2270   50.1430 C   0  0  0  0  0
   26.9010   -2.3950   51.0280 C   0  0  0  0  0
   30.2480   -2.2590   53.0770 C   0  0  0  0  0
   29.8410   -2.1490   51.6430 C   0  0  0  0  0
   25.3210    0.4300   51.6270 C   0  0  0  0  0
   23.3130    2.0350   51.3960 C   0  0  0  0  0
   23.1480    2.4680   52.8950 C   0  0  0  0  0
   23.0590    3.1160   50.3590 C   0  0  0  0  0
   29.0990   -0.9670   51.1400 N   0  0  0  0  0
   31.2080    3.3100   50.5930 O   0  0  0  0  0
   29.2440    4.0710   50.2930 O   0  0  0  0  0
   31.4280   -0.1720   48.9410 O   0  0  0  0  0
   32.1490    0.6040   50.9940 O   0  0  0  0  0
   24.6010   -0.4530   52.0160 O   0  0  0  0  0
   24.8790    1.7030   51.3100 O   0  0  0  0  0
   26.4980    4.5920   52.2890 Cl  0  0  0  0  0
   26.9981    5.0605   55.0405 H   0  0  0  0  0
   28.3437    3.6258   56.7073 H   0  0  0  0  0
   29.3764    1.5026   56.1223 H   0  0  0  0  0
   29.1482    0.6015   53.7841 H   0  0  0  0  0
   27.3094    2.2867   50.8054 H   0  0  0  0  0
   26.3468   -2.6444   51.9328 H   0  0  0  0  0
   26.2189   -2.3687   50.1782 H   0  0  0  0  0
   27.6716   -3.1459   50.8538 H   0  0  0  0  0
   30.9017   -1.4251   53.3328 H   0  0  0  0  0
   29.3599   -2.2331   53.7084 H   0  0  0  0  0
   30.7782   -3.1987   53.2318 H   0  0  0  0  0
   29.1424   -2.9743   51.5054 H   0  0  0  0  0
   30.7880   -2.1119   51.1045 H   0  0  0  0  0
   22.5980    1.2430   51.1735 H   0  0  0  0  0
   23.8478    3.2732   53.1184 H   0  0  0  0  0
   22.1281    2.8146   53.0616 H   0  0  0  0  0
   23.3538    1.6159   53.5428 H   0  0  0  0  0
   22.0366    3.4804   50.4588 H   0  0  0  0  0
   23.7563    3.9390   50.5156 H   0  0  0  0  0
   23.2025    2.7014   49.3612 H   0  0  0  0  0
   28.3236    3.7987   50.2774 H   0  0  0  0  0
   30.5639   -0.3825   48.5797 H   0  0  0  0  0
  1  2  4  0  0  0
  1  6  4  0  0  0
  7  1  1  0  0  0
  2  3  4  0  0  0
  2 28  1  0  0  0
  3  4  4  0  0  0
  5  4  4  0  0  0
  6  5  4  0  0  0
  8  7  1  0  0  0
  7 11  1  0  0  0
  8 10  2  0  0  0
 17  8  1  0  0  0
 11  9  2  0  0  0
  9 13  1  0  0  0
 21  9  1  0  0  0
 10 14  1  0  0  0
 10 21  1  0  0  0
 11 12  1  0  0  0
 12 22  2  0  0  0
 12 23  1  0  0  0
 13 24  1  0  0  0
 13 25  2  0  0  0
 16 15  1  0  0  0
 21 16  1  0  0  0
 17 26  2  0  0  0
 27 17  1  0  0  0
 18 19  1  0  0  0
 18 20  1  0  0  0
 18 27  1  0  0  0
  3 29  1  0  0  0
  4 30  1  0  0  0
  5 31  1  0  0  0
  6 32  1  0  0  0
  7 33  1  0  0  0
 14 34  1  0  0  0
 14 35  1  0  0  0
 14 36  1  0  0  0
 15 37  1  0  0  0
 15 38  1  0  0  0
 15 39  1  0  0  0
 16 40  1  0  0  0
 16 41  1  0  0  0
 18 42  1  0  0  0
 19 43  1  0  0  0
 19 44  1  0  0  0
 19 45  1  0  0  0
 20 46  1  0  0  0
 20 47  1  0  0  0
 20 48  1  0  0  0
 23 49  1  0  0  0
 24 50  1  0  0  0
M  END
$$$$
