2q8z_ligand
  -I-interpret- 

 36 37  0  0  0  0  0  0  0  0999 V2000
    5.2270  -23.3300  -20.6720 O   0  0  0  0  0
    5.9620  -23.8770  -21.4960 C   0  0  0  0  0
    5.8170  -25.1960  -21.6870 N   0  0  0  0  0
    6.5890  -25.8660  -22.5730 C   0  0  0  0  0
    6.4300  -27.0960  -22.7290 O   0  0  0  0  0
    6.8730  -23.0950  -22.2070 C   0  0  0  0  0
    7.6720  -23.7650  -23.1120 C   0  0  0  0  0
    8.5700  -23.0610  -23.8290 N   0  0  0  0  0
    7.5590  -25.1650  -23.3120 N   0  0  0  0  0
    8.4490  -25.8260  -24.2840 C   0  0  0  0  0
    7.7550  -26.3910  -25.4040 O   0  0  0  0  0
    9.2070  -26.9930  -23.6360 C   0  0  0  0  0
   10.4120  -26.6700  -22.9170 O   0  0  0  0  0
    9.4860  -27.8550  -24.8670 C   0  0  0  0  0
   10.6040  -27.2840  -25.5580 O   0  0  0  0  0
    8.2330  -27.6860  -25.7240 C   0  0  0  0  0
    7.1340  -28.7070  -25.4480 C   0  0  0  0  0
    7.4920  -29.8980  -26.1220 O   0  0  0  0  0
    6.6050  -31.2480  -26.0850 P   0  0  0  0  0
    5.5150  -31.2040  -27.1510 O   0  0  0  0  0
    7.6420  -32.3150  -26.3270 O   0  0  0  0  0
    6.0030  -31.2750  -24.6990 O   0  0  0  0  0
    5.1111  -25.7040  -21.1541 H   0  0  0  0  0
    7.5464  -22.6621  -21.4672 H   0  0  0  0  0
    6.2805  -22.3881  -22.7877 H   0  0  0  0  0
    9.1630  -23.5350  -24.5103 H   0  0  0  0  0
    9.1163  -25.0328  -24.6212 H   0  0  0  0  0
    8.6293  -27.4553  -22.8356 H   0  0  0  0  0
   10.7950  -27.4742  -22.5590 H   0  0  0  0  0
    9.7024  -28.8980  -24.6358 H   0  0  0  0  0
   10.7993  -27.8093  -26.3374 H   0  0  0  0  0
    8.4905  -27.8311  -26.7732 H   0  0  0  0  0
    6.1707  -28.3398  -25.8021 H   0  0  0  0  0
    7.0360  -28.8861  -24.3773 H   0  0  0  0  0
    4.8898  -30.5069  -26.9392 H   0  0  0  0  0
    5.3550  -30.5712  -24.6190 H   0  0  0  0  0
  1  2  2  0  0  0
  2  3  1  0  0  0
  2  6  1  0  0  0
  3  4  1  0  0  0
  4  5  2  0  0  0
  4  9  1  0  0  0
  6  7  1  0  0  0
  7  8  2  0  0  0
  7  9  1  0  0  0
  9 10  1  0  0  0
 10 11  1  0  0  0
 10 12  1  0  0  0
 11 16  1  0  0  0
 12 13  1  0  0  0
 12 14  1  0  0  0
 14 15  1  0  0  0
 14 16  1  0  0  0
 16 17  1  0  0  0
 17 18  1  0  0  0
 18 19  1  0  0  0
 19 20  1  0  0  0
 19 21  2  0  0  0
 19 22  1  0  0  0
  3 23  1  0  0  0
  6 24  1  0  0  0
  6 25  1  0  0  0
  8 26  1  0  0  0
 10 27  1  0  0  0
 12 28  1  0  0  0
 13 29  1  0  0  0
 14 30  1  0  0  0
 15 31  1  0  0  0
 16 32  1  0  0  0
 17 33  1  0  0  0
 17 34  1  0  0  0
 20 35  1  0  0  0
 22 36  1  0  0  0
M  END
$$$$
