6s4t_ligand
  -I-interpret- 

 63 67  0  0  0  0  0  0  0  0999 V2000
   21.3620    9.9750   13.3340 C   0  0  0  0  0
   20.4760    9.0460   13.8770 C   0  0  0  0  0
   20.0760    9.1130   15.2220 C   0  0  0  0  0
   20.5660   10.1170   16.0450 C   0  0  0  0  0
   20.1220   10.2210   17.5140 C   0  0  0  0  0
   11.5550    3.2720   15.9380 C   0  0  0  0  0
   12.1230    3.6330   17.2980 C   0  0  0  0  0
   13.3030    7.2110   16.9710 C   0  0  0  0  0
   14.3880    4.6710   17.3860 C   0  0  0  0  0
   15.2220    5.7760   17.3360 C   0  0  0  0  0
   14.6760    7.0360   17.1260 C   0  0  0  0  0
   15.6140    8.2020   17.0900 C   0  0  0  0  0
   16.9540   10.7440   16.7390 C   0  0  0  0  0
   16.9140   11.6040   14.0690 C   0  0  0  0  0
   18.8380   13.8460   17.4220 C   0  0  0  0  0
   18.8520   12.4280   17.1980 C   0  0  0  0  0
   19.9350   11.7080   17.7500 C   0  0  0  0  0
   20.9110   12.3640   18.5080 C   0  0  0  0  0
   19.8870   14.4320   18.2010 C   0  0  0  0  0
   21.0620   17.8370   18.8750 F   0  0  0  0  0
   22.2160   15.9610   18.6920 F   0  0  0  0  0
   20.9820   16.3040   20.5520 F   0  0  0  0  0
   21.0190   16.4800   19.1770 C   0  0  0  0  0
   21.4480   11.0490   15.4770 C   0  0  0  0  0
   21.8480   10.9930   14.1400 C   0  0  0  0  0
   11.9380    3.7960   14.9090 O   0  0  0  0  0
   10.6090    2.3270   15.8710 O   0  0  0  0  0
   12.4660    6.1120   17.0310 C   0  0  0  0  0
   13.0160    4.8460   17.2360 C   0  0  0  0  0
   15.1860    9.1850   16.1450 O   0  0  0  0  0
   16.0660   10.1720   15.8090 C   0  0  0  0  0
   16.0410   10.6110   14.4860 C   0  0  0  0  0
   17.8050   12.1610   14.9670 C   0  0  0  0  0
   17.8330   11.7620   16.3260 C   0  0  0  0  0
   20.8740   13.6640   18.7130 N   0  0  0  0  0
   19.8780   15.8280   18.4280 C   0  0  0  0  0
   18.8910   16.6000   17.8660 C   0  0  0  0  0
   17.8480   16.0410   17.1210 C   0  0  0  0  0
   17.8190   14.6910   16.9080 C   0  0  0  0  0
   21.6684    9.9022   12.2905 H   0  0  0  0  0
   20.0847    8.2497   13.2438 H   0  0  0  0  0
   19.3795    8.3750   15.6198 H   0  0  0  0  0
   20.8558    9.7885   18.1942 H   0  0  0  0  0
   19.2079    9.6589   17.7053 H   0  0  0  0  0
   12.7175    2.7910   17.6525 H   0  0  0  0  0
   11.2908    3.8573   17.9653 H   0  0  0  0  0
   12.8915    8.2064   16.8037 H   0  0  0  0  0
   14.8024    3.6749   17.5412 H   0  0  0  0  0
   16.2984    5.6577   17.4605 H   0  0  0  0  0
   16.6005    7.8443   16.7953 H   0  0  0  0  0
   15.6369    8.6591   18.0793 H   0  0  0  0  0
   16.9607   10.4003   17.7734 H   0  0  0  0  0
   16.8978   11.9452   13.0339 H   0  0  0  0  0
   21.7249   11.7825   18.9410 H   0  0  0  0  0
   21.8372   11.8501   16.1054 H   0  0  0  0  0
   22.5324   11.7390   13.7360 H   0  0  0  0  0
   10.4119    2.0098   16.7554 H   0  0  0  0  0
   11.3885    6.2332   16.9194 H   0  0  0  0  0
   15.3353   10.1737   13.7797 H   0  0  0  0  0
   18.5019   12.9246   14.6216 H   0  0  0  0  0
   18.9215   17.6807   18.0048 H   0  0  0  0  0
   17.0631   16.6777   16.7127 H   0  0  0  0  0
   17.0005   14.2561   16.3344 H   0  0  0  0  0
  2  1  4  0  0  0
 25  1  4  0  0  0
  3  2  4  0  0  0
  4  3  4  0  0  0
  5  4  1  0  0  0
  4 24  4  0  0  0
 17  5  1  0  0  0
  7  6  1  0  0  0
  6 26  2  0  0  0
  6 27  1  0  0  0
 29  7  1  0  0  0
 11  8  4  0  0  0
  8 28  4  0  0  0
 10  9  4  0  0  0
  9 29  4  0  0  0
 11 10  4  0  0  0
 12 11  1  0  0  0
 30 12  1  0  0  0
 31 13  4  0  0  0
 13 34  4  0  0  0
 32 14  4  0  0  0
 14 33  4  0  0  0
 16 15  4  0  0  0
 15 19  4  0  0  0
 15 39  4  0  0  0
 16 17  4  0  0  0
 34 16  1  0  0  0
 17 18  4  0  0  0
 18 35  4  0  0  0
 19 35  4  0  0  0
 19 36  4  0  0  0
 23 20  1  0  0  0
 23 21  1  0  0  0
 23 22  1  0  0  0
 36 23  1  0  0  0
 24 25  4  0  0  0
 28 29  4  0  0  0
 31 30  1  0  0  0
 31 32  4  0  0  0
 33 34  4  0  0  0
 36 37  4  0  0  0
 37 38  4  0  0  0
 38 39  4  0  0  0
  1 40  1  0  0  0
  2 41  1  0  0  0
  3 42  1  0  0  0
  5 43  1  0  0  0
  5 44  1  0  0  0
  7 45  1  0  0  0
  7 46  1  0  0  0
  8 47  1  0  0  0
  9 48  1  0  0  0
 10 49  1  0  0  0
 12 50  1  0  0  0
 12 51  1  0  0  0
 13 52  1  0  0  0
 14 53  1  0  0  0
 18 54  1  0  0  0
 24 55  1  0  0  0
 25 56  1  0  0  0
 27 57  1  0  0  0
 28 58  1  0  0  0
 32 59  1  0  0  0
 33 60  1  0  0  0
 37 61  1  0  0  0
 38 62  1  0  0  0
 39 63  1  0  0  0
M  END
$$$$
