4k1e_ligand
  -I-interpret- 

211217  0  0  0  0  0  0  0  0999 V2000
   13.3290    3.2380   -4.3650 N   0  0  0  0  0
   13.7390    1.8500   -4.2730 C   0  0  0  0  0
   12.5740    0.8780   -4.3020 C   0  0  0  0  0
   12.7700   -0.3310   -4.1690 O   0  0  0  0  0
   11.3590    1.3960   -4.4710 N   0  0  0  0  0
   10.1820    0.5410   -4.5820 C   0  0  0  0  0
    9.9190    0.2600   -6.0560 C   0  0  0  0  0
   10.0090    1.1690   -6.8890 O   0  0  0  0  0
    8.9470    1.2140   -3.9720 C   0  0  0  0  0
    9.0380    1.4510   -2.4860 C   0  0  0  0  0
   10.0640    0.8970   -1.7310 C   0  0  0  0  0
    8.0810    2.2160   -1.8410 C   0  0  0  0  0
   10.1420    1.1200   -0.3670 C   0  0  0  0  0
    8.1520    2.4400   -0.4750 C   0  0  0  0  0
    9.1830    1.8940    0.2610 C   0  0  0  0  0
    9.6040   -0.9920   -6.3860 N   0  0  0  0  0
    9.2830   -1.3590   -7.7620 C   0  0  0  0  0
    8.0110   -2.1690   -7.8160 C   0  0  0  0  0
    7.8830   -3.1650   -7.1010 O   0  0  0  0  0
   10.3860   -2.2170   -8.3820 C   0  0  0  0  0
   11.9390   -1.4040   -8.6730 S   0  0  0  0  0
    7.0950   -1.7500   -8.6850 N   0  0  0  0  0
    5.9460   -2.5600   -9.0770 C   0  0  0  0  0
    6.4390   -3.7120   -9.9540 C   0  0  0  0  0
    7.1870   -3.5010  -10.9100 O   0  0  0  0  0
    4.9190   -1.7000   -9.8130 C   0  0  0  0  0
    4.2480   -0.6700   -8.9090 C   0  0  0  0  0
    3.3690    0.2980   -9.6720 C   0  0  0  0  0
    3.7570    0.8020  -10.7300 O   0  0  0  0  0
    2.1670    0.5500   -9.1510 N   0  0  0  0  0
    6.0240   -4.9290   -9.6230 N   0  0  0  0  0
    6.7070   -6.1280  -10.1110 C   0  0  0  0  0
    6.1960   -6.7080  -11.4460 C   0  0  0  0  0
    6.0920   -7.9240  -11.6260 O   0  0  0  0  0
    6.7760   -7.1650   -8.9850 C   0  0  0  0  0
    7.7970   -6.7660   -7.9320 C   0  0  0  0  0
    7.7530   -7.5990   -6.6780 C   0  0  0  0  0
    8.9060   -7.2550   -5.8550 N   0  0  0  0  0
    9.1970   -7.7980   -4.6800 C   0  0  0  0  0
    8.4120   -8.7290   -4.1620 N   0  0  0  0  0
   10.2790   -7.4020   -4.0250 N   0  0  0  0  0
    5.8540   -5.8220  -12.3750 N   0  0  0  0  0
    5.6260   -6.2140  -13.7570 C   0  0  0  0  0
    6.9710   -6.5010  -14.4140 C   0  0  0  0  0
    8.0210   -6.3110  -13.8030 O   0  0  0  0  0
    4.8810   -5.1020  -14.5040 C   0  0  0  0  0
    5.5510   -3.8590  -14.3730 O   0  0  0  0  0
    6.9540   -6.9740  -15.6530 N   0  0  0  0  0
    8.1950   -7.0810  -16.4070 C   0  0  0  0  0
    8.0100   -6.4390  -17.7860 C   0  0  0  0  0
    7.1610   -6.8650  -18.5670 O   0  0  0  0  0
    8.7610   -8.5410  -16.4260 C   0  0  0  0  0
   10.2520   -8.5350  -16.7740 C   0  0  0  0  0
    7.9120   -9.4780  -17.2990 C   0  0  0  0  0
   11.1090   -9.3210  -15.7980 C   0  0  0  0  0
    8.7520   -5.3490  -18.0570 N   0  0  0  0  0
    9.6870   -4.6700  -17.1500 C   0  0  0  0  0
    8.9690   -4.0100  -15.9720 C   0  0  0  0  0
    7.7850   -3.6760  -16.0650 O   0  0  0  0  0
   10.3390   -3.6130  -18.0470 C   0  0  0  0  0
    9.3210   -3.3390  -19.0960 C   0  0  0  0  0
    8.6170   -4.6410  -19.3410 C   0  0  0  0  0
    9.6710   -3.8660  -14.8430 N   0  0  0  0  0
    9.0510   -3.3130  -13.6380 C   0  0  0  0  0
    8.9080   -1.8020  -13.7200 C   0  0  0  0  0
    9.5190   -1.1620  -14.5780 O   0  0  0  0  0
   10.0480   -3.6880  -12.5390 C   0  0  0  0  0
   11.3660   -3.7090  -13.2420 C   0  0  0  0  0
   11.0750   -4.2510  -14.6180 C   0  0  0  0  0
    8.1000   -1.2430  -12.8260 N   0  0  0  0  0
    7.9480    0.1990  -12.7310 C   0  0  0  0  0
    8.5730    0.6160  -11.4080 C   0  0  0  0  0
    8.0390    0.3120  -10.3390 O   0  0  0  0  0
    6.4670    0.6120  -12.7800 C   0  0  0  0  0
    5.7730   -0.0350  -13.9840 C   0  0  0  0  0
    6.3370    2.1270  -12.8120 C   0  0  0  0  0
    4.2590    0.0270  -13.9260 C   0  0  0  0  0
    9.7170    1.2890  -11.4830 N   0  0  0  0  0
   10.4910    1.6030  -10.2890 C   0  0  0  0  0
   10.4830    3.0880   -9.9660 C   0  0  0  0  0
   10.3340    3.9390  -10.8470 O   0  0  0  0  0
   11.9260    1.0810  -10.4210 C   0  0  0  0  0
   12.0480   -0.7240  -10.5940 S   0  0  0  0  0
   10.6550    3.3890   -8.6860 N   0  0  0  0  0
   10.5570    4.7550   -8.1970 C   0  0  0  0  0
   11.8010    5.1070   -7.3790 C   0  0  0  0  0
   12.4730    4.2090   -6.8650 O   0  0  0  0  0
    9.2730    4.8980   -7.3750 C   0  0  0  0  0
    8.0260    4.5710   -8.1490 C   0  0  0  0  0
    7.5570    3.2700   -8.2140 C   0  0  0  0  0
    7.3310    5.5660   -8.8220 C   0  0  0  0  0
    6.4140    2.9630   -8.9330 C   0  0  0  0  0
    6.1860    5.2670   -9.5420 C   0  0  0  0  0
    5.7250    3.9640   -9.5950 C   0  0  0  0  0
   12.1180    6.4120   -7.2640 N   0  0  0  0  0
   13.3290    6.9020   -6.5890 C   0  0  0  0  0
   13.5620    6.3180   -5.1940 C   0  0  0  0  0
   14.7070    6.2830   -4.7370 O   0  0  0  0  0
   13.0750    8.4080   -6.4790 C   0  0  0  0  0
   12.2170    8.7200   -7.6420 C   0  0  0  0  0
   11.3310    7.5200   -7.8370 C   0  0  0  0  0
   12.5000    5.8720   -4.5290 N   0  0  0  0  0
   12.6240    5.3160   -3.1810 C   0  0  0  0  0
   13.0160    3.8400   -3.1830 C   0  0  0  0  0
   13.2180    3.2410   -2.1260 O   0  0  0  0  0
   11.3310    5.5190   -2.3810 C   0  0  0  0  0
   10.1010    4.9890   -3.1010 C   0  0  0  0  0
   10.2500    4.1900   -4.0510 O   0  0  0  0  0
    8.9780    5.3710   -2.7090 O   0  0  0  0  0
   13.2782    3.7315   -5.2562 H   0  0  0  0  0
   14.2531    1.7204   -3.3206 H   0  0  0  0  0
   14.3699    1.6346   -5.1354 H   0  0  0  0  0
   11.2492    2.4087   -4.5238 H   0  0  0  0  0
   10.3709   -0.3847   -4.0384 H   0  0  0  0  0
    8.1028    0.5449   -4.1384 H   0  0  0  0  0
    8.8473    2.1903   -4.4464 H   0  0  0  0  0
   10.8175    0.2787   -2.2189 H   0  0  0  0  0
    7.2611    2.6477   -2.4150 H   0  0  0  0  0
   10.9579    0.6863    0.2112 H   0  0  0  0  0
    7.3930    3.0477    0.0177 H   0  0  0  0  0
    9.2418    2.0721    1.3348 H   0  0  0  0  0
    9.5868   -1.7096   -5.6613 H   0  0  0  0  0
    9.1745   -0.4257   -8.3145 H   0  0  0  0  0
   10.0171   -2.5288   -9.3591 H   0  0  0  0  0
   10.5887   -3.0156   -7.6684 H   0  0  0  0  0
    7.2003   -0.8221   -9.0952 H   0  0  0  0  0
    5.4547   -2.9692   -8.1942 H   0  0  0  0  0
    4.1427   -2.3630  -10.1949 H   0  0  0  0  0
    5.4422   -1.1594  -10.6017 H   0  0  0  0  0
    5.0334   -0.0932   -8.4206 H   0  0  0  0  0
    3.6162   -1.2080   -8.2023 H   0  0  0  0  0
    1.5259    1.1824   -9.6301 H   0  0  0  0  0
    1.8891    0.1103   -8.2736 H   0  0  0  0  0
    5.2112   -5.0306   -9.0152 H   0  0  0  0  0
    7.7152   -5.8153  -10.3827 H   0  0  0  0  0
    7.0728   -8.1230   -9.4120 H   0  0  0  0  0
    5.7961   -7.2308   -8.5121 H   0  0  0  0  0
    7.5742   -5.7390   -7.6425 H   0  0  0  0  0
    8.7838   -6.9040   -8.3739 H   0  0  0  0  0
    7.7803   -8.6583   -6.9333 H   0  0  0  0  0
    6.8318   -7.3997   -6.1305 H   0  0  0  0  0
    9.5398   -6.5395   -6.2110 H   0  0  0  0  0
    7.5789   -9.0322   -4.6664 H   0  0  0  0  0
   10.5074   -7.8149   -3.1207 H   0  0  0  0  0
   10.8833   -6.6843   -4.4252 H   0  0  0  0  0
    5.7486   -4.8420  -12.1124 H   0  0  0  0  0
    5.0099   -7.1125  -13.7924 H   0  0  0  0  0
    3.8821   -5.0056  -14.0786 H   0  0  0  0  0
    4.8352   -5.3631  -15.5613 H   0  0  0  0  0
    5.0640   -3.1825  -14.8492 H   0  0  0  0  0
    6.0724   -7.2625  -16.0772 H   0  0  0  0  0
    8.9791   -6.5171  -15.9016 H   0  0  0  0  0
    8.6843   -8.9592  -15.4224 H   0  0  0  0  0
   10.5898   -7.4991  -16.7437 H   0  0  0  0  0
   10.3603   -9.0023  -17.7528 H   0  0  0  0  0
    6.8945   -9.5125  -16.9097 H   0  0  0  0  0
    7.8981   -9.1050  -18.3231 H   0  0  0  0  0
    8.3432  -10.4789  -17.2813 H   0  0  0  0  0
   11.0060   -8.8940  -14.8004 H   0  0  0  0  0
   10.7821  -10.3607  -15.7851 H   0  0  0  0  0
   12.1521   -9.2707  -16.1102 H   0  0  0  0  0
   10.3990   -5.3600  -16.6972 H   0  0  0  0  0
   11.2808   -3.9607  -18.4714 H   0  0  0  0  0
   10.6072   -2.7140  -17.4920 H   0  0  0  0  0
    9.7856   -2.9642  -20.0080 H   0  0  0  0  0
    8.6218   -2.5670  -18.7748 H   0  0  0  0  0
    7.5767   -4.5052  -19.6369 H   0  0  0  0  0
    9.0458   -5.1986  -20.1736 H   0  0  0  0  0
    8.0431   -3.6945  -13.4745 H   0  0  0  0  0
    9.8113   -4.6451  -12.0742 H   0  0  0  0  0
   10.0331   -2.9826  -11.7081 H   0  0  0  0  0
   12.0926   -4.3261  -12.7134 H   0  0  0  0  0
   11.8115   -2.7153  -13.2884 H   0  0  0  0  0
   11.7469   -3.8513  -15.3775 H   0  0  0  0  0
   11.2315   -5.3275  -14.6871 H   0  0  0  0  0
    7.5728   -1.8413  -12.1900 H   0  0  0  0  0
    8.4359    0.6895  -13.5733 H   0  0  0  0  0
    5.9719    0.2557  -11.8767 H   0  0  0  0  0
    6.0545   -1.0880  -13.9934 H   0  0  0  0  0
    6.0864    0.5134  -14.8724 H   0  0  0  0  0
    6.7932    2.5485  -11.9163 H   0  0  0  0  0
    6.8428    2.5152  -13.6961 H   0  0  0  0  0
    5.2821    2.3992  -12.8465 H   0  0  0  0  0
    3.9093   -0.4920  -13.0336 H   0  0  0  0  0
    3.9404    1.0688  -13.8903 H   0  0  0  0  0
    3.8428   -0.4513  -14.8126 H   0  0  0  0  0
   10.0599    1.5917  -12.3947 H   0  0  0  0  0
   10.0090    1.0953   -9.4535 H   0  0  0  0  0
   12.4529    1.3531   -9.5065 H   0  0  0  0  0
   12.3464    1.5203  -11.3257 H   0  0  0  0  0
   10.8621    2.6403   -8.0250 H   0  0  0  0  0
   10.5093    5.4543   -9.0318 H   0  0  0  0  0
    9.1997    5.9390   -7.0601 H   0  0  0  0  0
    9.3362    4.1959   -6.5437 H   0  0  0  0  0
    8.0941    2.4776   -7.6928 H   0  0  0  0  0
    7.6902    6.5944   -8.7836 H   0  0  0  0  0
    6.0574    1.9339   -8.9775 H   0  0  0  0  0
    5.6490    6.0576  -10.0661 H   0  0  0  0  0
    4.8216    3.7263  -10.1566 H   0  0  0  0  0
   14.2203    6.6160   -7.1474 H   0  0  0  0  0
   14.0016    8.9820   -6.4871 H   0  0  0  0  0
   12.6001    8.6761   -5.5352 H   0  0  0  0  0
   12.8146    8.9184   -8.5317 H   0  0  0  0  0
   11.6288    9.6211   -7.4684 H   0  0  0  0  0
   10.3604    7.6353   -7.3546 H   0  0  0  0  0
   11.0780    7.3540   -8.8842 H   0  0  0  0  0
   11.5803    5.9184   -4.9676 H   0  0  0  0  0
   13.4330    5.8637   -2.6976 H   0  0  0  0  0
   11.1950    6.5904   -2.2339 H   0  0  0  0  0
   11.4299    4.9717   -1.4435 H   0  0  0  0  0
   11.1864    4.0292   -4.1886 H   0  0  0  0  0
  1  2  1  0  0  0
  1104  1  0  0  0
  2  3  1  0  0  0
  3  4  2  0  0  0
  3  5  1  0  0  0
  5  6  1  0  0  0
  6  7  1  0  0  0
  6  9  1  0  0  0
  7  8  2  0  0  0
  7 16  1  0  0  0
  9 10  1  0  0  0
 10 11  4  0  0  0
 10 12  4  0  0  0
 11 13  4  0  0  0
 12 14  4  0  0  0
 13 15  4  0  0  0
 14 15  4  0  0  0
 16 17  1  0  0  0
 17 18  1  0  0  0
 17 20  1  0  0  0
 18 19  2  0  0  0
 18 22  1  0  0  0
 20 21  1  0  0  0
 21 83  1  0  0  0
 22 23  1  0  0  0
 23 24  1  0  0  0
 23 26  1  0  0  0
 24 25  2  0  0  0
 24 31  1  0  0  0
 26 27  1  0  0  0
 27 28  1  0  0  0
 28 29  2  0  0  0
 28 30  1  0  0  0
 31 32  1  0  0  0
 32 33  1  0  0  0
 32 35  1  0  0  0
 33 34  2  0  0  0
 33 42  1  0  0  0
 35 36  1  0  0  0
 36 37  1  0  0  0
 37 38  1  0  0  0
 38 39  1  0  0  0
 39 40  2  0  0  0
 39 41  1  0  0  0
 42 43  1  0  0  0
 43 44  1  0  0  0
 43 46  1  0  0  0
 44 45  2  0  0  0
 44 48  1  0  0  0
 46 47  1  0  0  0
 48 49  1  0  0  0
 49 50  1  0  0  0
 49 52  1  0  0  0
 50 51  2  0  0  0
 50 56  1  0  0  0
 52 53  1  0  0  0
 52 54  1  0  0  0
 53 55  1  0  0  0
 56 57  1  0  0  0
 56 62  1  0  0  0
 57 58  1  0  0  0
 57 60  1  0  0  0
 58 59  2  0  0  0
 58 63  1  0  0  0
 60 61  1  0  0  0
 61 62  1  0  0  0
 63 64  1  0  0  0
 63 69  1  0  0  0
 64 65  1  0  0  0
 64 67  1  0  0  0
 65 66  2  0  0  0
 65 70  1  0  0  0
 67 68  1  0  0  0
 68 69  1  0  0  0
 70 71  1  0  0  0
 71 72  1  0  0  0
 71 74  1  0  0  0
 72 73  2  0  0  0
 72 78  1  0  0  0
 74 75  1  0  0  0
 74 76  1  0  0  0
 75 77  1  0  0  0
 78 79  1  0  0  0
 79 80  1  0  0  0
 79 82  1  0  0  0
 80 81  2  0  0  0
 80 84  1  0  0  0
 82 83  1  0  0  0
 84 85  1  0  0  0
 85 86  1  0  0  0
 85 88  1  0  0  0
 86 87  2  0  0  0
 86 95  1  0  0  0
 88 89  1  0  0  0
 89 90  4  0  0  0
 89 91  4  0  0  0
 90 92  4  0  0  0
 91 93  4  0  0  0
 92 94  4  0  0  0
 93 94  4  0  0  0
 95 96  1  0  0  0
 95101  1  0  0  0
 96 97  1  0  0  0
 96 99  1  0  0  0
 97 98  2  0  0  0
 97102  1  0  0  0
 99100  1  0  0  0
100101  1  0  0  0
102103  1  0  0  0
103104  1  0  0  0
103106  1  0  0  0
104105  2  0  0  0
106107  1  0  0  0
107108  1  0  0  0
107109  2  0  0  0
  1110  1  0  0  0
  2111  1  0  0  0
  2112  1  0  0  0
  5113  1  0  0  0
  6114  1  0  0  0
  9115  1  0  0  0
  9116  1  0  0  0
 11117  1  0  0  0
 12118  1  0  0  0
 13119  1  0  0  0
 14120  1  0  0  0
 15121  1  0  0  0
 16122  1  0  0  0
 17123  1  0  0  0
 20124  1  0  0  0
 20125  1  0  0  0
 22126  1  0  0  0
 23127  1  0  0  0
 26128  1  0  0  0
 26129  1  0  0  0
 27130  1  0  0  0
 27131  1  0  0  0
 30132  1  0  0  0
 30133  1  0  0  0
 31134  1  0  0  0
 32135  1  0  0  0
 35136  1  0  0  0
 35137  1  0  0  0
 36138  1  0  0  0
 36139  1  0  0  0
 37140  1  0  0  0
 37141  1  0  0  0
 38142  1  0  0  0
 40143  1  0  0  0
 41144  1  0  0  0
 41145  1  0  0  0
 42146  1  0  0  0
 43147  1  0  0  0
 46148  1  0  0  0
 46149  1  0  0  0
 47150  1  0  0  0
 48151  1  0  0  0
 49152  1  0  0  0
 52153  1  0  0  0
 53154  1  0  0  0
 53155  1  0  0  0
 54156  1  0  0  0
 54157  1  0  0  0
 54158  1  0  0  0
 55159  1  0  0  0
 55160  1  0  0  0
 55161  1  0  0  0
 57162  1  0  0  0
 60163  1  0  0  0
 60164  1  0  0  0
 61165  1  0  0  0
 61166  1  0  0  0
 62167  1  0  0  0
 62168  1  0  0  0
 64169  1  0  0  0
 67170  1  0  0  0
 67171  1  0  0  0
 68172  1  0  0  0
 68173  1  0  0  0
 69174  1  0  0  0
 69175  1  0  0  0
 70176  1  0  0  0
 71177  1  0  0  0
 74178  1  0  0  0
 75179  1  0  0  0
 75180  1  0  0  0
 76181  1  0  0  0
 76182  1  0  0  0
 76183  1  0  0  0
 77184  1  0  0  0
 77185  1  0  0  0
 77186  1  0  0  0
 78187  1  0  0  0
 79188  1  0  0  0
 82189  1  0  0  0
 82190  1  0  0  0
 84191  1  0  0  0
 85192  1  0  0  0
 88193  1  0  0  0
 88194  1  0  0  0
 90195  1  0  0  0
 91196  1  0  0  0
 92197  1  0  0  0
 93198  1  0  0  0
 94199  1  0  0  0
 96200  1  0  0  0
 99201  1  0  0  0
 99202  1  0  0  0
100203  1  0  0  0
100204  1  0  0  0
101205  1  0  0  0
101206  1  0  0  0
102207  1  0  0  0
103208  1  0  0  0
106209  1  0  0  0
106210  1  0  0  0
108211  1  0  0  0
M  END
$$$$
