### 
### Created by X-TOOL on Mon Sep 10 21:13:16 2018
### 

@<TRIPOS>MOLECULE
4k1e_ligand
  211   217     1     0     0
SMALL
GAST_HUCK


@<TRIPOS>ATOM
      1 N          13.3290    3.2380   -4.3650 N.am      1 GLY        -0.2663
      2 CA         13.7390    1.8500   -4.2730 C.3       1 GLY         0.1201
      3 C          12.5740    0.8780   -4.3020 C.2       1 GLY         0.2009
      4 O          12.7700   -0.3310   -4.1690 O.2       1 GLY        -0.3947
      5 N          11.3590    1.3960   -4.4710 N.am      1 PHE        -0.2622
      6 CA         10.1820    0.5410   -4.5820 C.3       1 PHE         0.1404
      7 C           9.9190    0.2600   -6.0560 C.2       1 PHE         0.2060
      8 O          10.0090    1.1690   -6.8890 O.2       1 PHE        -0.3942
      9 CB          8.9470    1.2140   -3.9720 C.3       1 PHE         0.0214
     10 CG          9.0380    1.4510   -2.4860 C.ar      1 PHE        -0.0386
     11 CD1        10.0640    0.8970   -1.7310 C.ar      1 PHE        -0.0601
     12 CD2         8.0810    2.2160   -1.8410 C.ar      1 PHE        -0.0601
     13 CE1        10.1420    1.1200   -0.3670 C.ar      1 PHE        -0.0686
     14 CE2         8.1520    2.4400   -0.4750 C.ar      1 PHE        -0.0686
     15 CZ          9.1830    1.8940    0.2610 C.ar      1 PHE        -0.0687
     16 N           9.6040   -0.9920   -6.3860 N.am      1 CYS        -0.2627
     17 CA          9.2830   -1.3590   -7.7620 C.3       1 CYS         0.1406
     18 C           8.0110   -2.1690   -7.8160 C.2       1 CYS         0.2047
     19 O           7.8830   -3.1650   -7.1010 O.2       1 CYS        -0.3944
     20 CB         10.3860   -2.2170   -8.3820 C.3       1 CYS         0.0443
     21 SG         11.9390   -1.4040   -8.6730 S.3       1 CYS        -0.0882
     22 N           7.0950   -1.7500   -8.6850 N.am      1 GLN        -0.2636
     23 CA          5.9460   -2.5600   -9.0770 C.3       1 GLN         0.1330
     24 C           6.4390   -3.7120   -9.9540 C.2       1 GLN         0.2040
     25 O           7.1870   -3.5010  -10.9100 O.2       1 GLN        -0.3944
     26 CB          4.9190   -1.7000   -9.8130 C.3       1 GLN         0.0045
     27 CG          4.2480   -0.6700   -8.9090 C.3       1 GLN         0.0412
     28 CD          3.3690    0.2980   -9.6720 C.2       1 GLN         0.1737
     29 OE1         3.7570    0.8020  -10.7300 O.2       1 GLN        -0.3973
     30 NE2         2.1670    0.5500   -9.1510 N.am      1 GLN        -0.3009
     31 N           6.0240   -4.9290   -9.6230 N.am      1 ARG        -0.2637
     32 CA          6.7070   -6.1280  -10.1110 C.3       1 ARG         0.1311
     33 C           6.1960   -6.7080  -11.4460 C.2       1 ARG         0.2040
     34 O           6.0920   -7.9240  -11.6260 O.2       1 ARG        -0.3944
     35 CB          6.7760   -7.1650   -8.9850 C.3       1 ARG        -0.0092
     36 CG          7.7970   -6.7660   -7.9320 C.3       1 ARG        -0.0156
     37 CD          7.7530   -7.5990   -6.6780 C.3       1 ARG         0.0627
     38 NE          8.9060   -7.2550   -5.8550 N.pl3     1 ARG        -0.2723
     39 CZ          9.1970   -7.7980   -4.6800 C.cat     1 ARG         0.2882
     40 NH1         8.4120   -8.7290   -4.1620 N.pl3     1 ARG        -0.2849
     41 NH2        10.2790   -7.4020   -4.0250 N.pl3     1 ARG        -0.2849
     42 N           5.8540   -5.8220  -12.3750 N.am      1 SER        -0.2616
     43 CA          5.6260   -6.2140  -13.7570 C.3       1 SER         0.1539
     44 C           6.9710   -6.5010  -14.4140 C.2       1 SER         0.2062
     45 O           8.0210   -6.3110  -13.8030 O.2       1 SER        -0.3943
     46 CB          4.8810   -5.1020  -14.5040 C.3       1 SER         0.0843
     47 OG          5.5510   -3.8590  -14.3730 O.3       1 SER        -0.3903
     48 N           6.9540   -6.9740  -15.6530 N.am      1 ILE        -0.2634
     49 CA          8.1950   -7.0810  -16.4070 C.3       1 ILE         0.1337
     50 C           8.0100   -6.4390  -17.7860 C.2       1 ILE         0.2067
     51 O           7.1610   -6.8650  -18.5670 O.2       1 ILE        -0.3942
     52 CB          8.7610   -8.5410  -16.4260 C.3       1 ILE        -0.0037
     53 CG1        10.2520   -8.5350  -16.7740 C.3       1 ILE        -0.0491
     54 CG2         7.9120   -9.4780  -17.2990 C.3       1 ILE        -0.0582
     55 CD1        11.1090   -9.3210  -15.7980 C.3       1 ILE        -0.0648
     56 N           8.7520   -5.3490  -18.0570 N.am      1 PRO        -0.2498
     57 CA          9.6870   -4.6700  -17.1500 C.3       1 PRO         0.1340
     58 C           8.9690   -4.0100  -15.9720 C.2       1 PRO         0.2066
     59 O           7.7850   -3.6760  -16.0650 O.2       1 PRO        -0.3942
     60 CB         10.3390   -3.6130  -18.0470 C.3       1 PRO        -0.0104
     61 CG          9.3210   -3.3390  -19.0960 C.3       1 PRO        -0.0281
     62 CD          8.6170   -4.6410  -19.3410 C.3       1 PRO         0.0369
     63 N           9.6710   -3.8660  -14.8430 N.am      1 PRO        -0.2498
     64 CA          9.0510   -3.3130  -13.6380 C.3       1 PRO         0.1338
     65 C           8.9080   -1.8020  -13.7200 C.2       1 PRO         0.2041
     66 O           9.5190   -1.1620  -14.5780 O.2       1 PRO        -0.3944
     67 CB         10.0480   -3.6880  -12.5390 C.3       1 PRO        -0.0104
     68 CG         11.3660   -3.7090  -13.2420 C.3       1 PRO        -0.0281
     69 CD         11.0750   -4.2510  -14.6180 C.3       1 PRO         0.0369
     70 N           8.1000   -1.2430  -12.8260 N.am      1 ILE        -0.2635
     71 CA          7.9480    0.1990  -12.7310 C.3       1 ILE         0.1335
     72 C           8.5730    0.6160  -11.4080 C.2       1 ILE         0.2042
     73 O           8.0390    0.3120  -10.3390 O.2       1 ILE        -0.3944
     74 CB          6.4670    0.6120  -12.7800 C.3       1 ILE        -0.0037
     75 CG1         5.7730   -0.0350  -13.9840 C.3       1 ILE        -0.0491
     76 CG2         6.3370    2.1270  -12.8120 C.3       1 ILE        -0.0582
     77 CD1         4.2590    0.0270  -13.9260 C.3       1 ILE        -0.0648
     78 N           9.7170    1.2890  -11.4830 N.am      1 CYS        -0.2629
     79 CA         10.4910    1.6030  -10.2890 C.3       1 CYS         0.1406
     80 C          10.4830    3.0880   -9.9660 C.2       1 CYS         0.2049
     81 O          10.3340    3.9390  -10.8470 O.2       1 CYS        -0.3943
     82 CB         11.9260    1.0810  -10.4210 C.3       1 CYS         0.0443
     83 SG         12.0480   -0.7240  -10.5940 S.3       1 CYS        -0.0882
     84 N          10.6550    3.3890   -8.6860 N.am      1 PHE        -0.2619
     85 CA         10.5570    4.7550   -8.1970 C.3       1 PHE         0.1406
     86 C          11.8010    5.1070   -7.3790 C.2       1 PHE         0.2085
     87 O          12.4730    4.2090   -6.8650 O.2       1 PHE        -0.3940
     88 CB          9.2730    4.8980   -7.3750 C.3       1 PHE         0.0214
     89 CG          8.0260    4.5710   -8.1490 C.ar      1 PHE        -0.0386
     90 CD1         7.5570    3.2700   -8.2140 C.ar      1 PHE        -0.0601
     91 CD2         7.3310    5.5660   -8.8220 C.ar      1 PHE        -0.0601
     92 CE1         6.4140    2.9630   -8.9330 C.ar      1 PHE        -0.0686
     93 CE2         6.1860    5.2670   -9.5420 C.ar      1 PHE        -0.0686
     94 CZ          5.7250    3.9640   -9.5950 C.ar      1 PHE        -0.0687
     95 N          12.1180    6.4120   -7.2640 N.am      1 PRO        -0.2497
     96 CA         13.3290    6.9020   -6.5890 C.3       1 PRO         0.1338
     97 C          13.5620    6.3180   -5.1940 C.2       1 PRO         0.2042
     98 O          14.7070    6.2830   -4.7370 O.2       1 PRO        -0.3944
     99 CB         13.0750    8.4080   -6.4790 C.3       1 PRO        -0.0104
    100 CG         12.2170    8.7200   -7.6420 C.3       1 PRO        -0.0281
    101 CD         11.3310    7.5200   -7.8370 C.3       1 PRO         0.0369
    102 N          12.5000    5.8720   -4.5290 N.am      1 ASP        -0.2622
    103 CA         12.6240    5.3160   -3.1810 C.3       1 ASP         0.1423
    104 C          13.0160    3.8400   -3.1830 C.2       1 ASP         0.2054
    105 O          13.2180    3.2410   -2.1260 O.2       1 ASP        -0.3943
    106 CB         11.3310    5.5190   -2.3810 C.3       1 ASP         0.0406
    107 CG         10.1010    4.9890   -3.1010 C.2       1 ASP         0.0393
    108 OD1        10.2500    4.1900   -4.0510 O.co2     1 ASP        -0.5688
    109 OD2         8.9780    5.3710   -2.7090 O.co2     1 ASP        -0.5688
    110 H1         13.2792    3.7218   -5.2387 H         1 GLY         0.1881
    111 H2         14.2877    1.7095   -3.3300 H         1 GLY         0.0763
    112 H3         14.4029    1.6249   -5.1207 H         1 GLY         0.0763
    113 H4         11.2513    2.3888   -4.5228 H         1 PHE         0.1885
    114 H5         10.3727   -0.4054   -4.0547 H         1 PHE         0.0823
    115 H6          8.0746    0.5725   -4.1654 H         1 PHE         0.0474
    116 H7          8.8046    2.1858   -4.4674 H         1 PHE         0.0474
    117 H8         10.8133    0.2821   -2.2162 H         1 PHE         0.0557
    118 H9          7.2656    2.6453   -2.4118 H         1 PHE         0.0557
    119 H10        10.9534    0.6887    0.2080 H         1 PHE         0.0599
    120 H11         7.3972    3.0444    0.0150 H         1 PHE         0.0599
    121 H12         9.2415    2.0711    1.3288 H         1 PHE         0.0559
    122 H13         9.5871   -1.6955   -5.6755 H         1 CYS         0.1884
    123 H14         9.1594   -0.4393   -8.3526 H         1 CYS         0.0808
    124 H15        10.0170   -2.5921   -9.3480 H         1 CYS         0.0432
    125 H16        10.5721   -3.0648   -7.7063 H         1 CYS         0.0432
    126 H17         7.1982   -0.8403   -9.0872 H         1 GLN         0.1883
    127 H18         5.4731   -2.9756   -8.1750 H         1 GLN         0.0801
    128 H19         4.1433   -2.3594  -10.2294 H         1 GLN         0.0337
    129 H20         5.4277   -1.1697  -10.6316 H         1 GLN         0.0337
    130 H21         5.0297   -0.0982   -8.3874 H         1 GLN         0.0504
    131 H22         3.6281   -1.2008   -8.1715 H         1 GLN         0.0504
    132 H23         1.5444    1.1818   -9.6128 H         1 GLN         0.1814
    133 H24         1.8886    0.1071   -8.2987 H         1 GLN         0.1814
    134 H25         5.2271   -5.0286   -9.0271 H         1 ARG         0.1883
    135 H26         7.7437   -5.8204  -10.3125 H         1 ARG         0.0800
    136 H27         7.0613   -8.1384   -9.4106 H         1 ARG         0.0313
    137 H28         5.7863   -7.2475   -8.5120 H         1 ARG         0.0313
    138 H29         7.6144   -5.7172   -7.6552 H         1 ARG         0.0301
    139 H30         8.8006   -6.8596   -8.3725 H         1 ARG         0.0301
    140 H31         7.7892   -8.6667   -6.9400 H         1 ARG         0.0689
    141 H32         6.8259   -7.3885   -6.1247 H         1 ARG         0.0689
    142 H33         9.5460   -6.5325   -6.2145 H         1 ARG         0.2642
    143 H34         8.6423   -9.1475   -3.2494 H         1 ARG         0.2615
    144 H35         7.5707   -9.0351   -4.6714 H         1 ARG         0.2615
    145 H36        10.8892   -6.6773   -4.4291 H         1 ARG         0.2615
    146 H37        10.5096   -7.8189   -3.1118 H         1 ARG         0.2615
    147 H38         5.7507   -4.8612  -12.1176 H         1 SER         0.1884
    148 H39         5.0134   -7.1274  -13.7780 H         1 SER         0.0823
    149 H40         3.8665   -5.0083  -14.0893 H         1 SER         0.0606
    150 H41         4.8184   -5.3653  -15.5702 H         1 SER         0.0606
    151 H42         6.4268   -3.9331  -14.7334 H         1 SER         0.2097
    152 H43         6.0897   -7.2569  -16.0689 H         1 ILE         0.1883
    153 H44         8.9452   -6.4744  -15.8786 H         1 ILE         0.0803
    154 H45         8.6831   -8.9267  -15.3988 H         1 ILE         0.0345
    155 H46        10.6026   -7.4924  -16.7825 H         1 ILE         0.0267
    156 H47        10.3767   -8.9720  -17.7757 H         1 ILE         0.0267
    157 H48         6.8600   -9.4206  -16.9828 H         1 ILE         0.0235
    158 H49         8.2728  -10.5110  -17.1865 H         1 ILE         0.0235
    159 H50         7.9953   -9.1731  -18.3526 H         1 ILE         0.0235
    160 H51        12.1620   -9.2709  -16.1120 H         1 ILE         0.0230
    161 H52        10.7801  -10.3706  -15.7840 H         1 ILE         0.0230
    162 H53        11.0059   -8.8910  -14.7908 H         1 ILE         0.0230
    163 H54        10.4373   -5.3768  -16.7660 H         1 PRO         0.0802
    164 H55        11.2654   -4.0010  -18.4956 H         1 PRO         0.0313
    165 H56        10.5629   -2.7009  -17.4743 H         1 PRO         0.0313
    166 H57         9.8075   -2.9885  -20.0182 H         1 PRO         0.0287
    167 H58         8.6071   -2.5787  -18.7462 H         1 PRO         0.0287
    168 H59         7.5584   -4.4753  -19.5897 H         1 PRO         0.0524
    169 H60         9.1008   -5.2032  -20.1533 H         1 PRO         0.0524
    170 H61         8.0657   -3.7675  -13.4573 H         1 PRO         0.0802
    171 H62         9.8131   -4.6768  -12.1182 H         1 PRO         0.0313
    172 H63        10.0451   -2.9372  -11.7351 H         1 PRO         0.0313
    173 H64        12.0746   -4.3628  -12.7125 H         1 PRO         0.0287
    174 H65        11.7834   -2.6934  -13.3084 H         1 PRO         0.0287
    175 H66        11.7347   -3.7930  -15.3697 H         1 PRO         0.0524
    176 H67        11.1930   -5.3443  -14.6440 H         1 PRO         0.0524
    177 H68         7.5831   -1.8295  -12.2024 H         1 ILE         0.1883
    178 H69         8.4799    0.6824  -13.5637 H         1 ILE         0.0803
    179 H70         5.9764    0.2468  -11.8657 H         1 ILE         0.0345
    180 H71         6.0749   -1.0917  -14.0313 H         1 ILE         0.0267
    181 H72         6.1063    0.4828  -14.8955 H         1 ILE         0.0267
    182 H73         6.8448    2.5571  -11.9361 H         1 ILE         0.0235
    183 H74         5.2727    2.4042  -12.7915 H         1 ILE         0.0235
    184 H75         6.7995    2.5154  -13.7313 H         1 ILE         0.0235
    185 H76         3.8378   -0.4555  -14.8203 H         1 ILE         0.0230
    186 H77         3.9361    1.0779  -13.8899 H         1 ILE         0.0230
    187 H78         3.9048   -0.4965  -13.0258 H         1 ILE         0.0230
    188 H79        10.0531    1.5857  -12.3768 H         1 CYS         0.1884
    189 H80        10.0201    1.0798   -9.4437 H         1 CYS         0.0808
    190 H81        12.4861    1.3802   -9.5228 H         1 CYS         0.0432
    191 H82        12.3816    1.5443  -11.3086 H         1 CYS         0.0432
    192 H83        10.8581    2.6550   -8.0379 H         1 PHE         0.1885
    193 H84        10.5013    5.4396   -9.0562 H         1 PHE         0.0823
    194 H85         9.2004    5.9367   -7.0205 H         1 PHE         0.0474
    195 H86         9.3349    4.2193   -6.5116 H         1 PHE         0.0474
    196 H87         8.0911    2.4819   -7.6956 H         1 PHE         0.0557
    197 H88         7.6882    6.5887   -8.7838 H         1 PHE         0.0557
    198 H89         6.0594    1.9396   -8.9772 H         1 PHE         0.0599
    199 H90         5.6519    6.0532  -10.0633 H         1 PHE         0.0599
    200 H91         4.8265    3.7276  -10.1535 H         1 PHE         0.0559
    201 H92        14.2137    6.6958   -7.2093 H         1 PRO         0.0802
    202 H93        14.0206    8.9675   -6.5313 H         1 PRO         0.0313
    203 H94        12.5583    8.6483   -5.5381 H         1 PRO         0.0313
    204 H95        12.8333    8.8896   -8.5372 H         1 PRO         0.0287
    205 H96        11.6098    9.6147   -7.4400 H         1 PRO         0.0287
    206 H97        10.3785    7.6437   -7.3009 H         1 PRO         0.0524
    207 H98        11.1311    7.3487   -8.9050 H         1 PRO         0.0524
    208 H99        11.5983    5.9175   -4.9590 H         1 ASP         0.1884
    209 H100       13.4259    5.8699   -2.6710 H         1 ASP         0.0819
    210 H101       11.1953    6.5955   -2.2002 H         1 ASP         0.0478
    211 H102       11.4275    4.9949   -1.4187 H         1 ASP         0.0478
@<TRIPOS>BOND
     1    1    2 1  
     2    1  104 am 
     3    2    3 1  
     4    3    4 2  
     5    3    5 am 
     6    5    6 1  
     7    6    7 1  
     8    6    9 1  
     9    7    8 2  
    10    7   16 am 
    11    9   10 1  
    12   10   11 ar 
    13   10   12 ar 
    14   11   13 ar 
    15   12   14 ar 
    16   13   15 ar 
    17   14   15 ar 
    18   16   17 1  
    19   17   18 1  
    20   17   20 1  
    21   18   19 2  
    22   18   22 am 
    23   20   21 1  
    24   21   83 1  
    25   22   23 1  
    26   23   24 1  
    27   23   26 1  
    28   24   25 2  
    29   24   31 am 
    30   26   27 1  
    31   27   28 1  
    32   28   29 2  
    33   28   30 am 
    34   31   32 1  
    35   32   33 1  
    36   32   35 1  
    37   33   34 2  
    38   33   42 am 
    39   35   36 1  
    40   36   37 1  
    41   37   38 1  
    42   38   39 ar 
    43   39   40 ar 
    44   39   41 ar 
    45   42   43 1  
    46   43   44 1  
    47   43   46 1  
    48   44   45 2  
    49   44   48 am 
    50   46   47 1  
    51   48   49 1  
    52   49   50 1  
    53   49   52 1  
    54   50   51 2  
    55   50   56 am 
    56   52   53 1  
    57   52   54 1  
    58   53   55 1  
    59   56   57 1  
    60   56   62 1  
    61   57   58 1  
    62   57   60 1  
    63   58   59 2  
    64   58   63 am 
    65   60   61 1  
    66   61   62 1  
    67   63   64 1  
    68   63   69 1  
    69   64   65 1  
    70   64   67 1  
    71   65   66 2  
    72   65   70 am 
    73   67   68 1  
    74   68   69 1  
    75   70   71 1  
    76   71   72 1  
    77   71   74 1  
    78   72   73 2  
    79   72   78 am 
    80   74   75 1  
    81   74   76 1  
    82   75   77 1  
    83   78   79 1  
    84   79   80 1  
    85   79   82 1  
    86   80   81 2  
    87   80   84 am 
    88   82   83 1  
    89   84   85 1  
    90   85   86 1  
    91   85   88 1  
    92   86   87 2  
    93   86   95 am 
    94   88   89 1  
    95   89   90 ar 
    96   89   91 ar 
    97   90   92 ar 
    98   91   93 ar 
    99   92   94 ar 
   100   93   94 ar 
   101   95   96 1  
   102   95  101 1  
   103   96   97 1  
   104   96   99 1  
   105   97   98 2  
   106   97  102 am 
   107   99  100 1  
   108  100  101 1  
   109  102  103 1  
   110  103  104 1  
   111  103  106 1  
   112  104  105 2  
   113  106  107 1  
   114  107  108 ar 
   115  107  109 ar 
   116    1  110 1  
   117    2  111 1  
   118    2  112 1  
   119    5  113 1  
   120    6  114 1  
   121    9  115 1  
   122    9  116 1  
   123   11  117 1  
   124   12  118 1  
   125   13  119 1  
   126   14  120 1  
   127   15  121 1  
   128   16  122 1  
   129   17  123 1  
   130   20  124 1  
   131   20  125 1  
   132   22  126 1  
   133   23  127 1  
   134   26  128 1  
   135   26  129 1  
   136   27  130 1  
   137   27  131 1  
   138   30  132 1  
   139   30  133 1  
   140   31  134 1  
   141   32  135 1  
   142   35  136 1  
   143   35  137 1  
   144   36  138 1  
   145   36  139 1  
   146   37  140 1  
   147   37  141 1  
   148   38  142 1  
   149   40  143 1  
   150   40  144 1  
   151   41  145 1  
   152   41  146 1  
   153   42  147 1  
   154   43  148 1  
   155   46  149 1  
   156   46  150 1  
   157   47  151 1  
   158   48  152 1  
   159   49  153 1  
   160   52  154 1  
   161   53  155 1  
   162   53  156 1  
   163   54  157 1  
   164   54  158 1  
   165   54  159 1  
   166   55  160 1  
   167   55  161 1  
   168   55  162 1  
   169   57  163 1  
   170   60  164 1  
   171   60  165 1  
   172   61  166 1  
   173   61  167 1  
   174   62  168 1  
   175   62  169 1  
   176   64  170 1  
   177   67  171 1  
   178   67  172 1  
   179   68  173 1  
   180   68  174 1  
   181   69  175 1  
   182   69  176 1  
   183   70  177 1  
   184   71  178 1  
   185   74  179 1  
   186   75  180 1  
   187   75  181 1  
   188   76  182 1  
   189   76  183 1  
   190   76  184 1  
   191   77  185 1  
   192   77  186 1  
   193   77  187 1  
   194   78  188 1  
   195   79  189 1  
   196   82  190 1  
   197   82  191 1  
   198   84  192 1  
   199   85  193 1  
   200   88  194 1  
   201   88  195 1  
   202   90  196 1  
   203   91  197 1  
   204   92  198 1  
   205   93  199 1  
   206   94  200 1  
   207   96  201 1  
   208   99  202 1  
   209   99  203 1  
   210  100  204 1  
   211  100  205 1  
   212  101  206 1  
   213  101  207 1  
   214  102  208 1  
   215  103  209 1  
   216  106  210 1  
   217  106  211 1  
@<TRIPOS>SUBSTRUCTURE
     1 GLY         1

