### 
### Created by X-TOOL on Mon Sep 10 21:13:05 2018
### 

@<TRIPOS>MOLECULE
2xnm_ligand
   65    69     1     0     0
SMALL
GAST_HUCK


@<TRIPOS>ATOM
      1 C01        26.5450   11.5320  -13.4870 C.3       1 WGZ        -0.0191
      2 C02        26.0530   10.9310  -14.7630 C.3       1 WGZ         0.1252
      3 O03        24.9040   10.1520  -14.5520 O.3       1 WGZ        -0.3067
      4 C04        24.5000    9.2340  -15.5350 C.2       1 WGZ         0.0892
      5 C05        25.3800    8.8950  -16.9260 C.2       1 WGZ        -0.0006
      6 C06        24.6110    7.8810  -17.7080 C.2       1 WGZ         0.1592
      7 N07        25.0500    7.4600  -18.9100 N.pl3     1 WGZ        -0.1794
      8 C08        24.8800    6.2150  -19.4770 C.2       1 WGZ         0.1223
      9 N09        25.4780    6.2810  -20.7620 N.2       1 WGZ        -0.3078
     10 C10        25.9710    7.5700  -20.9760 C.ar      1 WGZ         0.0298
     11 C11        26.6840    8.2170  -22.1010 C.ar      1 WGZ        -0.0652
     12 C12        27.0850    9.6380  -22.0060 C.ar      1 WGZ        -0.0438
     13 C13        26.7790   10.3720  -20.8370 C.ar      1 WGZ         0.0810
     14 O14        27.1390   11.7190  -20.6520 O.3       1 WGZ        -0.3202
     15 C15        27.6850   12.2950  -21.8080 C.3       1 WGZ         0.0763
     16 C16        29.2150   12.2820  -22.0070 C.3       1 WGZ        -0.0411
     17 C17        29.8960   13.6740  -22.0380 C.3       1 WGZ        -0.1107
     18 N18        29.0940   14.7140  -22.7120 N.4       1 WGZ         0.4009
     19 C19        29.7520   16.0070  -22.8220 C.3       1 WGZ        -0.1256
     20 C20        27.7350   14.7990  -22.1510 C.3       1 WGZ        -0.1107
     21 C21        26.9680   13.5120  -22.3860 C.3       1 WGZ        -0.0411
     22 C22        26.0770    9.7250  -19.7170 C.ar      1 WGZ        -0.0076
     23 C23        25.6840    8.3120  -19.8270 C.ar      1 WGZ         0.0981
     24 S24        23.1830    7.4880  -16.9390 S.3       1 WGZ        -0.0072
     25 C25        23.2190    8.3830  -15.5800 C.2       1 WGZ         0.1051
     26 C26        22.1830    8.3820  -14.5250 C.2       1 WGZ         0.1769
     27 N27        22.4150    9.1420  -13.3460 N.am      1 WGZ        -0.3081
     28 O28        21.2660    7.5970  -14.6150 O.2       1 WGZ        -0.4119
     29 C29        25.8590   11.9660  -15.8650 C.ar      1 WGZ         0.0240
     30 C30        24.5500   12.5590  -15.9980 C.ar      1 WGZ        -0.0264
     31 C31        24.2840   13.5770  -17.0300 C.ar      1 WGZ        -0.0405
     32 C32        25.3570   13.9900  -17.9080 C.ar      1 WGZ        -0.0392
     33 C33        26.6750   13.4060  -17.7770 C.ar      1 WGZ        -0.0379
     34 C34        26.9450   12.3850  -16.7550 C.ar      1 WGZ         0.0518
     35 C35        28.3350   11.8290  -16.6620 C.3       1 WGZ         0.3706
     36 F36        28.8040   11.9480  -15.4150 F         1 WGZ        -0.2263
     37 F37        29.1330   12.5140  -17.4830 F         1 WGZ        -0.2263
     38 F38        28.3440   10.5540  -17.0410 F         1 WGZ        -0.2263
     39 H          27.5049   12.0178  -13.6621 H         1 WGZ         0.0290
     40 H          25.8235   12.2676  -13.1314 H         1 WGZ         0.0290
     41 H          26.6643   10.7476  -12.7397 H         1 WGZ         0.0290
     42 H          26.8358   10.2621  -15.1206 H         1 WGZ         0.0890
     43 H          26.3371    9.3348  -17.2063 H         1 WGZ         0.0329
     44 H          24.3857    5.3533  -19.0284 H         1 WGZ         0.1344
     45 H          26.9137    7.6456  -23.0004 H         1 WGZ         0.0545
     46 H          27.6127   10.1157  -22.8315 H         1 WGZ         0.0478
     47 H          27.4024   11.4879  -22.4839 H         1 WGZ         0.0647
     48 H          29.3975   11.8256  -22.9799 H         1 WGZ         0.0274
     49 H          29.6345   11.7503  -21.1529 H         1 WGZ         0.0274
     50 H          30.8266   13.5685  -22.5957 H         1 WGZ         0.0018
     51 H          30.0365   13.9905  -21.0045 H         1 WGZ         0.0018
     52 H          29.9838   16.3813  -21.8249 H         1 WGZ        -0.0019
     53 H          30.6737   15.8968  -23.3934 H         1 WGZ        -0.0019
     54 H          29.0898   16.7082  -23.3299 H         1 WGZ        -0.0019
     55 H          27.2052   15.6160  -22.6408 H         1 WGZ         0.0018
     56 H          27.8102   14.9699  -21.0771 H         1 WGZ         0.0018
     57 H          26.0006   13.6003  -21.8916 H         1 WGZ         0.0274
     58 H          26.8720   13.3678  -23.4621 H         1 WGZ         0.0274
     59 H          25.8499   10.2890  -18.8123 H         1 WGZ         0.0470
     60 H          21.7985    9.0347  -12.5405 H         1 WGZ         0.1785
     61 H          23.1979    9.7945  -13.3057 H         1 WGZ         0.1785
     62 H          23.7484   12.2502  -15.3271 H         1 WGZ         0.0637
     63 H          23.2903   14.0136  -17.1305 H         1 WGZ         0.0834
     64 H          25.1720   14.7449  -18.6722 H         1 WGZ         0.0648
     65 H          27.4757   13.7269  -18.4434 H         1 WGZ         0.0820
@<TRIPOS>BOND
     1    1    2 1  
     2    2    3 1  
     3    2   29 1  
     4    3    4 1  
     5    4    5 1  
     6    4   25 2  
     7    5    6 2  
     8    6    7 1  
     9    6   24 1  
    10    7    8 1  
    11    7   23 1  
    12    8    9 2  
    13    9   10 1  
    14   10   11 ar 
    15   10   23 ar 
    16   11   12 ar 
    17   12   13 ar 
    18   13   14 1  
    19   13   22 ar 
    20   14   15 1  
    21   15   16 1  
    22   15   21 1  
    23   16   17 1  
    24   17   18 1  
    25   18   19 1  
    26   18   20 1  
    27   20   21 1  
    28   22   23 ar 
    29   24   25 1  
    30   25   26 1  
    31   26   27 am 
    32   26   28 2  
    33   29   30 ar 
    34   29   34 ar 
    35   30   31 ar 
    36   31   32 ar 
    37   32   33 ar 
    38   33   34 ar 
    39   34   35 1  
    40   35   36 1  
    41   35   37 1  
    42   35   38 1  
    43    1   39 1  
    44    1   40 1  
    45    1   41 1  
    46    2   42 1  
    47    5   43 1  
    48    8   44 1  
    49   11   45 1  
    50   12   46 1  
    51   15   47 1  
    52   16   48 1  
    53   16   49 1  
    54   17   50 1  
    55   17   51 1  
    56   19   52 1  
    57   19   53 1  
    58   19   54 1  
    59   20   55 1  
    60   20   56 1  
    61   21   57 1  
    62   21   58 1  
    63   22   59 1  
    64   27   60 1  
    65   27   61 1  
    66   30   62 1  
    67   31   63 1  
    68   32   64 1  
    69   33   65 1  
@<TRIPOS>SUBSTRUCTURE
     1 WGZ         1

