4o74_ligand
  -I-interpret- 

 78 82  0  0  0  0  0  0  0  0999 V2000
    1.3150   -5.9510  -19.6770 N   0  0  0  0  0
    1.7580  -10.1010  -20.1630 N   0  0  0  0  0
    2.1580   -6.5940  -18.8540 C   0  0  0  0  0
    2.2520  -10.8550  -19.0730 C   0  0  0  0  0
    3.2620  -10.0790  -18.1800 C   0  0  0  0  0
   -0.8250   -6.2880  -22.6650 C   0  0  0  0  0
    0.9980  -10.6400  -21.3430 C   0  0  0  0  0
    0.3300  -10.3320  -17.4100 C   0  0  0  0  0
    0.4780  -12.4030  -22.7840 C   0  0  0  0  0
   -0.4850  -10.7820  -21.2760 C   0  0  0  0  0
   -2.2880   -5.4520  -24.3750 C   0  0  0  0  0
   -0.7820   -7.5240  -23.2410 C   0  0  0  0  0
   -3.0760   -6.8870  -26.2400 C   0  0  0  0  0
   -3.6670   -8.3310  -28.2210 C   0  0  0  0  0
   -3.4740   -9.1030  -30.4580 C   0  0  0  0  0
   -5.5520   -9.3430  -29.3770 C   0  0  0  0  0
   -3.8090   -5.9930  -26.6380 O   0  0  0  0  0
   -2.9340   -8.1210  -26.9480 N   0  0  0  0  0
   -4.8700   -9.1130  -28.0430 C   0  0  0  0  0
   -4.6590   -9.9210  -30.2980 N   0  3  0  0  0
   -5.1880  -10.1490  -31.3910 C   0  0  0  0  0
   -2.7670   -8.9010  -29.1520 C   0  0  0  0  0
   -2.2720   -6.7050  -24.9640 C   0  0  0  0  0
   -1.5770   -5.2620  -23.2250 C   0  0  0  0  0
   -1.5410   -4.0230  -22.5490 O   0  0  0  0  0
   -2.3420   -2.9740  -23.1480 C   0  0  0  0  0
   -1.5150   -7.7360  -24.4120 C   0  0  0  0  0
   -0.1540   -5.8740  -21.4810 N   0  0  0  0  0
    0.6630   -6.6220  -20.6720 C   0  0  0  0  0
    0.8150   -7.9750  -20.8420 N   0  0  0  0  0
    1.6050   -8.6480  -20.0030 C   0  0  0  0  0
   -0.7920  -11.5660  -22.5330 C   0  0  0  0  0
    1.4800  -12.0070  -21.6950 C   0  0  0  0  0
    1.1290  -11.4030  -18.1450 C   0  0  0  0  0
    4.0480  -10.7220  -17.4960 O   0  0  0  0  0
    3.2550   -8.7150  -18.1780 N   0  0  0  0  0
    4.2210   -7.9870  -17.3720 C   0  0  0  0  0
    2.3260   -7.9880  -18.9950 C   0  0  0  0  0
    2.7056   -6.0466  -18.0868 H   0  0  0  0  0
    2.7658  -11.6837  -19.5602 H   0  0  0  0  0
    1.1992   -9.8473  -22.0636 H   0  0  0  0  0
    1.0014   -9.7470  -16.7814 H   0  0  0  0  0
   -0.1521   -9.6777  -18.1363 H   0  0  0  0  0
   -0.4283  -10.8085  -16.7888 H   0  0  0  0  0
    0.8835  -12.2099  -23.7772 H   0  0  0  0  0
    0.2576  -13.4697  -22.7432 H   0  0  0  0  0
   -1.0054   -9.8254  -21.2299 H   0  0  0  0  0
   -0.8274  -11.2776  -20.3676 H   0  0  0  0  0
   -2.8560   -4.6349  -24.8198 H   0  0  0  0  0
   -0.1908   -8.3261  -22.7990 H   0  0  0  0  0
   -4.0222   -7.3750  -28.6058 H   0  0  0  0  0
   -3.7759   -8.1286  -30.8420 H   0  0  0  0  0
   -2.7948   -9.6089  -31.1442 H   0  0  0  0  0
   -5.8919   -8.3845  -29.7693 H   0  0  0  0  0
   -6.3943  -10.0191  -29.2306 H   0  0  0  0  0
   -2.3301   -8.8555  -26.5788 H   0  0  0  0  0
   -5.5505   -8.5732  -27.3845 H   0  0  0  0  0
   -4.6060  -10.0770  -27.6080 H   0  0  0  0  0
   -4.3800  -10.8221  -29.9100 H   0  0  0  0  0
   -5.4725   -9.2067  -31.8592 H   0  0  0  0  0
   -4.4815  -10.6760  -32.0322 H   0  0  0  0  0
   -6.0751  -10.7647  -31.2425 H   0  0  0  0  0
   -2.4098   -9.8599  -28.7765 H   0  0  0  0  0
   -1.9166   -8.2343  -29.2950 H   0  0  0  0  0
   -1.9923   -2.7864  -24.1632 H   0  0  0  0  0
   -3.3861   -3.2858  -23.1738 H   0  0  0  0  0
   -2.2478   -2.0637  -22.5559 H   0  0  0  0  0
   -1.4942   -8.7126  -24.8956 H   0  0  0  0  0
   -0.2977   -4.9041  -21.1997 H   0  0  0  0  0
   -1.6778  -12.1909  -22.4192 H   0  0  0  0  0
   -1.0253  -10.9142  -23.3749 H   0  0  0  0  0
    1.5059  -12.6952  -20.8501 H   0  0  0  0  0
    2.5193  -12.0360  -22.0223 H   0  0  0  0  0
    1.6158  -12.0134  -17.3844 H   0  0  0  0  0
    0.4268  -11.9419  -18.7811 H   0  0  0  0  0
    4.8515   -7.3807  -18.0224 H   0  0  0  0  0
    3.6934   -7.3410  -16.6702 H   0  0  0  0  0
    4.8399   -8.6952  -16.8211 H   0  0  0  0  0
  1  3  4  0  0  0
 29  1  4  0  0  0
  2  4  1  0  0  0
  2  7  1  0  0  0
 31  2  1  0  0  0
  3 38  4  0  0  0
  4  5  1  0  0  0
  4 34  1  0  0  0
  5 35  2  0  0  0
  5 36  1  0  0  0
  6 12  4  0  0  0
  6 24  4  0  0  0
 28  6  1  0  0  0
  7 10  1  0  0  0
  7 33  1  0  0  0
 34  8  1  0  0  0
  9 32  1  0  0  0
 33  9  1  0  0  0
 10 32  1  0  0  0
 11 23  4  0  0  0
 24 11  4  0  0  0
 12 27  4  0  0  0
 13 17  2  0  0  0
 13 18  1  0  0  0
 23 13  1  0  0  0
 18 14  1  0  0  0
 14 19  1  0  0  0
 14 22  1  0  0  0
 15 20  1  0  0  0
 22 15  1  0  0  0
 19 16  1  0  0  0
 16 20  1  0  0  0
 20 21  1  0  0  0
 27 23  4  0  0  0
 24 25  1  0  0  0
 25 26  1  0  0  0
 29 28  1  0  0  0
 30 29  4  0  0  0
 30 31  4  0  0  0
 31 38  4  0  0  0
 36 37  1  0  0  0
 36 38  1  0  0  0
  3 39  1  0  0  0
  4 40  1  0  0  0
  7 41  1  0  0  0
  8 42  1  0  0  0
  8 43  1  0  0  0
  8 44  1  0  0  0
  9 45  1  0  0  0
  9 46  1  0  0  0
 10 47  1  0  0  0
 10 48  1  0  0  0
 11 49  1  0  0  0
 12 50  1  0  0  0
 14 51  1  0  0  0
 15 52  1  0  0  0
 15 53  1  0  0  0
 16 54  1  0  0  0
 16 55  1  0  0  0
 18 56  1  0  0  0
 19 57  1  0  0  0
 19 58  1  0  0  0
 20 59  1  0  0  0
 21 60  1  0  0  0
 21 61  1  0  0  0
 21 62  1  0  0  0
 22 63  1  0  0  0
 22 64  1  0  0  0
 26 65  1  0  0  0
 26 66  1  0  0  0
 26 67  1  0  0  0
 27 68  1  0  0  0
 28 69  1  0  0  0
 32 70  1  0  0  0
 32 71  1  0  0  0
 33 72  1  0  0  0
 33 73  1  0  0  0
 34 74  1  0  0  0
 34 75  1  0  0  0
 37 76  1  0  0  0
 37 77  1  0  0  0
 37 78  1  0  0  0
M  END
$$$$
