5flp_ligand
  -I-interpret- 

 20 21  0  0  0  0  0  0  0  0999 V2000
   -6.0250    5.6420   13.9750 Cl  0  0  0  0  0
   -4.2930    5.8190   13.7720 C   0  0  0  0  0
   -3.7300    6.9080   13.1360 C   0  0  0  0  0
   -2.3640    6.9990   12.9930 C   0  0  0  0  0
   -1.5700    6.0030   13.5020 C   0  0  0  0  0
   -2.1220    4.9160   14.1440 C   0  0  0  0  0
   -3.4850    4.8280   14.2680 C   0  0  0  0  0
   -4.2030    3.8050   14.8720 O   0  0  0  0  0
   -3.4400    2.7310   15.3940 C   0  0  0  0  0
   -4.3920    1.7680   16.0600 C   0  0  0  0  0
   -4.8290    1.7660   17.3270 N   0  0  0  0  0
   -5.7010    0.7160   17.4860 N   0  0  0  0  0
   -5.7300    0.1050   16.2820 N   0  0  0  0  0
   -4.9230    0.7550   15.3740 N   0  0  0  0  0
   -4.3703    7.6990   12.7455 H   0  0  0  0  0
   -1.9186    7.8523   12.4814 H   0  0  0  0  0
   -0.4873    6.0724   13.3971 H   0  0  0  0  0
   -1.4812    4.1331   14.5497 H   0  0  0  0  0
   -2.7107    3.1008   16.1148 H   0  0  0  0  0
   -2.8948    2.2307   14.5937 H   0  0  0  0  0
  1  2  1  0  0  0
  2  3  4  0  0  0
  2  7  4  0  0  0
  3  4  4  0  0  0
  4  5  4  0  0  0
  5  6  4  0  0  0
  6  7  4  0  0  0
  7  8  1  0  0  0
  8  9  1  0  0  0
  9 10  1  0  0  0
 10 11  4  0  0  0
 10 14  4  0  0  0
 11 12  4  0  0  0
 12 13  4  0  0  0
 13 14  4  0  0  0
  3 15  1  0  0  0
  4 16  1  0  0  0
  5 17  1  0  0  0
  6 18  1  0  0  0
  9 19  1  0  0  0
  9 20  1  0  0  0
M  END
$$$$
