5nwb_ligand
  -I-interpret- 

 39 41  0  0  0  0  0  0  0  0999 V2000
    4.5780   39.0530    4.9360 O   0  0  0  0  0
    5.0540   37.7510    5.1180 C   0  0  0  0  0
    6.4210   37.9880    5.6350 C   0  0  0  0  0
    6.1810   38.9260    6.7390 N   0  0  0  0  0
    5.9340   40.3470    6.4570 C   0  0  0  0  0
    6.2800   38.5410    8.0220 C   0  0  0  0  0
    5.8030   37.3020    8.4260 C   0  0  0  0  0
    5.9110   36.8930    9.7570 C   0  0  0  0  0
    6.8800   39.3620    8.9640 C   0  0  0  0  0
    6.9880   38.9570   10.2950 C   0  0  0  0  0
    6.5330   37.7040   10.6990 C   0  0  0  0  0
    6.5890   37.3320   12.0470 C   0  0  0  0  0
    5.7670   36.3820   12.4990 N   0  0  0  0  0
    5.7560   36.0320   13.7940 C   0  0  0  0  0
    4.8900   35.0200   14.1900 C   0  0  0  0  0
    4.8360   34.6460   15.5210 C   0  0  0  0  0
    5.6380   35.2890   16.4580 C   0  0  0  0  0
    6.5040   36.3060   16.0640 C   0  0  0  0  0
    6.5540   36.6880   14.7310 C   0  0  0  0  0
    7.4230   37.6920   14.2960 C   0  0  0  0  0
    8.1790   38.3040   15.0560 O   0  0  0  0  0
    7.4060   38.0180   12.9500 N   0  0  0  0  0
    3.6807   39.0199    4.5965 H   0  0  0  0  0
    5.0365   37.1551    4.2055 H   0  0  0  0  0
    4.4362   37.1574    5.7918 H   0  0  0  0  0
    7.1025   38.3801    4.8801 H   0  0  0  0  0
    6.9240   37.0741    5.9510 H   0  0  0  0  0
    4.9921   40.6486    6.9152 H   0  0  0  0  0
    6.7475   40.9445    6.8685 H   0  0  0  0  0
    5.8799   40.4981    5.3789 H   0  0  0  0  0
    5.3383   36.6398    7.6955 H   0  0  0  0  0
    5.5036   35.9285   10.0600 H   0  0  0  0  0
    7.2713   40.3335    8.6621 H   0  0  0  0  0
    7.4340   39.6296   11.0277 H   0  0  0  0  0
    4.2562   34.5231   13.4555 H   0  0  0  0  0
    4.1646   33.8470   15.8355 H   0  0  0  0  0
    5.5884   34.9953   17.5065 H   0  0  0  0  0
    7.1395   36.7996   16.7993 H   0  0  0  0  0
    8.0015   38.7736   12.6110 H   0  0  0  0  0
  1  2  1  0  0  0
  2  3  1  0  0  0
  3  4  1  0  0  0
  4  5  1  0  0  0
  4  6  1  0  0  0
  6  7  4  0  0  0
  6  9  4  0  0  0
  7  8  4  0  0  0
  8 11  4  0  0  0
  9 10  4  0  0  0
 10 11  4  0  0  0
 11 12  1  0  0  0
 12 13  2  0  0  0
 12 22  1  0  0  0
 13 14  1  0  0  0
 14 15  4  0  0  0
 14 19  4  0  0  0
 15 16  4  0  0  0
 16 17  4  0  0  0
 17 18  4  0  0  0
 18 19  4  0  0  0
 19 20  1  0  0  0
 20 21  2  0  0  0
 20 22  1  0  0  0
  1 23  1  0  0  0
  2 24  1  0  0  0
  2 25  1  0  0  0
  3 26  1  0  0  0
  3 27  1  0  0  0
  5 28  1  0  0  0
  5 29  1  0  0  0
  5 30  1  0  0  0
  7 31  1  0  0  0
  8 32  1  0  0  0
  9 33  1  0  0  0
 10 34  1  0  0  0
 15 35  1  0  0  0
 16 36  1  0  0  0
 17 37  1  0  0  0
 18 38  1  0  0  0
 22 39  1  0  0  0
M  END
$$$$
