5yy6_ligand
  -I-interpret- 

 55 58  0  0  0  0  0  0  0  0999 V2000
  -25.3080   -0.1320   22.0650 C   0  0  0  0  0
  -26.2020    1.2580   23.7740 C   0  0  0  0  0
  -27.6380   -0.2600   22.6150 C   0  0  0  0  0
  -28.8680   -0.8000   22.4250 C   0  0  0  0  0
  -31.2240   -0.9420   22.9650 C   0  0  0  0  0
  -29.7040    0.5780   24.0960 C   0  0  0  0  0
  -31.9920   -0.5750   21.8650 C   0  0  0  0  0
  -33.7740   -2.0000   22.6110 C   0  0  0  0  0
  -31.7450   -1.8380   23.8890 C   0  0  0  0  0
  -22.6820   -3.7240   22.8770 C   0  0  0  0  0
  -21.2060   -3.5770   22.5600 C   0  0  0  0  0
  -21.0310   -3.1640   21.1070 C   0  0  0  0  0
  -21.9240   -1.9660   20.7770 C   0  0  0  0  0
  -23.1260   -1.6380   21.6730 C   0  0  0  0  0
  -23.3520   -2.3610   22.7620 C   0  0  0  0  0
  -23.7080   -1.7200   23.9550 O   0  0  0  0  0
  -21.6750   -1.2970   19.8270 O   0  0  0  0  0
  -24.1160   -0.5670   21.2210 C   0  0  0  0  0
  -23.9660   -0.0210   20.1780 O   0  0  0  0  0
  -25.1270    0.8410   23.0190 C   0  0  0  0  0
  -27.4580    0.6990   23.5670 C   0  0  0  0  0
  -26.5570   -0.6850   21.8510 C   0  0  0  0  0
  -29.8930   -0.3830   23.1560 N   0  0  0  0  0
  -29.0360   -1.6370   21.6000 O   0  0  0  0  0
  -30.6190    0.9460   24.7560 O   0  0  0  0  0
  -28.4790    1.1080   24.2950 N   0  0  0  0  0
  -33.2610   -1.1060   21.6910 C   0  0  0  0  0
  -33.0140   -2.3560   23.7070 C   0  0  0  0  0
  -31.4670    0.4070   20.8230 C   0  0  0  0  0
  -30.9370   -2.2620   25.1150 C   0  0  0  0  0
  -28.2930    2.1330   25.3080 C   0  0  0  0  0
  -26.0673    2.0272   24.5345 H   0  0  0  0  0
  -34.7701   -2.4205   22.4726 H   0  0  0  0  0
  -22.8039   -4.1093   23.8893 H   0  0  0  0  0
  -23.1413   -4.4198   22.1748 H   0  0  0  0  0
  -20.7044   -4.5302   22.7271 H   0  0  0  0  0
  -20.7723   -2.8142   23.2066 H   0  0  0  0  0
  -21.3102   -4.0001   20.4658 H   0  0  0  0  0
  -19.9903   -2.8852   20.9417 H   0  0  0  0  0
  -22.6939   -0.9402   22.3903 H   0  0  0  0  0
  -24.3548   -2.6649   22.4619 H   0  0  0  0  0
  -24.1186   -0.8760   23.7533 H   0  0  0  0  0
  -24.1415    1.2791   23.1770 H   0  0  0  0  0
  -26.6935   -1.4504   21.0871 H   0  0  0  0  0
  -33.8563   -0.8169   20.8249 H   0  0  0  0  0
  -33.4197   -3.0547   24.4387 H   0  0  0  0  0
  -31.2452    1.3601   21.3031 H   0  0  0  0  0
  -30.5593    0.0058   20.3723 H   0  0  0  0  0
  -32.2227    0.5545   20.0514 H   0  0  0  0  0
  -30.0118   -2.7390   24.7916 H   0  0  0  0  0
  -30.7034   -1.3833   25.7162 H   0  0  0  0  0
  -31.5216   -2.9650   25.7085 H   0  0  0  0  0
  -27.5688    1.7863   26.0452 H   0  0  0  0  0
  -27.9259    3.0450   24.8372 H   0  0  0  0  0
  -29.2452    2.3339   25.7989 H   0  0  0  0  0
 18  1  1  0  0  0
  1 20  4  0  0  0
  1 22  4  0  0  0
 20  2  4  0  0  0
  2 21  4  0  0  0
  3  4  1  0  0  0
  3 21  4  0  0  0
 22  3  4  0  0  0
  4 23  1  0  0  0
  4 24  2  0  0  0
  5  7  4  0  0  0
  5  9  4  0  0  0
 23  5  1  0  0  0
 23  6  1  0  0  0
  6 25  2  0  0  0
  6 26  1  0  0  0
  7 27  4  0  0  0
  7 29  1  0  0  0
 27  8  4  0  0  0
 28  8  4  0  0  0
  9 28  4  0  0  0
  9 30  1  0  0  0
 10 11  1  0  0  0
 15 10  1  0  0  0
 12 11  1  0  0  0
 13 12  1  0  0  0
 14 13  1  0  0  0
 13 17  2  0  0  0
 14 15  1  0  0  0
 14 18  1  0  0  0
 15 16  1  0  0  0
 18 19  2  0  0  0
 21 26  1  0  0  0
 26 31  1  0  0  0
  2 32  1  0  0  0
  8 33  1  0  0  0
 10 34  1  0  0  0
 10 35  1  0  0  0
 11 36  1  0  0  0
 11 37  1  0  0  0
 12 38  1  0  0  0
 12 39  1  0  0  0
 14 40  1  0  0  0
 15 41  1  0  0  0
 16 42  1  0  0  0
 20 43  1  0  0  0
 22 44  1  0  0  0
 27 45  1  0  0  0
 28 46  1  0  0  0
 29 47  1  0  0  0
 29 48  1  0  0  0
 29 49  1  0  0  0
 30 50  1  0  0  0
 30 51  1  0  0  0
 30 52  1  0  0  0
 31 53  1  0  0  0
 31 54  1  0  0  0
 31 55  1  0  0  0
M  END
$$$$
