4ui4_ligand
  -I-interpret- 

 48 51  0  0  0  0  0  0  0  0999 V2000
  -58.1500  -37.0430   26.4690 C   0  0  0  0  0
  -57.6840  -35.8110   26.9390 C   0  0  0  0  0
  -56.4180  -35.7050   27.5150 C   0  0  0  0  0
  -55.6180  -36.8380   27.6290 C   0  0  0  0  0
  -56.0830  -38.0680   27.1610 C   0  0  0  0  0
  -57.3460  -38.1870   26.5650 C   0  0  0  0  0
  -57.7780  -39.4440   26.1120 C   0  0  0  0  0
  -57.2680  -39.6740   24.7500 O   0  0  0  0  0
  -56.5610  -40.8410   24.4550 C   0  0  0  0  0
  -56.3360  -41.7230   25.2920 O   0  0  0  0  0
  -56.0950  -41.0030   23.2140 N   0  0  0  0  0
  -55.3430  -42.1930   22.7230 C   0  0  0  0  0
  -55.5300  -42.1900   21.3230 C   0  0  0  0  0
  -56.5990  -42.8950   20.7730 C   0  0  0  0  0
  -56.8290  -42.8900   19.3990 C   0  0  0  0  0
  -54.7090  -41.4390   20.4630 C   0  0  0  0  0
  -54.9460  -41.4280   19.0900 C   0  0  0  0  0
  -56.0180  -42.1550   18.5300 C   0  0  0  0  0
  -56.3070  -42.1900   17.1430 C   0  0  0  0  0
  -57.2500  -43.0580   16.7190 N   0  0  0  0  0
  -57.5800  -43.1470   15.4120 C   0  0  0  0  0
  -58.5560  -44.0950   15.0340 C   0  0  0  0  0
  -58.9110  -44.2310   13.6900 C   0  0  0  0  0
  -58.2850  -43.4110   12.7390 C   0  0  0  0  0
  -57.3090  -42.4670   13.1060 C   0  0  0  0  0
  -56.9590  -42.3300   14.4340 C   0  0  0  0  0
  -56.0000  -41.4310   14.8250 C   0  0  0  0  0
  -55.4510  -40.7120   14.0170 O   0  0  0  0  0
  -55.6650  -41.3550   16.1780 N   0  0  0  0  0
  -59.1433  -37.1139   26.0259 H   0  0  0  0  0
  -58.3152  -34.9264   26.8545 H   0  0  0  0  0
  -56.0576  -34.7408   27.8735 H   0  0  0  0  0
  -54.6298  -36.7650   28.0831 H   0  0  0  0  0
  -55.4527  -38.9517   27.2608 H   0  0  0  0  0
  -58.8676  -39.4731   26.1027 H   0  0  0  0  0
  -57.4013  -40.2204   26.7779 H   0  0  0  0  0
  -56.2678  -40.2507   22.5472 H   0  0  0  0  0
  -55.7045  -43.1155   23.1773 H   0  0  0  0  0
  -54.2874  -42.1428   22.9901 H   0  0  0  0  0
  -57.2645  -43.4583   21.4271 H   0  0  0  0  0
  -57.6577  -43.4707   18.9938 H   0  0  0  0  0
  -53.8810  -40.8611   20.8736 H   0  0  0  0  0
  -54.2927  -40.8484   18.4378 H   0  0  0  0  0
  -59.0316  -44.7197   15.7900 H   0  0  0  0  0
  -59.6609  -44.9611   13.3854 H   0  0  0  0  0
  -58.5620  -43.5080   11.6893 H   0  0  0  0  0
  -56.8321  -41.8476   12.3464 H   0  0  0  0  0
  -54.9510  -40.6932   16.4822 H   0  0  0  0  0
  1  2  4  0  0  0
  1  6  4  0  0  0
  2  3  4  0  0  0
  3  4  4  0  0  0
  4  5  4  0  0  0
  5  6  4  0  0  0
  6  7  1  0  0  0
  7  8  1  0  0  0
  8  9  1  0  0  0
  9 10  2  0  0  0
  9 11  1  0  0  0
 11 12  1  0  0  0
 12 13  1  0  0  0
 13 14  4  0  0  0
 13 16  4  0  0  0
 14 15  4  0  0  0
 15 18  4  0  0  0
 16 17  4  0  0  0
 17 18  4  0  0  0
 18 19  1  0  0  0
 19 20  2  0  0  0
 19 29  1  0  0  0
 20 21  1  0  0  0
 21 22  4  0  0  0
 21 26  4  0  0  0
 22 23  4  0  0  0
 23 24  4  0  0  0
 24 25  4  0  0  0
 25 26  4  0  0  0
 26 27  1  0  0  0
 27 28  2  0  0  0
 27 29  1  0  0  0
  1 30  1  0  0  0
  2 31  1  0  0  0
  3 32  1  0  0  0
  4 33  1  0  0  0
  5 34  1  0  0  0
  7 35  1  0  0  0
  7 36  1  0  0  0
 11 37  1  0  0  0
 12 38  1  0  0  0
 12 39  1  0  0  0
 14 40  1  0  0  0
 15 41  1  0  0  0
 16 42  1  0  0  0
 17 43  1  0  0  0
 22 44  1  0  0  0
 23 45  1  0  0  0
 24 46  1  0  0  0
 25 47  1  0  0  0
 29 48  1  0  0  0
M  END
$$$$
