3adt_ligand
  -I-interpret- 

 22 23  0  0  0  0  0  0  0  0999 V2000
   18.4760   65.4180   20.1750 O   0  0  0  0  0
   19.1060   63.4780   19.3360 O   0  0  0  0  0
   15.1180   63.3750   14.9380 O   0  0  0  0  0
   17.1630   62.8490   13.7650 C   0  0  0  0  0
   18.5940   62.9080   13.6810 C   0  0  0  0  0
   20.7950   64.4580   16.0520 C   0  0  0  0  0
   17.2020   64.1070   15.9210 C   0  0  0  0  0
   19.3670   65.4810   17.9800 C   0  0  0  0  0
   20.6080   63.7780   14.9160 N   0  0  0  0  0
   18.9550   64.7190   19.2630 C   0  0  0  0  0
   16.4790   63.4450   14.8780 C   0  0  0  0  0
   19.6220   64.7200   16.6530 C   0  0  0  0  0
   19.3040   63.5730   14.7320 C   0  0  0  0  0
   18.6300   64.1720   15.8460 C   0  0  0  0  0
   19.4912   63.1550   18.5181 H   0  0  0  0  0
   14.8108   63.8152   15.7339 H   0  0  0  0  0
   16.5931   62.3500   12.9812 H   0  0  0  0  0
   19.1254   62.4597   12.8415 H   0  0  0  0  0
   21.7685   64.7594   16.4387 H   0  0  0  0  0
   16.6722   64.5557   16.7613 H   0  0  0  0  0
   20.3353   65.9159   18.2279 H   0  0  0  0  0
   18.5096   66.1175   17.7614 H   0  0  0  0  0
 10  1  2  0  0  0
 10  2  1  0  0  0
 11  3  1  0  0  0
  5  4  4  0  0  0
  4 11  4  0  0  0
 13  5  4  0  0  0
  9  6  4  0  0  0
  6 12  4  0  0  0
 11  7  4  0  0  0
  7 14  4  0  0  0
  8 10  1  0  0  0
 12  8  1  0  0  0
  9 13  4  0  0  0
 12 14  4  0  0  0
 13 14  4  0  0  0
  2 15  1  0  0  0
  3 16  1  0  0  0
  4 17  1  0  0  0
  5 18  1  0  0  0
  6 19  1  0  0  0
  7 20  1  0  0  0
  8 21  1  0  0  0
  8 22  1  0  0  0
M  END
$$$$
