6dvm_ligand
  -I-interpret- 

 62 64  0  0  0  0  0  0  0  0999 V2000
   23.6500   -7.9230    8.8410 C   0  0  0  0  0
   24.6060   -7.0790    9.6160 C   0  0  0  0  0
   24.4270   -5.6830    9.6330 C   0  0  0  0  0
   25.3210   -4.8330   10.2710 C   0  0  0  0  0
   26.4690   -5.3110   10.8970 C   0  0  0  0  0
   27.4670   -4.4220   11.5410 C   0  0  0  0  0
   31.4790   -0.3760   19.0090 C   0  0  0  0  0
   30.6450   -1.1190   17.9680 C   0  0  0  0  0
   30.3660   -2.4960   18.0490 C   0  0  0  0  0
   29.5850   -3.1480   17.0790 C   0  0  0  0  0
   29.0280   -2.4500   15.9830 C   0  0  0  0  0
   27.2380   -4.0890   15.1630 C   0  0  0  0  0
   26.7190   -4.7580   13.8750 C   0  0  0  0  0
   25.7590   -7.5630   10.2180 C   0  0  0  0  0
   26.6510   -6.7140   10.8570 C   0  0  0  0  0
   28.9570   -5.5840   13.2400 C   0  0  0  0  0
   30.1530   -5.7730   12.3750 C   0  0  0  0  0
   30.8910   -6.9270   12.5140 C   0  0  0  0  0
   32.0630   -7.1240   11.7960 C   0  0  0  0  0
   32.5580   -6.1430   10.8970 C   0  0  0  0  0
   34.5430   -7.5610   10.4490 C   0  0  0  0  0
   34.3200   -5.3120    9.3720 C   0  0  0  0  0
   31.8180   -4.9570   10.8070 C   0  0  0  0  0
   30.6600   -4.7670   11.5340 C   0  0  0  0  0
   29.3260   -1.0990   15.9060 C   0  0  0  0  0
   30.0990   -0.4550   16.8680 C   0  0  0  0  0
   28.2950   -3.1300   14.9900 N   0  0  0  0  0
   27.7800   -4.8790   12.8570 N   0  0  0  0  0
   23.6370   -9.3110    9.0160 N   0  0  0  0  0
   33.7370   -6.3500   10.2180 N   0  0  0  0  0
   26.8200   -4.3890   16.2190 O   0  0  0  0  0
   22.9840   -7.4440    7.9390 O   0  0  0  0  0
   22.8060  -10.0450    8.2470 O   0  0  0  0  0
   28.9990   -5.9550   14.3590 O   0  0  0  0  0
   23.5597   -5.2557    9.1297 H   0  0  0  0  0
   25.1183   -3.7621   10.2819 H   0  0  0  0  0
   27.0504   -3.4170   11.6081 H   0  0  0  0  0
   28.3779   -4.4250   10.9424 H   0  0  0  0  0
   30.9995   -0.4602   19.9843 H   0  0  0  0  0
   32.4761   -0.8141   19.0539 H   0  0  0  0  0
   31.5547    0.6748   18.7294 H   0  0  0  0  0
   30.7653   -3.0711   18.8844 H   0  0  0  0  0
   29.4043   -4.2187   17.1743 H   0  0  0  0  0
   25.9193   -4.1407   13.4657 H   0  0  0  0  0
   26.3678   -5.7590   14.1256 H   0  0  0  0  0
   25.9681   -8.6323   10.1882 H   0  0  0  0  0
   27.5249   -7.1437   11.3467 H   0  0  0  0  0
   30.5486   -7.7009   13.2010 H   0  0  0  0  0
   32.6163   -8.0541   11.9257 H   0  0  0  0  0
   34.8422   -7.6024   11.4963 H   0  0  0  0  0
   33.9505   -8.4425   10.2040 H   0  0  0  0  0
   35.4306   -7.5311    9.8171 H   0  0  0  0  0
   33.6172   -5.0534    8.5800 H   0  0  0  0  0
   34.5305   -4.4290    9.9754 H   0  0  0  0  0
   35.2459   -5.6817    8.9314 H   0  0  0  0  0
   32.1657   -4.1634   10.1456 H   0  0  0  0  0
   30.1285   -3.8187   11.4544 H   0  0  0  0  0
   28.9426   -0.5217   15.0647 H   0  0  0  0  0
   30.2859    0.6132   16.7577 H   0  0  0  0  0
   28.5465   -2.9143   14.0253 H   0  0  0  0  0
   24.2403   -9.7567    9.7072 H   0  0  0  0  0
   22.9004  -10.9735    8.4718 H   0  0  0  0  0
  2  1  1  0  0  0
  1 29  1  0  0  0
  1 32  2  0  0  0
  3  2  4  0  0  0
 14  2  4  0  0  0
  4  3  4  0  0  0
  5  4  4  0  0  0
  6  5  1  0  0  0
  5 15  4  0  0  0
 28  6  1  0  0  0
  8  7  1  0  0  0
  9  8  4  0  0  0
  8 26  4  0  0  0
 10  9  4  0  0  0
 11 10  4  0  0  0
 11 25  4  0  0  0
 27 11  1  0  0  0
 13 12  1  0  0  0
 12 27  1  0  0  0
 12 31  2  0  0  0
 28 13  1  0  0  0
 15 14  4  0  0  0
 16 17  1  0  0  0
 16 28  1  0  0  0
 16 34  2  0  0  0
 17 18  4  0  0  0
 17 24  4  0  0  0
 18 19  4  0  0  0
 19 20  4  0  0  0
 20 23  4  0  0  0
 20 30  1  0  0  0
 30 21  1  0  0  0
 30 22  1  0  0  0
 23 24  4  0  0  0
 25 26  4  0  0  0
 29 33  1  0  0  0
  3 35  1  0  0  0
  4 36  1  0  0  0
  6 37  1  0  0  0
  6 38  1  0  0  0
  7 39  1  0  0  0
  7 40  1  0  0  0
  7 41  1  0  0  0
  9 42  1  0  0  0
 10 43  1  0  0  0
 13 44  1  0  0  0
 13 45  1  0  0  0
 14 46  1  0  0  0
 15 47  1  0  0  0
 18 48  1  0  0  0
 19 49  1  0  0  0
 21 50  1  0  0  0
 21 51  1  0  0  0
 21 52  1  0  0  0
 22 53  1  0  0  0
 22 54  1  0  0  0
 22 55  1  0  0  0
 23 56  1  0  0  0
 24 57  1  0  0  0
 25 58  1  0  0  0
 26 59  1  0  0  0
 27 60  1  0  0  0
 29 61  1  0  0  0
 33 62  1  0  0  0
M  END
$$$$
