5t9z_ligand
  -I-interpret- 

 93 96  0  0  0  0  0  0  0  0999 V2000
   15.6530   -5.7010   14.8880 N   0  3  0  0  0
   14.9180   -5.5680   13.6760 N   0  0  0  0  0
   17.5830   -4.5940   13.8270 C   0  0  0  0  0
   15.2140   -4.3800   12.8950 C   0  0  0  0  0
   17.0950   -5.7900   14.6410 C   0  0  0  0  0
   16.7210   -4.4800   12.5420 C   0  0  0  0  0
   10.4400  -10.7280   16.1020 C   0  0  0  0  0
   10.2780  -11.5730   17.3790 C   0  0  0  0  0
    8.8210  -12.0370   17.4510 C   0  0  0  0  0
   10.7420  -10.8110   18.6340 C   0  0  0  0  0
   12.1770  -10.3000   18.3860 C   0  0  0  0  0
   13.0640  -10.7270   19.5230 C   0  0  0  0  0
   17.7340   -5.7590   16.0040 C   0  0  0  0  0
   19.1410   -6.8610   17.4700 C   0  0  0  0  0
   18.2520   -7.3150   18.6030 C   0  0  0  0  0
   17.1150   -8.0690   18.3570 C   0  0  0  0  0
   16.2840   -8.5470   19.3430 C   0  0  0  0  0
   16.5730   -8.1810   20.6500 C   0  0  0  0  0
   17.6960   -7.4020   20.9120 C   0  0  0  0  0
   18.5750   -6.9420   19.9290 C   0  0  0  0  0
   15.0970   -9.3350   18.9300 C   0  0  0  0  0
   14.2490   -9.8540   19.8140 C   0  0  0  0  0
    9.8540   -9.0330   20.1140 C   0  0  0  0  0
   10.9160  -11.1960   15.0800 O   0  0  0  0  0
   17.6350   -4.9350   16.8500 O   0  0  0  0  0
    9.8440   -9.7050   18.8640 O   0  0  0  0  0
   18.5080   -6.8440   16.1620 O   0  0  0  0  0
   10.0780   -9.3770   16.2180 N   0  0  0  0  0
   10.2560   -8.5170   15.0340 C   0  0  0  0  0
   11.6520   -7.8390   15.1110 C   0  0  0  0  0
   11.8980   -7.0350   16.0260 O   0  0  0  0  0
    9.1200   -7.5080   14.8820 C   0  0  0  0  0
    9.3480   -6.6460   13.6290 C   0  0  0  0  0
    7.7380   -8.1670   14.7910 C   0  0  0  0  0
   12.5260   -8.2620   14.1770 N   0  0  0  0  0
   13.8780   -7.7630   14.2160 C   0  0  0  0  0
   14.8470   -8.8110   13.6410 C   0  0  0  0  0
   15.1340   -9.9870   14.5760 C   0  0  0  0  0
   14.1530  -10.9730   14.8370 C   0  0  0  0  0
   14.4680  -12.0580   15.6680 C   0  0  0  0  0
   16.3980  -10.1000   15.1690 C   0  0  0  0  0
   16.6560  -11.1990   15.9970 C   0  0  0  0  0
   15.6910  -12.1590   16.2930 C   0  0  0  0  0
   17.8880  -11.3200   16.5890 O   0  0  0  0  0
   14.0190   -6.5240   13.3240 C   0  0  0  0  0
   13.3910   -6.3970   12.2610 O   0  0  0  0  0
   15.3533   -6.5579   15.3531 H   0  0  0  0  0
   15.4758   -4.8775   15.4632 H   0  0  0  0  0
   18.6304   -4.7320   13.5586 H   0  0  0  0  0
   17.4896   -3.6823   14.4170 H   0  0  0  0  0
   14.9945   -3.4702   13.4537 H   0  0  0  0  0
   14.5966   -4.3279   11.9982 H   0  0  0  0  0
   17.3445   -6.6897   14.0785 H   0  0  0  0  0
   16.8804   -5.3694   11.9324 H   0  0  0  0  0
   17.0151   -3.5807   12.0008 H   0  0  0  0  0
   10.9239  -12.4502   17.3402 H   0  0  0  0  0
    8.1653  -11.1670   17.4866 H   0  0  0  0  0
    8.5871  -12.6339   16.5695 H   0  0  0  0  0
    8.6767  -12.6393   18.3480 H   0  0  0  0  0
   10.7353  -11.4583   19.5109 H   0  0  0  0  0
   12.1692   -9.2120   18.3198 H   0  0  0  0  0
   12.5555  -10.7176   17.4530 H   0  0  0  0  0
   13.4681  -11.6993   19.2411 H   0  0  0  0  0
   12.4419  -10.6984   20.4176 H   0  0  0  0  0
   19.9648   -7.5724   17.4118 H   0  0  0  0  0
   19.4337   -5.8346   17.6914 H   0  0  0  0  0
   16.8649   -8.2964   17.3208 H   0  0  0  0  0
   15.9249   -8.5014   21.4657 H   0  0  0  0  0
   17.9023   -7.1344   21.9483 H   0  0  0  0  0
   19.4499   -6.3371   20.1671 H   0  0  0  0  0
   14.9136   -9.4940   17.8674 H   0  0  0  0  0
   14.4351   -9.6199   20.8622 H   0  0  0  0  0
    9.6118   -9.7403   20.9072 H   0  0  0  0  0
   10.8437   -8.6118   20.2907 H   0  0  0  0  0
    9.1142   -8.2326   20.1007 H   0  0  0  0  0
    9.7049   -9.0034   17.0907 H   0  0  0  0  0
   10.2157   -9.1308   14.1341 H   0  0  0  0  0
    9.1303   -6.8926   15.7816 H   0  0  0  0  0
   10.2933   -6.1117   13.7242 H   0  0  0  0  0
    9.3791   -7.2880   12.7486 H   0  0  0  0  0
    8.5327   -5.9295   13.5292 H   0  0  0  0  0
    7.7093   -8.8301   13.9264 H   0  0  0  0  0
    7.5506   -8.7420   15.6979 H   0  0  0  0  0
    6.9754   -7.3956   14.6843 H   0  0  0  0  0
   12.2366   -8.9228   13.4559 H   0  0  0  0  0
   14.1068   -7.5311   15.2562 H   0  0  0  0  0
   15.7960   -8.3052   13.4628 H   0  0  0  0  0
   14.3799   -9.2211   12.7456 H   0  0  0  0  0
   13.1599  -10.8898   14.3954 H   0  0  0  0  0
   13.7260  -12.8412   15.8231 H   0  0  0  0  0
   17.1655   -9.3472   14.9893 H   0  0  0  0  0
   15.8974  -12.9649   16.9973 H   0  0  0  0  0
   17.9089  -12.1186   17.1214 H   0  0  0  0  0
  1  2  1  0  0  0
  5  1  1  0  0  0
  2  4  1  0  0  0
  2 45  1  0  0  0
  5  3  1  0  0  0
  3  6  1  0  0  0
  6  4  1  0  0  0
 13  5  1  0  0  0
  8  7  1  0  0  0
  7 24  2  0  0  0
  7 28  1  0  0  0
  8  9  1  0  0  0
 10  8  1  0  0  0
 11 10  1  0  0  0
 10 26  1  0  0  0
 12 11  1  0  0  0
 22 12  1  0  0  0
 13 25  2  0  0  0
 27 13  1  0  0  0
 15 14  1  0  0  0
 14 27  1  0  0  0
 16 15  4  0  0  0
 15 20  4  0  0  0
 17 16  4  0  0  0
 17 18  4  0  0  0
 21 17  1  0  0  0
 18 19  4  0  0  0
 19 20  4  0  0  0
 21 22  2  0  0  0
 26 23  1  0  0  0
 28 29  1  0  0  0
 29 30  1  0  0  0
 29 32  1  0  0  0
 30 31  2  0  0  0
 30 35  1  0  0  0
 32 33  1  0  0  0
 32 34  1  0  0  0
 35 36  1  0  0  0
 36 37  1  0  0  0
 36 45  1  0  0  0
 37 38  1  0  0  0
 38 39  4  0  0  0
 38 41  4  0  0  0
 39 40  4  0  0  0
 40 43  4  0  0  0
 41 42  4  0  0  0
 42 43  4  0  0  0
 42 44  1  0  0  0
 45 46  2  0  0  0
  1 47  1  0  0  0
  1 48  1  0  0  0
  3 49  1  0  0  0
  3 50  1  0  0  0
  4 51  1  0  0  0
  4 52  1  0  0  0
  5 53  1  0  0  0
  6 54  1  0  0  0
  6 55  1  0  0  0
  8 56  1  0  0  0
  9 57  1  0  0  0
  9 58  1  0  0  0
  9 59  1  0  0  0
 10 60  1  0  0  0
 11 61  1  0  0  0
 11 62  1  0  0  0
 12 63  1  0  0  0
 12 64  1  0  0  0
 14 65  1  0  0  0
 14 66  1  0  0  0
 16 67  1  0  0  0
 18 68  1  0  0  0
 19 69  1  0  0  0
 20 70  1  0  0  0
 21 71  1  0  0  0
 22 72  1  0  0  0
 23 73  1  0  0  0
 23 74  1  0  0  0
 23 75  1  0  0  0
 28 76  1  0  0  0
 29 77  1  0  0  0
 32 78  1  0  0  0
 33 79  1  0  0  0
 33 80  1  0  0  0
 33 81  1  0  0  0
 34 82  1  0  0  0
 34 83  1  0  0  0
 34 84  1  0  0  0
 35 85  1  0  0  0
 36 86  1  0  0  0
 37 87  1  0  0  0
 37 88  1  0  0  0
 39 89  1  0  0  0
 40 90  1  0  0  0
 41 91  1  0  0  0
 43 92  1  0  0  0
 44 93  1  0  0  0
M  END
$$$$
