3nw3_ligand
  -I-interpret- 

 66 66  0  0  0  0  0  0  0  0999 V2000
  -17.6450  -21.2200  -19.3950 C   0  0  0  0  0
  -17.5960  -20.3540  -18.2740 O   0  0  0  0  0
  -16.2940  -21.9300  -19.6460 C   0  0  0  0  0
  -15.4390  -21.6520  -18.4850 N   0  0  0  0  0
  -15.5920  -22.1650  -17.2490 C   0  0  0  0  0
  -16.4920  -22.9500  -16.9250 O   0  0  0  0  0
  -14.5620  -21.6940  -16.2570 C   0  0  0  0  0
  -15.4850  -21.3220  -20.8070 C   0  0  0  0  0
  -14.3330  -22.1430  -21.0880 O   0  0  0  0  0
  -16.3700  -20.9400  -22.0060 C   0  0  0  0  0
  -15.5870  -20.2620  -23.0090 O   0  0  0  0  0
  -17.4300  -19.9720  -21.4600 C   0  0  0  0  0
  -18.2880  -20.7160  -20.5830 O   0  0  0  0  0
  -18.2560  -19.3060  -22.5630 C   0  0  0  0  0
  -17.4990  -18.2110  -23.1200 O   0  0  0  0  0
  -14.1470  -22.6440  -22.4190 C   0  0  0  0  0
  -14.0540  -24.1640  -22.3950 C   0  0  0  0  0
  -12.9140  -22.0640  -23.0670 C   0  0  0  0  0
  -12.0600  -21.4990  -22.4030 O   0  0  0  0  0
  -12.8900  -22.2390  -24.3910 N   0  0  0  0  0
  -11.9550  -21.8500  -25.4550 C   0  0  0  0  0
  -12.6190  -20.6800  -26.1820 C   0  0  0  0  0
  -10.5020  -21.5120  -25.2000 C   0  0  0  0  0
  -10.0990  -21.1130  -24.1180 O   0  0  0  0  0
   -9.7360  -21.6730  -26.2920 N   0  0  0  0  0
   -8.3000  -21.4320  -26.4810 C   0  0  0  0  0
   -8.0880  -21.9720  -27.8980 C   0  0  0  0  0
   -6.8510  -21.4320  -28.6130 C   0  0  0  0  0
   -6.0070  -22.5910  -29.0970 C   0  0  0  0  0
   -6.4060  -23.2040  -30.2110 N   0  0  0  0  0
   -5.0090  -22.9270  -28.4790 O   0  0  0  0  0
   -7.3820  -22.1210  -25.5010 C   0  0  0  0  0
   -7.9040  -22.8020  -24.5810 O   0  0  0  0  0
   -6.1290  -22.0170  -25.6590 O   0  0  0  0  0
  -18.3550  -21.9906  -19.0948 H   0  0  0  0  0
  -17.1478  -20.7958  -17.5491 H   0  0  0  0  0
  -16.5286  -22.9756  -19.8456 H   0  0  0  0  0
  -14.6578  -21.0119  -18.6276 H   0  0  0  0  0
  -15.0594  -21.1767  -15.4366 H   0  0  0  0  0
  -14.0147  -22.5527  -15.8681 H   0  0  0  0  0
  -13.8688  -21.0129  -16.7506 H   0  0  0  0  0
  -15.0776  -20.3558  -20.5095 H   0  0  0  0  0
  -16.8145  -21.8247  -22.4620 H   0  0  0  0  0
  -16.1508  -20.0297  -23.7505 H   0  0  0  0  0
  -16.9231  -19.1635  -20.9332 H   0  0  0  0  0
  -19.1916  -18.9322  -22.1469 H   0  0  0  0  0
  -18.4805  -20.0326  -23.3439 H   0  0  0  0  0
  -18.0119  -17.7887  -23.8130 H   0  0  0  0  0
  -15.0096  -22.3394  -23.0116 H   0  0  0  0  0
  -13.2087  -24.4653  -21.7763 H   0  0  0  0  0
  -14.9741  -24.5765  -21.9811 H   0  0  0  0  0
  -13.9129  -24.5342  -23.4105 H   0  0  0  0  0
  -13.6975  -22.7557  -24.7394 H   0  0  0  0  0
  -11.8118  -22.7860  -25.9949 H   0  0  0  0  0
  -13.5750  -21.0046  -26.5928 H   0  0  0  0  0
  -12.7827  -19.8630  -25.4792 H   0  0  0  0  0
  -11.9709  -20.3413  -26.9903 H   0  0  0  0  0
  -10.2280  -22.0156  -27.1172 H   0  0  0  0  0
   -8.0507  -20.3829  -26.3221 H   0  0  0  0  0
   -8.9524  -21.6636  -28.4860 H   0  0  0  0  0
   -7.9554  -23.0502  -27.8085 H   0  0  0  0  0
   -6.2693  -20.8200  -27.9237 H   0  0  0  0  0
   -7.1579  -20.8238  -29.4639 H   0  0  0  0  0
   -5.8703  -23.9892  -30.5809 H   0  0  0  0  0
   -7.2471  -22.8880  -30.6937 H   0  0  0  0  0
   -5.9486  -21.4542  -26.4155 H   0  0  0  0  0
  1  2  1  0  0  0
  1  3  1  0  0  0
  1 13  1  0  0  0
  3  4  1  0  0  0
  3  8  1  0  0  0
  4  5  1  0  0  0
  5  6  2  0  0  0
  5  7  1  0  0  0
  8  9  1  0  0  0
  8 10  1  0  0  0
  9 16  1  0  0  0
 10 11  1  0  0  0
 10 12  1  0  0  0
 12 13  1  0  0  0
 12 14  1  0  0  0
 14 15  1  0  0  0
 16 17  1  0  0  0
 16 18  1  0  0  0
 18 19  2  0  0  0
 18 20  1  0  0  0
 20 21  1  0  0  0
 21 22  1  0  0  0
 21 23  1  0  0  0
 23 24  2  0  0  0
 23 25  1  0  0  0
 25 26  1  0  0  0
 26 27  1  0  0  0
 26 32  1  0  0  0
 27 28  1  0  0  0
 28 29  1  0  0  0
 29 30  1  0  0  0
 29 31  2  0  0  0
 32 33  2  0  0  0
 32 34  1  0  0  0
  1 35  1  0  0  0
  2 36  1  0  0  0
  3 37  1  0  0  0
  4 38  1  0  0  0
  7 39  1  0  0  0
  7 40  1  0  0  0
  7 41  1  0  0  0
  8 42  1  0  0  0
 10 43  1  0  0  0
 11 44  1  0  0  0
 12 45  1  0  0  0
 14 46  1  0  0  0
 14 47  1  0  0  0
 15 48  1  0  0  0
 16 49  1  0  0  0
 17 50  1  0  0  0
 17 51  1  0  0  0
 17 52  1  0  0  0
 20 53  1  0  0  0
 21 54  1  0  0  0
 22 55  1  0  0  0
 22 56  1  0  0  0
 22 57  1  0  0  0
 25 58  1  0  0  0
 26 59  1  0  0  0
 27 60  1  0  0  0
 27 61  1  0  0  0
 28 62  1  0  0  0
 28 63  1  0  0  0
 30 64  1  0  0  0
 30 65  1  0  0  0
 34 66  1  0  0  0
M  END
$$$$
