3n2c_ligand
  -I-interpret- 

 24 24  0  0  0  0  0  0  0  0999 V2000
   52.8460  -58.2130   19.3220 C   0  0  0  0  0
   51.7290  -60.0610   18.1420 N   0  0  0  0  0
   53.4550  -57.8980   20.3650 O   0  0  0  0  0
   50.3750  -60.5230   19.0100 P   0  0  0  0  0
   49.1850  -61.0980   17.9240 C   0  0  0  0  0
   49.7720  -59.2080   19.7050 O   0  0  0  0  0
   50.7690  -61.6730   19.9000 O   0  0  0  0  0
   52.9570  -59.6200   18.8020 C   0  0  0  0  0
   54.0100  -59.6960   17.7020 C   0  0  0  0  0
   51.7950  -60.0610   16.6800 C   0  0  0  0  0
   53.2860  -59.9530   16.3870 C   0  0  0  0  0
   52.1380  -57.3960   18.7000 O   0  0  0  0  0
   53.9410  -58.6584   20.6924 H   0  0  0  0  0
   49.5992  -61.9141   17.3320 H   0  0  0  0  0
   48.3237  -61.4569   18.4875 H   0  0  0  0  0
   48.8765  -60.2881   17.2630 H   0  0  0  0  0
   49.5644  -58.5574   19.0303 H   0  0  0  0  0
   53.1914  -60.2340   19.6716 H   0  0  0  0  0
   54.7182  -60.4984   17.9088 H   0  0  0  0  0
   54.5728  -58.7640   17.6499 H   0  0  0  0  0
   51.2237  -59.2449   16.2376 H   0  0  0  0  0
   51.3486  -60.9543   16.2432 H   0  0  0  0  0
   53.6473  -60.8761   15.9337 H   0  0  0  0  0
   53.4734  -59.1366   15.6895 H   0  0  0  0  0
  1  3  1  0  0  0
  8  1  1  0  0  0
  1 12  2  0  0  0
  2  4  1  0  0  0
  2  8  1  0  0  0
  2 10  1  0  0  0
  4  5  1  0  0  0
  4  6  1  0  0  0
  4  7  2  0  0  0
  8  9  1  0  0  0
  9 11  1  0  0  0
 10 11  1  0  0  0
  3 13  1  0  0  0
  5 14  1  0  0  0
  5 15  1  0  0  0
  5 16  1  0  0  0
  6 17  1  0  0  0
  8 18  1  0  0  0
  9 19  1  0  0  0
  9 20  1  0  0  0
 10 21  1  0  0  0
 10 22  1  0  0  0
 11 23  1  0  0  0
 11 24  1  0  0  0
M  END
$$$$
