### 
### Created by X-TOOL on Mon Sep 10 21:13:04 2018
### 

@<TRIPOS>MOLECULE
3n2c_ligand
   22    22     1     0     0
SMALL
GAST_HUCK


@<TRIPOS>ATOM
      1 C          52.8460  -58.2130   19.3220 C.2       1 LWY         0.0565
      2 N          51.7290  -60.0610   18.1420 N.am      1 LWY        -0.2678
      3 OXT        53.4550  -57.8980   20.3650 O.co2     1 LWY        -0.5670
      4 P          50.3750  -60.5230   19.0100 P.3       1 LWY         0.0627
      5 C1         49.1850  -61.0980   17.9240 C.3       1 LWY         0.0176
      6 O1         49.7720  -59.2080   19.7050 O.co2     1 LWY        -0.6070
      7 O2         50.7690  -61.6730   19.9000 O.co2     1 LWY        -0.6070
      8 CA         52.9570  -59.6200   18.8020 C.3       1 LWY         0.0892
      9 CB         54.0100  -59.6960   17.7020 C.3       1 LWY        -0.0198
     10 CD         51.7950  -60.0610   16.6800 C.3       1 LWY         0.0282
     11 CG         53.2860  -59.9530   16.3870 C.3       1 LWY        -0.0326
     12 O          52.1380  -57.3960   18.7000 O.co2     1 LWY        -0.5670
     13 H          48.2750  -61.3339   18.4757 H         1 LWY         0.0443
     14 H          48.9719  -60.3299   17.1806 H         1 LWY         0.0443
     15 H          49.5525  -61.9953   17.4261 H         1 LWY         0.0443
     16 H          53.1914  -60.2340   19.6716 H         1 LWY         0.0682
     17 H          54.7182  -60.4984   17.9088 H         1 LWY         0.0302
     18 H          54.5728  -58.7640   17.6499 H         1 LWY         0.0302
     19 H          51.2237  -59.2449   16.2376 H         1 LWY         0.0479
     20 H          51.3486  -60.9543   16.2432 H         1 LWY         0.0479
     21 H          53.6473  -60.8761   15.9337 H         1 LWY         0.0282
     22 H          53.4734  -59.1366   15.6895 H         1 LWY         0.0282
@<TRIPOS>BOND
     1    1    3 ar 
     2    8    1 1  
     3    1   12 ar 
     4    2    4 am 
     5    2    8 1  
     6    2   10 1  
     7    4    5 1  
     8    4    6 ar 
     9    4    7 ar 
    10    8    9 1  
    11    9   11 1  
    12   10   11 1  
    13    5   13 1  
    14    5   14 1  
    15    5   15 1  
    16    8   16 1  
    17    9   17 1  
    18    9   18 1  
    19   10   19 1  
    20   10   20 1  
    21   11   21 1  
    22   11   22 1  
@<TRIPOS>SUBSTRUCTURE
     1 LWY         1

