2ow0_ligand
  -I-interpret- 

 49 52  0  0  0  0  0  0  0  0999 V2000
   25.3960   12.1360   44.6660 C   0  0  0  0  0
   25.7420   11.0670   43.8430 C   0  0  0  0  0
   24.9190   10.7320   42.7670 C   0  0  0  0  0
   23.7600   11.4580   42.5170 C   0  0  0  0  0
   23.4170   12.5290   43.3400 C   0  0  0  0  0
   24.2380   12.8680   44.4130 C   0  0  0  0  0
   24.1630   13.8260   45.3330 N   0  0  0  0  0
   25.2110   13.7350   46.1520 C   0  0  0  0  0
   25.9880   12.7200   45.7830 C   0  0  0  0  0
   27.2780   12.2810   46.4850 C   0  0  0  0  0
   27.0170   11.3040   47.6350 C   0  0  0  0  0
   26.5390    9.9630   47.0660 C   0  0  0  0  0
   25.3130    9.7220   47.1220 O   0  0  0  0  0
   27.4080    9.2080   46.5790 O   0  0  0  0  0
   25.9990   11.8710   48.5340 N   0  0  0  0  0
   26.2840   11.5120   50.1000 S   0  0  0  0  0
   25.4080   12.3860   50.9470 O   0  0  0  0  0
   27.7160   11.8070   50.4380 O   0  0  0  0  0
   25.9270    9.8290   50.4270 C   0  0  0  0  0
   26.8780    8.8510   50.1420 C   0  0  0  0  0
   26.6110    7.5060   50.3770 C   0  0  0  0  0
   24.7000    9.4380   50.9520 C   0  0  0  0  0
   24.4310    8.0910   51.1900 C   0  0  0  0  0
   25.3820    7.1160   50.9020 C   0  0  0  0  0
   25.1080    5.7680   51.1490 C   0  0  0  0  0
   26.0930    4.9190   51.6480 C   0  0  0  0  0
   25.7640    3.6310   52.0640 C   0  0  0  0  0
   24.4540    3.1690   51.9840 C   0  0  0  0  0
   23.9890    1.2540   52.6970 I   0  0  0  0  0
   23.4730    4.0110   51.4660 C   0  0  0  0  0
   23.8000    5.3000   51.0500 C   0  0  0  0  0
   26.6496   10.4958   44.0381 H   0  0  0  0  0
   25.1862    9.8970   42.1193 H   0  0  0  0  0
   23.1194   11.1894   41.6770 H   0  0  0  0  0
   22.5091   13.0997   43.1447 H   0  0  0  0  0
   25.4028   14.3944   46.9985 H   0  0  0  0  0
   27.7539   13.1694   46.9001 H   0  0  0  0  0
   27.9052   11.7758   45.7505 H   0  0  0  0  0
   27.9355   11.1402   48.1987 H   0  0  0  0  0
   24.8621   10.4585   47.5413 H   0  0  0  0  0
   25.2050   12.4257   48.2142 H   0  0  0  0  0
   27.8436    9.1436   49.7296 H   0  0  0  0  0
   27.3670    6.7546   50.1492 H   0  0  0  0  0
   23.9438   10.1895   51.1788 H   0  0  0  0  0
   23.4668    7.7984   51.6056 H   0  0  0  0  0
   27.1250    5.2637   51.7132 H   0  0  0  0  0
   26.5424    2.9770   52.4570 H   0  0  0  0  0
   22.4442    3.6599   51.3856 H   0  0  0  0  0
   23.0243    5.9486   50.6430 H   0  0  0  0  0
  1  2  4  0  0  0
  1  6  4  0  0  0
  1  9  4  0  0  0
  2  3  4  0  0  0
  3  4  4  0  0  0
  4  5  4  0  0  0
  5  6  4  0  0  0
  6  7  4  0  0  0
  7  8  4  0  0  0
  8  9  4  0  0  0
  9 10  1  0  0  0
 10 11  1  0  0  0
 11 12  1  0  0  0
 11 15  1  0  0  0
 12 13  1  0  0  0
 12 14  2  0  0  0
 15 16  1  0  0  0
 16 17  2  0  0  0
 16 18  2  0  0  0
 16 19  1  0  0  0
 19 20  4  0  0  0
 19 22  4  0  0  0
 20 21  4  0  0  0
 21 24  4  0  0  0
 22 23  4  0  0  0
 23 24  4  0  0  0
 24 25  1  0  0  0
 25 26  4  0  0  0
 25 31  4  0  0  0
 26 27  4  0  0  0
 27 28  4  0  0  0
 28 29  1  0  0  0
 28 30  4  0  0  0
 30 31  4  0  0  0
  2 32  1  0  0  0
  3 33  1  0  0  0
  4 34  1  0  0  0
  5 35  1  0  0  0
  8 36  1  0  0  0
 10 37  1  0  0  0
 10 38  1  0  0  0
 11 39  1  0  0  0
 13 40  1  0  0  0
 15 41  1  0  0  0
 20 42  1  0  0  0
 21 43  1  0  0  0
 22 44  1  0  0  0
 23 45  1  0  0  0
 26 46  1  0  0  0
 27 47  1  0  0  0
 30 48  1  0  0  0
 31 49  1  0  0  0
M  END
$$$$
