1vrt_ligand
  -I-interpret- 

 34 37  0  0  0  0  0  0  0  0999 V2000
    4.0540  -36.9310   22.2210 N   0  0  0  0  0
    4.9660  -36.2380   22.9390 C   0  0  0  0  0
    4.6240  -35.4500   24.0360 C   0  0  0  0  0
    3.3050  -35.3690   24.4150 C   0  0  0  0  0
    2.3460  -36.0770   23.6860 C   0  0  0  0  0
    0.9890  -36.0280   24.1030 N   0  0  0  0  0
   -0.1450  -36.0180   23.4080 C   0  0  0  0  0
   -0.1190  -36.0770   21.8860 C   0  0  0  0  0
   -1.1230  -35.3990   21.1890 C   0  0  0  0  0
   -1.2960  -35.6300   19.8690 C   0  0  0  0  0
   -0.4670  -36.5450   19.2400 C   0  0  0  0  0
    0.5220  -37.2120   19.8740 N   0  0  0  0  0
    0.7040  -36.9790   21.1800 C   0  0  0  0  0
    1.7670  -37.6730   21.8260 N   0  0  0  0  0
    2.7540  -36.8570   22.5840 C   0  0  0  0  0
    2.9040  -34.5090   25.6010 C   0  0  0  0  0
   -1.2400  -35.9060   23.9770 O   0  0  0  0  0
    2.3440  -38.7570   21.0360 C   0  0  0  0  0
    2.9380  -39.8900   21.8010 C   0  0  0  0  0
    1.6390  -40.0610   21.0880 C   0  0  0  0  0
    6.0144  -36.2983   22.6470 H   0  0  0  0  0
    5.3915  -34.9054   24.5860 H   0  0  0  0  0
    0.8617  -35.9946   25.1145 H   0  0  0  0  0
   -1.7640  -34.6866   21.7083 H   0  0  0  0  0
   -2.0721  -35.1071   19.3101 H   0  0  0  0  0
   -0.6209  -36.7366   18.1781 H   0  0  0  0  0
    3.4132  -34.8664   26.4960 H   0  0  0  0  0
    3.1866  -33.4738   25.4096 H   0  0  0  0  0
    1.8255  -34.5718   25.7455 H   0  0  0  0  0
    2.6897  -38.1000   20.2380 H   0  0  0  0  0
    3.3646  -40.0807   22.7858 H   0  0  0  0  0
    3.8950  -40.4029   21.8967 H   0  0  0  0  0
    1.1725  -40.7649   20.3988 H   0  0  0  0  0
    0.6382  -40.4403   21.2944 H   0  0  0  0  0
  1 15  4  0  0  0
  1  2  4  0  0  0
  2  3  4  0  0  0
  3  4  4  0  0  0
  4 16  1  0  0  0
  4  5  4  0  0  0
  5 15  4  0  0  0
  5  6  1  0  0  0
  6  7  1  0  0  0
  7 17  2  0  0  0
  7  8  1  0  0  0
  8 13  4  0  0  0
  8  9  4  0  0  0
  9 10  4  0  0  0
 10 11  4  0  0  0
 11 12  4  0  0  0
 12 13  4  0  0  0
 13 14  1  0  0  0
 14 18  1  0  0  0
 14 15  1  0  0  0
 18 20  1  0  0  0
 18 19  1  0  0  0
 19 20  1  0  0  0
  2 21  1  0  0  0
  3 22  1  0  0  0
  6 23  1  0  0  0
  9 24  1  0  0  0
 10 25  1  0  0  0
 11 26  1  0  0  0
 16 27  1  0  0  0
 16 28  1  0  0  0
 16 29  1  0  0  0
 18 30  1  0  0  0
 19 31  1  0  0  0
 19 32  1  0  0  0
 20 33  1  0  0  0
 20 34  1  0  0  0
M  END
$$$$
