2qfu_ligand
  -I-interpret- 

 19 18  0  0  0  0  0  0  0  0999 V2000
   60.2450    8.6740   26.9030 P   0  0  0  0  0
   60.3050   10.1080   27.2450 O   0  0  0  0  0
   59.1710    8.3000   25.9520 O   0  0  0  0  0
   61.6010    8.1780   26.4350 O   0  0  0  0  0
   60.9860    9.8310   31.6480 O   0  0  0  0  0
   60.2890    8.2830   33.0650 O   0  0  0  0  0
   59.8100    7.7950   28.3200 C   0  0  0  0  0
   59.9430    7.8690   30.8180 C   0  0  0  0  0
   60.4420    8.7150   31.9290 C   0  0  0  0  0
   60.2340    8.4810   29.5200 N   0  3  0  0  0
   59.2059    7.3549   25.7872 H   0  0  0  0  0
   61.5416    7.2448   26.2176 H   0  0  0  0  0
   60.9930    9.9515   30.6956 H   0  0  0  0  0
   60.3003    6.8221   28.2869 H   0  0  0  0  0
   58.7249    7.6948   28.3447 H   0  0  0  0  0
   58.8631    7.7607   30.9191 H   0  0  0  0  0
   60.4395    6.8999   30.8666 H   0  0  0  0  0
   59.7179    9.3608   29.5195 H   0  0  0  0  0
   61.2519    8.5115   29.4629 H   0  0  0  0  0
  1  2  2  0  0  0
  1  3  1  0  0  0
  1  4  1  0  0  0
  7  1  1  0  0  0
  9  5  1  0  0  0
  9  6  2  0  0  0
 10  7  1  0  0  0
  8  9  1  0  0  0
  8 10  1  0  0  0
  3 11  1  0  0  0
  4 12  1  0  0  0
  5 13  1  0  0  0
  7 14  1  0  0  0
  7 15  1  0  0  0
  8 16  1  0  0  0
  8 17  1  0  0  0
 10 18  1  0  0  0
 10 19  1  0  0  0
M  END
$$$$
