6oip_ligand
  -I-interpret- 

 40 42  0  0  0  0  0  0  0  0999 V2000
    2.8920    8.8510   21.1570 C   0  0  0  0  0
    1.8670    7.9760   21.5080 C   0  0  0  0  0
    1.2480    8.0720   22.7900 C   0  0  0  0  0
    1.6760    9.0200   23.6750 C   0  0  0  0  0
    1.0810    9.1230   24.9740 C   0  0  0  0  0
    0.0450    8.2570   25.3210 C   0  0  0  0  0
   -0.4050    7.2940   24.4070 C   0  0  0  0  0
    7.3420   14.3790   21.5490 C   0  0  0  0  0
    7.1290   14.0480   20.1110 C   0  0  0  0  0
    6.3770   12.9390   19.8020 C   0  0  0  0  0
    5.8580   12.2300   20.8030 F   0  0  0  0  0
    6.1700   12.5880   18.4730 C   0  0  0  0  0
    6.7190   13.3570   17.4600 C   0  0  0  0  0
    7.4780   14.4740   17.7750 C   0  0  0  0  0
    7.6970   14.8120   19.1050 C   0  0  0  0  0
    5.3230   11.4190   18.1050 C   0  0  0  0  0
    5.5650   10.7950   17.0860 O   0  0  0  0  0
    4.2150   11.0930   18.9580 N   0  0  0  0  0
    3.3580   10.0780   18.6930 N   0  0  0  0  0
    3.6580    8.7370   19.5730 S   0  0  0  0  0
    5.0620    8.5280   19.7830 O   0  0  0  0  0
    3.0850    7.6080   18.9200 O   0  0  0  0  0
    0.1870    7.1890   23.1470 C   0  0  0  0  0
    2.7330    9.9030   23.3080 C   0  0  0  0  0
    3.3330    9.8150   22.0520 C   0  0  0  0  0
    1.5365    7.2152   20.8009 H   0  0  0  0  0
    1.4346    9.8708   25.6838 H   0  0  0  0  0
   -0.4165    8.3289   26.3059 H   0  0  0  0  0
   -1.2203    6.6246   24.6812 H   0  0  0  0  0
    6.3779   14.5509   22.0276 H   0  0  0  0  0
    7.8501   13.5491   22.0401 H   0  0  0  0  0
    7.9532   15.2782   21.6269 H   0  0  0  0  0
    6.5547   13.0847   16.4174 H   0  0  0  0  0
    7.9026   15.0866   16.9797 H   0  0  0  0  0
    8.3135   15.6752   19.3556 H   0  0  0  0  0
    4.0668   11.6497   19.7998 H   0  0  0  0  0
    2.6015   10.1452   18.0121 H   0  0  0  0  0
   -0.1602    6.4358   22.4397 H   0  0  0  0  0
    3.0765   10.6560   24.0173 H   0  0  0  0  0
    4.1388   10.4955   21.7769 H   0  0  0  0  0
  1  2  4  0  0  0
 20  1  1  0  0  0
  1 25  4  0  0  0
  2  3  4  0  0  0
  3  4  4  0  0  0
  3 23  4  0  0  0
  4  5  4  0  0  0
  4 24  4  0  0  0
  5  6  4  0  0  0
  7  6  4  0  0  0
 23  7  4  0  0  0
  9  8  1  0  0  0
 10  9  4  0  0  0
  9 15  4  0  0  0
 10 11  1  0  0  0
 12 10  4  0  0  0
 12 13  4  0  0  0
 16 12  1  0  0  0
 13 14  4  0  0  0
 14 15  4  0  0  0
 16 17  2  0  0  0
 18 16  1  0  0  0
 19 18  1  0  0  0
 19 20  1  0  0  0
 20 21  2  0  0  0
 20 22  2  0  0  0
 24 25  4  0  0  0
  2 26  1  0  0  0
  5 27  1  0  0  0
  6 28  1  0  0  0
  7 29  1  0  0  0
  8 30  1  0  0  0
  8 31  1  0  0  0
  8 32  1  0  0  0
 13 33  1  0  0  0
 14 34  1  0  0  0
 15 35  1  0  0  0
 18 36  1  0  0  0
 19 37  1  0  0  0
 23 38  1  0  0  0
 24 39  1  0  0  0
 25 40  1  0  0  0
M  END
$$$$
