6fgy_ligand
  -I-interpret- 

 41 43  0  0  0  0  0  0  0  0999 V2000
   25.2010   81.0330   16.6680 C   0  0  0  0  0
   25.0780   79.7750   17.2970 C   0  0  0  0  0
   28.1180   79.6010   19.4950 C   0  0  0  0  0
   28.8400   77.4730   20.6210 C   0  0  0  0  0
   28.7310   76.0840   20.4370 C   0  0  0  0  0
   29.4740   75.1400   21.1920 C   0  0  0  0  0
   30.3690   75.6610   22.1760 C   0  0  0  0  0
   30.4950   77.0550   22.3820 C   0  0  0  0  0
   29.7370   77.9630   21.6100 C   0  0  0  0  0
   29.3000   73.6120   20.9190 C   0  0  0  0  0
   27.9630   73.0720   18.9900 C   0  0  0  0  0
   29.2030   73.0210   18.1030 C   0  0  0  0  0
   23.9320   81.6460   15.4760 Br  0  0  0  0  0
   26.0340   79.3740   18.1820 N   0  0  0  0  0
   27.1260   80.1410   18.4990 C   0  0  0  0  0
   27.2970   81.4040   17.8870 C   0  0  0  0  0
   26.3200   81.8380   16.9700 C   0  0  0  0  0
   28.9340   80.3710   19.9880 O   0  0  0  0  0
   28.0250   78.2750   19.7700 N   0  0  0  0  0
   28.0100   73.3490   20.2560 N   0  0  0  0  0
   30.3240   73.6550   18.7590 O   0  0  0  0  0
   30.5390   73.1520   20.0860 C   0  0  0  0  0
   26.8230   72.8190   18.3960 N   0  0  0  0  0
   29.1650   72.7600   22.2160 C   0  0  0  0  0
   24.2268   79.1307   17.0770 H   0  0  0  0  0
   28.0423   75.7140   19.6775 H   0  0  0  0  0
   30.9641   74.9738   22.7775 H   0  0  0  0  0
   31.1812   77.4306   23.1411 H   0  0  0  0  0
   29.8392   79.0361   21.7717 H   0  0  0  0  0
   28.9936   73.5487   17.1725 H   0  0  0  0  0
   29.4530   71.9787   17.9049 H   0  0  0  0  0
   28.1620   82.0254   18.1187 H   0  0  0  0  0
   26.4297   82.8090   16.4870 H   0  0  0  0  0
   27.2643   77.7829   19.3014 H   0  0  0  0  0
   27.1466   73.3852   20.7979 H   0  0  0  0  0
   30.6385   72.0665   20.0882 H   0  0  0  0  0
   31.4673   73.5345   20.5103 H   0  0  0  0  0
   26.8040   72.6047   17.3989 H   0  0  0  0  0
   28.3066   73.1084   22.7903 H   0  0  0  0  0
   29.0239   71.7129   21.9483 H   0  0  0  0  0
   30.0704   72.8647   22.8138 H   0  0  0  0  0
  2  1  4  0  0  0
  1 13  1  0  0  0
  1 17  4  0  0  0
 14  2  4  0  0  0
 15  3  1  0  0  0
  3 18  2  0  0  0
  3 19  1  0  0  0
  4  5  4  0  0  0
  4  9  4  0  0  0
 19  4  1  0  0  0
  5  6  4  0  0  0
  6  7  4  0  0  0
  6 10  1  0  0  0
  8  7  4  0  0  0
  9  8  4  0  0  0
 10 20  1  0  0  0
 10 22  1  0  0  0
 10 24  1  0  0  0
 11 12  1  0  0  0
 20 11  1  0  0  0
 11 23  2  0  0  0
 12 21  1  0  0  0
 14 15  4  0  0  0
 15 16  4  0  0  0
 16 17  4  0  0  0
 21 22  1  0  0  0
  2 25  1  0  0  0
  5 26  1  0  0  0
  7 27  1  0  0  0
  8 28  1  0  0  0
  9 29  1  0  0  0
 12 30  1  0  0  0
 12 31  1  0  0  0
 16 32  1  0  0  0
 17 33  1  0  0  0
 19 34  1  0  0  0
 20 35  1  0  0  0
 22 36  1  0  0  0
 22 37  1  0  0  0
 23 38  1  0  0  0
 24 39  1  0  0  0
 24 40  1  0  0  0
 24 41  1  0  0  0
M  END
$$$$
