4tsx_ligand
  -I-interpret- 

 57 60  0  0  0  0  0  0  0  0999 V2000
  -45.2590   15.0790   28.2840 C   0  0  0  0  0
  -46.0940   13.9350   28.4050 C   0  0  0  0  0
  -47.4730   14.0700   28.1540 C   0  0  0  0  0
  -47.9600   15.2880   27.8300 N   0  0  0  0  0
  -47.1990   16.4000   27.6950 C   0  0  0  0  0
  -45.8200   16.3380   27.9240 C   0  0  0  0  0
  -43.7990   14.8960   28.5070 C   0  0  0  0  0
  -42.9740   14.8520   27.3720 C   0  0  0  0  0
  -41.6060   14.6410   27.5360 C   0  0  0  0  0
  -41.0640   14.4850   28.8180 C   0  0  0  0  0
  -41.8780   14.5470   29.9590 C   0  0  0  0  0
  -43.2630   14.7350   29.8000 C   0  0  0  0  0
  -45.0510   17.5090   27.7930 C   0  0  0  0  0
  -45.6630   18.7140   27.4270 C   0  0  0  0  0
  -47.0450   18.7490   27.1940 C   0  0  0  0  0
  -47.8300   17.6050   27.3320 C   0  0  0  0  0
  -48.5050   12.9360   28.2640 C   0  0  0  0  0
  -45.4970   12.5910   28.7630 C   0  0  0  0  0
  -45.9130   12.1880   30.1710 C   0  0  0  0  0
  -45.9380   13.0710   31.0470 O   0  0  0  0  0
  -46.2400   11.0050   30.4260 O   0  0  0  0  0
  -45.9370   11.5810   27.8330 O   0  0  0  0  0
  -45.3270   11.4360   26.5510 C   0  0  0  0  0
  -43.7890   11.4010   26.6800 C   0  0  0  0  0
  -45.7500   12.5690   25.6300 C   0  0  0  0  0
  -45.8330   10.0990   25.9740 C   0  0  0  0  0
  -39.7130   14.3020   28.9500 O   0  0  0  0  0
  -39.1410   13.7580   30.1600 C   0  0  0  0  0
  -39.7280   14.5390   31.3340 C   0  0  0  0  0
  -41.2760   14.3770   31.3570 C   0  0  0  0  0
  -43.3975   14.9811   26.3760 H   0  0  0  0  0
  -40.9552   14.5972   26.6627 H   0  0  0  0  0
  -43.9173   14.7560   30.6715 H   0  0  0  0  0
  -43.9770   17.4780   27.9767 H   0  0  0  0  0
  -45.0674   19.6210   27.3237 H   0  0  0  0  0
  -47.5144   19.6877   26.8996 H   0  0  0  0  0
  -48.9061   17.6427   27.1629 H   0  0  0  0  0
  -48.2397   12.1366   27.5721 H   0  0  0  0  0
  -48.5107   12.5492   29.2831 H   0  0  0  0  0
  -49.4938   13.3209   28.0145 H   0  0  0  0  0
  -44.4115   12.6772   28.7148 H   0  0  0  0  0
  -46.1576   10.4730   29.6312 H   0  0  0  0  0
  -43.4424   12.3299   27.1329 H   0  0  0  0  0
  -43.4974   10.5585   27.3071 H   0  0  0  0  0
  -43.3451   11.2899   25.6907 H   0  0  0  0  0
  -46.8334   12.5539   25.5114 H   0  0  0  0  0
  -45.4439   13.5212   26.0632 H   0  0  0  0  0
  -45.2750   12.4414   24.6573 H   0  0  0  0  0
  -45.5428    9.2850   26.6383 H   0  0  0  0  0
  -46.9192   10.1298   25.8879 H   0  0  0  0  0
  -45.3935    9.9402   24.9892 H   0  0  0  0  0
  -38.0551   13.8506   30.1444 H   0  0  0  0  0
  -39.3765   12.6976   30.2507 H   0  0  0  0  0
  -39.4786   15.5944   31.2243 H   0  0  0  0  0
  -39.3124   14.1544   32.2654 H   0  0  0  0  0
  -41.5134   13.3756   31.7161 H   0  0  0  0  0
  -41.6941   15.1440   32.0089 H   0  0  0  0  0
  1  2  4  0  0  0
  1  6  4  0  0  0
  1  7  1  0  0  0
  2  3  4  0  0  0
  2 18  1  0  0  0
  3  4  4  0  0  0
  3 17  1  0  0  0
  4  5  4  0  0  0
  5  6  4  0  0  0
  5 16  4  0  0  0
  6 13  4  0  0  0
  7  8  4  0  0  0
  7 12  4  0  0  0
  8  9  4  0  0  0
  9 10  4  0  0  0
 10 11  4  0  0  0
 10 27  1  0  0  0
 11 12  4  0  0  0
 11 30  1  0  0  0
 13 14  4  0  0  0
 14 15  4  0  0  0
 15 16  4  0  0  0
 18 19  1  0  0  0
 18 22  1  0  0  0
 19 20  2  0  0  0
 19 21  1  0  0  0
 22 23  1  0  0  0
 23 24  1  0  0  0
 23 25  1  0  0  0
 23 26  1  0  0  0
 27 28  1  0  0  0
 28 29  1  0  0  0
 29 30  1  0  0  0
  8 31  1  0  0  0
  9 32  1  0  0  0
 12 33  1  0  0  0
 13 34  1  0  0  0
 14 35  1  0  0  0
 15 36  1  0  0  0
 16 37  1  0  0  0
 17 38  1  0  0  0
 17 39  1  0  0  0
 17 40  1  0  0  0
 18 41  1  0  0  0
 21 42  1  0  0  0
 24 43  1  0  0  0
 24 44  1  0  0  0
 24 45  1  0  0  0
 25 46  1  0  0  0
 25 47  1  0  0  0
 25 48  1  0  0  0
 26 49  1  0  0  0
 26 50  1  0  0  0
 26 51  1  0  0  0
 28 52  1  0  0  0
 28 53  1  0  0  0
 29 54  1  0  0  0
 29 55  1  0  0  0
 30 56  1  0  0  0
 30 57  1  0  0  0
M  END
$$$$
