3o57_ligand
  -I-interpret- 

 72 77  0  0  0  0  0  0  0  0999 V2000
   41.2450   45.5800   63.9860 C   0  0  0  0  0
   41.8630   46.8690   63.4410 C   0  0  0  0  0
   43.2860   46.6780   63.1510 N   0  0  0  0  0
   43.7810   46.3270   61.9410 N   0  0  0  0  0
   45.1260   46.2640   62.0690 C   0  0  0  0  0
   45.5230   46.6230   63.4230 C   0  0  0  0  0
   46.6960   46.7530   64.1480 C   0  0  0  0  0
   47.9720   46.5270   63.6660 N   0  0  0  0  0
   48.3540   46.0980   62.3310 C   0  0  0  0  0
   49.6030   45.2360   62.4950 C   0  0  0  0  0
   50.1330   44.7740   61.1370 C   0  0  0  0  0
   50.2970   45.8760   60.2340 O   0  0  0  0  0
   49.2270   46.7890   60.0680 C   0  0  0  0  0
   48.6740   47.2480   61.4250 C   0  0  0  0  0
   46.5390   47.1240   65.5040 C   0  0  0  0  0
   45.2650   47.3720   66.0190 C   0  0  0  0  0
   44.1440   47.2300   65.3230 N   0  0  0  0  0
   44.2690   46.8580   64.0280 C   0  0  0  0  0
   47.6710   47.4430   66.3900 C   0  0  0  0  0
   48.9570   47.3070   66.0210 N   0  0  0  0  0
   49.7580   47.8100   67.1530 C   0  0  0  0  0
   51.2670   47.8220   67.1990 C   0  0  0  0  0
   51.8630   47.8060   65.7720 C   0  0  0  0  0
   52.4010   46.6180   65.3710 N   0  0  0  0  0
   52.9980   46.4480   64.0400 C   0  0  0  0  0
   48.8630   48.2290   68.0540 C   0  0  0  0  0
   47.6010   48.0410   67.6090 O   0  0  0  0  0
   49.0430   48.8510   69.4070 C   0  0  0  0  0
   48.7780   50.3420   69.3730 C   0  0  0  0  0
   49.7500   51.2480   68.9280 C   0  0  0  0  0
   49.4980   52.6230   68.9070 C   0  0  0  0  0
   48.2640   53.1180   69.3310 C   0  0  0  0  0
   47.5400   50.8560   69.7890 C   0  0  0  0  0
   47.2910   52.2290   69.7730 C   0  0  0  0  0
   52.4370   45.3830   66.1730 C   0  0  0  0  0
   53.0710   44.3300   65.2440 C   0  0  0  0  0
   52.9350   44.9250   63.8390 C   0  0  0  0  0
   51.8540   48.8050   65.0650 O   0  0  0  0  0
   41.3512   44.7866   63.2462 H   0  0  0  0  0
   41.7571   45.2931   64.9044 H   0  0  0  0  0
   40.1879   45.7452   64.1943 H   0  0  0  0  0
   41.7581   47.6543   64.1896 H   0  0  0  0  0
   41.3493   47.1443   62.5199 H   0  0  0  0  0
   45.8148   45.9842   61.2718 H   0  0  0  0  0
   48.7354   46.6793   64.3252 H   0  0  0  0  0
   47.5228   45.5598   61.8754 H   0  0  0  0  0
   49.3461   44.3576   63.0871 H   0  0  0  0  0
   50.3740   45.8281   62.9880 H   0  0  0  0  0
   49.4145   44.0776   60.7048 H   0  0  0  0  0
   51.1047   44.3036   61.2876 H   0  0  0  0  0
   48.4284   46.2929   59.5164 H   0  0  0  0  0
   49.5947   47.6619   59.5286 H   0  0  0  0  0
   49.4360   47.8576   61.9106 H   0  0  0  0  0
   47.7522   47.8007   61.2437 H   0  0  0  0  0
   45.1865   47.7020   67.0549 H   0  0  0  0  0
   51.6084   46.9342   67.7314 H   0  0  0  0  0
   51.5950   48.7297   67.7056 H   0  0  0  0  0
   54.0104   46.8462   63.9721 H   0  0  0  0  0
   52.4734   47.0034   63.2626 H   0  0  0  0  0
   50.0728   48.6908   69.7261 H   0  0  0  0  0
   48.3346   48.3903   70.0955 H   0  0  0  0  0
   50.7178   50.8748   68.5930 H   0  0  0  0  0
   50.2682   53.3109   68.5582 H   0  0  0  0  0
   48.0654   54.1896   69.3158 H   0  0  0  0  0
   46.7618   50.1729   70.1295 H   0  0  0  0  0
   46.3259   52.6074   70.1098 H   0  0  0  0  0
   51.4425   45.0853   66.5052 H   0  0  0  0  0
   53.0097   45.5117   67.0915 H   0  0  0  0  0
   52.5768   43.3620   65.3269 H   0  0  0  0  0
   54.1105   44.1296   65.5036 H   0  0  0  0  0
   53.7245   44.5735   63.1747 H   0  0  0  0  0
   52.0040   44.6201   63.3610 H   0  0  0  0  0
  1  2  1  0  0  0
  2  3  1  0  0  0
  3  4  4  0  0  0
  3 18  4  0  0  0
  4  5  4  0  0  0
  5  6  4  0  0  0
  6  7  4  0  0  0
  6 18  4  0  0  0
  7  8  1  0  0  0
  7 15  4  0  0  0
  8  9  1  0  0  0
  9 10  1  0  0  0
  9 14  1  0  0  0
 10 11  1  0  0  0
 11 12  1  0  0  0
 12 13  1  0  0  0
 13 14  1  0  0  0
 15 16  4  0  0  0
 15 19  1  0  0  0
 16 17  4  0  0  0
 17 18  4  0  0  0
 19 20  4  0  0  0
 19 27  4  0  0  0
 20 21  4  0  0  0
 21 22  1  0  0  0
 21 26  4  0  0  0
 22 23  1  0  0  0
 23 24  1  0  0  0
 23 38  2  0  0  0
 24 25  1  0  0  0
 24 35  1  0  0  0
 25 37  1  0  0  0
 26 27  4  0  0  0
 26 28  1  0  0  0
 28 29  1  0  0  0
 29 30  4  0  0  0
 29 33  4  0  0  0
 30 31  4  0  0  0
 31 32  4  0  0  0
 32 34  4  0  0  0
 33 34  4  0  0  0
 35 36  1  0  0  0
 36 37  1  0  0  0
  1 39  1  0  0  0
  1 40  1  0  0  0
  1 41  1  0  0  0
  2 42  1  0  0  0
  2 43  1  0  0  0
  5 44  1  0  0  0
  8 45  1  0  0  0
  9 46  1  0  0  0
 10 47  1  0  0  0
 10 48  1  0  0  0
 11 49  1  0  0  0
 11 50  1  0  0  0
 13 51  1  0  0  0
 13 52  1  0  0  0
 14 53  1  0  0  0
 14 54  1  0  0  0
 16 55  1  0  0  0
 22 56  1  0  0  0
 22 57  1  0  0  0
 25 58  1  0  0  0
 25 59  1  0  0  0
 28 60  1  0  0  0
 28 61  1  0  0  0
 30 62  1  0  0  0
 31 63  1  0  0  0
 32 64  1  0  0  0
 33 65  1  0  0  0
 34 66  1  0  0  0
 35 67  1  0  0  0
 35 68  1  0  0  0
 36 69  1  0  0  0
 36 70  1  0  0  0
 37 71  1  0  0  0
 37 72  1  0  0  0
M  END
$$$$
