4rlk_ligand
  -I-interpret- 

 39 42  0  0  0  0  0  0  0  0999 V2000
   23.1510    8.1190   13.2890 O   0  0  0  0  0
   23.7610    7.7710   14.3130 C   0  0  0  0  0
   24.6370    6.8650   14.3780 O   0  0  0  0  0
   23.2190    8.3110   15.5520 C   0  0  0  0  0
   22.2910    9.3340   15.4920 C   0  0  0  0  0
   21.6900    9.8340   16.6460 C   0  0  0  0  0
   21.9840    9.2600   17.8510 C   0  0  0  0  0
   21.3670    9.7180   19.0460 C   0  0  0  0  0
   21.4970    9.0740   20.1920 N   0  0  0  0  0
   21.0140    9.2790   21.3110 N   0  0  0  0  0
   20.9000    8.7050   22.4440 C   0  0  0  0  0
   20.2550    9.1030   23.6760 C   0  0  0  0  0
   19.6860   10.3260   23.9760 C   0  0  0  0  0
   19.1200   10.5000   25.2480 C   0  0  0  0  0
   19.1560    9.4520   26.1600 C   0  0  0  0  0
   19.7290    8.2060   25.8430 C   0  0  0  0  0
   20.3000    8.0300   24.5920 C   0  0  0  0  0
   20.9770    6.8840   23.9380 C   0  0  0  0  0
   21.2990    5.5840   24.3490 C   0  0  0  0  0
   21.9720    4.7120   23.4530 C   0  0  0  0  0
   22.3230    5.1310   22.1770 C   0  0  0  0  0
   22.0020    6.4390   21.7580 C   0  0  0  0  0
   21.3420    7.2880   22.6440 C   0  0  0  0  0
   22.9120    8.2030   17.9340 C   0  0  0  0  0
   23.5310    7.7410   16.7960 C   0  0  0  0  0
   24.9536    6.7918   15.2813 H   0  0  0  0  0
   22.0242    9.7577   14.5238 H   0  0  0  0  0
   20.9949   10.6716   16.5882 H   0  0  0  0  0
   20.7682   10.6283   19.0163 H   0  0  0  0  0
   19.6771   11.1338   23.2442 H   0  0  0  0  0
   18.6562   11.4486   25.5184 H   0  0  0  0  0
   18.7273    9.5994   27.1513 H   0  0  0  0  0
   19.7239    7.3930   26.5690 H   0  0  0  0  0
   21.0346    5.2441   25.3503 H   0  0  0  0  0
   22.2166    3.6988   23.7718 H   0  0  0  0  0
   22.8443    4.4523   21.5019 H   0  0  0  0  0
   22.2660    6.7802   20.7570 H   0  0  0  0  0
   23.1393    7.7516   18.8998 H   0  0  0  0  0
   24.2616    6.9347   16.8601 H   0  0  0  0  0
  1  2  2  0  0  0
  2  3  1  0  0  0
  2  4  1  0  0  0
  4  5  4  0  0  0
  4 25  4  0  0  0
  5  6  4  0  0  0
  6  7  4  0  0  0
  7  8  1  0  0  0
  7 24  4  0  0  0
  8  9  2  0  0  0
  9 10  1  0  0  0
 10 11  2  0  0  0
 11 12  1  0  0  0
 11 23  1  0  0  0
 12 13  4  0  0  0
 12 17  4  0  0  0
 13 14  4  0  0  0
 14 15  4  0  0  0
 15 16  4  0  0  0
 16 17  4  0  0  0
 17 18  1  0  0  0
 18 19  4  0  0  0
 18 23  4  0  0  0
 19 20  4  0  0  0
 20 21  4  0  0  0
 21 22  4  0  0  0
 22 23  4  0  0  0
 24 25  4  0  0  0
  3 26  1  0  0  0
  5 27  1  0  0  0
  6 28  1  0  0  0
  8 29  1  0  0  0
 13 30  1  0  0  0
 14 31  1  0  0  0
 15 32  1  0  0  0
 16 33  1  0  0  0
 19 34  1  0  0  0
 20 35  1  0  0  0
 21 36  1  0  0  0
 22 37  1  0  0  0
 24 38  1  0  0  0
 25 39  1  0  0  0
M  END
$$$$
