4kiq_ligand
  -I-interpret- 

 51 54  0  0  0  0  0  0  0  0999 V2000
    0.0020   -4.1130   -6.4740 C   0  0  0  0  0
    4.0970   -1.1620   -5.5960 N   0  0  0  0  0
    5.3060   -0.4850   -5.1310 C   0  0  0  0  0
    6.1860    0.1430   -6.1320 C   0  0  0  0  0
    6.6030   -1.0960   -5.4470 C   0  0  0  0  0
   -0.0420   -5.3970   -4.3880 N   0  0  0  0  0
   -0.5690   -5.1570   -3.1630 C   0  0  0  0  0
   -0.7480   -4.0220   -2.7210 O   0  0  0  0  0
   -0.8730   -6.3670   -2.3340 C   0  0  0  0  0
   -1.7220   -6.2010   -1.2400 C   0  0  0  0  0
    0.5640   -4.4250   -5.2160 C   0  0  0  0  0
   -0.5550   -8.6850   -1.7300 C   0  0  0  0  0
   -0.2940   -7.6170   -2.5720 C   0  0  0  0  0
   -1.4000   -8.5310   -0.6230 C   0  0  0  0  0
   -1.9830   -7.2710   -0.3860 C   0  0  0  0  0
   -2.7410   -7.3710    0.7930 N   0  0  0  0  0
   -2.6210   -8.6740    1.2640 C   0  0  0  0  0
   -1.8260   -9.3970    0.4390 C   0  0  0  0  0
   -3.5440   -6.3820    1.4350 C   0  0  0  0  0
   -4.1130   -6.5780    2.4780 O   0  0  0  0  0
   -3.5860   -5.2280    0.7600 O   0  0  0  0  0
    1.6960   -3.7620   -4.7580 C   0  0  0  0  0
   -4.2350   -4.1010    1.4250 C   0  0  0  0  0
   -3.8860   -2.9260    0.6430 C   0  0  0  0  0
    2.3130   -2.7920   -5.5430 C   0  0  0  0  0
    1.7620   -2.4660   -6.7820 C   0  0  0  0  0
    0.6320   -3.1250   -7.2360 C   0  0  0  0  0
   -1.2520   -4.7830   -6.9680 C   0  0  0  0  0
    3.5910   -2.2510   -4.9930 C   0  0  0  0  0
    4.1230   -2.7790   -4.0200 O   0  0  0  0  0
    3.6156   -0.7911   -6.4152 H   0  0  0  0  0
    4.8148   -0.1444   -4.2195 H   0  0  0  0  0
    6.3838    0.9384   -6.8506 H   0  0  0  0  0
    7.3370   -1.8865   -5.2903 H   0  0  0  0  0
   -0.0860   -6.3534   -4.7399 H   0  0  0  0  0
   -2.1829   -5.2312   -1.0523 H   0  0  0  0  0
   -0.0988   -9.6545   -1.9303 H   0  0  0  0  0
    0.3682   -7.7521   -3.4272 H   0  0  0  0  0
   -3.0975   -9.0579    2.1661 H   0  0  0  0  0
   -1.5583  -10.4467    0.5600 H   0  0  0  0  0
    2.1040   -4.0033   -3.7765 H   0  0  0  0  0
   -3.9007   -4.0038    2.4579 H   0  0  0  0  0
   -5.3152   -4.2381    1.4746 H   0  0  0  0  0
   -2.8025   -2.8081    0.6305 H   0  0  0  0  0
   -4.2513   -3.0481   -0.3767 H   0  0  0  0  0
   -4.3436   -2.0439    1.0910 H   0  0  0  0  0
    2.2220   -1.6905   -7.3945 H   0  0  0  0  0
    0.2232   -2.8666   -8.2128 H   0  0  0  0  0
   -1.0871   -5.8586   -7.0309 H   0  0  0  0  0
   -2.0684   -4.5792   -6.2752 H   0  0  0  0  0
   -1.5054   -4.3947   -7.9545 H   0  0  0  0  0
 11  1  4  0  0  0
  1 27  4  0  0  0
  1 28  1  0  0  0
  2  3  1  0  0  0
 29  2  1  0  0  0
  3  4  1  0  0  0
  3  5  1  0  0  0
  5  4  2  0  0  0
  6  7  1  0  0  0
 11  6  1  0  0  0
  7  8  2  0  0  0
  7  9  1  0  0  0
  9 10  4  0  0  0
  9 13  4  0  0  0
 10 15  4  0  0  0
 22 11  4  0  0  0
 13 12  4  0  0  0
 12 14  4  0  0  0
 15 14  4  0  0  0
 14 18  4  0  0  0
 15 16  4  0  0  0
 16 17  4  0  0  0
 16 19  1  0  0  0
 18 17  4  0  0  0
 19 20  2  0  0  0
 19 21  1  0  0  0
 21 23  1  0  0  0
 25 22  4  0  0  0
 23 24  1  0  0  0
 25 26  4  0  0  0
 25 29  1  0  0  0
 26 27  4  0  0  0
 29 30  2  0  0  0
  2 31  1  0  0  0
  3 32  1  0  0  0
  4 33  1  0  0  0
  5 34  1  0  0  0
  6 35  1  0  0  0
 10 36  1  0  0  0
 12 37  1  0  0  0
 13 38  1  0  0  0
 17 39  1  0  0  0
 18 40  1  0  0  0
 22 41  1  0  0  0
 23 42  1  0  0  0
 23 43  1  0  0  0
 24 44  1  0  0  0
 24 45  1  0  0  0
 24 46  1  0  0  0
 26 47  1  0  0  0
 27 48  1  0  0  0
 28 49  1  0  0  0
 28 50  1  0  0  0
 28 51  1  0  0  0
M  END
$$$$
