5qad_ligand
  -I-interpret- 

 25 26  0  0  0  0  0  0  0  0999 V2000
   96.7720  254.4980    7.2590 C   0  0  0  0  0
   97.5500  254.7120    6.2990 O   0  0  0  0  0
   96.2820  253.0860    7.4560 C   0  0  0  0  0
   95.3840  250.4770    7.7920 C   0  0  0  0  0
   94.9140  251.4850    8.6160 C   0  0  0  0  0
   95.3620  252.7840    8.4530 C   0  0  0  0  0
   96.7480  252.0660    6.6340 C   0  0  0  0  0
   96.3160  250.7520    6.7940 C   0  0  0  0  0
   96.8870  249.6620    5.9540 C   0  0  0  0  0
   96.1070  248.6910    5.3400 C   0  0  0  0  0
   96.6350  247.6470    4.6210 C   0  0  0  0  0
   98.0090  247.5620    4.4930 C   0  0  0  0  0
   98.8200  248.5100    5.0710 C   0  0  0  0  0
   98.2690  249.5520    5.7930 C   0  0  0  0  0
   94.7610  248.7750    5.4450 F   0  0  0  0  0
   96.3750  255.3750    8.0630 O   0  0  0  0  0
   95.0212  249.4579    7.9254 H   0  0  0  0  0
   94.1884  251.2547    9.3961 H   0  0  0  0  0
   94.9923  253.5726    9.1084 H   0  0  0  0  0
   97.4663  252.2998    5.8482 H   0  0  0  0  0
   95.9854  246.9020    4.1615 H   0  0  0  0  0
   98.4515  246.7394    3.9311 H   0  0  0  0  0
   99.9020  248.4395    4.9594 H   0  0  0  0  0
   98.9233  250.2986    6.2431 H   0  0  0  0  0
   95.7893  254.9736    8.7091 H   0  0  0  0  0
  1  2  2  0  0  0
  3  1  1  0  0  0
  1 16  1  0  0  0
  6  3  4  0  0  0
  3  7  4  0  0  0
  5  4  4  0  0  0
  4  8  4  0  0  0
  5  6  4  0  0  0
  7  8  4  0  0  0
  8  9  1  0  0  0
  9 10  4  0  0  0
  9 14  4  0  0  0
 10 11  4  0  0  0
 10 15  1  0  0  0
 11 12  4  0  0  0
 12 13  4  0  0  0
 13 14  4  0  0  0
  4 17  1  0  0  0
  5 18  1  0  0  0
  6 19  1  0  0  0
  7 20  1  0  0  0
 11 21  1  0  0  0
 12 22  1  0  0  0
 13 23  1  0  0  0
 14 24  1  0  0  0
 16 25  1  0  0  0
M  END
$$$$
