4q8x_ligand
  -I-interpret- 

 15 15  0  0  0  0  0  0  0  0999 V2000
   14.6090    1.0950   17.2000 S   0  0  0  0  0
   15.2590    2.2950   16.1860 C   0  0  0  0  0
   14.4300    3.2880   15.6600 C   0  0  0  0  0
   14.9450    4.2350   14.8090 C   0  0  0  0  0
   16.2610    4.1950   14.4630 C   0  0  0  0  0
   16.8020    5.1890   13.5760 C   0  0  0  0  0
   17.1880    6.2480   14.2790 F   0  0  0  0  0
   17.8460    4.6830   12.9270 F   0  0  0  0  0
   15.8710    5.5540   12.7000 F   0  0  0  0  0
   17.0910    3.2060   14.9920 C   0  0  0  0  0
   16.5790    2.2700   15.8610 N   0  3  0  0  0
   17.3500    1.3080   16.3190 O   0  0  0  0  0
   13.3730    3.3115   15.9251 H   0  0  0  0  0
   14.3002    5.0184   14.4108 H   0  0  0  0  0
   18.1452    3.1748   14.7168 H   0  0  0  0  0
  1  2  2  0  0  0
  2  3  1  0  0  0
  2 11  1  0  0  0
  3  4  2  0  0  0
  4  5  1  0  0  0
  5  6  1  0  0  0
  5 10  2  0  0  0
  6  7  1  0  0  0
  6  8  1  0  0  0
  6  9  1  0  0  0
 10 11  1  0  0  0
 11 12  2  0  0  0
  3 13  1  0  0  0
  4 14  1  0  0  0
 10 15  1  0  0  0
M  END
$$$$
