1w0y_ligand
  -I-interpret- 

 58 60  0  0  0  0  0  0  0  0999 V2000
   29.8940    6.6810   15.0960 C   0  0  0  0  0
   29.3940    7.6860   15.8290 N   0  0  0  0  0
   30.2260    5.5920   15.8250 N   0  0  0  0  0
   30.2090    6.9370   13.6710 C   0  0  0  0  0
   29.4770    7.9530   12.9940 C   0  0  0  0  0
   29.6280    8.1420   11.6330 C   0  0  0  0  0
   30.5090    7.3190   10.9230 C   0  0  0  0  0
   30.7790    7.5770    9.5560 N   0  0  0  0  0
   31.7020    6.6900    8.7660 C   0  0  0  0  0
   38.1770    7.7270    9.5410 C   0  0  0  0  0
   38.4750    6.9510   10.7710 C   0  0  0  0  0
   37.7260    7.0730   11.9080 C   0  0  0  0  0
   38.0040    6.3000   13.0250 C   0  0  0  0  0
   39.0420    5.3970   13.0020 C   0  0  0  0  0
   39.5050    6.0500   10.7570 C   0  0  0  0  0
   39.7920    5.2820   11.8540 C   0  0  0  0  0
   33.1490    7.1280    8.8990 C   0  0  0  0  0
   35.4970    6.6340    9.4050 C   0  0  0  0  0
   34.2010    6.2070    9.1790 C   0  0  0  0  0
   33.9440    4.8440    9.3400 N   0  0  0  0  0
   33.7020    3.8520    7.9700 S   0  0  0  0  0
   35.3440    3.5370    7.3820 C   0  0  0  0  0
   32.9530    4.5850    6.9730 O   0  0  0  0  0
   33.1670    2.5920    8.3100 O   0  0  0  0  0
   35.7830    8.0010    9.3180 C   0  0  0  0  0
   37.0110    8.5270    9.6310 O   0  0  0  0  0
   33.4640    8.5070    8.7960 C   0  0  0  0  0
   34.7970    8.9390    8.9920 C   0  0  0  0  0
   35.2390   10.2440    8.7780 O   0  0  0  0  0
   34.3570   11.2760    8.3370 C   0  0  0  0  0
   31.2490    6.3180   11.5960 C   0  0  0  0  0
   31.1120    6.1260   12.9430 C   0  0  0  0  0
   29.2392    8.5998   15.4032 H   0  0  0  0  0
   30.0865    5.5928   16.8354 H   0  0  0  0  0
   30.6160    4.7696   15.3646 H   0  0  0  0  0
   28.7908    8.5881   13.5542 H   0  0  0  0  0
   29.0674    8.9229   11.1191 H   0  0  0  0  0
   30.3403    8.3772    9.1003 H   0  0  0  0  0
   31.4199    6.7493    7.7148 H   0  0  0  0  0
   31.6137    5.6734    9.1492 H   0  0  0  0  0
   38.0144    7.0086    8.7375 H   0  0  0  0  0
   39.0178    8.3998    9.3721 H   0  0  0  0  0
   36.9016    7.7854   11.9368 H   0  0  0  0  0
   37.3981    6.4080   13.9246 H   0  0  0  0  0
   39.2657    4.7849   13.8757 H   0  0  0  0  0
   40.1083    5.9416    9.8557 H   0  0  0  0  0
   40.6204    4.5746   11.8175 H   0  0  0  0  0
   36.2823    5.9178    9.6468 H   0  0  0  0  0
   33.9007    4.4404   10.2758 H   0  0  0  0  0
   35.2938    2.9490    6.4655 H   0  0  0  0  0
   35.8444    4.4842    7.1806 H   0  0  0  0  0
   35.9001    2.9847    8.1395 H   0  0  0  0  0
   32.6823    9.2312    8.5667 H   0  0  0  0  0
   33.9306   11.0002    7.3725 H   0  0  0  0  0
   33.5569   11.4045    9.0660 H   0  0  0  0  0
   34.9123   12.2086    8.2369 H   0  0  0  0  0
   31.9389    5.6903   11.0320 H   0  0  0  0  0
   31.6925    5.3559   13.4510 H   0  0  0  0  0
  1  2  2  0  0  0
  1  3  1  0  0  0
  4  1  1  0  0  0
  5  4  4  0  0  0
  4 32  4  0  0  0
  6  5  4  0  0  0
  7  6  4  0  0  0
  8  7  1  0  0  0
  7 31  4  0  0  0
  9  8  1  0  0  0
 17  9  1  0  0  0
 10 11  1  0  0  0
 26 10  1  0  0  0
 11 12  4  0  0  0
 11 15  4  0  0  0
 12 13  4  0  0  0
 13 14  4  0  0  0
 16 14  4  0  0  0
 15 16  4  0  0  0
 19 17  4  0  0  0
 17 27  4  0  0  0
 18 19  4  0  0  0
 25 18  4  0  0  0
 19 20  1  0  0  0
 20 21  1  0  0  0
 21 22  1  0  0  0
 21 23  2  0  0  0
 21 24  2  0  0  0
 25 26  1  0  0  0
 25 28  4  0  0  0
 27 28  4  0  0  0
 28 29  1  0  0  0
 29 30  1  0  0  0
 31 32  4  0  0  0
  2 33  1  0  0  0
  3 34  1  0  0  0
  3 35  1  0  0  0
  5 36  1  0  0  0
  6 37  1  0  0  0
  8 38  1  0  0  0
  9 39  1  0  0  0
  9 40  1  0  0  0
 10 41  1  0  0  0
 10 42  1  0  0  0
 12 43  1  0  0  0
 13 44  1  0  0  0
 14 45  1  0  0  0
 15 46  1  0  0  0
 16 47  1  0  0  0
 18 48  1  0  0  0
 20 49  1  0  0  0
 22 50  1  0  0  0
 22 51  1  0  0  0
 22 52  1  0  0  0
 27 53  1  0  0  0
 30 54  1  0  0  0
 30 55  1  0  0  0
 30 56  1  0  0  0
 31 57  1  0  0  0
 32 58  1  0  0  0
M  END
$$$$
