6hdo_ligand
  -I-interpret- 

 77 82  0  0  0  0  0  0  0  0999 V2000
  -29.5270   46.8300   11.0280 C   0  0  0  0  0
  -29.8930   45.7640   11.8200 C   0  0  0  0  0
  -30.6720   43.3830   13.4810 C   0  0  0  0  0
  -30.5890   43.0380   14.9670 C   0  0  0  0  0
  -29.2070   50.0950    6.6680 C   0  0  0  0  0
  -28.3800   49.6580    7.8650 C   0  0  0  0  0
  -27.2880   50.3910    8.2920 C   0  0  0  0  0
  -26.5430   50.0630    9.3460 N   0  0  0  0  0
  -26.8670   48.9450   10.0160 C   0  0  0  0  0
  -27.9020   48.0990    9.6590 C   0  0  0  0  0
  -28.6860   48.5060    8.5800 C   0  0  0  0  0
  -28.2340   46.9020   10.4900 C   0  0  0  0  0
  -28.9920   44.7350   12.1380 C   0  0  0  0  0
  -29.3510   43.6640   12.9370 N   0  0  0  0  0
  -31.9080   42.4360   15.4530 C   0  0  0  0  0
  -33.1160   43.3120   15.1360 C   0  0  0  0  0
  -33.6510   42.7920   13.7770 C   0  0  0  0  0
  -32.6260   41.7220   13.3880 C   0  0  0  0  0
  -32.2340   41.2060   14.7150 N   0  3  0  0  0
  -31.3810   42.2790   12.6770 C   0  0  0  0  0
  -31.7640   42.7460   11.2730 C   0  0  0  0  0
  -31.3050   41.8270   10.1540 C   0  0  0  0  0
  -31.4290   42.3970    8.7590 C   0  0  0  0  0
  -30.2590   43.3080    8.4020 C   0  0  0  0  0
  -30.4490   44.0360    7.0830 C   0  0  0  0  0
  -30.5870   42.9200    5.7230 S   0  0  0  0  0
  -31.0940   43.6280    4.5840 O   0  0  0  0  0
  -29.3520   42.2050    5.5740 O   0  0  0  0  0
  -31.8280   41.8130    6.3150 C   0  0  0  0  0
  -31.5390   41.2970    7.7190 C   0  0  0  0  0
  -27.6920   44.8310   11.6210 C   0  0  0  0  0
  -26.7690   43.8510   11.9560 N   0  0  0  0  0
  -25.4740   43.8020   11.5380 C   0  0  0  0  0
  -24.7590   42.8520   11.8820 O   0  0  0  0  0
  -25.0590   44.8940   10.6550 C   0  0  0  0  0
  -23.6630   44.9110   10.1220 C   0  0  0  0  0
  -25.9230   45.8780   10.3410 C   0  0  0  0  0
  -27.2860   45.9030   10.8010 C   0  0  0  0  0
  -30.2462   47.6217   10.8184 H   0  0  0  0  0
  -30.9096   45.7180   12.2105 H   0  0  0  0  0
  -31.2750   44.2863   13.3888 H   0  0  0  0  0
  -30.3870   43.9488   15.5307 H   0  0  0  0  0
  -29.7916   42.3102   15.1170 H   0  0  0  0  0
  -29.6276   51.0822    6.8595 H   0  0  0  0  0
  -28.5710   50.1349    5.7837 H   0  0  0  0  0
  -30.0137   49.3804    6.5050 H   0  0  0  0  0
  -27.0217   51.2887    7.7340 H   0  0  0  0  0
  -26.2776   48.6880   10.8962 H   0  0  0  0  0
  -29.5529   47.9110    8.2926 H   0  0  0  0  0
  -28.6117   43.0009   13.1696 H   0  0  0  0  0
  -31.7508   42.2988   16.5228 H   0  0  0  0  0
  -32.8451   44.3665   15.0842 H   0  0  0  0  0
  -33.8739   43.2490   15.9168 H   0  0  0  0  0
  -33.7420   43.5804   13.0299 H   0  0  0  0  0
  -34.6655   42.3993   13.8454 H   0  0  0  0  0
  -33.0390   40.9982   12.6855 H   0  0  0  0  0
  -32.9672   40.6551   15.1615 H   0  0  0  0  0
  -31.4561   40.5476   14.6733 H   0  0  0  0  0
  -30.6508   41.4738   12.5964 H   0  0  0  0  0
  -31.2776   43.7084   11.1140 H   0  0  0  0  0
  -32.8529   42.7761   11.2336 H   0  0  0  0  0
  -31.9465   40.9465   10.1899 H   0  0  0  0  0
  -30.2447   41.6371   10.3208 H   0  0  0  0  0
  -32.3431   42.9907    8.7551 H   0  0  0  0  0
  -29.3703   42.6837    8.3098 H   0  0  0  0  0
  -30.1752   44.0608    9.1858 H   0  0  0  0  0
  -29.5781   44.6698    6.9158 H   0  0  0  0  0
  -31.3711   44.6141    7.1434 H   0  0  0  0  0
  -31.8570   40.9547    5.6437 H   0  0  0  0  0
  -32.7721   42.3569    6.3474 H   0  0  0  0  0
  -32.3704   40.6546    8.0090 H   0  0  0  0  0
  -30.5798   40.7803    7.6866 H   0  0  0  0  0
  -27.0885   43.1012   12.5693 H   0  0  0  0  0
  -23.6912   44.8929    9.0325 H   0  0  0  0  0
  -23.1579   45.8163   10.4587 H   0  0  0  0  0
  -23.1253   44.0361   10.4874 H   0  0  0  0  0
  -25.5733   46.6940    9.7086 H   0  0  0  0  0
  2  1  4  0  0  0
  1 12  4  0  0  0
 13  2  4  0  0  0
  3  4  1  0  0  0
 14  3  1  0  0  0
  3 20  1  0  0  0
  4 15  1  0  0  0
  6  5  1  0  0  0
  6  7  4  0  0  0
 11  6  4  0  0  0
  8  7  4  0  0  0
  9  8  4  0  0  0
 10  9  4  0  0  0
 10 11  4  0  0  0
 12 10  1  0  0  0
 12 38  4  0  0  0
 13 14  1  0  0  0
 13 31  4  0  0  0
 15 16  1  0  0  0
 15 19  1  0  0  0
 16 17  1  0  0  0
 17 18  1  0  0  0
 18 19  1  0  0  0
 18 20  1  0  0  0
 20 21  1  0  0  0
 21 22  1  0  0  0
 22 23  1  0  0  0
 23 24  1  0  0  0
 23 30  1  0  0  0
 24 25  1  0  0  0
 25 26  1  0  0  0
 26 27  2  0  0  0
 26 28  2  0  0  0
 26 29  1  0  0  0
 29 30  1  0  0  0
 31 32  1  0  0  0
 31 38  4  0  0  0
 32 33  1  0  0  0
 33 34  2  0  0  0
 33 35  1  0  0  0
 35 36  1  0  0  0
 35 37  2  0  0  0
 37 38  1  0  0  0
  1 39  1  0  0  0
  2 40  1  0  0  0
  3 41  1  0  0  0
  4 42  1  0  0  0
  4 43  1  0  0  0
  5 44  1  0  0  0
  5 45  1  0  0  0
  5 46  1  0  0  0
  7 47  1  0  0  0
  9 48  1  0  0  0
 11 49  1  0  0  0
 14 50  1  0  0  0
 15 51  1  0  0  0
 16 52  1  0  0  0
 16 53  1  0  0  0
 17 54  1  0  0  0
 17 55  1  0  0  0
 18 56  1  0  0  0
 19 57  1  0  0  0
 19 58  1  0  0  0
 20 59  1  0  0  0
 21 60  1  0  0  0
 21 61  1  0  0  0
 22 62  1  0  0  0
 22 63  1  0  0  0
 23 64  1  0  0  0
 24 65  1  0  0  0
 24 66  1  0  0  0
 25 67  1  0  0  0
 25 68  1  0  0  0
 29 69  1  0  0  0
 29 70  1  0  0  0
 30 71  1  0  0  0
 30 72  1  0  0  0
 32 73  1  0  0  0
 36 74  1  0  0  0
 36 75  1  0  0  0
 36 76  1  0  0  0
 37 77  1  0  0  0
M  END
$$$$
