4k4j_ligand
  -I-interpret- 

 44 45  0  0  0  0  0  0  0  0999 V2000
   66.0190   46.3520   29.8460 C   0  0  0  0  0
   67.4210   46.2460   30.4540 C   0  0  0  0  0
   67.4070   45.9490   31.9570 C   0  0  0  0  0
   66.4150   46.8440   32.7070 C   0  0  0  0  0
   66.5840   47.0020   34.0790 C   0  0  0  0  0
   65.7030   47.7800   34.8220 C   0  0  0  0  0
   64.6340   48.4260   34.2060 C   0  0  0  0  0
   64.4620   48.2780   32.8360 C   0  0  0  0  0
   65.3440   47.4940   32.0990 C   0  0  0  0  0
   65.1640   47.3360   30.6470 C   0  0  0  0  0
   64.1810   48.0770   30.0060 C   0  0  0  0  0
   63.9580   47.9580   28.5570 C   0  0  0  0  0
   65.0840   48.2970   27.5800 C   0  0  0  0  0
   62.7160   47.5710   28.0620 C   0  0  0  0  0
   61.5930   47.2640   28.9480 C   0  0  0  0  0
   60.3680   46.8960   28.3990 C   0  0  0  0  0
   59.2110   46.5940   29.2500 C   0  0  0  0  0
   59.4240   46.0000   30.6440 C   0  0  0  0  0
   57.9330   46.8380   28.7590 C   0  0  0  0  0
   56.7200   46.5670   29.5370 C   0  0  0  0  0
   55.7760   47.3810   29.4440 O   0  0  0  0  0
   56.6850   45.5480   30.2610 O   0  0  0  0  0
   65.5465   45.3700   29.8694 H   0  0  0  0  0
   66.1030   46.7084   28.8193 H   0  0  0  0  0
   67.9158   47.2068   30.3120 H   0  0  0  0  0
   67.9338   45.4211   29.9593 H   0  0  0  0  0
   68.4049   46.1388   32.3522 H   0  0  0  0  0
   67.1048   44.9112   32.0975 H   0  0  0  0  0
   67.4183   46.5092   34.5782 H   0  0  0  0  0
   65.8505   47.8853   35.8968 H   0  0  0  0  0
   63.9446   49.0369   34.7888 H   0  0  0  0  0
   63.6326   48.7781   32.3360 H   0  0  0  0  0
   63.5623   48.7604   30.5876 H   0  0  0  0  0
   65.2999   47.4267   26.9603 H   0  0  0  0  0
   64.7753   49.1283   26.9462 H   0  0  0  0  0
   65.9767   48.5768   28.1394 H   0  0  0  0  0
   62.5761   47.4945   26.9837 H   0  0  0  0  0
   61.7147   47.3230   30.0296 H   0  0  0  0  0
   60.2660   46.8308   27.3157 H   0  0  0  0  0
   58.9892   46.6642   31.3909 H   0  0  0  0  0
   58.9418   45.0240   30.6992 H   0  0  0  0  0
   60.4921   45.8901   30.8314 H   0  0  0  0  0
   57.8287   47.2476   27.7543 H   0  0  0  0  0
   57.5134   45.0699   30.1789 H   0  0  0  0  0
  1  2  1  0  0  0
  1 10  1  0  0  0
  2  3  1  0  0  0
  3  4  1  0  0  0
  4  5  4  0  0  0
  4  9  4  0  0  0
  5  6  4  0  0  0
  6  7  4  0  0  0
  7  8  4  0  0  0
  8  9  4  0  0  0
  9 10  1  0  0  0
 10 11  2  0  0  0
 11 12  1  0  0  0
 12 13  1  0  0  0
 12 14  2  0  0  0
 14 15  1  0  0  0
 15 16  2  0  0  0
 16 17  1  0  0  0
 17 18  1  0  0  0
 17 19  2  0  0  0
 19 20  1  0  0  0
 20 21  2  0  0  0
 20 22  1  0  0  0
  1 23  1  0  0  0
  1 24  1  0  0  0
  2 25  1  0  0  0
  2 26  1  0  0  0
  3 27  1  0  0  0
  3 28  1  0  0  0
  5 29  1  0  0  0
  6 30  1  0  0  0
  7 31  1  0  0  0
  8 32  1  0  0  0
 11 33  1  0  0  0
 13 34  1  0  0  0
 13 35  1  0  0  0
 13 36  1  0  0  0
 14 37  1  0  0  0
 15 38  1  0  0  0
 16 39  1  0  0  0
 18 40  1  0  0  0
 18 41  1  0  0  0
 18 42  1  0  0  0
 19 43  1  0  0  0
 22 44  1  0  0  0
M  END
$$$$
