5ayf_ligand
  -I-interpret- 

 44 47  0  0  0  0  0  0  0  0999 V2000
   33.9240   -3.5310   15.5490 N   0  3  0  0  0
   36.2760   -3.7720   14.9930 C   0  0  0  0  0
   35.2780   -3.1700   15.9720 C   0  0  0  0  0
   32.9430   -2.7350   16.3010 C   0  0  0  0  0
   33.7480   -4.9610   15.8350 C   0  0  0  0  0
   34.6540   -5.7690   14.9010 C   0  0  0  0  0
   36.0930   -5.2700   14.8910 C   0  0  0  0  0
   37.1570   -6.1090   14.7800 C   0  0  0  0  0
   38.5710   -5.5950   14.7620 C   0  0  0  0  0
   39.0190   -4.7680   13.7280 C   0  0  0  0  0
   40.3170   -4.2830   13.7050 C   0  0  0  0  0
   41.1920   -4.6440   14.7180 C   0  0  0  0  0
   40.7610   -5.4840   15.7410 C   0  0  0  0  0
   39.4580   -5.9690   15.7620 C   0  0  0  0  0
   39.0740   -6.8560   16.8900 C   0  0  0  0  0
   38.2630   -7.9150   16.8280 C   0  0  0  0  0
   37.5450   -8.4340   15.6360 C   0  0  0  0  0
   37.0000   -7.6020   14.6660 C   0  0  0  0  0
   36.3370   -8.1650   13.5690 C   0  0  0  0  0
   36.1860   -9.5410   13.4600 C   0  0  0  0  0
   36.7200  -10.3640   14.4440 C   0  0  0  0  0
   37.3910   -9.8120   15.5280 C   0  0  0  0  0
   33.7863   -3.3458   14.5554 H   0  0  0  0  0
   37.2853   -3.5650   15.3487 H   0  0  0  0  0
   36.1132   -3.3306   14.0097 H   0  0  0  0  0
   35.4663   -3.5549   16.9742 H   0  0  0  0  0
   35.3833   -2.0852   15.9858 H   0  0  0  0  0
   31.9357   -3.0347   16.0120 H   0  0  0  0  0
   33.0815   -2.9044   17.3688 H   0  0  0  0  0
   33.0871   -1.6779   16.0778 H   0  0  0  0  0
   32.7076   -5.2435   15.6744 H   0  0  0  0  0
   34.0131   -5.1646   16.8725 H   0  0  0  0  0
   34.2609   -5.6703   13.8892 H   0  0  0  0  0
   34.6620   -6.7998   15.2553 H   0  0  0  0  0
   38.3339   -4.4993   12.9239 H   0  0  0  0  0
   40.6460   -3.6256   12.9002 H   0  0  0  0  0
   42.2160   -4.2706   14.7134 H   0  0  0  0  0
   41.4531   -5.7648   16.5349 H   0  0  0  0  0
   39.4967   -6.6186   17.8663 H   0  0  0  0  0
   38.1105   -8.4611   17.7589 H   0  0  0  0  0
   35.9347   -7.5157   12.7914 H   0  0  0  0  0
   35.6541   -9.9711   12.6114 H   0  0  0  0  0
   36.6121  -11.4458   14.3652 H   0  0  0  0  0
   37.8000  -10.4640   16.2999 H   0  0  0  0  0
  1  3  1  0  0  0
  1  4  1  0  0  0
  1  5  1  0  0  0
  3  2  1  0  0  0
  2  7  1  0  0  0
  5  6  1  0  0  0
  6  7  1  0  0  0
  7  8  2  0  0  0
  8  9  1  0  0  0
  8 18  1  0  0  0
  9 10  4  0  0  0
  9 14  4  0  0  0
 10 11  4  0  0  0
 11 12  4  0  0  0
 12 13  4  0  0  0
 13 14  4  0  0  0
 14 15  1  0  0  0
 15 16  2  0  0  0
 16 17  1  0  0  0
 17 18  4  0  0  0
 17 22  4  0  0  0
 18 19  4  0  0  0
 19 20  4  0  0  0
 20 21  4  0  0  0
 21 22  4  0  0  0
  1 23  1  0  0  0
  2 24  1  0  0  0
  2 25  1  0  0  0
  3 26  1  0  0  0
  3 27  1  0  0  0
  4 28  1  0  0  0
  4 29  1  0  0  0
  4 30  1  0  0  0
  5 31  1  0  0  0
  5 32  1  0  0  0
  6 33  1  0  0  0
  6 34  1  0  0  0
 10 35  1  0  0  0
 11 36  1  0  0  0
 12 37  1  0  0  0
 13 38  1  0  0  0
 15 39  1  0  0  0
 16 40  1  0  0  0
 19 41  1  0  0  0
 20 42  1  0  0  0
 21 43  1  0  0  0
 22 44  1  0  0  0
M  END
$$$$
