4e8z_ligand
  -I-interpret- 

 43 46  0  0  0  0  0  0  0  0999 V2000
  -14.0570    3.0480   21.2320 Cl  0  0  0  0  0
  -10.5330    7.1430   22.4250 Cl  0  0  0  0  0
  -20.9930    3.9970   21.3160 C   0  0  0  0  0
  -11.6760    2.3050   25.5540 N   0  0  0  0  0
  -20.7160    5.1800   21.4200 O   0  0  0  0  0
  -20.0690    2.9590   21.9050 C   0  0  0  0  0
  -10.0280    2.4890   23.9110 N   0  0  0  0  0
  -22.1070    3.6450   20.6790 O   0  0  0  0  0
  -18.1430    3.0380   23.3790 C   0  0  0  0  0
   -9.5520    3.0210   22.7060 N   0  0  0  0  0
  -19.3230    3.5830   22.9480 O   0  0  0  0  0
  -17.8090    1.7460   22.9850 C   0  0  0  0  0
  -12.0000    3.7190   23.6710 N   0  0  0  0  0
  -16.6140    1.1830   23.4140 C   0  0  0  0  0
  -15.0800    3.7090   25.4300 N   0  0  0  0  0
  -15.7720    1.9300   24.2270 C   0  0  0  0  0
  -14.0550    2.8250   25.6090 C   0  0  0  0  0
  -12.7450    2.8740   26.3650 C   0  0  0  0  0
  -11.2420    2.8480   24.3840 C   0  0  0  0  0
  -10.3050    3.8830   22.0160 C   0  0  0  0  0
  -11.5530    4.2500   22.5070 C   0  0  0  0  0
  -12.4010    5.2080   21.7390 C   0  0  0  0  0
  -13.5600    4.7690   21.1130 C   0  0  0  0  0
  -14.3480    5.6610   20.3920 C   0  0  0  0  0
  -13.9790    6.9950   20.2890 C   0  0  0  0  0
  -12.8170    7.4320   20.9120 C   0  0  0  0  0
  -12.0270    6.5410   21.6300 C   0  0  0  0  0
  -16.0850    3.2220   24.6310 C   0  0  0  0  0
  -17.2870    3.7760   24.1960 C   0  0  0  0  0
  -14.3540    1.3940   24.7940 S   0  0  0  0  0
  -11.2270    1.4501   25.8825 H   0  0  0  0  0
  -19.3977    2.5709   21.1389 H   0  0  0  0  0
  -20.6432    2.1206   22.2992 H   0  0  0  0  0
  -22.1862    2.6883   20.6800 H   0  0  0  0  0
  -18.4821    1.1783   22.3426 H   0  0  0  0  0
  -16.3413    0.1703   23.1170 H   0  0  0  0  0
  -12.5045    3.9117   26.5962 H   0  0  0  0  0
  -12.8414    2.2972   27.2848 H   0  0  0  0  0
   -9.9431    4.2957   21.0743 H   0  0  0  0  0
  -15.2587    5.3106   19.9062 H   0  0  0  0  0
  -14.5959    7.6938   19.7240 H   0  0  0  0  0
  -12.5229    8.4789   20.8377 H   0  0  0  0  0
  -17.5589    4.7883   24.4948 H   0  0  0  0  0
 23  1  1  0  0  0
 27  2  1  0  0  0
  3  5  2  0  0  0
  6  3  1  0  0  0
  3  8  1  0  0  0
  4 18  1  0  0  0
 19  4  1  0  0  0
 11  6  1  0  0  0
 10  7  4  0  0  0
 19  7  4  0  0  0
  9 11  1  0  0  0
 12  9  4  0  0  0
  9 29  4  0  0  0
 20 10  4  0  0  0
 14 12  4  0  0  0
 13 19  4  0  0  0
 21 13  4  0  0  0
 16 14  4  0  0  0
 17 15  4  0  0  0
 15 28  4  0  0  0
 16 28  4  0  0  0
 30 16  4  0  0  0
 18 17  1  0  0  0
 17 30  4  0  0  0
 21 20  4  0  0  0
 22 21  1  0  0  0
 22 23  4  0  0  0
 22 27  4  0  0  0
 23 24  4  0  0  0
 24 25  4  0  0  0
 25 26  4  0  0  0
 26 27  4  0  0  0
 28 29  4  0  0  0
  4 31  1  0  0  0
  6 32  1  0  0  0
  6 33  1  0  0  0
  8 34  1  0  0  0
 12 35  1  0  0  0
 14 36  1  0  0  0
 18 37  1  0  0  0
 18 38  1  0  0  0
 20 39  1  0  0  0
 24 40  1  0  0  0
 25 41  1  0  0  0
 26 42  1  0  0  0
 29 43  1  0  0  0
M  END
$$$$
