### 
### Created by X-TOOL on Mon Sep 10 21:13:17 2018
### 

@<TRIPOS>MOLECULE
4k6u_ligand
  170   175     1     0     0
SMALL
GAST_HUCK


@<TRIPOS>ATOM
      1 C1          8.3310   17.6420    7.9420 C.2       1 SIA         0.1041
      2 C2          7.4740   17.1070    9.0860 C.3       1 SIA         0.2204
      3 C3          7.4580   15.5710    9.1900 C.3       1 SIA         0.0353
      4 C4          8.7500   15.0240    9.8110 C.3       1 SIA         0.0850
      5 C5          9.1620   15.7320   11.1230 C.3       1 SIA         0.0964
      6 C6          9.1910   17.2360   10.8310 C.3       1 SIA         0.1143
      7 C7          9.5590   18.1320   12.0140 C.3       1 SIA         0.1114
      8 C8          9.4900   19.6060   11.5590 C.3       1 SIA         0.1065
      9 C9         10.1880   20.5530   12.5230 C.3       1 SIA         0.0727
     10 C10        10.7200   14.5890   12.6760 C.2       1 SIA         0.1733
     11 C11        12.1750   14.2740   12.9560 C.3       1 SIA         0.0257
     12 N5         10.4940   15.3300   11.5910 N.am      1 SIA        -0.2790
     13 O1A         8.2620   17.1100    6.8220 O.co2     1 SIA        -0.5426
     14 O1B         9.0660   18.6360    8.1640 O.co2     1 SIA        -0.5426
     15 O4          8.5340   13.6230    9.9750 O.3       1 SIA        -0.3893
     16 O6          7.9170   17.6760   10.3280 O.3       1 SIA        -0.3384
     17 O7          8.6930   17.8890   13.1460 O.3       1 SIA        -0.3865
     18 O8         10.0720   19.7690   10.2510 O.3       1 SIA        -0.3869
     19 O9          9.6810   21.8840   12.3320 O.3       1 SIA        -0.3924
     20 O10         9.8310   14.1640   13.4140 O.2       1 SIA        -0.3974
     21 C1         -0.6800   16.0600   16.2800 C.2       1 SIA         0.1041
     22 C2         -0.5160   15.0130   15.1830 C.3       1 SIA         0.2204
     23 C3          0.8980   14.3550   15.1810 C.3       1 SIA         0.0353
     24 C4          1.0570   13.3520   16.3130 C.3       1 SIA         0.0850
     25 C5         -0.1100   12.3360   16.3080 C.3       1 SIA         0.0964
     26 C6         -1.4440   13.1010   16.3420 C.3       1 SIA         0.1143
     27 C7         -2.7060   12.2280   16.4050 C.3       1 SIA         0.1114
     28 C8         -3.9530   13.1520   16.3940 C.3       1 SIA         0.1065
     29 C9         -5.2260   12.4390   16.8200 C.3       1 SIA         0.0727
     30 C10         0.2450   10.2390   17.5440 C.2       1 SIA         0.1733
     31 C11         0.2050    9.6640   18.8980 C.3       1 SIA         0.0257
     32 N5         -0.0600   11.5480   17.5090 N.am      1 SIA        -0.2790
     33 O1A         0.1680   16.9780   16.3170 O.co2     1 SIA        -0.5426
     34 O1B        -1.6210   16.0150   17.1260 O.co2     1 SIA        -0.5426
     35 O4          2.3300   12.6690   16.1580 O.3       1 SIA        -0.3893
     36 O6         -1.5310   13.9870   15.2130 O.3       1 SIA        -0.3384
     37 O7         -2.7640   11.4010   15.2630 O.3       1 SIA        -0.3865
     38 O8         -3.7540   14.2230   17.3270 O.3       1 SIA        -0.3869
     39 O9         -4.9720   11.8120   18.0900 O.3       1 SIA        -0.3924
     40 O10         0.5440    9.5780   16.5800 O.2       1 SIA        -0.3974
     41 OAA        -0.3760   11.4980    6.2690 O.3       1 1P4        -0.3467
     42 CAG        -0.6600   12.1850    5.0410 C.3       1 1P4         0.0526
     43 CAJ        -1.9790   12.9380    5.1720 C.3       1 1P4         0.0010
     44 CAM        -1.9810   14.1160    4.1800 C.3       1 1P4         0.0775
     45 NBC        -1.4630   15.3610    4.8270 N.pl3     1 1P4        -0.1810
     46 CAD        -2.1370   16.5000    4.8590 C.2       1 1P4         0.0744
     47 NAV        -0.3030   15.5580    5.4550 N.2       1 1P4        -0.1018
     48 NAS        -0.2320   16.7650    5.8720 N.2       1 1P4        -0.2212
     49 CAY        -1.3600   17.3550    5.4980 C.2       1 1P4         0.0810
     50 CAP        -1.7150   18.7990    5.7910 C.3       1 1P4         0.0053
     51 NBB        -1.2500   19.0880    7.1460 N.4       1 1P4         0.2614
     52 CAR        -2.3210   18.8240    8.0900 C.3       1 1P4         0.0053
     53 CBA        -1.5620   18.4770    9.3520 C.2       1 1P4         0.0810
     54 CAF        -1.9110   18.7670   10.5880 C.2       1 1P4         0.0744
     55 NAU        -0.4170   17.8060    9.3530 N.2       1 1P4        -0.2212
     56 NAX        -0.0680   17.6830   10.5230 N.2       1 1P4        -0.1018
     57 NBE        -0.9350   18.2370   11.3300 N.pl3     1 1P4        -0.1810
     58 CAO        -0.8110   18.2870   12.7700 C.3       1 1P4         0.0775
     59 CAL        -1.9740   17.5280   13.3950 C.3       1 1P4         0.0010
     60 CAI        -1.8160   16.0470   13.0120 C.3       1 1P4         0.0526
     61 OAC        -0.7980   15.4460   13.8800 O.3       1 1P4        -0.3467
     62 CAQ        -0.6990   20.3990    7.2760 C.3       1 1P4         0.0053
     63 CAZ         0.6640   20.1590    6.7350 C.2       1 1P4         0.0810
     64 CAE         1.6730   19.6930    7.4290 C.2       1 1P4         0.0744
     65 NAT         1.0180   20.3220    5.4750 N.2       1 1P4        -0.2212
     66 NAW         2.1720   20.0130    5.3870 N.2       1 1P4        -0.1018
     67 NBD         2.6440   19.6140    6.5290 N.pl3     1 1P4        -0.1810
     68 CAN         4.0080   19.2180    6.6520 C.3       1 1P4         0.0775
     69 CAK         4.2110   18.7870    8.0790 C.3       1 1P4         0.0010
     70 CAH         5.7150   18.9480    8.3370 C.3       1 1P4         0.0526
     71 OAB         6.1870   17.7370    8.9680 O.3       1 1P4        -0.3467
     72 C1         -1.4590    9.4250    5.8150 C.2       1 SIA         0.1041
     73 C2         -0.1600   10.0860    6.3130 C.3       1 SIA         0.2204
     74 C3          0.3020    9.5570    7.6700 C.3       1 SIA         0.0353
     75 C4          0.9670    8.1850    7.5660 C.3       1 SIA         0.0850
     76 C5          2.0280    8.0980    6.4670 C.3       1 SIA         0.0964
     77 C6          1.3530    8.5650    5.1970 C.3       1 SIA         0.1143
     78 C7          2.2400    8.4820    3.9690 C.3       1 SIA         0.1114
     79 C8          1.5270    8.9710    2.7460 C.3       1 SIA         0.1065
     80 C9          2.2440    8.4020    1.5300 C.3       1 SIA         0.0727
     81 C10         3.6530    6.2230    6.5700 C.2       1 SIA         0.1733
     82 C11         3.9000    4.7720    6.2930 C.3       1 SIA         0.0257
     83 N5          2.4530    6.7040    6.2340 N.am      1 SIA        -0.2790
     84 O1A        -1.5410    8.9920    4.6380 O.co2     1 SIA        -0.5426
     85 O1B        -2.4070    9.3800    6.5900 O.co2     1 SIA        -0.5426
     86 O4          1.4960    7.8940    8.8290 O.3       1 SIA        -0.3893
     87 O6          0.8790    9.9180    5.3550 O.3       1 SIA        -0.3384
     88 O7          3.3540    9.3290    4.1360 O.3       1 SIA        -0.3865
     89 O8          0.1850    8.5180    2.7460 O.3       1 SIA        -0.3869
     90 O9          1.8610    9.1770    0.4040 O.3       1 SIA        -0.3924
     91 O10         4.5040    6.8970    7.1100 O.2       1 SIA        -0.3974
     92 H1          7.3419   15.1478    8.1813 H         1 SIA         0.0336
     93 H2          6.6063   15.2662    9.8159 H         1 SIA         0.0336
     94 H3          9.5710   15.1714    9.0940 H         1 SIA         0.0618
     95 H4          8.4221   15.5093   11.9059 H         1 SIA         0.0608
     96 H5          9.9481   17.3953   10.0490 H         1 SIA         0.0646
     97 H6         10.5916   17.9061   12.3185 H         1 SIA         0.0647
     98 H7          8.4288   19.8907   11.5071 H         1 SIA         0.0643
     99 H8         11.2709   20.5412   12.3303 H         1 SIA         0.0584
    100 H9          9.9961   20.2317   13.5574 H         1 SIA         0.0584
    101 H10        12.2489   13.6621   13.8671 H         1 SIA         0.0467
    102 H11        12.7324   15.2116   13.0979 H         1 SIA         0.0467
    103 H12        12.6002   13.7195   12.1064 H         1 SIA         0.0467
    104 H13        11.2855   15.6325   11.0600 H         1 SIA         0.1856
    105 H14         9.3340   13.2144   10.2842 H         1 SIA         0.2099
    106 H15         7.7960   18.0895   12.9059 H         1 SIA         0.2100
    107 H16         9.6434   19.1817    9.6395 H         1 SIA         0.2100
    108 H17        10.1161   22.4767   12.9335 H         1 SIA         0.2095
    109 H18         1.6573   15.1428   15.2944 H         1 SIA         0.0336
    110 H19         1.0479   13.8365   14.2225 H         1 SIA         0.0336
    111 H20         1.0524   13.8897   17.2726 H         1 SIA         0.0618
    112 H21        -0.0510   11.6932   15.4174 H         1 SIA         0.0608
    113 H22        -1.4346   13.7146   17.2549 H         1 SIA         0.0646
    114 H23        -2.6939   11.6138   17.3175 H         1 SIA         0.0647
    115 H24        -4.0852   13.5554   15.3792 H         1 SIA         0.0643
    116 H25        -5.4966   11.6775   16.0737 H         1 SIA         0.0584
    117 H26        -6.0470   13.1645   16.9179 H         1 SIA         0.0584
    118 H27         0.4637    8.5959   18.8505 H         1 SIA         0.0467
    119 H28        -0.8064    9.7780   19.3151 H         1 SIA         0.0467
    120 H29         0.9278   10.1881   19.5405 H         1 SIA         0.0467
    121 H30        -0.2655   12.0032   18.3754 H         1 SIA         0.1856
    122 H31         2.3362   12.1962   15.3339 H         1 SIA         0.2099
    123 H32        -3.5582   10.8805   15.2903 H         1 SIA         0.2100
    124 H33        -2.9644   14.6987   17.0976 H         1 SIA         0.2100
    125 H34        -4.7350   12.4752   18.7276 H         1 SIA         0.2095
    126 H35        -0.7346   11.4551    4.2215 H         1 SIA         0.0560
    127 H36         0.1491   12.8981    4.8244 H         1 SIA         0.0560
    128 H37        -2.0863   13.3192    6.1982 H         1 SIA         0.0316
    129 H38        -2.8151   12.2610    4.9430 H         1 SIA         0.0316
    130 H39        -3.0097   14.2922    3.8326 H         1 SIA         0.0648
    131 H40        -1.3418   13.8642    3.3209 H         1 SIA         0.0648
    132 H41        -3.1258   16.6917    4.4448 H         1 SIA         0.0900
    133 H42        -2.8040   18.9405    5.7274 H         1 SIA         0.0932
    134 H43        -1.2161   19.4641    5.0708 H         1 SIA         0.0932
    135 H44        -0.5045   18.4413    7.3513 H         1 SIA         0.2064
    136 H45        -2.9464   17.9824    7.7575 H         1 SIA         0.0932
    137 H46        -2.9511   19.7137    8.2363 H         1 SIA         0.0932
    138 H47        -2.7908   19.3122   10.9266 H         1 SIA         0.0900
    139 H48        -0.8314   19.3343   13.1057 H         1 SIA         0.0648
    140 H49         0.1385   17.8227   13.0747 H         1 SIA         0.0648
    141 H50        -2.9277   17.9166   13.0083 H         1 SIA         0.0316
    142 H51        -1.9499   17.6379   14.4892 H         1 SIA         0.0316
    143 H52        -1.5009   15.9674   11.9611 H         1 SIA         0.0560
    144 H53        -2.7744   15.5246   13.1481 H         1 SIA         0.0560
    145 H54        -0.6699   20.7277    8.3253 H         1 SIA         0.0932
    146 H55        -1.2527   21.1362    6.6760 H         1 SIA         0.0932
    147 H56         1.7062   19.4339    8.4862 H         1 SIA         0.0900
    148 H57         4.6703   20.0635    6.4144 H         1 SIA         0.0648
    149 H58         4.2221   18.3817    5.9702 H         1 SIA         0.0648
    150 H59         3.9067   17.7384    8.2124 H         1 SIA         0.0316
    151 H60         3.6319   19.4265    8.7614 H         1 SIA         0.0316
    152 H61         5.8910   19.8082    8.9996 H         1 SIA         0.0560
    153 H62         6.2434   19.1042    7.3850 H         1 SIA         0.0560
    154 H63        -0.5716    9.4765    8.3336 H         1 SIA         0.0336
    155 H64         1.0239   10.2676    8.0988 H         1 SIA         0.0336
    156 H65         0.1907    7.4421    7.3305 H         1 SIA         0.0618
    157 H66         2.8954    8.7264    6.7175 H         1 SIA         0.0608
    158 H67         0.4846    7.9121    5.0252 H         1 SIA         0.0646
    159 H68         2.5667    7.4417    3.8244 H         1 SIA         0.0647
    160 H69         1.5459   10.0704    2.7164 H         1 SIA         0.0643
    161 H70         1.9519    7.3522    1.3796 H         1 SIA         0.0584
    162 H71         3.3328    8.4627    1.6742 H         1 SIA         0.0584
    163 H72         4.9178    4.5055    6.6142 H         1 SIA         0.0467
    164 H73         3.7940    4.5813    5.2149 H         1 SIA         0.0467
    165 H74         3.1697    4.1635    6.8465 H         1 SIA         0.0467
    166 H75         1.8030    6.0816    5.7980 H         1 SIA         0.1856
    167 H76         1.8507    7.0127    8.8271 H         1 SIA         0.2099
    168 H77         3.9111    9.2728    3.3685 H         1 SIA         0.2100
    169 H78        -0.2671    8.8706    3.5035 H         1 SIA         0.2100
    170 H79         2.2955    8.8426   -0.3718 H         1 SIA         0.2095
@<TRIPOS>BOND
     1    2    1 1  
     2    1   13 ar 
     3    1   14 ar 
     4    2    3 1  
     5    2   16 1  
     6   71    2 1  
     7    3    4 1  
     8    4    5 1  
     9    4   15 1  
    10    6    5 1  
    11    5   12 1  
    12    6    7 1  
    13   16    6 1  
    14    7    8 1  
    15    7   17 1  
    16    8    9 1  
    17    8   18 1  
    18    9   19 1  
    19   10   11 1  
    20   12   10 am 
    21   10   20 2  
    22   22   21 1  
    23   21   33 ar 
    24   21   34 ar 
    25   22   23 1  
    26   22   36 1  
    27   61   22 1  
    28   23   24 1  
    29   24   25 1  
    30   24   35 1  
    31   26   25 1  
    32   25   32 1  
    33   26   27 1  
    34   36   26 1  
    35   27   28 1  
    36   27   37 1  
    37   28   29 1  
    38   28   38 1  
    39   29   39 1  
    40   30   31 1  
    41   32   30 am 
    42   30   40 2  
    43   41   42 1  
    44   73   41 1  
    45   42   43 1  
    46   43   44 1  
    47   44   45 1  
    48   45   46 1  
    49   45   47 1  
    50   46   49 2  
    51   47   48 2  
    52   48   49 1  
    53   49   50 1  
    54   50   51 1  
    55   51   52 1  
    56   51   62 1  
    57   52   53 1  
    58   53   54 2  
    59   53   55 1  
    60   54   57 1  
    61   55   56 2  
    62   56   57 1  
    63   57   58 1  
    64   58   59 1  
    65   59   60 1  
    66   60   61 1  
    67   62   63 1  
    68   63   64 2  
    69   63   65 1  
    70   64   67 1  
    71   65   66 2  
    72   66   67 1  
    73   67   68 1  
    74   68   69 1  
    75   69   70 1  
    76   70   71 1  
    77   73   72 1  
    78   72   84 ar 
    79   72   85 ar 
    80   74   73 1  
    81   87   73 1  
    82   75   74 1  
    83   76   75 1  
    84   75   86 1  
    85   76   77 1  
    86   83   76 1  
    87   77   78 1  
    88   77   87 1  
    89   78   79 1  
    90   78   88 1  
    91   79   80 1  
    92   79   89 1  
    93   80   90 1  
    94   81   82 1  
    95   81   83 am 
    96   81   91 2  
    97    3   92 1  
    98    3   93 1  
    99    4   94 1  
   100    5   95 1  
   101    6   96 1  
   102    7   97 1  
   103    8   98 1  
   104    9   99 1  
   105    9  100 1  
   106   11  101 1  
   107   11  102 1  
   108   11  103 1  
   109   12  104 1  
   110   15  105 1  
   111   17  106 1  
   112   18  107 1  
   113   19  108 1  
   114   23  109 1  
   115   23  110 1  
   116   24  111 1  
   117   25  112 1  
   118   26  113 1  
   119   27  114 1  
   120   28  115 1  
   121   29  116 1  
   122   29  117 1  
   123   31  118 1  
   124   31  119 1  
   125   31  120 1  
   126   32  121 1  
   127   35  122 1  
   128   37  123 1  
   129   38  124 1  
   130   39  125 1  
   131   42  126 1  
   132   42  127 1  
   133   43  128 1  
   134   43  129 1  
   135   44  130 1  
   136   44  131 1  
   137   46  132 1  
   138   50  133 1  
   139   50  134 1  
   140   51  135 1  
   141   52  136 1  
   142   52  137 1  
   143   54  138 1  
   144   58  139 1  
   145   58  140 1  
   146   59  141 1  
   147   59  142 1  
   148   60  143 1  
   149   60  144 1  
   150   62  145 1  
   151   62  146 1  
   152   64  147 1  
   153   68  148 1  
   154   68  149 1  
   155   69  150 1  
   156   69  151 1  
   157   70  152 1  
   158   70  153 1  
   159   74  154 1  
   160   74  155 1  
   161   75  156 1  
   162   76  157 1  
   163   77  158 1  
   164   78  159 1  
   165   79  160 1  
   166   80  161 1  
   167   80  162 1  
   168   82  163 1  
   169   82  164 1  
   170   82  165 1  
   171   83  166 1  
   172   86  167 1  
   173   88  168 1  
   174   89  169 1  
   175   90  170 1  
@<TRIPOS>SUBSTRUCTURE
     1 SIA         1

