4k6u_ligand
  -I-interpret- 

173178  0  0  0  0  0  0  0  0999 V2000
    8.3310   17.6420    7.9420 C   0  0  0  0  0
    7.4740   17.1070    9.0860 C   0  0  0  0  0
    7.4580   15.5710    9.1900 C   0  0  0  0  0
    8.7500   15.0240    9.8110 C   0  0  0  0  0
    9.1620   15.7320   11.1230 C   0  0  0  0  0
    9.1910   17.2360   10.8310 C   0  0  0  0  0
    9.5590   18.1320   12.0140 C   0  0  0  0  0
    9.4900   19.6060   11.5590 C   0  0  0  0  0
   10.1880   20.5530   12.5230 C   0  0  0  0  0
   10.7200   14.5890   12.6760 C   0  0  0  0  0
   12.1750   14.2740   12.9560 C   0  0  0  0  0
   10.4940   15.3300   11.5910 N   0  0  0  0  0
    8.2620   17.1100    6.8220 O   0  0  0  0  0
    9.0660   18.6360    8.1640 O   0  0  0  0  0
    8.5340   13.6230    9.9750 O   0  0  0  0  0
    7.9170   17.6760   10.3280 O   0  0  0  0  0
    8.6930   17.8890   13.1460 O   0  0  0  0  0
   10.0720   19.7690   10.2510 O   0  0  0  0  0
    9.6810   21.8840   12.3320 O   0  0  0  0  0
    9.8310   14.1640   13.4140 O   0  0  0  0  0
   -0.6800   16.0600   16.2800 C   0  0  0  0  0
   -0.5160   15.0130   15.1830 C   0  0  0  0  0
    0.8980   14.3550   15.1810 C   0  0  0  0  0
    1.0570   13.3520   16.3130 C   0  0  0  0  0
   -0.1100   12.3360   16.3080 C   0  0  0  0  0
   -1.4440   13.1010   16.3420 C   0  0  0  0  0
   -2.7060   12.2280   16.4050 C   0  0  0  0  0
   -3.9530   13.1520   16.3940 C   0  0  0  0  0
   -5.2260   12.4390   16.8200 C   0  0  0  0  0
    0.2450   10.2390   17.5440 C   0  0  0  0  0
    0.2050    9.6640   18.8980 C   0  0  0  0  0
   -0.0600   11.5480   17.5090 N   0  0  0  0  0
    0.1680   16.9780   16.3170 O   0  0  0  0  0
   -1.6210   16.0150   17.1260 O   0  0  0  0  0
    2.3300   12.6690   16.1580 O   0  0  0  0  0
   -1.5310   13.9870   15.2130 O   0  0  0  0  0
   -2.7640   11.4010   15.2630 O   0  0  0  0  0
   -3.7540   14.2230   17.3270 O   0  0  0  0  0
   -4.9720   11.8120   18.0900 O   0  0  0  0  0
    0.5440    9.5780   16.5800 O   0  0  0  0  0
   -0.3760   11.4980    6.2690 O   0  0  0  0  0
   -0.6600   12.1850    5.0410 C   0  0  0  0  0
   -1.9790   12.9380    5.1720 C   0  0  0  0  0
   -1.9810   14.1160    4.1800 C   0  0  0  0  0
   -1.4630   15.3610    4.8270 N   0  0  0  0  0
   -2.1370   16.5000    4.8590 C   0  0  0  0  0
   -0.3030   15.5580    5.4550 N   0  0  0  0  0
   -0.2320   16.7650    5.8720 N   0  0  0  0  0
   -1.3600   17.3550    5.4980 C   0  0  0  0  0
   -1.7150   18.7990    5.7910 C   0  0  0  0  0
   -1.2500   19.0880    7.1460 N   0  3  0  0  0
   -2.3210   18.8240    8.0900 C   0  0  0  0  0
   -1.5620   18.4770    9.3520 C   0  0  0  0  0
   -1.9110   18.7670   10.5880 C   0  0  0  0  0
   -0.4170   17.8060    9.3530 N   0  0  0  0  0
   -0.0680   17.6830   10.5230 N   0  0  0  0  0
   -0.9350   18.2370   11.3300 N   0  0  0  0  0
   -0.8110   18.2870   12.7700 C   0  0  0  0  0
   -1.9740   17.5280   13.3950 C   0  0  0  0  0
   -1.8160   16.0470   13.0120 C   0  0  0  0  0
   -0.7980   15.4460   13.8800 O   0  0  0  0  0
   -0.6990   20.3990    7.2760 C   0  0  0  0  0
    0.6640   20.1590    6.7350 C   0  0  0  0  0
    1.6730   19.6930    7.4290 C   0  0  0  0  0
    1.0180   20.3220    5.4750 N   0  0  0  0  0
    2.1720   20.0130    5.3870 N   0  0  0  0  0
    2.6440   19.6140    6.5290 N   0  0  0  0  0
    4.0080   19.2180    6.6520 C   0  0  0  0  0
    4.2110   18.7870    8.0790 C   0  0  0  0  0
    5.7150   18.9480    8.3370 C   0  0  0  0  0
    6.1870   17.7370    8.9680 O   0  0  0  0  0
   -1.4590    9.4250    5.8150 C   0  0  0  0  0
   -0.1600   10.0860    6.3130 C   0  0  0  0  0
    0.3020    9.5570    7.6700 C   0  0  0  0  0
    0.9670    8.1850    7.5660 C   0  0  0  0  0
    2.0280    8.0980    6.4670 C   0  0  0  0  0
    1.3530    8.5650    5.1970 C   0  0  0  0  0
    2.2400    8.4820    3.9690 C   0  0  0  0  0
    1.5270    8.9710    2.7460 C   0  0  0  0  0
    2.2440    8.4020    1.5300 C   0  0  0  0  0
    3.6530    6.2230    6.5700 C   0  0  0  0  0
    3.9000    4.7720    6.2930 C   0  0  0  0  0
    2.4530    6.7040    6.2340 N   0  0  0  0  0
   -1.5410    8.9920    4.6380 O   0  0  0  0  0
   -2.4070    9.3800    6.5900 O   0  0  0  0  0
    1.4960    7.8940    8.8290 O   0  0  0  0  0
    0.8790    9.9180    5.3550 O   0  0  0  0  0
    3.3540    9.3290    4.1360 O   0  0  0  0  0
    0.1850    8.5180    2.7460 O   0  0  0  0  0
    1.8610    9.1770    0.4040 O   0  0  0  0  0
    4.5040    6.8970    7.1100 O   0  0  0  0  0
    7.3634   15.1621    8.1841 H   0  0  0  0  0
    6.6234   15.2811    9.8284 H   0  0  0  0  0
    9.6004   15.2199    9.1579 H   0  0  0  0  0
    8.4485   15.4618   11.9014 H   0  0  0  0  0
    9.9869   17.3435   10.0940 H   0  0  0  0  0
   10.5730   17.9021   12.3413 H   0  0  0  0  0
    8.4306   19.8614   11.5348 H   0  0  0  0  0
   11.2613   20.5407   12.3335 H   0  0  0  0  0
    9.9994   20.2344   13.5482 H   0  0  0  0  0
   12.4475   14.6634   13.9369 H   0  0  0  0  0
   12.3214   13.1940   12.9389 H   0  0  0  0  0
   12.7994   14.7387   12.1929 H   0  0  0  0  0
   11.3014   15.6385   11.0494 H   0  0  0  0  0
    8.9800   18.8971    9.0838 H   0  0  0  0  0
    8.2820   13.2384    9.1323 H   0  0  0  0  0
    8.7577   16.9668   13.4048 H   0  0  0  0  0
   10.0175   20.6914    9.9904 H   0  0  0  0  0
   10.1207   22.4830   12.9399 H   0  0  0  0  0
    1.6414   15.1411   15.3133 H   0  0  0  0  0
    1.0288   13.8280   14.2359 H   0  0  0  0  0
    1.0375   13.8749   17.2692 H   0  0  0  0  0
   -0.0292   11.7105   15.4190 H   0  0  0  0  0
   -1.4257   13.6524   17.2820 H   0  0  0  0  0
   -2.6819   11.6190   17.3087 H   0  0  0  0  0
   -4.0676   13.4998   15.3673 H   0  0  0  0  0
   -5.5090   11.6923   16.0781 H   0  0  0  0  0
   -6.0483   13.1494   16.9054 H   0  0  0  0  0
   -0.5193    8.8498   18.9244 H   0  0  0  0  0
    1.1922    9.2824   19.1586 H   0  0  0  0  0
   -0.0875   10.4354   19.6104 H   0  0  0  0  0
   -0.2696   12.0123   18.3927 H   0  0  0  0  0
   -2.1728   15.2496   16.9488 H   0  0  0  0  0
    2.4393   12.0331   16.8689 H   0  0  0  0  0
   -3.5532   10.8560   15.3037 H   0  0  0  0  0
   -4.5237   14.7967   17.3228 H   0  0  0  0  0
   -5.7627   11.3531   18.3829 H   0  0  0  0  0
   -0.7342   11.4615    4.2291 H   0  0  0  0  0
    0.1417   12.8918    4.8267 H   0  0  0  0  0
   -2.0901   13.3127    6.1895 H   0  0  0  0  0
   -2.8096   12.2679    4.9503 H   0  0  0  0  0
   -3.0043   14.2932    3.8490 H   0  0  0  0  0
   -1.3366   13.8652    3.3374 H   0  0  0  0  0
   -3.1267   16.6918    4.4444 H   0  0  0  0  0
   -2.7908   18.9550    5.7114 H   0  0  0  0  0
   -1.2413   19.4660    5.0707 H   0  0  0  0  0
   -0.4729   18.4635    7.3617 H   0  0  0  0  0
   -2.9942   18.0314    7.7634 H   0  0  0  0  0
   -2.9987   19.6684    8.2162 H   0  0  0  0  0
   -2.7916   19.3127   10.9269 H   0  0  0  0  0
   -0.8273   19.3243   13.1043 H   0  0  0  0  0
    0.1311   17.8306   13.0737 H   0  0  0  0  0
   -2.9244   17.9175   13.0301 H   0  0  0  0  0
   -1.9680   17.6449   14.4787 H   0  0  0  0  0
   -1.5109   15.9637   11.9689 H   0  0  0  0  0
   -2.7657   15.5273   13.1385 H   0  0  0  0  0
   -0.7179   20.7976    8.2903 H   0  0  0  0  0
   -1.2594   21.1771    6.7577 H   0  0  0  0  0
    1.7062   19.4337    8.4872 H   0  0  0  0  0
    4.6744   20.0425    6.3986 H   0  0  0  0  0
    4.2374   18.4030    5.9656 H   0  0  0  0  0
    3.8828   17.7601    8.2397 H   0  0  0  0  0
    3.6179   19.3873    8.7689 H   0  0  0  0  0
    5.8984   19.8071    8.9822 H   0  0  0  0  0
    6.2439   19.1168    7.3990 H   0  0  0  0  0
   -0.5752    9.4586    8.3095 H   0  0  0  0  0
    1.0344   10.2567    8.0727 H   0  0  0  0  0
    0.2231    7.4448    7.2713 H   0  0  0  0  0
    2.8981    8.6892    6.7524 H   0  0  0  0  0
    0.5192    7.8829    5.0308 H   0  0  0  0  0
    2.5275    7.4373    3.8506 H   0  0  0  0  0
    1.5274   10.0608    2.7272 H   0  0  0  0  0
    1.9716    7.3569    1.3826 H   0  0  0  0  0
    3.3240    8.4445    1.6711 H   0  0  0  0  0
    4.7665    4.6705    5.6396 H   0  0  0  0  0
    4.0883    4.2511    7.2318 H   0  0  0  0  0
    3.0243    4.3420    5.8068 H   0  0  0  0  0
    1.7900    6.0692    5.7893 H   0  0  0  0  0
   -0.6993    9.1159    4.1933 H   0  0  0  0  0
    1.9246    7.0353    8.8051 H   0  0  0  0  0
    3.9145    9.2757    3.3585 H   0  0  0  0  0
   -0.2596    8.8382    1.9577 H   0  0  0  0  0
    2.3000    8.8390   -0.3800 H   0  0  0  0  0
  2  1  1  0  0  0
  1 13  2  0  0  0
  1 14  1  0  0  0
  2  3  1  0  0  0
  2 16  1  0  0  0
 71  2  1  0  0  0
  3  4  1  0  0  0
  4  5  1  0  0  0
  4 15  1  0  0  0
  6  5  1  0  0  0
  5 12  1  0  0  0
  6  7  1  0  0  0
 16  6  1  0  0  0
  7  8  1  0  0  0
  7 17  1  0  0  0
  8  9  1  0  0  0
  8 18  1  0  0  0
  9 19  1  0  0  0
 10 11  1  0  0  0
 12 10  1  0  0  0
 10 20  2  0  0  0
 22 21  1  0  0  0
 21 33  2  0  0  0
 21 34  1  0  0  0
 22 23  1  0  0  0
 22 36  1  0  0  0
 61 22  1  0  0  0
 23 24  1  0  0  0
 24 25  1  0  0  0
 24 35  1  0  0  0
 26 25  1  0  0  0
 25 32  1  0  0  0
 26 27  1  0  0  0
 36 26  1  0  0  0
 27 28  1  0  0  0
 27 37  1  0  0  0
 28 29  1  0  0  0
 28 38  1  0  0  0
 29 39  1  0  0  0
 30 31  1  0  0  0
 32 30  1  0  0  0
 30 40  2  0  0  0
 41 42  1  0  0  0
 73 41  1  0  0  0
 42 43  1  0  0  0
 43 44  1  0  0  0
 44 45  1  0  0  0
 45 46  4  0  0  0
 45 47  4  0  0  0
 46 49  4  0  0  0
 47 48  4  0  0  0
 48 49  4  0  0  0
 49 50  1  0  0  0
 50 51  1  0  0  0
 51 52  1  0  0  0
 51 62  1  0  0  0
 52 53  1  0  0  0
 53 54  4  0  0  0
 53 55  4  0  0  0
 54 57  4  0  0  0
 55 56  4  0  0  0
 56 57  4  0  0  0
 57 58  1  0  0  0
 58 59  1  0  0  0
 59 60  1  0  0  0
 60 61  1  0  0  0
 62 63  1  0  0  0
 63 64  4  0  0  0
 63 65  4  0  0  0
 64 67  4  0  0  0
 65 66  4  0  0  0
 66 67  4  0  0  0
 67 68  1  0  0  0
 68 69  1  0  0  0
 69 70  1  0  0  0
 70 71  1  0  0  0
 73 72  1  0  0  0
 72 84  1  0  0  0
 72 85  2  0  0  0
 74 73  1  0  0  0
 87 73  1  0  0  0
 75 74  1  0  0  0
 76 75  1  0  0  0
 75 86  1  0  0  0
 76 77  1  0  0  0
 83 76  1  0  0  0
 77 78  1  0  0  0
 77 87  1  0  0  0
 78 79  1  0  0  0
 78 88  1  0  0  0
 79 80  1  0  0  0
 79 89  1  0  0  0
 80 90  1  0  0  0
 81 82  1  0  0  0
 81 83  1  0  0  0
 81 91  2  0  0  0
  3 92  1  0  0  0
  3 93  1  0  0  0
  4 94  1  0  0  0
  5 95  1  0  0  0
  6 96  1  0  0  0
  7 97  1  0  0  0
  8 98  1  0  0  0
  9 99  1  0  0  0
  9100  1  0  0  0
 11101  1  0  0  0
 11102  1  0  0  0
 11103  1  0  0  0
 12104  1  0  0  0
 14105  1  0  0  0
 15106  1  0  0  0
 17107  1  0  0  0
 18108  1  0  0  0
 19109  1  0  0  0
 23110  1  0  0  0
 23111  1  0  0  0
 24112  1  0  0  0
 25113  1  0  0  0
 26114  1  0  0  0
 27115  1  0  0  0
 28116  1  0  0  0
 29117  1  0  0  0
 29118  1  0  0  0
 31119  1  0  0  0
 31120  1  0  0  0
 31121  1  0  0  0
 32122  1  0  0  0
 34123  1  0  0  0
 35124  1  0  0  0
 37125  1  0  0  0
 38126  1  0  0  0
 39127  1  0  0  0
 42128  1  0  0  0
 42129  1  0  0  0
 43130  1  0  0  0
 43131  1  0  0  0
 44132  1  0  0  0
 44133  1  0  0  0
 46134  1  0  0  0
 50135  1  0  0  0
 50136  1  0  0  0
 51137  1  0  0  0
 52138  1  0  0  0
 52139  1  0  0  0
 54140  1  0  0  0
 58141  1  0  0  0
 58142  1  0  0  0
 59143  1  0  0  0
 59144  1  0  0  0
 60145  1  0  0  0
 60146  1  0  0  0
 62147  1  0  0  0
 62148  1  0  0  0
 64149  1  0  0  0
 68150  1  0  0  0
 68151  1  0  0  0
 69152  1  0  0  0
 69153  1  0  0  0
 70154  1  0  0  0
 70155  1  0  0  0
 74156  1  0  0  0
 74157  1  0  0  0
 75158  1  0  0  0
 76159  1  0  0  0
 77160  1  0  0  0
 78161  1  0  0  0
 79162  1  0  0  0
 80163  1  0  0  0
 80164  1  0  0  0
 82165  1  0  0  0
 82166  1  0  0  0
 82167  1  0  0  0
 83168  1  0  0  0
 84169  1  0  0  0
 86170  1  0  0  0
 88171  1  0  0  0
 89172  1  0  0  0
 90173  1  0  0  0
M  END
$$$$
