3hfb_ligand
  -I-interpret- 

 60 63  0  0  0  0  0  0  0  0999 V2000
   16.0630    5.9860   19.2230 O   0  0  0  0  0
   15.4590    5.2980   18.3710 C   0  0  0  0  0
   15.6400    5.4490   17.1480 O   0  0  0  0  0
   14.4830    4.2540   18.8360 C   0  0  0  0  0
   14.6730    3.9930   20.2560 N   0  3  0  0  0
   13.0670    4.7470   18.5610 C   0  0  0  0  0
   12.0220    3.6870   18.8300 C   0  0  0  0  0
   11.8420    2.6290   17.9430 C   0  0  0  0  0
   10.8710    1.6600   18.2030 C   0  0  0  0  0
   10.0710    1.7510   19.3470 C   0  0  0  0  0
   10.2620    2.8060   20.2390 C   0  0  0  0  0
   11.2330    3.7700   19.9810 C   0  0  0  0  0
    9.0410    0.7130   19.6260 C   0  0  0  0  0
    8.8310   -0.3130   18.7630 N   0  0  0  0  0
    7.9100   -1.2530   19.0050 C   0  0  0  0  0
    7.1540   -1.1840   20.1670 C   0  0  0  0  0
    7.3640   -0.1650   21.0310 N   0  0  0  0  0
    8.2840    0.7780   20.7890 C   0  0  0  0  0
    6.2210   -2.1260   20.4420 N   0  0  0  0  0
    5.8650   -2.4200   21.8260 C   0  0  0  0  0
    5.1650   -3.7610   21.9390 C   0  0  0  0  0
    3.7380   -3.8550   22.3810 C   0  0  0  0  0
    3.1370   -5.1110   22.4740 C   0  0  0  0  0
    3.8690   -6.2550   22.1600 C   0  0  0  0  0
    5.1990   -6.1710   21.7430 C   0  0  0  0  0
    5.8450   -4.9400   21.6360 C   0  0  0  0  0
    2.9570   -2.6340   22.7240 C   0  0  0  0  0
    2.3090   -1.9230   21.7170 C   0  0  0  0  0
    1.5760   -0.7780   22.0300 C   0  0  0  0  0
    1.4790   -0.3290   23.3470 C   0  0  0  0  0
    2.1110   -1.0070   24.3920 C   0  0  0  0  0
    2.8560   -2.1560   24.1350 C   0  0  0  0  0
    3.5380   -2.8860   25.2730 C   0  0  0  0  0
   15.7868    5.7187   20.1027 H   0  0  0  0  0
   14.6487    3.3215   18.2965 H   0  0  0  0  0
   15.6255    3.6649   20.4157 H   0  0  0  0  0
   14.5153    4.8523   20.7825 H   0  0  0  0  0
   14.0108    3.2796   20.5609 H   0  0  0  0  0
   13.0049    5.0208   17.5078 H   0  0  0  0  0
   12.8697    5.5896   19.2237 H   0  0  0  0  0
   12.4583    2.5573   17.0468 H   0  0  0  0  0
   10.7356    0.8286   17.5113 H   0  0  0  0  0
    9.6507    2.8759   21.1387 H   0  0  0  0  0
   11.3787    4.5935   20.6800 H   0  0  0  0  0
    7.7548   -2.0660   18.2957 H   0  0  0  0  0
    8.4375    1.5904   21.4993 H   0  0  0  0  0
    5.7666   -2.6305   19.6808 H   0  0  0  0  0
    5.1892   -1.6434   22.1840 H   0  0  0  0  0
    6.7779   -2.4527   22.4208 H   0  0  0  0  0
    2.0978   -5.1973   22.7914 H   0  0  0  0  0
    3.3945   -7.2329   22.2415 H   0  0  0  0  0
    5.7417   -7.0837   21.4968 H   0  0  0  0  0
    6.8856   -4.8992   21.3142 H   0  0  0  0  0
    2.3746   -2.2615   20.6830 H   0  0  0  0  0
    1.0727   -0.2273   21.2353 H   0  0  0  0  0
    0.8991    0.5679   23.5648 H   0  0  0  0  0
    2.0210   -0.6356   25.4128 H   0  0  0  0  0
    3.1565   -3.9055   25.3295 H   0  0  0  0  0
    4.6133   -2.9084   25.0960 H   0  0  0  0  0
    3.3334   -2.3677   26.2098 H   0  0  0  0  0
  1  2  1  0  0  0
  2  3  2  0  0  0
  2  4  1  0  0  0
  4  5  1  0  0  0
  4  6  1  0  0  0
  6  7  1  0  0  0
  7  8  4  0  0  0
  7 12  4  0  0  0
  8  9  4  0  0  0
  9 10  4  0  0  0
 10 11  4  0  0  0
 10 13  1  0  0  0
 11 12  4  0  0  0
 13 14  4  0  0  0
 13 18  4  0  0  0
 14 15  4  0  0  0
 15 16  4  0  0  0
 16 17  4  0  0  0
 16 19  1  0  0  0
 17 18  4  0  0  0
 19 20  1  0  0  0
 20 21  1  0  0  0
 21 22  4  0  0  0
 21 26  4  0  0  0
 22 23  4  0  0  0
 22 27  1  0  0  0
 23 24  4  0  0  0
 24 25  4  0  0  0
 25 26  4  0  0  0
 27 28  4  0  0  0
 27 32  4  0  0  0
 28 29  4  0  0  0
 29 30  4  0  0  0
 30 31  4  0  0  0
 31 32  4  0  0  0
 32 33  1  0  0  0
  1 34  1  0  0  0
  4 35  1  0  0  0
  5 36  1  0  0  0
  5 37  1  0  0  0
  5 38  1  0  0  0
  6 39  1  0  0  0
  6 40  1  0  0  0
  8 41  1  0  0  0
  9 42  1  0  0  0
 11 43  1  0  0  0
 12 44  1  0  0  0
 15 45  1  0  0  0
 18 46  1  0  0  0
 19 47  1  0  0  0
 20 48  1  0  0  0
 20 49  1  0  0  0
 23 50  1  0  0  0
 24 51  1  0  0  0
 25 52  1  0  0  0
 26 53  1  0  0  0
 28 54  1  0  0  0
 29 55  1  0  0  0
 30 56  1  0  0  0
 31 57  1  0  0  0
 33 58  1  0  0  0
 33 59  1  0  0  0
 33 60  1  0  0  0
M  END
$$$$
