4d85_ligand
  -I-interpret- 

 79 83  0  0  0  0  0  0  0  0999 V2000
   27.3370   39.5900   60.0990 F   0  0  0  0  0
   26.6610   40.4600   60.8950 C   0  0  0  0  0
   25.1650   39.9840   60.9320 C   0  0  0  0  0
   24.3280   40.4850   62.1530 C   0  0  0  0  0
   25.0840   40.5540   63.5290 C   0  0  0  0  0
   24.2730   41.4390   64.5610 C   0  0  0  0  0
   24.3930   40.7190   65.8180 N   0  0  0  0  0
   24.7480   39.4400   65.6250 C   0  0  0  0  0
   25.1590   39.2100   64.3040 C   0  0  0  0  0
   25.5500   37.9000   63.9350 C   0  0  0  0  0
   25.5390   36.8460   64.8900 C   0  0  0  0  0
   25.1260   37.1120   66.2280 C   0  0  0  0  0
   24.7260   38.4210   66.6050 C   0  0  0  0  0
   24.3390   38.6950   67.8530 F   0  0  0  0  0
   25.9860   35.4280   64.4730 C   0  0  0  0  0
   27.4260   35.0540   64.9600 C   0  0  0  0  0
   27.9910   33.6600   64.5370 C   0  0  0  0  0
   29.3660   33.3620   65.2080 C   0  0  0  0  0
   30.4830   34.3830   64.8910 C   0  0  0  0  0
   29.9280   35.9790   65.4920 S   0  0  0  0  0
   28.4460   36.1380   64.4970 C   0  0  0  0  0
   29.5530   35.9290   66.8870 O   0  0  0  0  0
   30.8950   36.9560   65.0790 O   0  0  0  0  0
   29.8360   31.9770   64.9730 N   0  3  0  0  0
   30.9330   31.3630   65.7720 C   0  0  0  0  0
   30.4690   31.3160   67.2450 C   0  0  0  0  0
   29.3870   30.4940   67.6390 C   0  0  0  0  0
   28.9330   30.4260   68.9860 C   0  0  0  0  0
   29.6260   31.2430   69.9260 C   0  0  0  0  0
   30.7100   32.0720   69.5560 C   0  0  0  0  0
   31.1300   32.1070   68.2120 C   0  0  0  0  0
   27.7380   29.5030   69.4100 C   0  0  0  0  0
   28.0960   28.0420   68.9960 C   0  0  0  0  0
   27.4400   29.5100   70.9450 C   0  0  0  0  0
   26.3900   29.9260   68.7410 C   0  0  0  0  0
   27.1910   32.5450   64.9600 O   0  0  0  0  0
   26.5120   41.1790   63.3590 C   0  0  0  0  0
   27.3860   40.4940   62.2750 C   0  0  0  0  0
   26.7640   41.7040   60.3330 F   0  0  0  0  0
   25.1875   38.8962   60.9972 H   0  0  0  0  0
   24.6879   40.3920   60.0409 H   0  0  0  0  0
   23.5201   39.7653   62.2847 H   0  0  0  0  0
   24.0278   41.5063   61.9185 H   0  0  0  0  0
   23.2337   41.5731   64.2609 H   0  0  0  0  0
   24.6639   42.4542   64.6291 H   0  0  0  0  0
   24.2276   41.1353   66.7344 H   0  0  0  0  0
   25.8621   37.6976   62.9104 H   0  0  0  0  0
   25.1172   36.3080   66.9640 H   0  0  0  0  0
   25.9914   35.3950   63.3835 H   0  0  0  0  0
   25.2935   34.7205   64.9290 H   0  0  0  0  0
   27.3077   35.0021   66.0423 H   0  0  0  0  0
   28.0309   33.7423   63.4508 H   0  0  0  0  0
   29.1550   33.4737   66.2715 H   0  0  0  0  0
   30.6747   34.4219   63.8187 H   0  0  0  0  0
   31.4161   34.0939   65.3746 H   0  0  0  0  0
   28.0170   37.1322   64.6219 H   0  0  0  0  0
   28.6868   35.9985   63.4431 H   0  0  0  0  0
   30.2212   32.0136   64.0292 H   0  0  0  0  0
   29.0233   31.4071   65.2078 H   0  0  0  0  0
   31.8457   31.9517   65.6797 H   0  0  0  0  0
   31.1504   30.3582   65.4098 H   0  0  0  0  0
   28.8830   29.8911   66.8836 H   0  0  0  0  0
   29.3086   31.2282   70.9687 H   0  0  0  0  0
   31.2170   32.6797   70.3055 H   0  0  0  0  0
   31.9643   32.7438   67.9178 H   0  0  0  0  0
   28.2454   27.9977   67.9172 H   0  0  0  0  0
   29.0106   27.7357   69.5036 H   0  0  0  0  0
   27.2812   27.3755   69.2790 H   0  0  0  0  0
   28.3208   29.1648   71.4864 H   0  0  0  0  0
   27.1916   30.5232   71.2610 H   0  0  0  0  0
   26.6005   28.8468   71.1539 H   0  0  0  0  0
   26.1462   30.9477   69.0323 H   0  0  0  0  0
   26.4905   29.8701   67.6571 H   0  0  0  0  0
   25.5967   29.2542   69.0687 H   0  0  0  0  0
   27.6004   31.7285   64.6645 H   0  0  0  0  0
   27.0295   41.0584   64.3107 H   0  0  0  0  0
   26.3732   42.2152   63.0505 H   0  0  0  0  0
   28.3098   41.0622   62.1661 H   0  0  0  0  0
   27.5829   39.4684   62.5872 H   0  0  0  0  0
  1  2  1  0  0  0
  2  3  1  0  0  0
  2 38  1  0  0  0
  2 39  1  0  0  0
  3  4  1  0  0  0
  4  5  1  0  0  0
  5  6  1  0  0  0
  5  9  1  0  0  0
  5 37  1  0  0  0
  6  7  1  0  0  0
  7  8  1  0  0  0
  8  9  4  0  0  0
  8 13  4  0  0  0
  9 10  4  0  0  0
 10 11  4  0  0  0
 11 12  4  0  0  0
 11 15  1  0  0  0
 12 13  4  0  0  0
 13 14  1  0  0  0
 15 16  1  0  0  0
 16 17  1  0  0  0
 16 21  1  0  0  0
 17 18  1  0  0  0
 17 36  1  0  0  0
 18 19  1  0  0  0
 18 24  1  0  0  0
 19 20  1  0  0  0
 20 21  1  0  0  0
 20 22  2  0  0  0
 20 23  2  0  0  0
 24 25  1  0  0  0
 25 26  1  0  0  0
 26 27  4  0  0  0
 26 31  4  0  0  0
 27 28  4  0  0  0
 28 29  4  0  0  0
 28 32  1  0  0  0
 29 30  4  0  0  0
 30 31  4  0  0  0
 32 33  1  0  0  0
 32 34  1  0  0  0
 32 35  1  0  0  0
 37 38  1  0  0  0
  3 40  1  0  0  0
  3 41  1  0  0  0
  4 42  1  0  0  0
  4 43  1  0  0  0
  6 44  1  0  0  0
  6 45  1  0  0  0
  7 46  1  0  0  0
 10 47  1  0  0  0
 12 48  1  0  0  0
 15 49  1  0  0  0
 15 50  1  0  0  0
 16 51  1  0  0  0
 17 52  1  0  0  0
 18 53  1  0  0  0
 19 54  1  0  0  0
 19 55  1  0  0  0
 21 56  1  0  0  0
 21 57  1  0  0  0
 24 58  1  0  0  0
 24 59  1  0  0  0
 25 60  1  0  0  0
 25 61  1  0  0  0
 27 62  1  0  0  0
 29 63  1  0  0  0
 30 64  1  0  0  0
 31 65  1  0  0  0
 33 66  1  0  0  0
 33 67  1  0  0  0
 33 68  1  0  0  0
 34 69  1  0  0  0
 34 70  1  0  0  0
 34 71  1  0  0  0
 35 72  1  0  0  0
 35 73  1  0  0  0
 35 74  1  0  0  0
 36 75  1  0  0  0
 37 76  1  0  0  0
 37 77  1  0  0  0
 38 78  1  0  0  0
 38 79  1  0  0  0
M  END
$$$$
