4mcd_ligand
  -I-interpret- 

 24 26  0  0  0  0  0  0  0  0999 V2000
   20.6850   62.0290   71.4880 C   0  0  0  0  0
   21.5100   63.0740   71.8720 C   0  0  0  0  0
   21.8990   64.0440   70.9590 C   0  0  0  0  0
   21.8630   65.0880   68.7180 C   0  0  0  0  0
   23.1260   65.6340   68.8310 C   0  0  0  0  0
   21.8300   66.7910   67.0840 C   0  0  0  0  0
   21.1190   65.7770   67.6920 C   0  0  0  0  0
   19.7580   65.5820   67.2240 C   0  0  0  0  0
   20.2320   67.4400   65.6960 C   0  0  0  0  0
   21.4820   64.0100   69.6330 C   0  0  0  0  0
   20.6680   62.9620   69.2640 C   0  0  0  0  0
   20.2810   61.9830   70.1640 C   0  0  0  0  0
   23.4100   66.9280   67.7330 S   0  0  0  0  0
   18.9750   64.7410   67.6550 O   0  0  0  0  0
   19.4070   66.4630   66.2140 N   0  0  0  0  0
   21.4500   67.6390   66.0980 N   0  0  0  0  0
   20.3654   61.2703   72.2024 H   0  0  0  0  0
   21.8575   63.1348   72.9033 H   0  0  0  0  0
   22.5487   64.8541   71.2902 H   0  0  0  0  0
   23.8697   65.2803   69.5451 H   0  0  0  0  0
   19.8394   68.0799   64.9058 H   0  0  0  0  0
   20.3181   62.9013   68.2335 H   0  0  0  0  0
   19.6481   61.1629   69.8248 H   0  0  0  0  0
   18.4679   66.3833   65.8240 H   0  0  0  0  0
  2  1  4  0  0  0
  1 12  4  0  0  0
  3  2  4  0  0  0
 10  3  4  0  0  0
  4  5  4  0  0  0
  4  7  4  0  0  0
  4 10  1  0  0  0
  5 13  4  0  0  0
  7  6  4  0  0  0
  6 13  4  0  0  0
  6 16  1  0  0  0
  7  8  1  0  0  0
  8 14  2  0  0  0
  8 15  1  0  0  0
 15  9  1  0  0  0
  9 16  2  0  0  0
 10 11  4  0  0  0
 11 12  4  0  0  0
  1 17  1  0  0  0
  2 18  1  0  0  0
  3 19  1  0  0  0
  5 20  1  0  0  0
  9 21  1  0  0  0
 11 22  1  0  0  0
 12 23  1  0  0  0
 15 24  1  0  0  0
M  END
$$$$
