4fnn_ligand
  -I-interpret- 

 56 55  0  0  0  0  0  0  0  0999 V2000
  -33.8530  -17.8050  -40.6870 C   0  0  0  0  0
  -32.7480  -17.3260  -40.4740 O   0  0  0  0  0
  -34.8020  -17.1250  -41.0400 O   0  0  0  0  0
  -34.0480  -19.2700  -40.5170 C   0  0  0  0  0
  -35.4510  -19.6600  -40.9610 C   0  0  0  0  0
  -35.4700  -21.1260  -41.3850 C   0  0  0  0  0
  -36.8830  -21.6700  -41.4480 C   0  0  0  0  0
  -36.9550  -22.8010  -42.4450 C   0  0  0  0  0
  -36.6960  -24.1870  -41.8900 C   0  0  0  0  0
  -36.0670  -25.0990  -42.9420 C   0  0  0  0  0
  -34.9600  -24.3950  -43.6920 C   0  0  0  0  0
  -34.7730  -22.9810  -43.1480 C   0  0  0  0  0
  -33.2900  -22.6060  -43.0260 C   0  0  0  0  0
  -32.4330  -23.7190  -42.4420 C   0  0  0  0  0
  -32.2140  -23.5880  -40.9290 C   0  0  0  0  0
  -33.4960  -23.6100  -40.0910 C   0  0  0  0  0
  -33.5180  -24.8330  -39.1690 C   0  0  0  0  0
  -34.9270  -25.2540  -38.7350 C   0  0  0  0  0
  -35.0990  -26.7610  -38.6400 C   0  0  0  0  0
  -36.4420  -27.2610  -39.1240 C   0  0  0  0  0
  -32.1441  -18.0233  -40.2081 H   0  0  0  0  0
  -33.9174  -19.5309  -39.4668 H   0  0  0  0  0
  -33.3170  -19.8032  -41.1248 H   0  0  0  0  0
  -35.7484  -19.0369  -41.8044 H   0  0  0  0  0
  -36.1445  -19.5153  -40.1326 H   0  0  0  0  0
  -34.9106  -21.7045  -40.6498 H   0  0  0  0  0
  -35.0266  -21.2032  -42.3777 H   0  0  0  0  0
  -37.5607  -20.8745  -41.7577 H   0  0  0  0  0
  -37.1696  -22.0401  -40.4636 H   0  0  0  0  0
  -36.1730  -22.6130  -43.1807 H   0  0  0  0  0
  -37.9753  -22.8087  -42.8285 H   0  0  0  0  0
  -37.6474  -24.6197  -41.5805 H   0  0  0  0  0
  -36.0071  -24.1006  -41.0497 H   0  0  0  0  0
  -36.8388  -25.3879  -43.6554 H   0  0  0  0  0
  -35.6449  -25.9685  -42.4382 H   0  0  0  0  0
  -35.2232  -24.3396  -44.7483 H   0  0  0  0  0
  -34.0319  -24.9523  -43.5651 H   0  0  0  0  0
  -35.2198  -22.9351  -42.1549 H   0  0  0  0  0
  -35.2460  -22.2836  -43.8394 H   0  0  0  0  0
  -33.2211  -21.7505  -42.3540 H   0  0  0  0  0
  -32.9196  -22.3976  -44.0297 H   0  0  0  0  0
  -31.4555  -23.6675  -42.9215 H   0  0  0  0  0
  -32.9520  -24.6610  -42.6189 H   0  0  0  0  0
  -31.7416  -22.6203  -40.7599 H   0  0  0  0  0
  -31.6185  -24.4469  -40.6196 H   0  0  0  0  0
  -34.3545  -23.6578  -40.7609 H   0  0  0  0  0
  -33.5341  -22.7076  -39.4809 H   0  0  0  0  0
  -32.9644  -24.5709  -38.2674 H   0  0  0  0  0
  -33.0856  -25.6661  -39.7231 H   0  0  0  0  0
  -35.6271  -24.8884  -39.4862 H   0  0  0  0  0
  -35.1053  -24.8381  -37.7434 H   0  0  0  0  0
  -35.0154  -27.0294  -37.5869 H   0  0  0  0  0
  -34.3382  -27.2132  -39.2762 H   0  0  0  0  0
  -37.2335  -26.8088  -38.5264 H   0  0  0  0  0
  -36.5742  -26.9877  -40.1709 H   0  0  0  0  0
  -36.4827  -28.3455  -39.0223 H   0  0  0  0  0
  1  2  1  0  0  0
  1  3  2  0  0  0
  1  4  1  0  0  0
  4  5  1  0  0  0
  5  6  1  0  0  0
  6  7  1  0  0  0
  7  8  1  0  0  0
  8  9  1  0  0  0
  9 10  1  0  0  0
 10 11  1  0  0  0
 11 12  1  0  0  0
 12 13  1  0  0  0
 13 14  1  0  0  0
 14 15  1  0  0  0
 15 16  1  0  0  0
 16 17  1  0  0  0
 17 18  1  0  0  0
 18 19  1  0  0  0
 19 20  1  0  0  0
  2 21  1  0  0  0
  4 22  1  0  0  0
  4 23  1  0  0  0
  5 24  1  0  0  0
  5 25  1  0  0  0
  6 26  1  0  0  0
  6 27  1  0  0  0
  7 28  1  0  0  0
  7 29  1  0  0  0
  8 30  1  0  0  0
  8 31  1  0  0  0
  9 32  1  0  0  0
  9 33  1  0  0  0
 10 34  1  0  0  0
 10 35  1  0  0  0
 11 36  1  0  0  0
 11 37  1  0  0  0
 12 38  1  0  0  0
 12 39  1  0  0  0
 13 40  1  0  0  0
 13 41  1  0  0  0
 14 42  1  0  0  0
 14 43  1  0  0  0
 15 44  1  0  0  0
 15 45  1  0  0  0
 16 46  1  0  0  0
 16 47  1  0  0  0
 17 48  1  0  0  0
 17 49  1  0  0  0
 18 50  1  0  0  0
 18 51  1  0  0  0
 19 52  1  0  0  0
 19 53  1  0  0  0
 20 54  1  0  0  0
 20 55  1  0  0  0
 20 56  1  0  0  0
M  END
$$$$
