2pj4_ligand
  -I-interpret- 

 67 69  0  0  0  0  0  0  0  0999 V2000
   16.9760   29.0750   53.7340 C   0  0  0  0  0
   17.7730   29.6590   52.7110 C   0  0  0  0  0
   17.5700   29.2940   51.3520 C   0  0  0  0  0
   16.5720   28.3450   51.0090 C   0  0  0  0  0
   15.7790   27.7610   52.0260 C   0  0  0  0  0
   15.9780   28.1250   53.3940 C   0  0  0  0  0
   15.1820   27.5530   54.3940 C   0  0  0  0  0
   14.0510   26.7610   53.9850 O   0  0  0  0  0
   13.3160   26.1490   54.9620 C   0  0  0  0  0
   13.5840   26.2940   56.1690 O   0  0  0  0  0
   12.2940   25.4240   54.5090 N   0  0  0  0  0
   11.3640   24.6830   55.3540 C   0  0  0  0  0
    9.9250   25.1990   55.1520 C   0  0  0  0  0
    9.5290   25.2320   53.6380 C   0  0  0  0  0
    8.1430   25.8960   53.4270 C   0  0  0  0  0
    8.1130   27.3300   54.0180 C   0  0  0  0  0
    8.4320   27.2930   55.5290 C   0  0  0  0  0
    9.8110   26.6400   55.7700 C   0  0  0  0  0
   11.6220   22.8870   55.0740 P   0  0  0  0  0
   10.6250   22.1200   55.8550 O   0  0  0  0  0
   13.0650   22.7290   55.3710 O   0  0  0  0  0
   11.4380   22.5860   53.4970 O   0  0  0  0  0
   12.0010   21.3350   53.0080 C   0  0  0  0  0
   13.4800   21.5180   52.5770 C   0  0  0  0  0
   14.2250   20.5080   52.6610 O   0  0  0  0  0
   13.8430   22.6640   52.2340 O   0  0  0  0  0
   11.1250   20.6930   51.8910 C   0  0  0  0  0
   11.6540   19.6620   51.0710 C   0  0  0  0  0
    9.7640   21.0790   51.7210 C   0  0  0  0  0
    8.9540   20.4370   50.7440 C   0  0  0  0  0
    9.4940   19.4080   49.9270 C   0  0  0  0  0
   10.8470   19.0180   50.0850 C   0  0  0  0  0
   11.3580   18.0210   49.3240 N   0  0  0  0  0
   12.4600   18.1640   48.5580 C   0  0  0  0  0
   13.0860   19.3460   48.4420 N   0  0  0  0  0
   12.9160   17.1110   47.8910 N   0  0  0  0  0
   17.1312   29.3561   54.7756 H   0  0  0  0  0
   18.5411   30.3880   52.9694 H   0  0  0  0  0
   18.1827   29.7444   50.5711 H   0  0  0  0  0
   16.4167   28.0669   49.9666 H   0  0  0  0  0
   15.0133   27.0306   51.7648 H   0  0  0  0  0
   14.7624   28.3936   54.9466 H   0  0  0  0  0
   15.8380   26.8666   54.9293 H   0  0  0  0  0
   12.1518   25.3843   53.4997 H   0  0  0  0  0
   11.5546   24.8497   56.4142 H   0  0  0  0  0
    9.2379   24.5171   55.6530 H   0  0  0  0  0
    9.4799   24.2066   53.2716 H   0  0  0  0  0
   10.2762   25.8138   53.0984 H   0  0  0  0  0
    7.3881   25.2947   53.9337 H   0  0  0  0  0
    7.9451   25.9563   52.3568 H   0  0  0  0  0
    7.1191   27.7538   53.8741 H   0  0  0  0  0
    8.8607   27.9399   53.5110 H   0  0  0  0  0
    7.6672   26.7081   56.0399 H   0  0  0  0  0
    8.4489   28.3125   55.9142 H   0  0  0  0  0
   10.5634   27.2669   55.2914 H   0  0  0  0  0
    9.9527   26.5514   56.8471 H   0  0  0  0  0
   13.5751   23.2898   54.7819 H   0  0  0  0  0
   11.9953   20.6257   53.8356 H   0  0  0  0  0
   13.7061   19.7517   52.9446 H   0  0  0  0  0
   12.6930   19.3572   51.1962 H   0  0  0  0  0
    9.3421   21.8692   52.3420 H   0  0  0  0  0
    7.9131   20.7362   50.6214 H   0  0  0  0  0
    8.8686   18.9193   49.1799 H   0  0  0  0  0
   10.8863   17.1166   49.3301 H   0  0  0  0  0
   13.9076   19.4314   47.8436 H   0  0  0  0  0
   12.7400   20.1586   48.9523 H   0  0  0  0  0
   12.4350   16.2144   47.9628 H   0  0  0  0  0
  1  2  4  0  0  0
  1  6  4  0  0  0
  2  3  4  0  0  0
  3  4  4  0  0  0
  4  5  4  0  0  0
  5  6  4  0  0  0
  6  7  1  0  0  0
  7  8  1  0  0  0
  8  9  1  0  0  0
  9 10  2  0  0  0
  9 11  1  0  0  0
 11 12  1  0  0  0
 12 13  1  0  0  0
 12 19  1  0  0  0
 13 14  1  0  0  0
 13 18  1  0  0  0
 14 15  1  0  0  0
 15 16  1  0  0  0
 16 17  1  0  0  0
 17 18  1  0  0  0
 19 20  2  0  0  0
 19 21  1  0  0  0
 19 22  1  0  0  0
 22 23  1  0  0  0
 23 24  1  0  0  0
 23 27  1  0  0  0
 24 25  1  0  0  0
 24 26  2  0  0  0
 27 28  4  0  0  0
 27 29  4  0  0  0
 28 32  4  0  0  0
 29 30  4  0  0  0
 30 31  4  0  0  0
 31 32  4  0  0  0
 32 33  1  0  0  0
 33 34  1  0  0  0
 34 35  1  0  0  0
 34 36  2  0  0  0
  1 37  1  0  0  0
  2 38  1  0  0  0
  3 39  1  0  0  0
  4 40  1  0  0  0
  5 41  1  0  0  0
  7 42  1  0  0  0
  7 43  1  0  0  0
 11 44  1  0  0  0
 12 45  1  0  0  0
 13 46  1  0  0  0
 14 47  1  0  0  0
 14 48  1  0  0  0
 15 49  1  0  0  0
 15 50  1  0  0  0
 16 51  1  0  0  0
 16 52  1  0  0  0
 17 53  1  0  0  0
 17 54  1  0  0  0
 18 55  1  0  0  0
 18 56  1  0  0  0
 21 57  1  0  0  0
 23 58  1  0  0  0
 25 59  1  0  0  0
 28 60  1  0  0  0
 29 61  1  0  0  0
 30 62  1  0  0  0
 31 63  1  0  0  0
 33 64  1  0  0  0
 35 65  1  0  0  0
 35 66  1  0  0  0
 36 67  1  0  0  0
M  END
$$$$
