### 
### Created by X-TOOL on Mon Sep 10 21:12:58 2018
### 

@<TRIPOS>MOLECULE
2pj4_ligand
   66    68     1     0     0
SMALL
GAST_HUCK


@<TRIPOS>ATOM
      1 C37        16.9760   29.0750   53.7340 C.ar      1 414        -0.0578
      2 C38        17.7730   29.6590   52.7110 C.ar      1 414        -0.0685
      3 C39        17.5700   29.2940   51.3520 C.ar      1 414        -0.0687
      4 C40        16.5720   28.3450   51.0090 C.ar      1 414        -0.0685
      5 C41        15.7790   27.7610   52.0260 C.ar      1 414        -0.0578
      6 C36        15.9780   28.1250   53.3940 C.ar      1 414        -0.0130
      7 C33        15.1820   27.5530   54.3940 C.3       1 414         0.1113
      8 O32        14.0510   26.7610   53.9850 O.3       1 414        -0.2506
      9 C30        13.3160   26.1490   54.9620 C.2       1 414         0.3231
     10 O31        13.5840   26.2940   56.1690 O.2       1 414        -0.3774
     11 N29        12.2940   25.4240   54.5090 N.am      1 414        -0.2412
     12 C25        11.3640   24.6830   55.3540 C.3       1 414         0.1358
     13 C50         9.9250   25.1990   55.1520 C.3       1 414         0.0005
     14 C51         9.5290   25.2320   53.6380 C.3       1 414        -0.0466
     15 C52         8.1430   25.8960   53.4270 C.3       1 414        -0.0527
     16 C53         8.1130   27.3300   54.0180 C.3       1 414        -0.0530
     17 C54         8.4320   27.2930   55.5290 C.3       1 414        -0.0527
     18 C55         9.8110   26.6400   55.7700 C.3       1 414        -0.0466
     19 P24        11.6220   22.8870   55.0740 P.3       1 414         0.1520
     20 O34        10.6250   22.1200   55.8550 O.co2     1 414        -0.6186
     21 O35        13.0650   22.7290   55.3710 O.co2     1 414        -0.6186
     22 O23        11.4380   22.5860   53.4970 O.3       1 414        -0.2435
     23 C1         12.0010   21.3350   53.0080 C.3       1 414         0.2349
     24 C2         13.4800   21.5180   52.5770 C.2       1 414         0.3908
     25 O14        14.2250   20.5080   52.6610 O.co2     1 414        -0.2562
     26 O13        13.8430   22.6640   52.2340 O.co2     1 414        -0.2562
     27 C3         11.1250   20.6930   51.8910 C.ar      1 414         0.0004
     28 C8         11.6540   19.6620   51.0710 C.ar      1 414        -0.0331
     29 C4          9.7640   21.0790   51.7210 C.ar      1 414        -0.0664
     30 C5          8.9540   20.4370   50.7440 C.ar      1 414        -0.0769
     31 C6          9.4940   19.4080   49.9270 C.ar      1 414        -0.0455
     32 C7         10.8470   19.0180   50.0850 C.ar      1 414         0.0445
     33 N9         11.3580   18.0210   49.3240 N.pl3     1 414        -0.3025
     34 C10        12.4600   18.1640   48.5580 C.cat     1 414         0.1283
     35 N12        13.0860   19.3460   48.4420 N.pl3     1 414        -0.3577
     36 N11        12.9160   17.1110   47.8910 N.pl3     1 414        -0.3577
     37 H1         17.1303   29.3546   54.7699 H         1 414         0.0557
     38 H2         18.5369   30.3839   52.9680 H         1 414         0.0599
     39 H3         18.1794   29.7419   50.5754 H         1 414         0.0559
     40 H4         16.4175   28.0684   49.9723 H         1 414         0.0599
     41 H5         15.0175   27.0346   51.7662 H         1 414         0.0557
     42 H6         14.7984   28.3744   55.0170 H         1 414         0.0776
     43 H7         15.8327   26.9059   55.0004 H         1 414         0.0776
     44 H8         12.1546   25.3851   53.5195 H         1 414         0.1887
     45 H9         11.6243   24.8835   56.4038 H         1 414         0.0788
     46 H10         9.2319   24.5267   55.6789 H         1 414         0.0339
     47 H11         9.4934   24.2013   53.2553 H         1 414         0.0269
     48 H12        10.2873   25.8034   53.0826 H         1 414         0.0269
     49 H13         7.3737   25.2868   53.9241 H         1 414         0.0265
     50 H14         7.9300   25.9476   52.3491 H         1 414         0.0265
     51 H15         7.1131   27.7634   53.8686 H         1 414         0.0265
     52 H16         8.8620   27.9503   53.5040 H         1 414         0.0265
     53 H17         7.6582   26.7092   56.0491 H         1 414         0.0265
     54 H18         8.4431   28.3200   55.9228 H         1 414         0.0265
     55 H19        10.5846   27.2777   55.3174 H         1 414         0.0269
     56 H20         9.9812   26.5707   56.8545 H         1 414         0.0269
     57 H21        11.9999   20.6308   53.8530 H         1 414         0.1046
     58 H22        12.6873   19.3588   51.1955 H         1 414         0.0482
     59 H23         9.3444   21.8649   52.3386 H         1 414         0.0471
     60 H24         7.9188   20.7346   50.6221 H         1 414         0.0573
     61 H25         8.8721   18.9220   49.1840 H         1 414         0.0487
     62 H26        10.8817   17.1078   49.3301 H         1 414         0.1952
     63 H27        13.9254   19.4284   47.8508 H         1 414         0.1636
     64 H28        12.7268   20.1705   48.9442 H         1 414         0.1636
     65 H29        12.4398   16.2017   47.9762 H         1 414         0.1636
     66 H30        13.7461   17.2032   47.2882 H         1 414         0.1636
@<TRIPOS>BOND
     1    1    2 ar 
     2    1    6 ar 
     3    2    3 ar 
     4    3    4 ar 
     5    4    5 ar 
     6    5    6 ar 
     7    6    7 1  
     8    7    8 1  
     9    8    9 1  
    10    9   10 2  
    11    9   11 am 
    12   11   12 1  
    13   12   13 1  
    14   12   19 1  
    15   13   14 1  
    16   13   18 1  
    17   14   15 1  
    18   15   16 1  
    19   16   17 1  
    20   17   18 1  
    21   19   20 ar 
    22   19   21 ar 
    23   19   22 1  
    24   22   23 1  
    25   23   24 1  
    26   23   27 1  
    27   24   25 ar 
    28   24   26 ar 
    29   27   28 ar 
    30   27   29 ar 
    31   28   32 ar 
    32   29   30 ar 
    33   30   31 ar 
    34   31   32 ar 
    35   32   33 1  
    36   33   34 ar 
    37   34   35 ar 
    38   34   36 ar 
    39    1   37 1  
    40    2   38 1  
    41    3   39 1  
    42    4   40 1  
    43    5   41 1  
    44    7   42 1  
    45    7   43 1  
    46   11   44 1  
    47   12   45 1  
    48   13   46 1  
    49   14   47 1  
    50   14   48 1  
    51   15   49 1  
    52   15   50 1  
    53   16   51 1  
    54   16   52 1  
    55   17   53 1  
    56   17   54 1  
    57   18   55 1  
    58   18   56 1  
    59   23   57 1  
    60   28   58 1  
    61   29   59 1  
    62   30   60 1  
    63   31   61 1  
    64   33   62 1  
    65   35   63 1  
    66   35   64 1  
    67   36   65 1  
    68   36   66 1  
@<TRIPOS>SUBSTRUCTURE
     1 414         1

