1owe_ligand
  -I-interpret- 

 37 39  0  0  0  0  0  0  0  0999 V2000
   16.9100   19.4810   33.7500 N   0  0  0  0  0
   18.2190   19.7910   33.9580 C   0  0  0  0  0
   18.6640   20.9890   34.4480 N   0  0  0  0  0
   19.1860   18.7150   33.5770 C   0  0  0  0  0
   18.9160   17.6690   32.6200 C   0  0  0  0  0
   19.7700   16.5850   32.2740 C   0  0  0  0  0
   21.0350   16.5470   32.9080 C   0  0  0  0  0
   21.9800   15.5860   32.5700 C   0  0  0  0  0
   23.3190   15.5600   33.1020 C   0  0  0  0  0
   23.5420   16.6870   34.0250 C   0  0  0  0  0
   22.6570   17.6790   34.3910 C   0  0  0  0  0
   21.4130   17.5940   33.8380 C   0  0  0  0  0
   20.5120   18.5880   34.1190 C   0  0  0  0  0
   24.3420   14.5750   32.7800 C   0  0  0  0  0
   25.1790   14.3330   33.6420 O   0  0  0  0  0
   24.3970   14.1850   31.4660 N   0  0  0  0  0
   25.3720   13.3340   30.9910 C   0  0  0  0  0
   25.8210   13.7000   29.7180 C   0  0  0  0  0
   26.7490   12.8940   29.0580 C   0  0  0  0  0
   27.2650   11.7530   29.7480 C   0  0  0  0  0
   26.9000   11.4270   31.0520 C   0  0  0  0  0
   25.9430   12.2340   31.6880 C   0  0  0  0  0
   16.6565   18.5724   33.3620 H   0  0  0  0  0
   17.9963   21.7230   34.6843 H   0  0  0  0  0
   19.6633   21.1478   34.5769 H   0  0  0  0  0
   17.9551   17.7143   32.1075 H   0  0  0  0  0
   19.4656   15.8225   31.5571 H   0  0  0  0  0
   21.6923   14.8081   31.8627 H   0  0  0  0  0
   24.5328   16.7436   34.4758 H   0  0  0  0  0
   22.9335   18.4791   35.0776 H   0  0  0  0  0
   20.8318   19.3573   34.8219 H   0  0  0  0  0
   23.6922   14.5368   30.8180 H   0  0  0  0  0
   25.4485   14.6086   29.2449 H   0  0  0  0  0
   27.0720   13.1279   28.0436 H   0  0  0  0  0
   27.9761   11.1093   29.2302 H   0  0  0  0  0
   27.3434   10.5722   31.5628 H   0  0  0  0  0
   25.6389   12.0180   32.7122 H   0  0  0  0  0
  1  2  2  0  0  0
  2  3  1  0  0  0
  2  4  1  0  0  0
  4  5  4  0  0  0
  4 13  4  0  0  0
  5  6  4  0  0  0
  6  7  4  0  0  0
  7  8  4  0  0  0
  7 12  4  0  0  0
  8  9  4  0  0  0
  9 10  4  0  0  0
  9 14  1  0  0  0
 10 11  4  0  0  0
 11 12  4  0  0  0
 12 13  4  0  0  0
 14 15  2  0  0  0
 14 16  1  0  0  0
 16 17  1  0  0  0
 17 18  4  0  0  0
 17 22  4  0  0  0
 18 19  4  0  0  0
 19 20  4  0  0  0
 20 21  4  0  0  0
 21 22  4  0  0  0
  1 23  1  0  0  0
  3 24  1  0  0  0
  3 25  1  0  0  0
  5 26  1  0  0  0
  6 27  1  0  0  0
  8 28  1  0  0  0
 10 29  1  0  0  0
 11 30  1  0  0  0
 13 31  1  0  0  0
 16 32  1  0  0  0
 18 33  1  0  0  0
 19 34  1  0  0  0
 20 35  1  0  0  0
 21 36  1  0  0  0
 22 37  1  0  0  0
M  END
$$$$
