6afh_ligand
  -I-interpret- 

 34 36  0  0  0  0  0  0  0  0999 V2000
  -38.7450   13.9010  -10.1200 O   0  0  0  0  0
  -38.0340   13.7080  -11.1140 C   0  0  0  0  0
  -37.4550   12.4650  -11.4720 C   0  0  0  0  0
  -38.3490   11.3880  -11.4030 O   0  0  0  0  0
  -36.8920   12.7010  -12.7490 C   0  0  0  0  0
  -36.3130   11.8690  -13.6430 C   0  0  0  0  0
  -35.7580   12.3490  -14.8280 C   0  0  0  0  0
  -35.8380   13.7160  -15.0340 C   0  0  0  0  0
  -36.4410   14.5600  -14.0870 C   0  0  0  0  0
  -36.9270   14.0560  -12.9400 C   0  0  0  0  0
  -37.5830   14.6640  -11.9290 N   0  0  0  0  0
  -38.0200   16.0870  -11.8340 C   0  0  0  0  0
  -36.8080   16.9100  -11.5330 C   0  0  0  0  0
  -37.1740   18.3150  -11.6020 C   0  0  0  0  0
  -37.5330   19.0430  -10.4630 C   0  0  0  0  0
  -37.8690   20.4010  -10.5680 C   0  0  0  0  0
  -37.8450   21.0440  -11.8120 C   0  0  0  0  0
  -37.4900   20.3180  -12.9700 C   0  0  0  0  0
  -37.1540   18.9690  -12.8510 C   0  0  0  0  0
  -36.6912   12.1409  -10.7651 H   0  0  0  0  0
  -38.6784   11.3040  -10.5052 H   0  0  0  0  0
  -36.2794   10.8000  -13.4328 H   0  0  0  0  0
  -35.2869   11.6849  -15.5527 H   0  0  0  0  0
  -35.4256   14.1447  -15.9474 H   0  0  0  0  0
  -36.5152   15.6296  -14.2835 H   0  0  0  0  0
  -38.7659   16.2051  -11.0481 H   0  0  0  0  0
  -38.4767   16.4089  -12.7699 H   0  0  0  0  0
  -36.0231   16.6945  -12.2580 H   0  0  0  0  0
  -36.4351   16.6717  -10.5369 H   0  0  0  0  0
  -37.5518   18.5531   -9.4895 H   0  0  0  0  0
  -38.1507   20.9595   -9.6753 H   0  0  0  0  0
  -38.0995   22.1013  -11.8861 H   0  0  0  0  0
  -37.4786   20.8055  -13.9449 H   0  0  0  0  0
  -36.8702   18.4091  -13.7421 H   0  0  0  0  0
  1  2  2  0  0  0
  2  3  1  0  0  0
  2 11  1  0  0  0
  3  4  1  0  0  0
  3  5  1  0  0  0
  5  6  4  0  0  0
  5 10  4  0  0  0
  6  7  4  0  0  0
  7  8  4  0  0  0
  8  9  4  0  0  0
  9 10  4  0  0  0
 10 11  1  0  0  0
 11 12  1  0  0  0
 12 13  1  0  0  0
 13 14  1  0  0  0
 14 15  4  0  0  0
 14 19  4  0  0  0
 15 16  4  0  0  0
 16 17  4  0  0  0
 17 18  4  0  0  0
 18 19  4  0  0  0
  3 20  1  0  0  0
  4 21  1  0  0  0
  6 22  1  0  0  0
  7 23  1  0  0  0
  8 24  1  0  0  0
  9 25  1  0  0  0
 12 26  1  0  0  0
 12 27  1  0  0  0
 13 28  1  0  0  0
 13 29  1  0  0  0
 15 30  1  0  0  0
 16 31  1  0  0  0
 17 32  1  0  0  0
 18 33  1  0  0  0
 19 34  1  0  0  0
M  END
$$$$
