5j9k_ligand
  -I-interpret- 

161161  0  0  0  0  0  0  0  0999 V2000
   15.3670   -8.1410   15.0320 N   0  3  0  0  0
   15.9480   -7.3020   13.9830 C   0  0  0  0  0
   15.3290   -5.9110   13.8940 C   0  0  0  0  0
   16.0400   -4.8990   13.9230 O   0  0  0  0  0
   15.8140   -7.9840   12.6210 C   0  0  0  0  0
   17.1150   -8.5990   12.1370 C   0  0  0  0  0
   17.9420   -9.0410   12.9330 O   0  0  0  0  0
   17.2960   -8.6350   10.8200 N   0  0  0  0  0
   14.0000   -5.8790   13.8160 N   0  0  0  0  0
   13.2430   -4.6730   13.4760 C   0  0  0  0  0
   13.5390   -3.4630   14.3690 C   0  0  0  0  0
   13.7660   -3.6130   15.5700 O   0  0  0  0  0
   11.7410   -4.9770   13.5300 C   0  0  0  0  0
   11.2390   -6.3080   12.9560 C   0  0  0  0  0
    9.7330   -6.3870   13.0340 C   0  0  0  0  0
   11.6940   -6.5370   11.5330 C   0  0  0  0  0
   13.5240   -2.2680   13.7800 N   0  0  0  0  0
   13.7010   -1.0390   14.5490 C   0  0  0  0  0
   12.5660   -0.8470   15.5440 C   0  0  0  0  0
   11.4010   -1.1230   15.2510 O   0  0  0  0  0
   13.7850    0.2080   13.6510 C   0  0  0  0  0
   12.9210    0.0330   12.3980 C   0  0  0  0  0
   15.2320    0.5050   13.2860 C   0  0  0  0  0
   12.9550    1.2340   11.4600 C   0  0  0  0  0
   12.9220   -0.3630   16.7260 N   0  0  0  0  0
   11.9760   -0.2680   17.8170 C   0  0  0  0  0
   12.3300    0.8690   18.7680 C   0  0  0  0  0
   13.2890    0.7760   19.5330 O   0  0  0  0  0
   11.9260   -1.5990   18.5650 C   0  0  0  0  0
   11.1390   -1.5560   19.8460 C   0  0  0  0  0
    9.7520   -1.5390   19.8300 C   0  0  0  0  0
   11.7800   -1.5350   21.0760 C   0  0  0  0  0
    9.0220   -1.5110   21.0060 C   0  0  0  0  0
   11.0560   -1.5000   22.2590 C   0  0  0  0  0
    9.6750   -1.4870   22.2170 C   0  0  0  0  0
    8.9450   -1.4520   23.3850 O   0  0  0  0  0
   11.5540    1.9460   18.7150 N   0  0  0  0  0
   11.7080    3.0270   19.6730 C   0  0  0  0  0
   10.7770    2.8020   20.8570 C   0  0  0  0  0
    9.5520    2.7700   20.7110 O   0  0  0  0  0
   11.4280    4.3840   19.0200 C   0  0  0  0  0
   12.4770    5.4770   19.2540 C   0  0  0  0  0
   12.4850    5.9710   20.6890 C   0  0  0  0  0
   13.8500    4.9460   18.8720 C   0  0  0  0  0
   11.3690    2.6200   22.0300 N   0  0  0  0  0
   10.5960    2.5570   23.2560 C   0  0  0  0  0
    9.9500    3.9220   23.4740 C   0  0  0  0  0
   10.5170    4.9420   23.0860 O   0  0  0  0  0
   11.4800    2.1670   24.4380 C   0  0  0  0  0
   10.6820    1.9160   25.6990 C   0  0  0  0  0
   10.1590    2.8910   26.2770 O   0  0  0  0  0
   10.5700    0.7430   26.1120 O   0  0  0  0  0
    8.7650    3.9520   24.0760 N   0  0  0  0  0
    8.0370    5.2110   24.2170 C   0  0  0  0  0
    7.5450    5.4720   25.6390 C   0  0  0  0  0
    6.5590    6.1750   25.8450 O   0  0  0  0  0
    6.8570    5.2440   23.2500 C   0  0  0  0  0
    7.1770    5.0840   21.7640 C   0  0  0  0  0
    5.8960    4.8360   20.9890 C   0  0  0  0  0
    7.9070    6.3130   21.2390 C   0  0  0  0  0
    8.2330    4.8810   26.6080 N   0  0  0  0  0
    8.0890    5.2340   28.0120 C   0  0  0  0  0
    9.5030    5.2040   28.5930 C   0  0  0  0  0
   10.4410    4.9040   27.8540 O   0  0  0  0  0
    7.1370    4.2700   28.7420 C   0  0  0  0  0
    5.6840    4.7590   28.7520 C   0  0  0  0  0
    5.4200    5.9590   28.6750 O   0  0  0  0  0
    4.7410    3.8230   28.8510 N   0  0  0  0  0
    9.6570    5.5500   29.8730 N   0  0  0  0  0
   10.9120    5.3750   30.6240 C   0  0  0  0  0
   10.7670    5.9920   32.0100 C   0  0  0  0  0
    9.9650    6.9030   32.2180 O   0  0  0  0  0
   12.1240    5.9910   29.8990 C   0  0  0  0  0
   13.4770    5.2720   30.0480 C   0  0  0  0  0
   13.3020    3.7760   30.2690 C   0  0  0  0  0
   14.3630    5.5270   28.8310 C   0  0  0  0  0
   11.4480    5.5950   32.9560 O   0  0  0  0  0
   15.4642   -7.6728   15.9330 H   0  0  0  0  0
   14.3787   -8.2964   14.8331 H   0  0  0  0  0
   15.8546   -9.0365   15.0585 H   0  0  0  0  0
   16.9956   -7.1759   14.2563 H   0  0  0  0  0
   15.5149   -7.2258   11.8973 H   0  0  0  0  0
   15.0836   -8.7868   12.7213 H   0  0  0  0  0
   18.1479   -9.0412   10.4332 H   0  0  0  0  0
   16.5829   -8.2564   10.1967 H   0  0  0  0  0
   13.4833   -6.7384   14.0026 H   0  0  0  0  0
   13.5615   -4.3979   12.4705 H   0  0  0  0  0
   11.2736   -4.2083   12.9145 H   0  0  0  0  0
   11.4974   -5.0160   14.5917 H   0  0  0  0  0
   11.6771   -7.0962   13.5683 H   0  0  0  0  0
    9.4199   -6.3106   14.0753 H   0  0  0  0  0
    9.2974   -5.5683   12.4612 H   0  0  0  0  0
    9.3985   -7.3389   12.6216 H   0  0  0  0  0
   11.3164   -5.7351   10.8987 H   0  0  0  0  0
   12.7834   -6.5470   11.4984 H   0  0  0  0  0
   11.3092   -7.4935   11.1793 H   0  0  0  0  0
   13.3860   -2.2103   12.7710 H   0  0  0  0  0
   14.6466   -1.1495   15.0798 H   0  0  0  0  0
   13.3959    1.0616   14.2061 H   0  0  0  0  0
   11.8899   -0.0950   12.7275 H   0  0  0  0  0
   13.3131   -0.8224   11.8478 H   0  0  0  0  0
   15.8055    0.6835   14.1956 H   0  0  0  0  0
   15.6525   -0.3465   12.7510 H   0  0  0  0  0
   15.2709    1.3900   12.6509 H   0  0  0  0  0
   12.5900    2.1155   11.9871 H   0  0  0  0  0
   13.9791    1.4055   11.1284 H   0  0  0  0  0
   12.3202    1.0368   10.5961 H   0  0  0  0  0
   13.8825   -0.0512   16.8693 H   0  0  0  0  0
   10.9923   -0.0480   17.4022 H   0  0  0  0  0
   12.9515   -1.8605   18.8258 H   0  0  0  0  0
   11.4351   -2.3184   17.9096 H   0  0  0  0  0
    9.2276   -1.5478   18.8745 H   0  0  0  0  0
   12.8693   -1.5462   21.1137 H   0  0  0  0  0
    7.9325   -1.5080   20.9727 H   0  0  0  0  0
   11.5745   -1.4828   23.2176 H   0  0  0  0  0
    9.5440   -1.4388   24.1351 H   0  0  0  0  0
   10.8392    2.0149   17.9906 H   0  0  0  0  0
   12.7392    3.0339   20.0262 H   0  0  0  0  0
   10.5024    4.7503   19.4641 H   0  0  0  0  0
   11.4084    4.2061   17.9448 H   0  0  0  0  0
   12.2179    6.3300   18.6268 H   0  0  0  0  0
   11.5066    6.3834   20.9354 H   0  0  0  0  0
   12.7088    5.1393   21.3570 H   0  0  0  0  0
   13.2453    6.7439   20.8016 H   0  0  0  0  0
   14.0853    4.0762   19.4854 H   0  0  0  0  0
   13.8480    4.6605   17.8200 H   0  0  0  0  0
   14.5973    5.7220   19.0378 H   0  0  0  0  0
   12.3835    2.5228   22.0706 H   0  0  0  0  0
    9.8241    1.7917   23.1753 H   0  0  0  0  0
   12.1658    2.9917   24.6321 H   0  0  0  0  0
   12.0002    1.2447   24.1795 H   0  0  0  0  0
   11.0457    0.1513   25.5245 H   0  0  0  0  0
    8.3611    3.0899   24.4421 H   0  0  0  0  0
    8.7452    6.0045   23.9787 H   0  0  0  0  0
    6.4124    6.2337   23.3549 H   0  0  0  0  0
    6.2305    4.3920   23.5141 H   0  0  0  0  0
    7.8354    4.2257   21.6301 H   0  0  0  0  0
    5.4205    3.9268   21.3569 H   0  0  0  0  0
    5.2211    5.6811   21.1251 H   0  0  0  0  0
    6.1295    4.7226   19.9304 H   0  0  0  0  0
    7.2776    7.1928   21.3731 H   0  0  0  0  0
    8.8384    6.4437   21.7899 H   0  0  0  0  0
    8.1257    6.1792   20.1796 H   0  0  0  0  0
    8.8933    4.1453   26.3567 H   0  0  0  0  0
    7.6397    6.2195   28.1348 H   0  0  0  0  0
    7.4697    4.1943   29.7772 H   0  0  0  0  0
    7.1631    3.3153   28.2167 H   0  0  0  0  0
    3.7567    4.0902   28.8652 H   0  0  0  0  0
    5.0034    2.8392   28.9126 H   0  0  0  0  0
    8.8593    5.9594   30.3593 H   0  0  0  0  0
   11.0982    4.3042   30.7063 H   0  0  0  0  0
    9.5034    7.1138   31.4030 H   0  0  0  0  0
   12.2635    6.9766   30.3431 H   0  0  0  0  0
   11.8839    5.9503   28.8365 H   0  0  0  0  0
   13.9650    5.6834   30.9315 H   0  0  0  0  0
   12.7238    3.6095   31.1778 H   0  0  0  0  0
   12.7762    3.3434   29.4179 H   0  0  0  0  0
   14.2812    3.3078   30.3690 H   0  0  0  0  0
   13.8639    5.1562   27.9357 H   0  0  0  0  0
   14.5422    6.5976   28.7316 H   0  0  0  0  0
   15.3132    5.0087   28.9599 H   0  0  0  0  0
  1  2  1  0  0  0
  2  3  1  0  0  0
  2  5  1  0  0  0
  3  4  2  0  0  0
  3  9  1  0  0  0
  5  6  1  0  0  0
  6  7  2  0  0  0
  6  8  1  0  0  0
  9 10  1  0  0  0
 10 11  1  0  0  0
 10 13  1  0  0  0
 11 12  2  0  0  0
 11 17  1  0  0  0
 13 14  1  0  0  0
 14 15  1  0  0  0
 14 16  1  0  0  0
 17 18  1  0  0  0
 18 19  1  0  0  0
 18 21  1  0  0  0
 19 20  2  0  0  0
 19 25  1  0  0  0
 21 22  1  0  0  0
 21 23  1  0  0  0
 22 24  1  0  0  0
 25 26  1  0  0  0
 26 27  1  0  0  0
 26 29  1  0  0  0
 27 28  2  0  0  0
 27 37  1  0  0  0
 29 30  1  0  0  0
 30 31  4  0  0  0
 30 32  4  0  0  0
 31 33  4  0  0  0
 32 34  4  0  0  0
 33 35  4  0  0  0
 34 35  4  0  0  0
 35 36  1  0  0  0
 37 38  1  0  0  0
 38 39  1  0  0  0
 38 41  1  0  0  0
 39 40  2  0  0  0
 39 45  1  0  0  0
 41 42  1  0  0  0
 42 43  1  0  0  0
 42 44  1  0  0  0
 45 46  1  0  0  0
 46 47  1  0  0  0
 46 49  1  0  0  0
 47 48  2  0  0  0
 47 53  1  0  0  0
 49 50  1  0  0  0
 50 51  2  0  0  0
 50 52  1  0  0  0
 53 54  1  0  0  0
 54 55  1  0  0  0
 54 57  1  0  0  0
 55 56  2  0  0  0
 55 61  1  0  0  0
 57 58  1  0  0  0
 58 59  1  0  0  0
 58 60  1  0  0  0
 61 62  1  0  0  0
 62 63  1  0  0  0
 62 65  1  0  0  0
 63 64  2  0  0  0
 63 69  1  0  0  0
 65 66  1  0  0  0
 66 67  2  0  0  0
 66 68  1  0  0  0
 69 70  1  0  0  0
 70 71  1  0  0  0
 70 73  1  0  0  0
 71 72  1  0  0  0
 71 77  2  0  0  0
 73 74  1  0  0  0
 74 75  1  0  0  0
 74 76  1  0  0  0
  1 78  1  0  0  0
  1 79  1  0  0  0
  1 80  1  0  0  0
  2 81  1  0  0  0
  5 82  1  0  0  0
  5 83  1  0  0  0
  8 84  1  0  0  0
  8 85  1  0  0  0
  9 86  1  0  0  0
 10 87  1  0  0  0
 13 88  1  0  0  0
 13 89  1  0  0  0
 14 90  1  0  0  0
 15 91  1  0  0  0
 15 92  1  0  0  0
 15 93  1  0  0  0
 16 94  1  0  0  0
 16 95  1  0  0  0
 16 96  1  0  0  0
 17 97  1  0  0  0
 18 98  1  0  0  0
 21 99  1  0  0  0
 22100  1  0  0  0
 22101  1  0  0  0
 23102  1  0  0  0
 23103  1  0  0  0
 23104  1  0  0  0
 24105  1  0  0  0
 24106  1  0  0  0
 24107  1  0  0  0
 25108  1  0  0  0
 26109  1  0  0  0
 29110  1  0  0  0
 29111  1  0  0  0
 31112  1  0  0  0
 32113  1  0  0  0
 33114  1  0  0  0
 34115  1  0  0  0
 36116  1  0  0  0
 37117  1  0  0  0
 38118  1  0  0  0
 41119  1  0  0  0
 41120  1  0  0  0
 42121  1  0  0  0
 43122  1  0  0  0
 43123  1  0  0  0
 43124  1  0  0  0
 44125  1  0  0  0
 44126  1  0  0  0
 44127  1  0  0  0
 45128  1  0  0  0
 46129  1  0  0  0
 49130  1  0  0  0
 49131  1  0  0  0
 52132  1  0  0  0
 53133  1  0  0  0
 54134  1  0  0  0
 57135  1  0  0  0
 57136  1  0  0  0
 58137  1  0  0  0
 59138  1  0  0  0
 59139  1  0  0  0
 59140  1  0  0  0
 60141  1  0  0  0
 60142  1  0  0  0
 60143  1  0  0  0
 61144  1  0  0  0
 62145  1  0  0  0
 65146  1  0  0  0
 65147  1  0  0  0
 68148  1  0  0  0
 68149  1  0  0  0
 69150  1  0  0  0
 70151  1  0  0  0
 72152  1  0  0  0
 73153  1  0  0  0
 73154  1  0  0  0
 74155  1  0  0  0
 75156  1  0  0  0
 75157  1  0  0  0
 75158  1  0  0  0
 76159  1  0  0  0
 76160  1  0  0  0
 76161  1  0  0  0
M  END
$$$$
