### 
### Created by X-TOOL on Mon Sep 10 21:13:34 2018
### 

@<TRIPOS>MOLECULE
5j9k_ligand
  159   159     1     0     0
SMALL
GAST_HUCK


@<TRIPOS>ATOM
      1 N          15.3670   -8.1410   15.0320 N.4       1 ASN         0.2396
      2 CA         15.9480   -7.3020   13.9830 C.3       1 ASN         0.0818
      3 C          15.3290   -5.9110   13.8940 C.2       1 ASN         0.2291
      4 O          16.0400   -4.8990   13.9230 O.2       1 ASN        -0.3905
      5 CB         15.8140   -7.9840   12.6210 C.3       1 ASN         0.0972
      6 CG         17.1150   -8.5990   12.1370 C.2       1 ASN         0.1813
      7 OD1        17.9420   -9.0410   12.9330 O.2       1 ASN        -0.3969
      8 ND2        17.2960   -8.6350   10.8200 N.am      1 ASN        -0.3006
      9 N          14.0000   -5.8790   13.8160 N.am      1 LEU        -0.2609
     10 CA         13.2430   -4.6730   13.4760 C.3       1 LEU         0.1313
     11 C          13.5390   -3.4630   14.3690 C.2       1 LEU         0.2039
     12 O          13.7660   -3.6130   15.5700 O.2       1 LEU        -0.3944
     13 CB         11.7410   -4.9770   13.5300 C.3       1 LEU        -0.0101
     14 CG         11.2390   -6.3080   12.9560 C.3       1 LEU        -0.0425
     15 CD1         9.7330   -6.3870   13.0340 C.3       1 LEU        -0.0625
     16 CD2        11.6940   -6.5370   11.5330 C.3       1 LEU        -0.0625
     17 N          13.5240   -2.2680   13.7800 N.am      1 ILE        -0.2635
     18 CA         13.7010   -1.0390   14.5490 C.3       1 ILE         0.1335
     19 C          12.5660   -0.8470   15.5440 C.2       1 ILE         0.2043
     20 O          11.4010   -1.1230   15.2510 O.2       1 ILE        -0.3944
     21 CB         13.7850    0.2080   13.6510 C.3       1 ILE        -0.0037
     22 CG1        12.9210    0.0330   12.3980 C.3       1 ILE        -0.0491
     23 CG2        15.2320    0.5050   13.2860 C.3       1 ILE        -0.0582
     24 CD1        12.9550    1.2340   11.4600 C.3       1 ILE        -0.0648
     25 N          12.9220   -0.3630   16.7260 N.am      1 TYR        -0.2621
     26 CA         11.9760   -0.2680   17.8170 C.3       1 TYR         0.1390
     27 C          12.3300    0.8690   18.7680 C.2       1 TYR         0.2057
     28 O          13.2890    0.7760   19.5330 O.2       1 TYR        -0.3942
     29 CB         11.9260   -1.5990   18.5650 C.3       1 TYR         0.0163
     30 CG         11.1390   -1.5560   19.8460 C.ar      1 TYR        -0.0493
     31 CD1         9.7520   -1.5390   19.8300 C.ar      1 TYR        -0.0685
     32 CD2        11.7800   -1.5350   21.0760 C.ar      1 TYR        -0.0685
     33 CE1         9.0220   -1.5110   21.0060 C.ar      1 TYR        -0.0398
     34 CE2        11.0560   -1.5000   22.2590 C.ar      1 TYR        -0.0398
     35 CZ          9.6750   -1.4870   22.2170 C.ar      1 TYR         0.0805
     36 OH          8.9450   -1.4520   23.3850 O.3       1 TYR        -0.3376
     37 N          11.5540    1.9460   18.7150 N.am      1 LEU        -0.2636
     38 CA         11.7080    3.0270   19.6730 C.3       1 LEU         0.1312
     39 C          10.7770    2.8020   20.8570 C.2       1 LEU         0.2040
     40 O           9.5520    2.7700   20.7110 O.2       1 LEU        -0.3944
     41 CB         11.4280    4.3840   19.0200 C.3       1 LEU        -0.0101
     42 CG         12.4770    5.4770   19.2540 C.3       1 LEU        -0.0425
     43 CD1        12.4850    5.9710   20.6890 C.3       1 LEU        -0.0625
     44 CD2        13.8500    4.9460   18.8720 C.3       1 LEU        -0.0625
     45 N          11.3690    2.6200   22.0300 N.am      1 ASP        -0.2622
     46 CA         10.5960    2.5570   23.2560 C.3       1 ASP         0.1423
     47 C           9.9500    3.9220   23.4740 C.2       1 ASP         0.2056
     48 O          10.5170    4.9420   23.0860 O.2       1 ASP        -0.3943
     49 CB         11.4800    2.1670   24.4380 C.3       1 ASP         0.0406
     50 CG         10.6820    1.9160   25.6990 C.2       1 ASP         0.0393
     51 OD1        10.1590    2.8910   26.2770 O.co2     1 ASP        -0.5688
     52 OD2        10.5700    0.7430   26.1120 O.co2     1 ASP        -0.5688
     53 N           8.7650    3.9520   24.0760 N.am      1 LEU        -0.2636
     54 CA          8.0370    5.2110   24.2170 C.3       1 LEU         0.1312
     55 C           7.5450    5.4720   25.6390 C.2       1 LEU         0.2040
     56 O           6.5590    6.1750   25.8450 O.2       1 LEU        -0.3944
     57 CB          6.8570    5.2440   23.2500 C.3       1 LEU        -0.0101
     58 CG          7.1770    5.0840   21.7640 C.3       1 LEU        -0.0425
     59 CD1         5.8960    4.8360   20.9890 C.3       1 LEU        -0.0625
     60 CD2         7.9070    6.3130   21.2390 C.3       1 LEU        -0.0625
     61 N           8.2330    4.8810   26.6080 N.am      1 ASN        -0.2616
     62 CA          8.0890    5.2340   28.0120 C.3       1 ASN         0.1475
     63 C           9.5030    5.2040   28.5930 C.2       1 ASN         0.2057
     64 O          10.4410    4.9040   27.8540 O.2       1 ASN        -0.3942
     65 CB          7.1370    4.2700   28.7420 C.3       1 ASN         0.0773
     66 CG          5.6840    4.7590   28.7520 C.2       1 ASN         0.1780
     67 OD1         5.4200    5.9590   28.6750 O.2       1 ASN        -0.3970
     68 ND2         4.7410    3.8230   28.8510 N.am      1 ASN        -0.3007
     69 N           9.6570    5.5500   29.8730 N.am      1 LEU        -0.2693
     70 CA         10.9120    5.3750   30.6240 C.3       1 LEU         0.0946
     71 C          10.7670    5.9920   32.0100 C.2       1 LEU         0.0601
     72 O           9.9650    6.9030   32.2180 O.co2     1 LEU        -0.5666
     73 CB         12.1240    5.9910   29.8990 C.3       1 LEU        -0.0156
     74 CG         13.4770    5.2720   30.0480 C.3       1 LEU        -0.0431
     75 CD1        13.3020    3.7760   30.2690 C.3       1 LEU        -0.0625
     76 CD2        14.3630    5.5270   28.8310 C.3       1 LEU        -0.0625
     77 OXT        11.4480    5.5950   32.9560 O.co2     1 LEU        -0.5666
     78 H1         15.8216   -9.0407   15.0330 H         1 ASN         0.2017
     79 H2         14.3817   -8.2627   14.8578 H         1 ASN         0.2017
     80 H3         15.4976   -7.6976   15.9278 H         1 ASN         0.2017
     81 H4         17.0175   -7.1813   14.2100 H         1 ASN         0.1125
     82 H5         15.4844   -7.2360   11.8849 H         1 ASN         0.0585
     83 H6         15.0580   -8.7791   12.6996 H         1 ASN         0.0585
     84 H7         18.1337   -9.0283   10.4410 H         1 ASN         0.1814
     85 H8         16.5944   -8.2688   10.2087 H         1 ASN         0.1814
     86 H9         13.4934   -6.7215   13.9990 H         1 LEU         0.1885
     87 H10        13.5076   -4.3971   12.4446 H         1 LEU         0.0800
     88 H11        11.2278   -4.1735   12.9814 H         1 LEU         0.0315
     89 H12        11.4422   -4.9473   14.5882 H         1 LEU         0.0315
     90 H13        11.6566   -7.1156   13.5751 H         1 LEU         0.0298
     91 H14         9.3942   -7.3473   12.6181 H         1 LEU         0.0232
     92 H15         9.2921   -5.5613   12.4563 H         1 LEU         0.0232
     93 H16         9.4157   -6.3100   14.0844 H         1 LEU         0.0232
     94 H17        12.7914   -6.4779   11.4849 H         1 LEU         0.0232
     95 H18        11.2564   -5.7677   10.8798 H         1 LEU         0.0232
     96 H19        11.3655   -7.5321   11.1986 H         1 LEU         0.0232
     97 H20        13.3887   -2.2114   12.7908 H         1 ILE         0.1883
     98 H21        14.6446   -1.1254   15.1078 H         1 ILE         0.0803
     99 H22        13.3932    1.0657   14.2174 H         1 ILE         0.0345
    100 H23        11.8803   -0.1322   12.7136 H         1 ILE         0.0267
    101 H24        13.2815   -0.8484   11.8474 H         1 ILE         0.0267
    102 H25        15.8247    0.6250   14.2049 H         1 ILE         0.0235
    103 H26        15.2785    1.4323   12.6961 H         1 ILE         0.0235
    104 H27        15.6390   -0.3275   12.6933 H         1 ILE         0.0235
    105 H28        12.3147    1.0362   10.5877 H         1 ILE         0.0230
    106 H29        13.9880    1.4082   11.1245 H         1 ILE         0.0230
    107 H30        12.5868    2.1243   11.9907 H         1 ILE         0.0230
    108 H31        13.8637   -0.0573   16.8665 H         1 TYR         0.1885
    109 H32        10.9802   -0.0652   17.3960 H         1 TYR         0.0821
    110 H33        12.9568   -1.9000   18.8032 H         1 TYR         0.0453
    111 H34        11.4683   -2.3496   17.9038 H         1 TYR         0.0453
    112 H35         9.2304   -1.5478   18.8798 H         1 TYR         0.0530
    113 H36        12.8633   -1.5461   21.1135 H         1 TYR         0.0530
    114 H37         7.9385   -1.5080   20.9729 H         1 TYR         0.0525
    115 H38        11.5717   -1.4829   23.2123 H         1 TYR         0.0525
    116 H39         8.0179   -1.4475   23.1777 H         1 TYR         0.2458
    117 H40        10.8532    2.0135   18.0048 H         1 LEU         0.1883
    118 H41        12.7459    3.0255   20.0373 H         1 LEU         0.0800
    119 H42        10.4673    4.7520   19.4094 H         1 LEU         0.0315
    120 H43        11.3466    4.2238   17.9348 H         1 LEU         0.0315
    121 H44        12.2363    6.3296   18.6020 H         1 LEU         0.0298
    122 H45        13.2520    6.7511   20.8039 H         1 LEU         0.0232
    123 H46        12.7108    5.1325   21.3642 H         1 LEU         0.0232
    124 H47        11.4981    6.3875   20.9389 H         1 LEU         0.0232
    125 H48        13.8295    4.5918   17.8308 H         1 LEU         0.0232
    126 H49        14.1190    4.1125   19.5375 H         1 LEU         0.0232
    127 H50        14.5946    5.7496   18.9713 H         1 LEU         0.0232
    128 H51        12.3637    2.5247   22.0698 H         1 ASP         0.1884
    129 H52         9.8064    1.7991   23.1462 H         1 ASP         0.0819
    130 H53        12.1942    2.9816   24.6286 H         1 ASP         0.0478
    131 H54        12.0300    1.2500   24.1800 H         1 ASP         0.0478
    132 H55         8.3690    3.1068   24.4349 H         1 LEU         0.1883
    133 H56         8.7265    6.0249   23.9484 H         1 LEU         0.0800
    134 H57         6.3489    6.2111   23.3784 H         1 LEU         0.0315
    135 H58         6.1730    4.4301   23.5322 H         1 LEU         0.0315
    136 H59         7.8350    4.2114   21.6387 H         1 LEU         0.0298
    137 H60         6.1303    4.7214   19.9204 H         1 LEU         0.0232
    138 H61         5.2140    5.6882   21.1255 H         1 LEU         0.0232
    139 H62         5.4152    3.9186   21.3593 H         1 LEU         0.0232
    140 H63         8.8291    6.4671   21.8186 H         1 LEU         0.0232
    141 H64         7.2585    7.1957   21.3402 H         1 LEU         0.0232
    142 H65         8.1607    6.1639   20.1791 H         1 LEU         0.0232
    143 H66         8.8803    4.1597   26.3616 H         1 ASN         0.1885
    144 H67         7.6805    6.2518   28.0962 H         1 ASN         0.0826
    145 H68         7.4777    4.1611   29.7822 H         1 ASN         0.0551
    146 H69         7.1746    3.2922   28.2396 H         1 ASN         0.0551
    147 H70         3.7759    4.0848   28.8623 H         1 ASN         0.1814
    148 H71         4.9983    2.8587   28.9140 H         1 ASN         0.1814
    149 H72         8.8749    5.9513   30.3498 H         1 LEU         0.1875
    150 H73        11.0952    4.2963   30.7371 H         1 LEU         0.0726
    151 H74        12.2508    7.0154   30.2793 H         1 LEU         0.0308
    152 H75        11.8846    6.0252   28.8259 H         1 LEU         0.0308
    153 H76        13.9829    5.6874   30.9321 H         1 LEU         0.0297
    154 H77        14.2896    3.3023   30.3700 H         1 LEU         0.0232
    155 H78        12.7714    3.3381   29.4107 H         1 LEU         0.0232
    156 H79        12.7186    3.6066   31.1860 H         1 LEU         0.0232
    157 H80        14.4805    6.6107   28.6837 H         1 LEU         0.0232
    158 H81        13.8966    5.0841   27.9386 H         1 LEU         0.0232
    159 H82        15.3502    5.0700   28.9939 H         1 LEU         0.0232
@<TRIPOS>BOND
     1    1    2 1  
     2    2    3 1  
     3    2    5 1  
     4    3    4 2  
     5    3    9 am 
     6    5    6 1  
     7    6    7 2  
     8    6    8 am 
     9    9   10 1  
    10   10   11 1  
    11   10   13 1  
    12   11   12 2  
    13   11   17 am 
    14   13   14 1  
    15   14   15 1  
    16   14   16 1  
    17   17   18 1  
    18   18   19 1  
    19   18   21 1  
    20   19   20 2  
    21   19   25 am 
    22   21   22 1  
    23   21   23 1  
    24   22   24 1  
    25   25   26 1  
    26   26   27 1  
    27   26   29 1  
    28   27   28 2  
    29   27   37 am 
    30   29   30 1  
    31   30   31 ar 
    32   30   32 ar 
    33   31   33 ar 
    34   32   34 ar 
    35   33   35 ar 
    36   34   35 ar 
    37   35   36 1  
    38   37   38 1  
    39   38   39 1  
    40   38   41 1  
    41   39   40 2  
    42   39   45 am 
    43   41   42 1  
    44   42   43 1  
    45   42   44 1  
    46   45   46 1  
    47   46   47 1  
    48   46   49 1  
    49   47   48 2  
    50   47   53 am 
    51   49   50 1  
    52   50   51 ar 
    53   50   52 ar 
    54   53   54 1  
    55   54   55 1  
    56   54   57 1  
    57   55   56 2  
    58   55   61 am 
    59   57   58 1  
    60   58   59 1  
    61   58   60 1  
    62   61   62 1  
    63   62   63 1  
    64   62   65 1  
    65   63   64 2  
    66   63   69 am 
    67   65   66 1  
    68   66   67 2  
    69   66   68 am 
    70   69   70 1  
    71   70   71 1  
    72   70   73 1  
    73   71   72 ar 
    74   71   77 ar 
    75   73   74 1  
    76   74   75 1  
    77   74   76 1  
    78    1   78 1  
    79    1   79 1  
    80    1   80 1  
    81    2   81 1  
    82    5   82 1  
    83    5   83 1  
    84    8   84 1  
    85    8   85 1  
    86    9   86 1  
    87   10   87 1  
    88   13   88 1  
    89   13   89 1  
    90   14   90 1  
    91   15   91 1  
    92   15   92 1  
    93   15   93 1  
    94   16   94 1  
    95   16   95 1  
    96   16   96 1  
    97   17   97 1  
    98   18   98 1  
    99   21   99 1  
   100   22  100 1  
   101   22  101 1  
   102   23  102 1  
   103   23  103 1  
   104   23  104 1  
   105   24  105 1  
   106   24  106 1  
   107   24  107 1  
   108   25  108 1  
   109   26  109 1  
   110   29  110 1  
   111   29  111 1  
   112   31  112 1  
   113   32  113 1  
   114   33  114 1  
   115   34  115 1  
   116   36  116 1  
   117   37  117 1  
   118   38  118 1  
   119   41  119 1  
   120   41  120 1  
   121   42  121 1  
   122   43  122 1  
   123   43  123 1  
   124   43  124 1  
   125   44  125 1  
   126   44  126 1  
   127   44  127 1  
   128   45  128 1  
   129   46  129 1  
   130   49  130 1  
   131   49  131 1  
   132   53  132 1  
   133   54  133 1  
   134   57  134 1  
   135   57  135 1  
   136   58  136 1  
   137   59  137 1  
   138   59  138 1  
   139   59  139 1  
   140   60  140 1  
   141   60  141 1  
   142   60  142 1  
   143   61  143 1  
   144   62  144 1  
   145   65  145 1  
   146   65  146 1  
   147   68  147 1  
   148   68  148 1  
   149   69  149 1  
   150   70  150 1  
   151   73  151 1  
   152   73  152 1  
   153   74  153 1  
   154   75  154 1  
   155   75  155 1  
   156   75  156 1  
   157   76  157 1  
   158   76  158 1  
   159   76  159 1  
@<TRIPOS>SUBSTRUCTURE
     1 ASN         1

