### 
### Created by X-TOOL on Mon Sep 10 21:13:34 2018
### 

@<TRIPOS>MOLECULE
5kzp_ligand
  234   237     1     0     0
SMALL
GAST_HUCK


@<TRIPOS>ATOM
      1 N           0.2750  -18.1270    9.5680 N.4       1 CYS         0.2385
      2 CA         -0.0980  -16.7310    9.6060 C.3       1 CYS         0.0749
      3 C           0.6460  -15.9930   10.7140 C.2       1 CYS         0.2275
      4 O           0.7850  -16.4830   11.8260 O.2       1 CYS        -0.3907
      5 CB         -1.6130  -16.5790    9.7790 C.3       1 CYS         0.0643
      6 SG         -2.5560  -17.2950    8.4120 S.3       1 CYS        -0.0848
      7 N           1.1370  -14.8040   10.3790 N.am      1 GLN        -0.2608
      8 CA          1.8530  -13.9480   11.3050 C.3       1 GLN         0.1331
      9 C           1.1770  -12.5820   11.3130 C.2       1 GLN         0.2040
     10 O           0.8610  -12.0300   10.2470 O.2       1 GLN        -0.3944
     11 CB          3.3300  -13.8180   10.8830 C.3       1 GLN         0.0045
     12 CG          4.2990  -13.8800   12.0250 C.3       1 GLN         0.0412
     13 CD          4.3330  -15.2660   12.6410 C.2       1 GLN         0.1737
     14 OE1         4.4590  -15.4160   13.8510 O.2       1 GLN        -0.3973
     15 NE2         4.2050  -16.2900   11.8030 N.am      1 GLN        -0.3009
     16 N           0.9690  -12.0290   12.5080 N.am      1 LEU        -0.2637
     17 CA          0.4080  -10.6900   12.6420 C.3       1 LEU         0.1312
     18 C           1.5530   -9.6810   12.5740 C.2       1 LEU         0.2039
     19 O           2.5040   -9.7840   13.3490 O.2       1 LEU        -0.3944
     20 CB         -0.3590  -10.5330   13.9590 C.3       1 LEU        -0.0101
     21 CG         -0.6930   -9.0610   14.2780 C.3       1 LEU        -0.0425
     22 CD1        -1.7320   -8.5110   13.2970 C.3       1 LEU        -0.0625
     23 CD2        -1.1820   -8.8040   15.7180 C.3       1 LEU        -0.0625
     24 N           1.4590   -8.7120   11.6500 N.am      1 ILE        -0.2635
     25 CA          2.5180   -7.7390   11.3900 C.3       1 ILE         0.1335
     26 C           2.0220   -6.3320   11.6960 C.2       1 ILE         0.2043
     27 O           0.9460   -5.9180   11.2350 O.2       1 ILE        -0.3944
     28 CB          3.0110   -7.7730    9.9330 C.3       1 ILE        -0.0037
     29 CG1         3.1930   -9.2170    9.4570 C.3       1 ILE        -0.0491
     30 CG2         4.3150   -6.9310    9.7900 C.3       1 ILE        -0.0582
     31 CD1         4.3770   -9.8770   10.0540 C.3       1 ILE        -0.0648
     32 N           2.8680   -5.5650   12.3770 N.am      1 ASN        -0.2616
     33 CA          2.6680   -4.1330   12.5520 C.3       1 ASN         0.1476
     34 C           3.7970   -3.3830   11.8520 C.2       1 ASN         0.2063
     35 O           4.9630   -3.5570   12.2060 O.2       1 ASN        -0.3942
     36 CB          2.6130   -3.7580   14.0360 C.3       1 ASN         0.0773
     37 CG          2.2250   -2.2980   14.2520 C.2       1 ASN         0.1780
     38 OD1         2.9100   -1.3690   13.7720 O.2       1 ASN        -0.3970
     39 ND2         1.0820   -2.0880   14.9270 N.am      1 ASN        -0.3007
     40 N           3.4400   -2.5410   10.8790 N.am      1 THR        -0.2612
     41 CA          4.3890   -1.7210   10.1290 C.3       1 THR         0.1565
     42 C           4.0520   -0.2530   10.3650 C.2       1 THR         0.2066
     43 O           3.0280    0.2320    9.8640 O.2       1 THR        -0.3943
     44 CB          4.3310   -2.0640    8.6440 C.3       1 THR         0.0924
     45 OG1         4.4790   -3.4820    8.4730 O.3       1 THR        -0.3874
     46 CG2         5.4450   -1.2830    7.8220 C.3       1 THR        -0.0346
     47 N           4.8870    0.4420   11.1440 N.am      1 ASN        -0.2615
     48 CA          4.6630    1.8530   11.5180 C.3       1 ASN         0.1476
     49 C           3.2210    2.0830   11.9860 C.2       1 ASN         0.2061
     50 O           2.6190    3.1310   11.7350 O.2       1 ASN        -0.3942
     51 CB          5.0410    2.8150   10.3600 C.3       1 ASN         0.0773
     52 CG          5.0490    4.3260   10.7790 C.2       1 ASN         0.1780
     53 OD1         5.0940    4.6580   11.9710 O.2       1 ASN        -0.3970
     54 ND2         4.9960    5.2370    9.7790 N.am      1 ASN        -0.3007
     55 N           2.6550    1.0870   12.6740 N.am      1 GLY        -0.2663
     56 CA          1.3180    1.1940   13.2130 C.3       1 GLY         0.1201
     57 C           0.2590    0.4880   12.3940 C.2       1 GLY         0.2008
     58 O          -0.8570    0.2710   12.9000 O.2       1 GLY        -0.3947
     59 N           0.5550    0.1620   11.1360 N.am      1 SER        -0.2618
     60 CA         -0.4460   -0.4680   10.2770 C.3       1 SER         0.1539
     61 C          -0.4620   -1.9790   10.4750 C.2       1 SER         0.2063
     62 O           0.5950   -2.6190   10.4910 O.2       1 SER        -0.3943
     63 CB         -0.1590   -0.1280    8.8220 C.3       1 SER         0.0843
     64 OG         -0.8240    1.0810    8.4910 O.3       1 SER        -0.3903
     65 N          -1.6530   -2.5600   10.5910 N.am      1 TRP        -0.2626
     66 CA         -1.7550   -3.9910   10.8490 C.3       1 TRP         0.1352
     67 C          -2.0040   -4.8130    9.5840 C.2       1 TRP         0.2053
     68 O          -2.7490   -4.4170    8.6970 O.2       1 TRP        -0.3942
     69 CB         -2.8480   -4.3240   11.8710 C.3       1 TRP         0.0042
     70 CG         -2.8330   -3.5970   13.1840 C.2       1 TRP        -0.0418
     71 CD1        -3.5530   -2.4930   13.5160 C.2       1 TRP         0.0167
     72 CD2        -2.0700   -3.9440   14.3370 C.ar      1 TRP        -0.0214
     73 NE1        -3.3120   -2.1520   14.8260 N.pl3     1 TRP        -0.2890
     74 CE2        -2.3830   -3.0150   15.3420 C.ar      1 TRP         0.0603
     75 CE3        -1.1490   -4.9670   14.6240 C.ar      1 TRP        -0.0747
     76 CZ2        -1.8180   -3.0700   16.6220 C.ar      1 TRP        -0.0443
     77 CZ3        -0.5980   -5.0380   15.8980 C.ar      1 TRP        -0.0792
     78 CH2        -0.9270   -4.0810   16.8810 C.ar      1 TRP        -0.0768
     79 N          -1.3630   -5.9610    9.4970 N.am      1 HIS        -0.2624
     80 CA         -1.7520   -6.8920    8.4490 C.3       1 HIS         0.1369
     81 C          -1.3360   -8.2940    8.8520 C.2       1 HIS         0.2054
     82 O          -0.4460   -8.4860    9.6900 O.2       1 HIS        -0.3942
     83 CB         -1.1860   -6.5120    7.0630 C.3       1 HIS         0.0145
     84 CG          0.3080   -6.4860    6.9820 C.2       1 HIS        -0.0027
     85 ND1         1.0480   -7.5460    6.4970 N.2       1 HIS        -0.3252
     86 CD2         1.1970   -5.4880    7.2120 C.2       1 HIS         0.0291
     87 CE1         2.3320   -7.2250    6.4980 C.2       1 HIS         0.0907
     88 NE2         2.4480   -5.9790    6.9170 N.pl3     1 HIS        -0.2752
     89 N          -1.9810   -9.2780    8.2300 N.am      1 ILE        -0.2634
     90 CA         -1.6600  -10.6780    8.4710 C.3       1 ILE         0.1335
     91 C          -1.0490  -11.2570    7.1980 C.2       1 ILE         0.2043
     92 O          -1.5930  -11.0850    6.0940 O.2       1 ILE        -0.3944
     93 CB         -2.8850  -11.4840    8.9330 C.3       1 ILE        -0.0037
     94 CG1        -3.2640  -11.0890   10.3760 C.3       1 ILE        -0.0491
     95 CG2        -2.5710  -12.9870    8.8610 C.3       1 ILE        -0.0582
     96 CD1        -4.6810  -11.5520   10.8530 C.3       1 ILE        -0.0648
     97 N           0.1190  -11.8800    7.3480 N.am      1 ASN        -0.2616
     98 CA          0.7920  -12.5990    6.2740 C.3       1 ASN         0.1476
     99 C           0.7630  -14.0930    6.5700 C.2       1 ASN         0.2063
    100 O           1.1290  -14.5150    7.6780 O.2       1 ASN        -0.3942
    101 CB          2.2420  -12.1200    6.1080 C.3       1 ASN         0.0773
    102 CG          2.9330  -12.8090    4.9550 C.2       1 ASN         0.1780
    103 OD1         4.0380  -13.3390    5.0860 O.2       1 ASN        -0.3970
    104 ND2         2.2450  -12.8530    3.8050 N.am      1 ASN        -0.3007
    105 N           0.3590  -14.8920    5.5790 N.am      1 CYS        -0.2628
    106 CA          0.2310  -16.3430    5.7320 C.3       1 CYS         0.1406
    107 C           1.0020  -17.0280    4.6060 C.2       1 CYS         0.2042
    108 O           0.7060  -16.8030    3.4260 O.2       1 CYS        -0.3944
    109 CB         -1.2430  -16.7940    5.6780 C.3       1 CYS         0.0443
    110 SG         -2.4100  -15.9870    6.8110 S.3       1 CYS        -0.0880
    111 N           1.9250  -17.9180    4.9760 N.am      1 LYS        -0.2695
    112 CA          2.7330  -18.7290    4.0510 C.3       1 LYS         0.0944
    113 C           2.4430  -20.1890    4.2700 C.2       1 LYS         0.0601
    114 O           1.9290  -20.5260    5.3300 O.co2     1 LYS        -0.5666
    115 CB          4.2370  -18.5700    4.2750 C.3       1 LYS        -0.0177
    116 CG          4.8200  -17.2160    4.2640 C.3       1 LYS        -0.0446
    117 CD          6.1870  -17.2670    4.9560 C.3       1 LYS        -0.0125
    118 CE          6.9300  -15.9410    4.8170 C.3       1 LYS        -0.0354
    119 NZ          5.9990  -14.7770    4.6710 N.4       1 LYS         0.2185
    120 OXT         2.7810  -21.0350    3.4330 O.co2     1 LYS        -0.5666
    121 H1         -0.2302  -18.5897    8.8286 H         1 CYS         0.2015
    122 H2          0.0497  -18.5592   10.4503 H         1 CYS         0.2015
    123 H3          1.2655  -18.2057    9.3985 H         1 CYS         0.2015
    124 H4          0.1841  -16.2768    8.6447 H         1 CYS         0.1107
    125 H5         -1.8523  -15.5075    9.8465 H         1 CYS         0.0466
    126 H6         -1.9114  -17.0808   10.7113 H         1 CYS         0.0466
    127 H7          1.0060  -14.4836    9.4408 H         1 GLN         0.1885
    128 H8          1.8073  -14.3831   12.3142 H         1 GLN         0.0801
    129 H9          3.4598  -12.8528   10.3715 H         1 GLN         0.0337
    130 H10         3.5639  -14.6365   10.1864 H         1 GLN         0.0337
    131 H11         3.9954  -13.1534   12.7930 H         1 GLN         0.0504
    132 H12         5.3041  -13.6262   11.6570 H         1 GLN         0.0504
    133 H13         4.2200  -17.2269   12.1523 H         1 GLN         0.1814
    134 H14         4.0937  -16.1234   10.8233 H         1 GLN         0.1814
    135 H15         1.2033  -12.5448   13.3320 H         1 LEU         0.1883
    136 H16        -0.2857  -10.5075   11.8081 H         1 LEU         0.0800
    137 H17         0.2556  -10.9399   14.7755 H         1 LEU         0.0315
    138 H18        -1.2987  -11.1005   13.8895 H         1 LEU         0.0315
    139 H19         0.2366   -8.4884   14.1438 H         1 LEU         0.0298
    140 H20        -1.9521   -7.4623   13.5458 H         1 LEU         0.0232
    141 H21        -2.6544   -9.1060   13.3680 H         1 LEU         0.0232
    142 H22        -1.3359   -8.5694   12.2724 H         1 LEU         0.0232
    143 H23        -0.4423   -9.1956   16.4318 H         1 LEU         0.0232
    144 H24        -2.1458   -9.3107   15.8739 H         1 LEU         0.0232
    145 H25        -1.3066   -7.7225   15.8754 H         1 LEU         0.0232
    146 H26         0.6191   -8.6527   11.1105 H         1 ILE         0.1883
    147 H27         3.3663   -7.9713   12.0505 H         1 ILE         0.0803
    148 H28         2.2405   -7.3082    9.3004 H         1 ILE         0.0345
    149 H29         3.3076   -9.2139    8.3630 H         1 ILE         0.0267
    150 H30         2.2960   -9.7921    9.7301 H         1 ILE         0.0267
    151 H31         4.1304   -5.9061   10.1444 H         1 ILE         0.0235
    152 H32         4.6202   -6.9042    8.7335 H         1 ILE         0.0235
    153 H33         5.1146   -7.3883   10.3912 H         1 ILE         0.0235
    154 H34         4.4529  -10.9067    9.6747 H         1 ILE         0.0230
    155 H35         4.2729   -9.8963   11.1489 H         1 ILE         0.0230
    156 H36         5.2845   -9.3182    9.7818 H         1 ILE         0.0230
    157 H37         3.6757   -5.9893   12.7863 H         1 ASN         0.1885
    158 H38         1.7120   -3.8509   12.0867 H         1 ASN         0.0826
    159 H39         3.6042   -3.9298   14.4810 H         1 ASN         0.0551
    160 H40         1.8709   -4.3984   14.5352 H         1 ASN         0.0551
    161 H41         0.7696   -1.1545   15.1032 H         1 ASN         0.1814
    162 H42         0.5439   -2.8652   15.2531 H         1 ASN         0.1814
    163 H43         2.4691   -2.4675   10.6509 H         1 THR         0.1884
    164 H44         5.4067   -1.9191   10.4965 H         1 THR         0.0826
    165 H45         3.3458   -1.7651    8.2568 H         1 THR         0.0639
    166 H46         4.4426   -3.6937    7.5476 H         1 THR         0.2101
    167 H47         5.3734   -1.5541    6.7584 H         1 THR         0.0257
    168 H48         6.4403   -1.5548    8.2034 H         1 THR         0.0257
    169 H49         5.2922   -0.1996    7.9352 H         1 THR         0.0257
    170 H50         5.7049   -0.0169   11.4911 H         1 ASN         0.1885
    171 H51         5.3264    2.0796   12.3657 H         1 ASN         0.0826
    172 H52         4.3127    2.6833    9.5462 H         1 ASN         0.0551
    173 H53         6.0456    2.5484    9.9998 H         1 ASN         0.0551
    174 H54         4.9985    6.2140    9.9921 H         1 ASN         0.1814
    175 H55         4.9543    4.9329    8.8273 H         1 ASN         0.1814
    176 H56         3.1713    0.2432   12.8202 H         1 GLY         0.1881
    177 H57         1.0543    2.2603   13.2717 H         1 GLY         0.0763
    178 H58         1.3181    0.7601   14.2238 H         1 GLY         0.0763
    179 H59         1.4692    0.3499   10.7769 H         1 SER         0.1884
    180 H60        -1.4367   -0.0712   10.5435 H         1 SER         0.0823
    181 H61        -0.5241   -0.9390    8.1747 H         1 SER         0.0606
    182 H62         0.9246   -0.0041    8.6789 H         1 SER         0.0606
    183 H63        -0.5076    1.7791    9.0524 H         1 SER         0.2097
    184 H64        -2.4841   -2.0113   10.5006 H         1 TRP         0.1884
    185 H65        -0.7906   -4.3104   11.2709 H         1 TRP         0.0815
    186 H66        -2.7721   -5.3989   12.0919 H         1 TRP         0.0397
    187 H67        -3.8166   -4.1153   11.3932 H         1 TRP         0.0397
    188 H68        -4.2219   -1.9577   12.8438 H         1 TRP         0.0795
    189 H69        -3.7571   -1.3752   15.3352 H         1 TRP         0.2216
    190 H70        -0.8731   -5.6888   13.8637 H         1 TRP         0.0540
    191 H71        -2.0752   -2.3401   17.3811 H         1 TRP         0.0541
    192 H72         0.0926   -5.8380   16.1392 H         1 TRP         0.0510
    193 H73        -0.4668   -4.1456   17.8603 H         1 TRP         0.0530
    194 H74        -0.6273   -6.1867   10.1356 H         1 HIS         0.1885
    195 H75        -2.8490   -6.8705    8.3714 H         1 HIS         0.0817
    196 H76        -1.5604   -5.5109    6.8030 H         1 HIS         0.0420
    197 H77        -1.5559   -7.2437    6.3297 H         1 HIS         0.0420
    198 H78         0.9640   -4.4844    7.5647 H         1 HIS         0.0729
    199 H79         3.1525   -7.8776    6.2034 H         1 HIS         0.1199
    200 H80         3.3320   -5.4583    7.0084 H         1 HIS         0.2361
    201 H81        -2.7056   -9.0500    7.5796 H         1 ILE         0.1883
    202 H82        -0.9071  -10.7273    9.2714 H         1 ILE         0.0803
    203 H83        -3.7325  -11.2624    8.2677 H         1 ILE         0.0345
    204 H84        -3.2241   -9.9921   10.4484 H         1 ILE         0.0267
    205 H85        -2.5180  -11.5286   11.0544 H         1 ILE         0.0267
    206 H86        -2.3025  -13.2564    7.8289 H         1 ILE         0.0235
    207 H87        -3.4560  -13.5618    9.1716 H         1 ILE         0.0235
    208 H88        -1.7298  -13.2184    9.5309 H         1 ILE         0.0235
    209 H89        -4.8461  -11.2194   11.8885 H         1 ILE         0.0230
    210 H90        -4.7434  -12.6492   10.8060 H         1 ILE         0.0230
    211 H91        -5.4494  -11.1127   10.1999 H         1 ILE         0.0230
    212 H92         0.5576  -11.8527    8.2463 H         1 ASN         0.1885
    213 H93         0.2529  -12.4122    5.3336 H         1 ASN         0.0826
    214 H94         2.7958  -12.3342    7.0340 H         1 ASN         0.0551
    215 H95         2.2397  -11.0354    5.9246 H         1 ASN         0.0551
    216 H96         2.6430  -13.2944    3.0008 H         1 ASN         0.1814
    217 H97         1.3338  -12.4444    3.7515 H         1 ASN         0.1814
    218 H98         0.1343  -14.4821    4.6949 H         1 CYS         0.1884
    219 H99         0.6585  -16.6385    6.7015 H         1 CYS         0.0808
    220 H100       -1.2656  -17.8721    5.8950 H         1 CYS         0.0432
    221 H101       -1.6038  -16.6184    4.6538 H         1 CYS         0.0432
    222 H102        2.0794  -18.0434    5.9560 H         1 LYS         0.1875
    223 H103        2.4826  -18.4425    3.0189 H         1 LYS         0.0726
    224 H104        4.7434  -19.1458    3.4864 H         1 LYS         0.0305
    225 H105        4.4657  -19.0119    5.2560 H         1 LYS         0.0305
    226 H106        4.1574  -16.5227    4.8029 H         1 LYS         0.0269
    227 H107        4.9427  -16.8737    3.2259 H         1 LYS         0.0269
    228 H108        6.7903  -18.0651    4.4988 H         1 LYS         0.0317
    229 H109        6.0398  -17.4847    6.0241 H         1 LYS         0.0317
    230 H110        7.5764  -15.9898    3.9283 H         1 LYS         0.0813
    231 H111        7.5494  -15.7876    5.7130 H         1 LYS         0.0813
    232 H112        6.5344  -13.9275    4.5829 H         1 LYS         0.1994
    233 H113        5.4056  -14.7173    5.4836 H         1 LYS         0.1994
    234 H114        5.4304  -14.9026    3.8482 H         1 LYS         0.1994
@<TRIPOS>BOND
     1    1    2 1  
     2    2    3 1  
     3    2    5 1  
     4    3    4 2  
     5    3    7 am 
     6    5    6 1  
     7    6  110 1  
     8    7    8 1  
     9    8    9 1  
    10    8   11 1  
    11    9   10 2  
    12    9   16 am 
    13   11   12 1  
    14   12   13 1  
    15   13   14 2  
    16   13   15 am 
    17   16   17 1  
    18   17   18 1  
    19   17   20 1  
    20   18   19 2  
    21   18   24 am 
    22   20   21 1  
    23   21   22 1  
    24   21   23 1  
    25   24   25 1  
    26   25   26 1  
    27   25   28 1  
    28   26   27 2  
    29   26   32 am 
    30   28   29 1  
    31   28   30 1  
    32   29   31 1  
    33   32   33 1  
    34   33   34 1  
    35   33   36 1  
    36   34   35 2  
    37   34   40 am 
    38   36   37 1  
    39   37   38 2  
    40   37   39 am 
    41   40   41 1  
    42   41   42 1  
    43   41   44 1  
    44   42   43 2  
    45   42   47 am 
    46   44   45 1  
    47   44   46 1  
    48   47   48 1  
    49   48   49 1  
    50   48   51 1  
    51   49   50 2  
    52   49   55 am 
    53   51   52 1  
    54   52   53 2  
    55   52   54 am 
    56   55   56 1  
    57   56   57 1  
    58   57   58 2  
    59   57   59 am 
    60   59   60 1  
    61   60   61 1  
    62   60   63 1  
    63   61   62 2  
    64   61   65 am 
    65   63   64 1  
    66   65   66 1  
    67   66   67 1  
    68   66   69 1  
    69   67   68 2  
    70   67   79 am 
    71   69   70 1  
    72   70   71 2  
    73   70   72 1  
    74   71   73 1  
    75   72   74 ar 
    76   72   75 ar 
    77   73   74 1  
    78   74   76 ar 
    79   75   77 ar 
    80   76   78 ar 
    81   77   78 ar 
    82   79   80 1  
    83   80   81 1  
    84   80   83 1  
    85   81   82 2  
    86   81   89 am 
    87   83   84 1  
    88   84   85 1  
    89   84   86 2  
    90   85   87 2  
    91   86   88 1  
    92   87   88 1  
    93   89   90 1  
    94   90   91 1  
    95   90   93 1  
    96   91   92 2  
    97   91   97 am 
    98   93   94 1  
    99   93   95 1  
   100   94   96 1  
   101   97   98 1  
   102   98   99 1  
   103   98  101 1  
   104   99  100 2  
   105   99  105 am 
   106  101  102 1  
   107  102  103 2  
   108  102  104 am 
   109  105  106 1  
   110  106  107 1  
   111  106  109 1  
   112  107  108 2  
   113  107  111 am 
   114  109  110 1  
   115  111  112 1  
   116  112  113 1  
   117  112  115 1  
   118  113  114 ar 
   119  113  120 ar 
   120  115  116 1  
   121  116  117 1  
   122  117  118 1  
   123  118  119 1  
   124    1  121 1  
   125    1  122 1  
   126    1  123 1  
   127    2  124 1  
   128    5  125 1  
   129    5  126 1  
   130    7  127 1  
   131    8  128 1  
   132   11  129 1  
   133   11  130 1  
   134   12  131 1  
   135   12  132 1  
   136   15  133 1  
   137   15  134 1  
   138   16  135 1  
   139   17  136 1  
   140   20  137 1  
   141   20  138 1  
   142   21  139 1  
   143   22  140 1  
   144   22  141 1  
   145   22  142 1  
   146   23  143 1  
   147   23  144 1  
   148   23  145 1  
   149   24  146 1  
   150   25  147 1  
   151   28  148 1  
   152   29  149 1  
   153   29  150 1  
   154   30  151 1  
   155   30  152 1  
   156   30  153 1  
   157   31  154 1  
   158   31  155 1  
   159   31  156 1  
   160   32  157 1  
   161   33  158 1  
   162   36  159 1  
   163   36  160 1  
   164   39  161 1  
   165   39  162 1  
   166   40  163 1  
   167   41  164 1  
   168   44  165 1  
   169   45  166 1  
   170   46  167 1  
   171   46  168 1  
   172   46  169 1  
   173   47  170 1  
   174   48  171 1  
   175   51  172 1  
   176   51  173 1  
   177   54  174 1  
   178   54  175 1  
   179   55  176 1  
   180   56  177 1  
   181   56  178 1  
   182   59  179 1  
   183   60  180 1  
   184   63  181 1  
   185   63  182 1  
   186   64  183 1  
   187   65  184 1  
   188   66  185 1  
   189   69  186 1  
   190   69  187 1  
   191   71  188 1  
   192   73  189 1  
   193   75  190 1  
   194   76  191 1  
   195   77  192 1  
   196   78  193 1  
   197   79  194 1  
   198   80  195 1  
   199   83  196 1  
   200   83  197 1  
   201   86  198 1  
   202   87  199 1  
   203   88  200 1  
   204   89  201 1  
   205   90  202 1  
   206   93  203 1  
   207   94  204 1  
   208   94  205 1  
   209   95  206 1  
   210   95  207 1  
   211   95  208 1  
   212   96  209 1  
   213   96  210 1  
   214   96  211 1  
   215   97  212 1  
   216   98  213 1  
   217  101  214 1  
   218  101  215 1  
   219  104  216 1  
   220  104  217 1  
   221  105  218 1  
   222  106  219 1  
   223  109  220 1  
   224  109  221 1  
   225  111  222 1  
   226  112  223 1  
   227  115  224 1  
   228  115  225 1  
   229  116  226 1  
   230  116  227 1  
   231  117  228 1  
   232  117  229 1  
   233  118  230 1  
   234  118  231 1  
   235  119  232 1  
   236  119  233 1  
   237  119  234 1  
@<TRIPOS>SUBSTRUCTURE
     1 CYS         1

