5kzp_ligand
  -I-interpret- 

233236  0  0  0  0  0  0  0  0999 V2000
    0.2750  -18.1270    9.5680 N   0  3  0  0  0
   -0.0980  -16.7310    9.6060 C   0  0  0  0  0
    0.6460  -15.9930   10.7140 C   0  0  0  0  0
    0.7850  -16.4830   11.8260 O   0  0  0  0  0
   -1.6130  -16.5790    9.7790 C   0  0  0  0  0
   -2.5560  -17.2950    8.4120 S   0  0  0  0  0
    1.1370  -14.8040   10.3790 N   0  0  0  0  0
    1.8530  -13.9480   11.3050 C   0  0  0  0  0
    1.1770  -12.5820   11.3130 C   0  0  0  0  0
    0.8610  -12.0300   10.2470 O   0  0  0  0  0
    3.3300  -13.8180   10.8830 C   0  0  0  0  0
    4.2990  -13.8800   12.0250 C   0  0  0  0  0
    4.3330  -15.2660   12.6410 C   0  0  0  0  0
    4.4590  -15.4160   13.8510 O   0  0  0  0  0
    4.2050  -16.2900   11.8030 N   0  0  0  0  0
    0.9690  -12.0290   12.5080 N   0  0  0  0  0
    0.4080  -10.6900   12.6420 C   0  0  0  0  0
    1.5530   -9.6810   12.5740 C   0  0  0  0  0
    2.5040   -9.7840   13.3490 O   0  0  0  0  0
   -0.3590  -10.5330   13.9590 C   0  0  0  0  0
   -0.6930   -9.0610   14.2780 C   0  0  0  0  0
   -1.7320   -8.5110   13.2970 C   0  0  0  0  0
   -1.1820   -8.8040   15.7180 C   0  0  0  0  0
    1.4590   -8.7120   11.6500 N   0  0  0  0  0
    2.5180   -7.7390   11.3900 C   0  0  0  0  0
    2.0220   -6.3320   11.6960 C   0  0  0  0  0
    0.9460   -5.9180   11.2350 O   0  0  0  0  0
    3.0110   -7.7730    9.9330 C   0  0  0  0  0
    3.1930   -9.2170    9.4570 C   0  0  0  0  0
    4.3150   -6.9310    9.7900 C   0  0  0  0  0
    4.3770   -9.8770   10.0540 C   0  0  0  0  0
    2.8680   -5.5650   12.3770 N   0  0  0  0  0
    2.6680   -4.1330   12.5520 C   0  0  0  0  0
    3.7970   -3.3830   11.8520 C   0  0  0  0  0
    4.9630   -3.5570   12.2060 O   0  0  0  0  0
    2.6130   -3.7580   14.0360 C   0  0  0  0  0
    2.2250   -2.2980   14.2520 C   0  0  0  0  0
    2.9100   -1.3690   13.7720 O   0  0  0  0  0
    1.0820   -2.0880   14.9270 N   0  0  0  0  0
    3.4400   -2.5410   10.8790 N   0  0  0  0  0
    4.3890   -1.7210   10.1290 C   0  0  0  0  0
    4.0520   -0.2530   10.3650 C   0  0  0  0  0
    3.0280    0.2320    9.8640 O   0  0  0  0  0
    4.3310   -2.0640    8.6440 C   0  0  0  0  0
    4.4790   -3.4820    8.4730 O   0  0  0  0  0
    5.4450   -1.2830    7.8220 C   0  0  0  0  0
    4.8870    0.4420   11.1440 N   0  0  0  0  0
    4.6630    1.8530   11.5180 C   0  0  0  0  0
    3.2210    2.0830   11.9860 C   0  0  0  0  0
    2.6190    3.1310   11.7350 O   0  0  0  0  0
    5.0410    2.8150   10.3600 C   0  0  0  0  0
    5.0490    4.3260   10.7790 C   0  0  0  0  0
    5.0940    4.6580   11.9710 O   0  0  0  0  0
    4.9960    5.2370    9.7790 N   0  0  0  0  0
    2.6550    1.0870   12.6740 N   0  0  0  0  0
    1.3180    1.1940   13.2130 C   0  0  0  0  0
    0.2590    0.4880   12.3940 C   0  0  0  0  0
   -0.8570    0.2710   12.9000 O   0  0  0  0  0
    0.5550    0.1620   11.1360 N   0  0  0  0  0
   -0.4460   -0.4680   10.2770 C   0  0  0  0  0
   -0.4620   -1.9790   10.4750 C   0  0  0  0  0
    0.5950   -2.6190   10.4910 O   0  0  0  0  0
   -0.1590   -0.1280    8.8220 C   0  0  0  0  0
   -0.8240    1.0810    8.4910 O   0  0  0  0  0
   -1.6530   -2.5600   10.5910 N   0  0  0  0  0
   -1.7550   -3.9910   10.8490 C   0  0  0  0  0
   -2.0040   -4.8130    9.5840 C   0  0  0  0  0
   -2.7490   -4.4170    8.6970 O   0  0  0  0  0
   -2.8480   -4.3240   11.8710 C   0  0  0  0  0
   -2.8330   -3.5970   13.1840 C   0  0  0  0  0
   -3.5530   -2.4930   13.5160 C   0  0  0  0  0
   -2.0700   -3.9440   14.3370 C   0  0  0  0  0
   -3.3120   -2.1520   14.8260 N   0  0  0  0  0
   -2.3830   -3.0150   15.3420 C   0  0  0  0  0
   -1.1490   -4.9670   14.6240 C   0  0  0  0  0
   -1.8180   -3.0700   16.6220 C   0  0  0  0  0
   -0.5980   -5.0380   15.8980 C   0  0  0  0  0
   -0.9270   -4.0810   16.8810 C   0  0  0  0  0
   -1.3630   -5.9610    9.4970 N   0  0  0  0  0
   -1.7520   -6.8920    8.4490 C   0  0  0  0  0
   -1.3360   -8.2940    8.8520 C   0  0  0  0  0
   -0.4460   -8.4860    9.6900 O   0  0  0  0  0
   -1.1860   -6.5120    7.0630 C   0  0  0  0  0
    0.3080   -6.4860    6.9820 C   0  0  0  0  0
    1.0480   -7.5460    6.4970 N   0  0  0  0  0
    1.1970   -5.4880    7.2120 C   0  0  0  0  0
    2.3320   -7.2250    6.4980 C   0  0  0  0  0
    2.4480   -5.9790    6.9170 N   0  0  0  0  0
   -1.9810   -9.2780    8.2300 N   0  0  0  0  0
   -1.6600  -10.6780    8.4710 C   0  0  0  0  0
   -1.0490  -11.2570    7.1980 C   0  0  0  0  0
   -1.5930  -11.0850    6.0940 O   0  0  0  0  0
   -2.8850  -11.4840    8.9330 C   0  0  0  0  0
   -3.2640  -11.0890   10.3760 C   0  0  0  0  0
   -2.5710  -12.9870    8.8610 C   0  0  0  0  0
   -4.6810  -11.5520   10.8530 C   0  0  0  0  0
    0.1190  -11.8800    7.3480 N   0  0  0  0  0
    0.7920  -12.5990    6.2740 C   0  0  0  0  0
    0.7630  -14.0930    6.5700 C   0  0  0  0  0
    1.1290  -14.5150    7.6780 O   0  0  0  0  0
    2.2420  -12.1200    6.1080 C   0  0  0  0  0
    2.9330  -12.8090    4.9550 C   0  0  0  0  0
    4.0380  -13.3390    5.0860 O   0  0  0  0  0
    2.2450  -12.8530    3.8050 N   0  0  0  0  0
    0.3590  -14.8920    5.5790 N   0  0  0  0  0
    0.2310  -16.3430    5.7320 C   0  0  0  0  0
    1.0020  -17.0280    4.6060 C   0  0  0  0  0
    0.7060  -16.8030    3.4260 O   0  0  0  0  0
   -1.2430  -16.7940    5.6780 C   0  0  0  0  0
   -2.4100  -15.9870    6.8110 S   0  0  0  0  0
    1.9250  -17.9180    4.9760 N   0  0  0  0  0
    2.7330  -18.7290    4.0510 C   0  0  0  0  0
    2.4430  -20.1890    4.2700 C   0  0  0  0  0
    1.9290  -20.5260    5.3300 O   0  0  0  0  0
    4.2370  -18.5700    4.2750 C   0  0  0  0  0
    4.8200  -17.2160    4.2640 C   0  0  0  0  0
    6.1870  -17.2670    4.9560 C   0  0  0  0  0
    6.9300  -15.9410    4.8170 C   0  0  0  0  0
    5.9990  -14.7770    4.6710 N   0  3  0  0  0
    2.7810  -21.0350    3.4330 O   0  0  0  0  0
    1.2855  -18.2047    9.4525 H   0  0  0  0  0
   -0.0043  -18.5762   10.4401 H   0  0  0  0  0
   -0.1939  -18.5818    8.7846 H   0  0  0  0  0
    0.1862  -16.2829    8.6539 H   0  0  0  0  0
   -1.8377  -15.5130    9.8149 H   0  0  0  0  0
   -1.8975  -17.1053   10.6901 H   0  0  0  0  0
    1.0034  -14.4772    9.4221 H   0  0  0  0  0
    1.8300  -14.3787   12.3060 H   0  0  0  0  0
    3.4469  -12.8416   10.4129 H   0  0  0  0  0
    3.5528  -14.6574   10.2244 H   0  0  0  0  0
    3.9839  -13.1679   12.7877 H   0  0  0  0  0
    5.2943  -13.6414   11.6501 H   0  0  0  0  0
    4.2093  -17.2453   12.1606 H   0  0  0  0  0
    4.1025  -16.1204   10.8024 H   0  0  0  0  0
    1.2080  -12.5551   13.3485 H   0  0  0  0  0
   -0.3012  -10.5160   11.8327 H   0  0  0  0  0
    0.2707  -10.9161   14.7620 H   0  0  0  0  0
   -1.2984  -11.0782   13.8675 H   0  0  0  0  0
    0.2577   -8.5384   14.1728 H   0  0  0  0  0
   -1.3384   -8.5695   12.2822 H   0  0  0  0  0
   -2.6455   -9.1014   13.3683 H   0  0  0  0  0
   -1.9492   -7.4719   13.5445 H   0  0  0  0  0
   -2.0902   -9.3786   15.8999 H   0  0  0  0  0
   -0.4092   -9.1106   16.4229 H   0  0  0  0  0
   -1.3910   -7.7418   15.8452 H   0  0  0  0  0
    0.6023   -8.6515   11.0997 H   0  0  0  0  0
    3.3514   -8.0085   12.0388 H   0  0  0  0  0
    2.2579   -7.3214    9.2873 H   0  0  0  0  0
    3.3339   -9.1956    8.3764 H   0  0  0  0  0
    2.3104   -9.7806    9.7595 H   0  0  0  0  0
    4.1127   -5.8989   10.0762 H   0  0  0  0  0
    5.0863   -7.3450   10.4394 H   0  0  0  0  0
    4.6545   -6.9624    8.7547 H   0  0  0  0  0
    5.2755   -9.3223    9.7835 H   0  0  0  0  0
    4.2726   -9.8955   11.1388 H   0  0  0  0  0
    4.4511  -10.8972    9.6774 H   0  0  0  0  0
    3.6919   -5.9977   12.7945 H   0  0  0  0  0
    1.7122   -3.8528   12.1092 H   0  0  0  0  0
    3.6058   -3.9097   14.4596 H   0  0  0  0  0
    1.8582   -4.3822   14.5142 H   0  0  0  0  0
    0.7391   -1.1375   15.0660 H   0  0  0  0  0
    0.5574   -2.8791   15.3003 H   0  0  0  0  0
    2.4497   -2.4660   10.6463 H   0  0  0  0  0
    5.4050   -1.9188   10.4708 H   0  0  0  0  0
    3.3617   -1.7517    8.2555 H   0  0  0  0  0
    4.4422   -3.6960    7.5379 H   0  0  0  0  0
    5.2925   -0.2097    7.9351 H   0  0  0  0  0
    6.4306   -1.5532    8.2009 H   0  0  0  0  0
    5.3730   -1.5525    6.7683 H   0  0  0  0  0
    5.7212   -0.0261   11.4981 H   0  0  0  0  0
    5.3219    2.0774   12.3568 H   0  0  0  0  0
    4.2915    2.6961    9.5776 H   0  0  0  0  0
    6.0504    2.5591   10.0380 H   0  0  0  0  0
    4.9922    6.2335    9.9966 H   0  0  0  0  0
    4.9599    4.9269    8.8080 H   0  0  0  0  0
    3.1817    0.2263   12.8231 H   0  0  0  0  0
    1.0608    2.2531   13.2259 H   0  0  0  0  0
    1.3297    0.7240   14.1964 H   0  0  0  0  0
    1.4875    0.3537   10.7697 H   0  0  0  0  0
   -1.4292   -0.0840   10.5490 H   0  0  0  0  0
   -0.5163   -0.9323    8.1789 H   0  0  0  0  0
    0.9147   -0.0088    8.6770 H   0  0  0  0  0
   -0.6470    1.3015    7.5736 H   0  0  0  0  0
   -2.5007   -2.0003   10.4988 H   0  0  0  0  0
   -0.7820   -4.2650   11.2567 H   0  0  0  0  0
   -2.6985   -5.3743   12.1212 H   0  0  0  0  0
   -3.7855   -4.0384   11.3939 H   0  0  0  0  0
   -4.2225   -1.9572   12.8431 H   0  0  0  0  0
   -0.8716   -5.6928   13.8595 H   0  0  0  0  0
   -2.0766   -2.3361   17.3853 H   0  0  0  0  0
    0.0964   -5.8424   16.1405 H   0  0  0  0  0
   -0.4643   -4.1460   17.8658 H   0  0  0  0  0
   -0.6126   -6.1912   10.1484 H   0  0  0  0  0
   -2.8359   -6.8463    8.3431 H   0  0  0  0  0
   -1.5327   -5.5018    6.8453 H   0  0  0  0  0
   -1.5281   -7.2730    6.3616 H   0  0  0  0  0
    0.9638   -4.4835    7.5650 H   0  0  0  0  0
    3.1533   -7.8782    6.2031 H   0  0  0  0  0
   -2.7201   -9.0454    7.5666 H   0  0  0  0  0
   -0.9402  -10.7452    9.2868 H   0  0  0  0  0
   -3.7276  -11.2636    8.2776 H   0  0  0  0  0
   -3.2669   -9.9995   10.4083 H   0  0  0  0  0
   -2.5420  -11.5771   11.0306 H   0  0  0  0  0
   -2.3257  -13.2568    7.8338 H   0  0  0  0  0
   -1.7238  -13.2113    9.5091 H   0  0  0  0  0
   -3.4416  -13.5549    9.1892 H   0  0  0  0  0
   -5.4415  -11.1161   10.2051 H   0  0  0  0  0
   -4.7415  -12.6393   10.8059 H   0  0  0  0  0
   -4.8434  -11.2219   11.8790 H   0  0  0  0  0
    0.5664  -11.8522    8.2642 H   0  0  0  0  0
    0.2666  -12.3999    5.3400 H   0  0  0  0  0
    2.7866  -12.3542    7.0227 H   0  0  0  0  0
    2.2277  -11.0487    5.9076 H   0  0  0  0  0
    2.6336  -13.3385    2.9965 H   0  0  0  0  0
    1.3330  -12.4010    3.7387 H   0  0  0  0  0
    0.1299  -14.4740    4.6773 H   0  0  0  0  0
    0.6345  -16.6203    6.7059 H   0  0  0  0  0
   -1.2381  -17.8461    5.9629 H   0  0  0  0  0
   -1.5890  -16.5451    4.6748 H   0  0  0  0  0
    2.0824  -18.0459    5.9756 H   0  0  0  0  0
    2.4699  -18.3862    3.0503 H   0  0  0  0  0
    4.7027  -19.0839    3.4341 H   0  0  0  0  0
    4.4125  -18.9439    5.2837 H   0  0  0  0  0
    4.1626  -16.5244    4.7910 H   0  0  0  0  0
    4.9365  -16.8702    3.2369 H   0  0  0  0  0
    6.7838  -18.0495    4.4873 H   0  0  0  0  0
    6.0316  -17.4677    6.0160 H   0  0  0  0  0
    7.5477  -15.9931    3.9205 H   0  0  0  0  0
    7.5205  -15.7891    5.7205 H   0  0  0  0  0
    6.5419  -13.9181    4.5819 H   0  0  0  0  0
    5.4242  -14.9053    3.8382 H   0  0  0  0  0
    5.3991  -14.7177    5.4938 H   0  0  0  0  0
    3.1629  -20.5943    2.6704 H   0  0  0  0  0
  1  2  1  0  0  0
  2  3  1  0  0  0
  2  5  1  0  0  0
  3  4  2  0  0  0
  3  7  1  0  0  0
  5  6  1  0  0  0
  6110  1  0  0  0
  7  8  1  0  0  0
  8  9  1  0  0  0
  8 11  1  0  0  0
  9 10  2  0  0  0
  9 16  1  0  0  0
 11 12  1  0  0  0
 12 13  1  0  0  0
 13 14  2  0  0  0
 13 15  1  0  0  0
 16 17  1  0  0  0
 17 18  1  0  0  0
 17 20  1  0  0  0
 18 19  2  0  0  0
 18 24  1  0  0  0
 20 21  1  0  0  0
 21 22  1  0  0  0
 21 23  1  0  0  0
 24 25  1  0  0  0
 25 26  1  0  0  0
 25 28  1  0  0  0
 26 27  2  0  0  0
 26 32  1  0  0  0
 28 29  1  0  0  0
 28 30  1  0  0  0
 29 31  1  0  0  0
 32 33  1  0  0  0
 33 34  1  0  0  0
 33 36  1  0  0  0
 34 35  2  0  0  0
 34 40  1  0  0  0
 36 37  1  0  0  0
 37 38  2  0  0  0
 37 39  1  0  0  0
 40 41  1  0  0  0
 41 42  1  0  0  0
 41 44  1  0  0  0
 42 43  2  0  0  0
 42 47  1  0  0  0
 44 45  1  0  0  0
 44 46  1  0  0  0
 47 48  1  0  0  0
 48 49  1  0  0  0
 48 51  1  0  0  0
 49 50  2  0  0  0
 49 55  1  0  0  0
 51 52  1  0  0  0
 52 53  2  0  0  0
 52 54  1  0  0  0
 55 56  1  0  0  0
 56 57  1  0  0  0
 57 58  2  0  0  0
 57 59  1  0  0  0
 59 60  1  0  0  0
 60 61  1  0  0  0
 60 63  1  0  0  0
 61 62  2  0  0  0
 61 65  1  0  0  0
 63 64  1  0  0  0
 65 66  1  0  0  0
 66 67  1  0  0  0
 66 69  1  0  0  0
 67 68  2  0  0  0
 67 79  1  0  0  0
 69 70  1  0  0  0
 70 71  4  0  0  0
 70 72  4  0  0  0
 71 73  4  0  0  0
 72 74  4  0  0  0
 72 75  4  0  0  0
 73 74  4  0  0  0
 74 76  4  0  0  0
 75 77  4  0  0  0
 76 78  4  0  0  0
 77 78  4  0  0  0
 79 80  1  0  0  0
 80 81  1  0  0  0
 80 83  1  0  0  0
 81 82  2  0  0  0
 81 89  1  0  0  0
 83 84  1  0  0  0
 84 85  4  0  0  0
 84 86  4  0  0  0
 85 87  4  0  0  0
 86 88  4  0  0  0
 87 88  4  0  0  0
 89 90  1  0  0  0
 90 91  1  0  0  0
 90 93  1  0  0  0
 91 92  2  0  0  0
 91 97  1  0  0  0
 93 94  1  0  0  0
 93 95  1  0  0  0
 94 96  1  0  0  0
 97 98  1  0  0  0
 98 99  1  0  0  0
 98101  1  0  0  0
 99100  2  0  0  0
 99105  1  0  0  0
101102  1  0  0  0
102103  2  0  0  0
102104  1  0  0  0
105106  1  0  0  0
106107  1  0  0  0
106109  1  0  0  0
107108  2  0  0  0
107111  1  0  0  0
109110  1  0  0  0
111112  1  0  0  0
112113  1  0  0  0
112115  1  0  0  0
113114  2  0  0  0
113120  1  0  0  0
115116  1  0  0  0
116117  1  0  0  0
117118  1  0  0  0
118119  1  0  0  0
  1121  1  0  0  0
  1122  1  0  0  0
  1123  1  0  0  0
  2124  1  0  0  0
  5125  1  0  0  0
  5126  1  0  0  0
  7127  1  0  0  0
  8128  1  0  0  0
 11129  1  0  0  0
 11130  1  0  0  0
 12131  1  0  0  0
 12132  1  0  0  0
 15133  1  0  0  0
 15134  1  0  0  0
 16135  1  0  0  0
 17136  1  0  0  0
 20137  1  0  0  0
 20138  1  0  0  0
 21139  1  0  0  0
 22140  1  0  0  0
 22141  1  0  0  0
 22142  1  0  0  0
 23143  1  0  0  0
 23144  1  0  0  0
 23145  1  0  0  0
 24146  1  0  0  0
 25147  1  0  0  0
 28148  1  0  0  0
 29149  1  0  0  0
 29150  1  0  0  0
 30151  1  0  0  0
 30152  1  0  0  0
 30153  1  0  0  0
 31154  1  0  0  0
 31155  1  0  0  0
 31156  1  0  0  0
 32157  1  0  0  0
 33158  1  0  0  0
 36159  1  0  0  0
 36160  1  0  0  0
 39161  1  0  0  0
 39162  1  0  0  0
 40163  1  0  0  0
 41164  1  0  0  0
 44165  1  0  0  0
 45166  1  0  0  0
 46167  1  0  0  0
 46168  1  0  0  0
 46169  1  0  0  0
 47170  1  0  0  0
 48171  1  0  0  0
 51172  1  0  0  0
 51173  1  0  0  0
 54174  1  0  0  0
 54175  1  0  0  0
 55176  1  0  0  0
 56177  1  0  0  0
 56178  1  0  0  0
 59179  1  0  0  0
 60180  1  0  0  0
 63181  1  0  0  0
 63182  1  0  0  0
 64183  1  0  0  0
 65184  1  0  0  0
 66185  1  0  0  0
 69186  1  0  0  0
 69187  1  0  0  0
 71188  1  0  0  0
 75189  1  0  0  0
 76190  1  0  0  0
 77191  1  0  0  0
 78192  1  0  0  0
 79193  1  0  0  0
 80194  1  0  0  0
 83195  1  0  0  0
 83196  1  0  0  0
 86197  1  0  0  0
 87198  1  0  0  0
 89199  1  0  0  0
 90200  1  0  0  0
 93201  1  0  0  0
 94202  1  0  0  0
 94203  1  0  0  0
 95204  1  0  0  0
 95205  1  0  0  0
 95206  1  0  0  0
 96207  1  0  0  0
 96208  1  0  0  0
 96209  1  0  0  0
 97210  1  0  0  0
 98211  1  0  0  0
101212  1  0  0  0
101213  1  0  0  0
104214  1  0  0  0
104215  1  0  0  0
105216  1  0  0  0
106217  1  0  0  0
109218  1  0  0  0
109219  1  0  0  0
111220  1  0  0  0
112221  1  0  0  0
115222  1  0  0  0
115223  1  0  0  0
116224  1  0  0  0
116225  1  0  0  0
117226  1  0  0  0
117227  1  0  0  0
118228  1  0  0  0
118229  1  0  0  0
119230  1  0  0  0
119231  1  0  0  0
119232  1  0  0  0
120233  1  0  0  0
M  END
$$$$
