5hfu_ligand
  -I-interpret- 

 62 65  0  0  0  0  0  0  0  0999 V2000
   29.0180    1.5000  -62.6240 C   0  0  0  0  0
   32.9500   -2.3410  -70.4340 C   0  0  0  0  0
   32.6020   -3.6340  -70.1010 C   0  0  0  0  0
   33.0180   -1.3440  -69.4870 C   0  0  0  0  0
   31.2570   -4.7030  -64.6880 C   0  0  0  0  0
   30.0960    1.9980  -60.4870 C   0  0  0  0  0
   30.7360    3.2150  -62.4350 C   0  0  0  0  0
   32.3150   -3.9560  -68.7940 C   0  0  0  0  0
   32.7290   -1.6820  -68.1830 C   0  0  0  0  0
   31.5820   -4.4880  -66.0120 C   0  0  0  0  0
   31.4160   -3.7030  -63.7490 C   0  0  0  0  0
   31.0020    2.7110  -59.7240 C   0  0  0  0  0
   31.6490    3.9320  -61.6880 C   0  0  0  0  0
   32.2440   -2.2650  -65.4870 C   0  0  0  0  0
   29.9610    2.2450  -61.8380 C   0  0  0  0  0
   32.3810   -2.9760  -67.8200 C   0  0  0  0  0
   32.0760   -3.2640  -66.4250 C   0  0  0  0  0
   31.9200   -2.4950  -64.1740 C   0  0  0  0  0
   31.7760    3.6730  -60.3360 C   0  0  0  0  0
   32.1070   -1.3940  -63.2400 C   0  0  0  0  0
   33.4260    0.5630  -62.8300 C   0  0  0  0  0
   34.6650    1.1870  -63.4100 C   0  0  0  0  0
   34.7920    2.5230  -62.7470 C   0  0  0  0  0
   35.0740    2.2950  -61.2820 C   0  0  0  0  0
   33.6070    0.4250  -61.3390 C   0  0  0  0  0
   35.1620    3.6460  -60.6120 C   0  0  0  0  0
   28.2690    0.8880  -63.2690 N   0  0  0  0  0
   33.2740   -0.7300  -63.4230 N   0  0  0  0  0
   34.3310    3.5600  -59.4040 N   0  0  0  0  0
   31.2640   -1.1090  -62.4110 O   0  0  0  0  0
   33.3720    5.7860  -60.0750 O   0  0  0  0  0
   32.4750    4.6350  -57.9990 O   0  0  0  0  0
   33.9400    1.6580  -60.7100 O   0  0  0  0  0
   34.4640    1.4120  -64.7900 O   0  0  0  0  0
   35.8780    3.1940  -63.3560 O   0  0  0  0  0
   34.6380   -0.5100  -61.1200 O   0  0  0  0  0
   32.9640    4.5910  -59.3630 S   0  0  0  0  0
   33.1768   -2.1029  -71.4732 H   0  0  0  0  0
   32.5543   -4.4012  -70.8738 H   0  0  0  0  0
   33.2906   -0.3243  -69.7590 H   0  0  0  0  0
   30.8700   -5.6742  -64.3797 H   0  0  0  0  0
   29.4808    1.2314  -60.0157 H   0  0  0  0  0
   30.6279    3.4170  -63.5007 H   0  0  0  0  0
   32.0376   -4.9761  -68.5283 H   0  0  0  0  0
   32.7749   -0.9109  -67.4139 H   0  0  0  0  0
   31.4482   -5.2897  -66.7383 H   0  0  0  0  0
   31.1507   -3.8653  -62.7043 H   0  0  0  0  0
   31.1024    2.5155  -58.6564 H   0  0  0  0  0
   32.2653    4.6968  -62.1607 H   0  0  0  0  0
   32.6342   -1.2933  -65.7898 H   0  0  0  0  0
   32.5449    1.1733  -63.0280 H   0  0  0  0  0
   35.5404    0.5545  -63.2627 H   0  0  0  0  0
   33.8839    3.1173  -62.8485 H   0  0  0  0  0
   35.9845    1.7083  -61.1596 H   0  0  0  0  0
   32.6636    0.0971  -60.9025 H   0  0  0  0  0
   34.8106    4.4367  -61.2749 H   0  0  0  0  0
   36.1936    3.8940  -60.3622 H   0  0  0  0  0
   34.0279   -1.1433  -63.9718 H   0  0  0  0  0
   34.5542    2.9256  -58.6371 H   0  0  0  0  0
   35.2522    1.8106  -65.1662 H   0  0  0  0  0
   35.9864    4.0579  -62.9515 H   0  0  0  0  0
   34.7753   -0.6180  -60.1760 H   0  0  0  0  0
 15  1  1  0  0  0
  1 27  3  0  0  0
  3  2  4  0  0  0
  4  2  4  0  0  0
  8  3  4  0  0  0
  9  4  4  0  0  0
  5 10  4  0  0  0
 11  5  4  0  0  0
 12  6  4  0  0  0
  6 15  4  0  0  0
 13  7  4  0  0  0
  7 15  4  0  0  0
 16  8  4  0  0  0
 16  9  4  0  0  0
 17 10  4  0  0  0
 18 11  4  0  0  0
 19 12  4  0  0  0
 19 13  4  0  0  0
 14 17  4  0  0  0
 18 14  4  0  0  0
 17 16  1  0  0  0
 20 18  1  0  0  0
 37 19  1  0  0  0
 28 20  1  0  0  0
 20 30  2  0  0  0
 22 21  1  0  0  0
 25 21  1  0  0  0
 21 28  1  0  0  0
 23 22  1  0  0  0
 22 34  1  0  0  0
 24 23  1  0  0  0
 23 35  1  0  0  0
 26 24  1  0  0  0
 24 33  1  0  0  0
 33 25  1  0  0  0
 25 36  1  0  0  0
 29 26  1  0  0  0
 29 37  1  0  0  0
 37 31  2  0  0  0
 37 32  2  0  0  0
  2 38  1  0  0  0
  3 39  1  0  0  0
  4 40  1  0  0  0
  5 41  1  0  0  0
  6 42  1  0  0  0
  7 43  1  0  0  0
  8 44  1  0  0  0
  9 45  1  0  0  0
 10 46  1  0  0  0
 11 47  1  0  0  0
 12 48  1  0  0  0
 13 49  1  0  0  0
 14 50  1  0  0  0
 21 51  1  0  0  0
 22 52  1  0  0  0
 23 53  1  0  0  0
 24 54  1  0  0  0
 25 55  1  0  0  0
 26 56  1  0  0  0
 26 57  1  0  0  0
 28 58  1  0  0  0
 29 59  1  0  0  0
 34 60  1  0  0  0
 35 61  1  0  0  0
 36 62  1  0  0  0
M  END
$$$$
