2z4b_ligand
  -I-interpret- 

 39 42  0  0  0  0  0  0  0  0999 V2000
   78.2600   40.8340   69.8430 C   0  0  0  0  0
   77.1140   38.7230   70.0700 C   0  0  0  0  0
   76.6010   38.8260   68.6060 C   0  0  0  0  0
   75.2700   39.6550   68.4640 C   0  0  0  0  0
   77.5710   39.6040   67.6790 C   0  0  0  0  0
   78.3850   40.6910   68.4310 C   0  0  0  0  0
   75.3940   36.7880   70.6010 C   0  0  0  0  0
   74.5450   36.0760   71.4990 C   0  0  0  0  0
   74.4340   36.4900   72.8470 C   0  0  0  0  0
   75.1660   37.6160   73.3030 C   0  0  0  0  0
   80.0240   42.5650   68.3980 C   0  0  0  0  0
   79.8840   42.7000   69.7970 C   0  0  0  0  0
   79.0180   41.8470   70.5110 C   0  0  0  0  0
   77.4200   40.0300   70.6300 O   0  0  0  0  0
   75.3500   40.4150   67.1180 C   0  0  0  0  0
   74.2950   40.0060   66.2830 F   0  0  0  0  0
   75.2520   41.8020   67.3130 F   0  0  0  0  0
   76.7040   40.1040   66.4950 C   0  0  0  0  0
   79.2840   41.5630   67.7070 C   0  0  0  0  0
   76.1450   37.9260   71.0440 C   0  0  0  0  0
   73.6130   35.8070   73.7130 O   0  0  0  0  0
   76.0110   38.3250   72.4150 C   0  0  0  0  0
   80.8680   43.4340   67.7210 O   0  0  0  0  0
   78.0323   38.1402   69.9988 H   0  0  0  0  0
   76.4812   37.7785   68.3296 H   0  0  0  0  0
   75.1603   40.3526   69.2943 H   0  0  0  0  0
   74.4019   38.9961   68.4833 H   0  0  0  0  0
   78.3712   38.9724   67.2931 H   0  0  0  0  0
   75.4729   36.4625   69.5637 H   0  0  0  0  0
   73.9813   35.2123   71.1463 H   0  0  0  0  0
   75.0778   37.9368   74.3410 H   0  0  0  0  0
   80.4482   43.4673   70.3271 H   0  0  0  0  0
   78.9243   41.9612   71.5909 H   0  0  0  0  0
   76.6275   39.3600   65.7021 H   0  0  0  0  0
   77.1403   40.9769   66.0094 H   0  0  0  0  0
   79.3956   41.4528   66.6283 H   0  0  0  0  0
   73.6540   36.2158   74.5806 H   0  0  0  0  0
   76.5685   39.1879   72.7793 H   0  0  0  0  0
   80.8602   43.2215   66.7848 H   0  0  0  0  0
  6  1  4  0  0  0
  1 13  4  0  0  0
  1 14  1  0  0  0
  3  2  1  0  0  0
 14  2  1  0  0  0
  2 20  1  0  0  0
  3  4  1  0  0  0
  5  3  1  0  0  0
  4 15  1  0  0  0
  6  5  1  0  0  0
  5 18  1  0  0  0
 19  6  4  0  0  0
  7  8  4  0  0  0
 20  7  4  0  0  0
  8  9  4  0  0  0
  9 10  4  0  0  0
  9 21  1  0  0  0
 10 22  4  0  0  0
 11 12  4  0  0  0
 11 19  4  0  0  0
 11 23  1  0  0  0
 12 13  4  0  0  0
 15 16  1  0  0  0
 15 17  1  0  0  0
 15 18  1  0  0  0
 20 22  4  0  0  0
  2 24  1  0  0  0
  3 25  1  0  0  0
  4 26  1  0  0  0
  4 27  1  0  0  0
  5 28  1  0  0  0
  7 29  1  0  0  0
  8 30  1  0  0  0
 10 31  1  0  0  0
 12 32  1  0  0  0
 13 33  1  0  0  0
 18 34  1  0  0  0
 18 35  1  0  0  0
 19 36  1  0  0  0
 21 37  1  0  0  0
 22 38  1  0  0  0
 23 39  1  0  0  0
M  END
$$$$
