6cdl_ligand
  -I-interpret- 

 89 95  0  0  0  0  0  0  0  0999 V2000
   23.0430   26.7840   15.9070 S   0  0  0  0  0
   21.6600   28.5590   14.8990 N   0  0  0  0  0
   22.9130   28.3930   15.2880 C   0  0  0  0  0
   23.7490   29.3760   15.1630 N   0  0  0  0  0
   25.1030   29.4080   15.6480 C   0  0  0  0  0
   25.4300   28.5930   16.8850 C   0  0  0  0  0
   25.8180   28.1020   15.4940 C   0  0  0  0  0
   20.8330   27.5070   15.0730 C   0  0  0  0  0
   21.3710   26.4080   15.6510 C   0  0  0  0  0
   20.7220   25.2870   15.9180 C   0  0  0  0  0
   19.3520   25.2570   15.6390 C   0  0  0  0  0
   18.7720   26.3100   14.9440 C   0  0  0  0  0
   19.5550   27.4120   14.6320 C   0  0  0  0  0
   18.4170   23.8460   16.0480 S   0  0  0  0  0
   17.3280   23.6740   15.1040 O   0  0  0  0  0
   19.3520   22.6910   16.1960 O   0  0  0  0  0
   17.7730   24.0420   17.5360 N   0  0  0  0  0
   18.7400   24.3120   18.5900 C   0  0  0  0  0
   18.3720   23.5950   19.9070 C   0  0  0  0  0
   18.3560   22.0810   19.7110 C   0  0  0  0  0
   19.4720   23.9050   20.9600 C   0  0  0  0  0
   16.5450   24.8020   17.5960 C   0  0  0  0  0
   15.3970   23.9150   18.0810 C   0  0  0  0  0
   14.2520   24.7190   18.3740 O   0  0  0  0  0
   15.0600   22.7720   17.1250 C   0  0  0  0  0
   14.2590   21.7610   17.8410 N   0  0  0  0  0
   14.5840   20.4590   17.8000 C   0  0  0  0  0
   15.7140   20.0760   17.4790 O   0  0  0  0  0
   13.5640   19.6290   18.1130 O   0  0  0  0  0
   14.2530   23.3300   15.9240 C   0  0  0  0  0
   12.5910   21.7040   14.9720 C   0  0  0  0  0
   12.2490   20.6340   14.1830 C   0  0  0  0  0
   13.2190   19.9920   13.4110 C   0  0  0  0  0
   14.5120   20.4600   13.4720 C   0  0  0  0  0
   14.9140   21.5350   14.2550 C   0  0  0  0  0
   13.9130   22.1540   15.0070 C   0  0  0  0  0
   10.9770   20.1800   14.1080 F   0  0  0  0  0
   15.4380   19.8190   12.7340 F   0  0  0  0  0
   13.8900   18.2410   17.9610 C   0  0  0  0  0
   12.6460   17.4310   17.7010 C   0  0  0  0  0
   12.0790   17.0060   19.0150 C   0  0  0  0  0
   10.8190   17.7530   19.3940 C   0  0  0  0  0
   11.0540   18.1640   20.7500 O   0  0  0  0  0
   12.4440   18.5340   20.7630 C   0  0  0  0  0
   13.1050   17.3400   20.0830 C   0  0  0  0  0
   14.3610   17.7120   19.3140 C   0  0  0  0  0
   11.6920   18.0150   16.7350 C   0  0  0  0  0
   10.6050   18.8530   17.2930 C   0  0  0  0  0
   10.6890   18.9970   18.6940 O   0  0  0  0  0
   23.4147   30.2063   14.6739 H   0  0  0  0  0
   25.2831   30.4479   15.3754 H   0  0  0  0  0
   24.9378   28.2227   17.7843 H   0  0  0  0  0
   25.8799   28.7286   17.8685 H   0  0  0  0  0
   26.6975   27.7090   14.9839 H   0  0  0  0  0
   25.7365   27.1931   14.8980 H   0  0  0  0  0
   21.2342   24.4216   16.3385 H   0  0  0  0  0
   17.7232   26.2716   14.6497 H   0  0  0  0  0
   19.1361   28.2132   14.0232 H   0  0  0  0  0
   18.7506   25.3858   18.7770 H   0  0  0  0  0
   19.7133   23.9466   18.2625 H   0  0  0  0  0
   17.3884   23.9396   20.2263 H   0  0  0  0  0
   17.6193   21.8221   18.9505 H   0  0  0  0  0
   19.3430   21.7469   19.3912 H   0  0  0  0  0
   18.0943   21.5969   20.6519 H   0  0  0  0  0
   20.4340   23.5448   20.5954 H   0  0  0  0  0
   19.5238   24.9815   21.1233 H   0  0  0  0  0
   19.2270   23.4054   21.8973 H   0  0  0  0  0
   16.3092   25.1776   16.6003 H   0  0  0  0  0
   16.6728   25.6316   18.2914 H   0  0  0  0  0
   15.7331   23.4264   18.9956 H   0  0  0  0  0
   13.5362   24.1559   18.6775 H   0  0  0  0  0
   15.9776   22.3118   16.7584 H   0  0  0  0  0
   13.4432   22.0566   18.3771 H   0  0  0  0  0
   14.8396   24.0742   15.3854 H   0  0  0  0  0
   13.3415   23.8160   16.2720 H   0  0  0  0  0
   11.8301   22.2031   15.5719 H   0  0  0  0  0
   12.9596   19.1437   12.7776 H   0  0  0  0  0
   15.9492   21.8751   14.2809 H   0  0  0  0  0
   14.6208   18.1584   17.1565 H   0  0  0  0  0
   12.9229   16.5334   17.1481 H   0  0  0  0  0
   11.8422   15.9449   18.9366 H   0  0  0  0  0
    9.9527   17.1213   19.1977 H   0  0  0  0  0
   12.8279   18.7230   21.7655 H   0  0  0  0  0
   12.6408   19.4789   20.2565 H   0  0  0  0  0
   13.3734   16.5723   20.8087 H   0  0  0  0  0
   14.9420   18.4630   19.8493 H   0  0  0  0  0
   15.0175   16.8504   19.1925 H   0  0  0  0  0
   11.7837   17.8377   15.6634 H   0  0  0  0  0
    9.8235   19.3097   16.6857 H   0  0  0  0  0
  1  3  4  0  0  0
  9  1  4  0  0  0
  2  3  4  0  0  0
  8  2  4  0  0  0
  3  4  1  0  0  0
  4  5  1  0  0  0
  5  6  1  0  0  0
  5  7  1  0  0  0
  7  6  1  0  0  0
  9  8  4  0  0  0
 13  8  4  0  0  0
 10  9  4  0  0  0
 11 10  4  0  0  0
 11 12  4  0  0  0
 14 11  1  0  0  0
 12 13  4  0  0  0
 14 15  2  0  0  0
 14 16  2  0  0  0
 17 14  1  0  0  0
 17 18  1  0  0  0
 22 17  1  0  0  0
 18 19  1  0  0  0
 19 20  1  0  0  0
 19 21  1  0  0  0
 23 22  1  0  0  0
 23 24  1  0  0  0
 25 23  1  0  0  0
 25 26  1  0  0  0
 30 25  1  0  0  0
 26 27  1  0  0  0
 27 28  2  0  0  0
 27 29  1  0  0  0
 29 39  1  0  0  0
 36 30  1  0  0  0
 31 32  4  0  0  0
 31 36  4  0  0  0
 32 33  4  0  0  0
 32 37  1  0  0  0
 33 34  4  0  0  0
 34 35  4  0  0  0
 34 38  1  0  0  0
 35 36  4  0  0  0
 39 40  1  0  0  0
 39 46  1  0  0  0
 40 41  1  0  0  0
 40 47  1  0  0  0
 41 42  1  0  0  0
 41 45  1  0  0  0
 42 43  1  0  0  0
 42 49  1  0  0  0
 43 44  1  0  0  0
 44 45  1  0  0  0
 45 46  1  0  0  0
 47 48  2  0  0  0
 48 49  1  0  0  0
  4 50  1  0  0  0
  5 51  1  0  0  0
  6 52  1  0  0  0
  6 53  1  0  0  0
  7 54  1  0  0  0
  7 55  1  0  0  0
 10 56  1  0  0  0
 12 57  1  0  0  0
 13 58  1  0  0  0
 18 59  1  0  0  0
 18 60  1  0  0  0
 19 61  1  0  0  0
 20 62  1  0  0  0
 20 63  1  0  0  0
 20 64  1  0  0  0
 21 65  1  0  0  0
 21 66  1  0  0  0
 21 67  1  0  0  0
 22 68  1  0  0  0
 22 69  1  0  0  0
 23 70  1  0  0  0
 24 71  1  0  0  0
 25 72  1  0  0  0
 26 73  1  0  0  0
 30 74  1  0  0  0
 30 75  1  0  0  0
 31 76  1  0  0  0
 33 77  1  0  0  0
 35 78  1  0  0  0
 39 79  1  0  0  0
 40 80  1  0  0  0
 41 81  1  0  0  0
 42 82  1  0  0  0
 44 83  1  0  0  0
 44 84  1  0  0  0
 45 85  1  0  0  0
 46 86  1  0  0  0
 46 87  1  0  0  0
 47 88  1  0  0  0
 48 89  1  0  0  0
M  END
$$$$
