2g6p_ligand
  -I-interpret- 

 40 42  0  0  0  0  0  0  0  0999 V2000
   22.0290   19.5340   11.4170 N   0  0  0  0  0
   21.4760   19.2310   15.0800 N   0  0  0  0  0
   20.8520   20.8110   13.4480 N   0  0  0  0  0
   21.3220   19.4520   17.2330 N   0  0  0  0  0
   22.7090   18.8170   10.3050 C   0  0  0  0  0
   23.2950   17.6110   10.4890 C   0  0  0  0  0
   23.2620   16.9900   11.8510 C   0  0  0  0  0
   22.6620   17.6510   12.9130 C   0  0  0  0  0
   22.0560   18.8780   12.7340 C   0  0  0  0  0
   21.4230   19.6660   13.8260 C   0  0  0  0  0
   20.9150   20.0850   16.0530 C   0  0  0  0  0
   20.2840   21.6180   14.3460 C   0  0  0  0  0
   20.3090   21.2710   15.7570 C   0  0  0  0  0
   21.4910   18.0300   17.6200 C   0  0  0  0  0
   20.2570   17.2690   18.0420 C   0  0  0  0  0
   19.2750   17.2230   16.9230 C   0  0  0  0  0
   19.4280   16.2820   15.8820 C   0  0  0  0  0
   18.5010   16.2590   14.8480 C   0  0  0  0  0
   17.4270   17.1130   14.7740 C   0  0  0  0  0
   17.2890   18.0170   15.7830 C   0  0  0  0  0
   18.1850   18.1090   16.8760 C   0  0  0  0  0
   19.6420   22.8800   13.8860 C   0  0  0  0  0
   19.6220   22.3620   16.8860 Cl  0  0  0  0  0
   21.5499   20.1044   17.9832 H   0  0  0  0  0
   22.7360   19.2749    9.3162 H   0  0  0  0  0
   23.7831   17.1001    9.6591 H   0  0  0  0  0
   23.7131   16.0105   12.0095 H   0  0  0  0  0
   22.6693   17.1948   13.9029 H   0  0  0  0  0
   22.1420   18.0400   18.4942 H   0  0  0  0  0
   21.8550   17.5245   16.7255 H   0  0  0  0  0
   19.8023   17.7710   18.8960 H   0  0  0  0  0
   20.5395   16.2513   18.3115 H   0  0  0  0  0
   20.2635   15.5820   15.8895 H   0  0  0  0  0
   18.6324   15.5247   14.0532 H   0  0  0  0  0
   16.7188   17.0689   13.9466 H   0  0  0  0  0
   16.4449   18.7057   15.7476 H   0  0  0  0  0
   18.0329   18.8490   17.6617 H   0  0  0  0  0
   20.3854   23.5048   13.3909 H   0  0  0  0  0
   18.8398   22.6441   13.1867 H   0  0  0  0  0
   19.2324   23.4118   14.7448 H   0  0  0  0  0
  1  5  4  0  0  0
  9  1  4  0  0  0
 10  2  4  0  0  0
  2 11  4  0  0  0
 10  3  4  0  0  0
  3 12  4  0  0  0
 11  4  1  0  0  0
  4 14  1  0  0  0
  5  6  4  0  0  0
  7  6  4  0  0  0
  8  7  4  0  0  0
  9  8  4  0  0  0
  9 10  1  0  0  0
 11 13  4  0  0  0
 12 13  4  0  0  0
 12 22  1  0  0  0
 13 23  1  0  0  0
 14 15  1  0  0  0
 15 16  1  0  0  0
 16 17  4  0  0  0
 16 21  4  0  0  0
 17 18  4  0  0  0
 18 19  4  0  0  0
 19 20  4  0  0  0
 20 21  4  0  0  0
  4 24  1  0  0  0
  5 25  1  0  0  0
  6 26  1  0  0  0
  7 27  1  0  0  0
  8 28  1  0  0  0
 14 29  1  0  0  0
 14 30  1  0  0  0
 15 31  1  0  0  0
 15 32  1  0  0  0
 17 33  1  0  0  0
 18 34  1  0  0  0
 19 35  1  0  0  0
 20 36  1  0  0  0
 21 37  1  0  0  0
 22 38  1  0  0  0
 22 39  1  0  0  0
 22 40  1  0  0  0
M  END
$$$$
