4kcx_ligand
  -I-interpret- 

 57 60  0  0  0  0  0  0  0  0999 V2000
   30.3720  -23.0180    3.4200 C   0  0  0  0  0
   30.3870  -25.4450    2.7020 N   0  0  0  0  0
   30.8550  -25.8490    3.9960 C   0  0  0  0  0
   28.3420  -26.0700    4.4540 C   0  0  0  0  0
   27.5320  -27.1310    6.6070 C   0  0  0  0  0
   30.7410  -20.8220    5.3750 C   0  0  0  0  0
   30.0220  -18.4510    5.9920 C   0  0  0  0  0
   30.2830  -19.1000    3.6820 C   0  0  0  0  0
   32.0180  -19.0900    1.7430 C   0  0  0  0  0
   26.9130  -20.6060   -0.9180 C   0  0  0  0  0
   28.3420  -21.0190   -1.2340 C   0  0  0  0  0
   28.7940  -22.3010   -0.4990 C   0  0  0  0  0
   28.7350  -23.6020   -0.9890 C   0  0  0  0  0
   29.2070  -24.4640   -0.0040 N   0  0  0  0  0
   29.5680  -23.6740    1.1130 N   0  0  0  0  0
   29.2940  -22.3650    0.8170 C   0  0  0  0  0
   29.5670  -21.3000    1.8040 N   0  0  0  0  0
   30.0900  -21.6310    3.0820 C   0  0  0  0  0
   30.1110  -24.0410    2.4420 C   0  0  0  0  0
   29.7270  -26.2840    4.9190 C   0  0  0  0  0
   27.2370  -26.4870    5.3220 C   0  0  0  0  0
   28.9240  -27.3330    7.0620 N   0  0  0  0  0
   30.0190  -26.9100    6.2040 C   0  0  0  0  0
   29.1840  -27.8730    8.1600 O   0  0  0  0  0
   30.3240  -20.5360    3.9940 N   0  0  0  0  0
   30.3020  -19.8300    6.4390 C   0  0  0  0  0
   29.4100  -18.3910    4.6640 C   0  0  0  0  0
   31.6480  -18.7270    3.1580 C   0  0  0  0  0
   30.9390  -19.0900    0.8320 O   0  0  0  0  0
   30.7747  -23.2781    4.3989 H   0  0  0  0  0
   30.2484  -26.1391    1.9675 H   0  0  0  0  0
   31.3513  -24.9936    4.4543 H   0  0  0  0  0
   31.5227  -26.6997    3.8597 H   0  0  0  0  0
   28.1453  -25.6113    3.4850 H   0  0  0  0  0
   26.7092  -27.4668    7.2381 H   0  0  0  0  0
   31.8307  -20.7961    5.3713 H   0  0  0  0  0
   30.2753  -21.7715    5.6390 H   0  0  0  0  0
   30.9723  -17.9193    5.9430 H   0  0  0  0  0
   29.3208  -18.0093    6.7001 H   0  0  0  0  0
   29.7235  -18.6902    2.8411 H   0  0  0  0  0
   32.4112  -20.1063    1.7688 H   0  0  0  0  0
   32.7253  -18.3363    1.3969 H   0  0  0  0  0
   26.2321  -21.4057   -1.2096 H   0  0  0  0  0
   26.8184  -20.4185    0.1516 H   0  0  0  0  0
   26.6678  -19.6988   -1.4703 H   0  0  0  0  0
   28.9951  -20.2091   -0.9090 H   0  0  0  0  0
   28.3943  -21.2207   -2.3039 H   0  0  0  0  0
   28.3795  -23.8959   -1.9766 H   0  0  0  0  0
   26.2044  -26.3200    5.0154 H   0  0  0  0  0
   31.0517  -27.0597    6.5189 H   0  0  0  0  0
   31.1351  -19.7538    7.1378 H   0  0  0  0  0
   29.3607  -20.2127    6.8335 H   0  0  0  0  0
   29.2955  -17.3496    4.3631 H   0  0  0  0  0
   28.4313  -18.8701    4.6927 H   0  0  0  0  0
   32.3475  -19.2846    3.7808 H   0  0  0  0  0
   31.6669  -17.6374    3.1802 H   0  0  0  0  0
   31.2586  -19.3301   -0.0408 H   0  0  0  0  0
 18  1  4  0  0  0
  1 19  4  0  0  0
  2  3  1  0  0  0
 19  2  1  0  0  0
  3 20  1  0  0  0
 20  4  4  0  0  0
  4 21  4  0  0  0
 21  5  4  0  0  0
  5 22  4  0  0  0
 25  6  1  0  0  0
  6 26  1  0  0  0
 26  7  1  0  0  0
 27  7  1  0  0  0
 25  8  1  0  0  0
  8 27  1  0  0  0
  8 28  1  0  0  0
 28  9  1  0  0  0
  9 29  1  0  0  0
 11 10  1  0  0  0
 12 11  1  0  0  0
 12 13  4  0  0  0
 16 12  4  0  0  0
 14 13  4  0  0  0
 15 14  4  0  0  0
 16 15  4  0  0  0
 19 15  4  0  0  0
 17 16  4  0  0  0
 18 17  4  0  0  0
 18 25  1  0  0  0
 20 23  4  0  0  0
 22 23  4  0  0  0
 22 24  2  0  0  0
  1 30  1  0  0  0
  2 31  1  0  0  0
  3 32  1  0  0  0
  3 33  1  0  0  0
  4 34  1  0  0  0
  5 35  1  0  0  0
  6 36  1  0  0  0
  6 37  1  0  0  0
  7 38  1  0  0  0
  7 39  1  0  0  0
  8 40  1  0  0  0
  9 41  1  0  0  0
  9 42  1  0  0  0
 10 43  1  0  0  0
 10 44  1  0  0  0
 10 45  1  0  0  0
 11 46  1  0  0  0
 11 47  1  0  0  0
 13 48  1  0  0  0
 21 49  1  0  0  0
 23 50  1  0  0  0
 26 51  1  0  0  0
 26 52  1  0  0  0
 27 53  1  0  0  0
 27 54  1  0  0  0
 28 55  1  0  0  0
 28 56  1  0  0  0
 29 57  1  0  0  0
M  END
$$$$
