5isz_ligand
  -I-interpret- 

145146  0  0  0  0  0  0  0  0999 V2000
   36.4330  -35.6070   47.4680 N   0  3  0  0  0
   36.6230  -35.1470   48.8820 C   0  0  0  0  0
   37.8130  -35.8080   49.5500 C   0  0  0  0  0
   38.0850  -36.9860   49.3200 O   0  0  0  0  0
   38.5170  -35.0470   50.3880 N   0  0  0  0  0
   39.7690  -35.5000   50.9860 C   0  0  0  0  0
   39.5080  -36.2760   52.2730 C   0  0  0  0  0
   38.3700  -36.3540   52.7510 O   0  0  0  0  0
   40.7050  -34.3040   51.2430 C   0  0  0  0  0
   40.0960  -33.3180   52.2460 C   0  0  0  0  0
   41.0160  -33.5800   49.9340 C   0  0  0  0  0
   41.0360  -32.1500   52.6250 C   0  0  0  0  0
   40.5670  -36.8380   52.8510 N   0  0  0  0  0
   40.4380  -37.5720   54.1060 C   0  0  0  0  0
   39.9440  -36.6600   55.2210 C   0  0  0  0  0
   40.3500  -35.4980   55.3260 O   0  0  0  0  0
   41.7770  -38.1870   54.5110 C   0  0  0  0  0
   42.1380  -39.5230   53.8650 C   0  0  0  0  0
   43.6330  -39.6970   53.9280 C   0  0  0  0  0
   41.4380  -40.6730   54.5780 C   0  0  0  0  0
   39.0630  -37.1970   56.0610 N   0  0  0  0  0
   38.5650  -36.4860   57.2220 C   0  0  0  0  0
   39.3360  -36.6910   58.5120 C   0  0  0  0  0
   38.9710  -36.1060   59.5400 O   0  0  0  0  0
   40.3800  -37.5160   58.5080 N   0  0  0  0  0
   41.2400  -37.6800   59.6720 C   0  0  0  0  0
   42.6890  -37.5410   59.2440 C   0  0  0  0  0
   43.0300  -37.7400   58.0760 O   0  0  0  0  0
   41.0310  -39.0280   60.3800 C   0  0  0  0  0
   41.1160  -40.2430   59.4660 C   0  0  0  0  0
   39.9740  -40.7770   58.8910 C   0  0  0  0  0
   42.3280  -40.8680   59.2230 C   0  0  0  0  0
   40.0360  -41.8990   58.0750 C   0  0  0  0  0
   42.3980  -41.9900   58.4020 C   0  0  0  0  0
   41.2490  -42.5020   57.8280 C   0  0  0  0  0
   43.5420  -37.1970   60.2160 N   0  0  0  0  0
   44.9500  -36.9090   59.9720 C   0  0  0  0  0
   45.7960  -37.6090   61.0280 C   0  0  0  0  0
   45.3500  -37.8340   62.1580 O   0  0  0  0  0
   45.2240  -35.3890   59.9680 C   0  0  0  0  0
   44.4660  -34.7230   58.8070 C   0  0  0  0  0
   44.8240  -34.7570   61.2980 C   0  0  0  0  0
   47.0250  -37.9620   60.6430 N   0  0  0  0  0
   47.9520  -38.6870   61.5030 C   0  0  0  0  0
   49.3830  -38.2750   61.1750 C   0  0  0  0  0
   49.7340  -38.0930   60.0070 O   0  0  0  0  0
   47.7810  -40.2000   61.3300 C   0  0  0  0  0
   47.6070  -40.6300   59.8880 C   0  0  0  0  0
   48.7030  -40.8890   59.0870 C   0  0  0  0  0
   46.3420  -40.7770   59.3480 C   0  0  0  0  0
   48.5390  -41.2940   57.7590 C   0  0  0  0  0
   46.1670  -41.1700   58.0270 C   0  0  0  0  0
   47.2660  -41.4290   57.2320 C   0  0  0  0  0
   50.2090  -38.1440   62.2070 N   0  0  0  0  0
   51.5660  -37.6380   62.0450 C   0  0  0  0  0
   52.5500  -38.7630   61.7150 C   0  0  0  0  0
   52.3600  -39.9160   62.1160 O   0  0  0  0  0
   52.0080  -36.9040   63.3160 C   0  0  0  0  0
   51.6860  -37.6900   64.4740 O   0  0  0  0  0
   51.3070  -35.5510   63.4180 C   0  0  0  0  0
   53.6070  -38.4100   60.9760 N   0  0  0  0  0
   54.7320  -39.3170   60.7000 C   0  0  0  0  0
   55.5480  -39.6250   61.9590 C   0  0  0  0  0
   55.4340  -38.9340   62.9670 O   0  0  0  0  0
   55.6970  -38.7290   59.6550 C   0  0  0  0  0
   55.1810  -38.2690   58.2990 C   0  0  0  0  0
   56.3270  -38.1130   57.3270 C   0  0  0  0  0
   54.1770  -39.2380   57.7630 C   0  0  0  0  0
   56.3630  -40.5500   61.9800 O   0  0  0  0  0
   35.6236  -35.1356   47.0642 H   0  0  0  0  0
   37.2657  -35.3818   46.9237 H   0  0  0  0  0
   36.2808  -36.6155   47.4574 H   0  0  0  0  0
   35.7290  -35.4128   49.4461 H   0  0  0  0  0
   36.7997  -34.0715   48.8659 H   0  0  0  0  0
   38.1689  -34.1165   50.6192 H   0  0  0  0  0
   40.2605  -36.1745   50.2849 H   0  0  0  0  0
   41.6286  -34.6966   51.6684 H   0  0  0  0  0
   39.8844  -33.8737   53.1595 H   0  0  0  0  0
   39.2119  -32.8844   51.7786 H   0  0  0  0  0
   40.0958  -33.1661   49.5217 H   0  0  0  0  0
   41.7246  -32.7742   50.1255 H   0  0  0  0  0
   41.4487  -34.2851   49.2242 H   0  0  0  0  0
   41.9455  -32.5485   53.0746 H   0  0  0  0  0
   41.2900  -31.5842   51.7286 H   0  0  0  0  0
   40.5327  -31.4970   53.3380 H   0  0  0  0  0
   41.4830  -36.7545   52.4101 H   0  0  0  0  0
   39.7096  -38.3677   53.9497 H   0  0  0  0  0
   41.7090  -38.3787   55.5819 H   0  0  0  0  0
   42.5425  -37.4805   54.1901 H   0  0  0  0  0
   41.8078  -39.5279   52.8262 H   0  0  0  0  0
   44.1155  -38.8809   53.3901 H   0  0  0  0  0
   43.9550  -39.6879   54.9693 H   0  0  0  0  0
   43.9065  -40.6476   53.4701 H   0  0  0  0  0
   41.7461  -40.6920   55.6234 H   0  0  0  0  0
   40.3587  -40.5326   54.5184 H   0  0  0  0  0
   41.7101  -41.6143   54.1005 H   0  0  0  0  0
   38.7259  -38.1428   55.8817 H   0  0  0  0  0
   37.5595  -36.8654   57.4040 H   0  0  0  0  0
   38.6420  -35.4247   56.9860 H   0  0  0  0  0
   40.5844  -38.0502   57.6635 H   0  0  0  0  0
   40.9759  -36.9026   60.3890 H   0  0  0  0  0
   40.0250  -39.0148   60.7994 H   0  0  0  0  0
   41.8279  -39.1275   61.1170 H   0  0  0  0  0
   39.0091  -40.3077   59.0827 H   0  0  0  0  0
   43.2371  -40.4769   59.6798 H   0  0  0  0  0
   39.1258  -42.3017   57.6307 H   0  0  0  0  0
   43.3600  -42.4656   58.2114 H   0  0  0  0  0
   41.3032  -43.3790   57.1829 H   0  0  0  0  0
   43.1908  -37.1334   61.1715 H   0  0  0  0  0
   45.2183  -37.2853   58.9848 H   0  0  0  0  0
   46.2939  -35.2318   59.8309 H   0  0  0  0  0
   44.8012  -35.1517   57.8626 H   0  0  0  0  0
   43.3964  -34.8957   58.9266 H   0  0  0  0  0
   44.6651  -33.6514   58.8120 H   0  0  0  0  0
   43.7603  -34.9203   61.4711 H   0  0  0  0  0
   45.3989  -35.2140   62.1035 H   0  0  0  0  0
   45.0281  -33.6868   61.2662 H   0  0  0  0  0
   47.3296  -37.7123   59.7021 H   0  0  0  0  0
   47.7359  -38.4383   62.5420 H   0  0  0  0  0
   46.8790  -40.4905   61.8687 H   0  0  0  0  0
   48.6865  -40.6762   61.7059 H   0  0  0  0  0
   49.7072  -40.7762   59.4955 H   0  0  0  0  0
   45.4680  -40.5812   59.9692 H   0  0  0  0  0
   49.4115  -41.5030   57.1399 H   0  0  0  0  0
   45.1620  -41.2739   57.6180 H   0  0  0  0  0
   47.1319  -41.7380   56.1954 H   0  0  0  0  0
   49.8846  -38.4047   63.1382 H   0  0  0  0  0
   51.5659  -36.9406   61.2073 H   0  0  0  0  0
   53.0857  -36.7484   63.2673 H   0  0  0  0  0
   51.9662  -37.2228   65.2645 H   0  0  0  0  0
   51.5625  -34.9445   62.5491 H   0  0  0  0  0
   50.2283  -35.7037   63.4516 H   0  0  0  0  0
   51.6317  -35.0425   64.3258 H   0  0  0  0  0
   53.6346  -37.4681   60.5855 H   0  0  0  0  0
   54.2784  -40.2325   60.3203 H   0  0  0  0  0
   56.3719  -39.5520   59.4201 H   0  0  0  0  0
   56.0750  -37.8190   60.1210 H   0  0  0  0  0
   54.6948  -37.3017   58.4258 H   0  0  0  0  0
   57.0291  -37.3729   57.7109 H   0  0  0  0  0
   56.8346  -39.0704   57.2091 H   0  0  0  0  0
   55.9412  -37.7836   56.3623 H   0  0  0  0  0
   54.6427  -40.2171   57.6511 H   0  0  0  0  0
   53.3381  -39.3102   58.4552 H   0  0  0  0  0
   53.8206  -38.8908   56.7932 H   0  0  0  0  0
   56.3506  -41.0052   61.1349 H   0  0  0  0  0
  1  2  1  0  0  0
  2  3  1  0  0  0
  3  4  2  0  0  0
  3  5  1  0  0  0
  5  6  1  0  0  0
  6  7  1  0  0  0
  6  9  1  0  0  0
  7  8  2  0  0  0
  7 13  1  0  0  0
  9 10  1  0  0  0
  9 11  1  0  0  0
 10 12  1  0  0  0
 13 14  1  0  0  0
 14 15  1  0  0  0
 14 17  1  0  0  0
 15 16  2  0  0  0
 15 21  1  0  0  0
 17 18  1  0  0  0
 18 19  1  0  0  0
 18 20  1  0  0  0
 21 22  1  0  0  0
 22 23  1  0  0  0
 23 24  2  0  0  0
 23 25  1  0  0  0
 25 26  1  0  0  0
 26 27  1  0  0  0
 26 29  1  0  0  0
 27 28  2  0  0  0
 27 36  1  0  0  0
 29 30  1  0  0  0
 30 31  4  0  0  0
 30 32  4  0  0  0
 31 33  4  0  0  0
 32 34  4  0  0  0
 33 35  4  0  0  0
 34 35  4  0  0  0
 36 37  1  0  0  0
 37 38  1  0  0  0
 37 40  1  0  0  0
 38 39  2  0  0  0
 38 43  1  0  0  0
 40 41  1  0  0  0
 40 42  1  0  0  0
 43 44  1  0  0  0
 44 45  1  0  0  0
 44 47  1  0  0  0
 45 46  2  0  0  0
 45 54  1  0  0  0
 47 48  1  0  0  0
 48 49  4  0  0  0
 48 50  4  0  0  0
 49 51  4  0  0  0
 50 52  4  0  0  0
 51 53  4  0  0  0
 52 53  4  0  0  0
 54 55  1  0  0  0
 55 56  1  0  0  0
 55 58  1  0  0  0
 56 57  2  0  0  0
 56 61  1  0  0  0
 58 59  1  0  0  0
 58 60  1  0  0  0
 61 62  1  0  0  0
 62 63  1  0  0  0
 62 65  1  0  0  0
 63 64  2  0  0  0
 63 69  1  0  0  0
 65 66  1  0  0  0
 66 67  1  0  0  0
 66 68  1  0  0  0
  1 70  1  0  0  0
  1 71  1  0  0  0
  1 72  1  0  0  0
  2 73  1  0  0  0
  2 74  1  0  0  0
  5 75  1  0  0  0
  6 76  1  0  0  0
  9 77  1  0  0  0
 10 78  1  0  0  0
 10 79  1  0  0  0
 11 80  1  0  0  0
 11 81  1  0  0  0
 11 82  1  0  0  0
 12 83  1  0  0  0
 12 84  1  0  0  0
 12 85  1  0  0  0
 13 86  1  0  0  0
 14 87  1  0  0  0
 17 88  1  0  0  0
 17 89  1  0  0  0
 18 90  1  0  0  0
 19 91  1  0  0  0
 19 92  1  0  0  0
 19 93  1  0  0  0
 20 94  1  0  0  0
 20 95  1  0  0  0
 20 96  1  0  0  0
 21 97  1  0  0  0
 22 98  1  0  0  0
 22 99  1  0  0  0
 25100  1  0  0  0
 26101  1  0  0  0
 29102  1  0  0  0
 29103  1  0  0  0
 31104  1  0  0  0
 32105  1  0  0  0
 33106  1  0  0  0
 34107  1  0  0  0
 35108  1  0  0  0
 36109  1  0  0  0
 37110  1  0  0  0
 40111  1  0  0  0
 41112  1  0  0  0
 41113  1  0  0  0
 41114  1  0  0  0
 42115  1  0  0  0
 42116  1  0  0  0
 42117  1  0  0  0
 43118  1  0  0  0
 44119  1  0  0  0
 47120  1  0  0  0
 47121  1  0  0  0
 49122  1  0  0  0
 50123  1  0  0  0
 51124  1  0  0  0
 52125  1  0  0  0
 53126  1  0  0  0
 54127  1  0  0  0
 55128  1  0  0  0
 58129  1  0  0  0
 59130  1  0  0  0
 60131  1  0  0  0
 60132  1  0  0  0
 60133  1  0  0  0
 61134  1  0  0  0
 62135  1  0  0  0
 65136  1  0  0  0
 65137  1  0  0  0
 66138  1  0  0  0
 67139  1  0  0  0
 67140  1  0  0  0
 67141  1  0  0  0
 68142  1  0  0  0
 68143  1  0  0  0
 68144  1  0  0  0
 69145  1  0  0  0
M  END
$$$$
