4ytf_ligand
  -I-interpret- 

 40 42  0  0  0  0  0  0  0  0999 V2000
   14.6480   14.8140    5.7080 C   0  0  0  0  0
   17.3790   10.5010    5.1220 N   0  0  0  0  0
   15.8310   15.8110    2.1470 C   0  0  0  0  0
   15.7620   14.6950    1.1490 C   0  0  0  0  0
   16.4070   13.0350    5.7570 C   0  0  0  0  0
   17.7090   12.6140    6.2210 C   0  0  0  0  0
   16.1400   10.9440    4.6870 C   0  0  0  0  0
   15.3630   10.0350    3.8590 C   0  0  0  0  0
   15.7450    8.7490    3.5150 C   0  0  0  0  0
   11.8950    9.9320    1.4750 C   0  0  0  0  0
   18.4610   13.3900    6.9390 F   0  0  0  0  0
   18.1460   11.3330    5.8820 C   0  0  0  0  0
   15.6040   12.1790    4.9770 N   0  0  0  0  0
   15.9570   14.2820    6.0950 N   0  0  0  0  0
   14.6050   15.2330    4.2280 C   0  0  0  0  0
   15.8240   15.3730    3.5370 N   0  0  0  0  0
   16.7860   13.8670    1.2580 F   0  0  0  0  0
   15.7820   15.1370   -0.1050 F   0  0  0  0  0
   14.6450   13.9700    1.2680 F   0  0  0  0  0
   13.5010   15.3920    3.6510 O   0  0  0  0  0
   14.3450   16.0500    6.5540 C   0  0  0  0  0
   14.1370   10.2880    3.1910 C   0  0  0  0  0
   13.2030   11.3740    3.0860 C   0  0  0  0  0
   12.1050   11.1610    2.2230 C   0  0  0  0  0
   10.9610   12.4130    1.9810 Cl  0  0  0  0  0
   12.7750    8.8700    1.5670 N   0  0  0  0  0
   13.8430    9.0740    2.4120 C   0  0  0  0  0
   14.8270    8.1700    2.6500 N   0  0  0  0  0
   13.9138   14.0241    5.8665 H   0  0  0  0  0
   14.9444   16.4279    2.0004 H   0  0  0  0  0
   16.7730   16.3333    1.9798 H   0  0  0  0  0
   16.6478    8.2564    3.8761 H   0  0  0  0  0
   11.0232    9.8461    0.8265 H   0  0  0  0  0
   19.1200   10.9908    6.2318 H   0  0  0  0  0
   16.5706   14.8780    6.6506 H   0  0  0  0  0
   16.7039   15.1674    4.0103 H   0  0  0  0  0
   14.3335   15.7732    7.6082 H   0  0  0  0  0
   15.1142   16.8031    6.3832 H   0  0  0  0  0
   13.3720   16.4522    6.2719 H   0  0  0  0  0
   13.3333   12.3048    3.6380 H   0  0  0  0  0
 14  1  1  0  0  0
  1 15  1  0  0  0
  1 21  1  0  0  0
  7  2  4  0  0  0
  2 12  4  0  0  0
  3  4  1  0  0  0
 16  3  1  0  0  0
  4 17  1  0  0  0
  4 18  1  0  0  0
  4 19  1  0  0  0
  5  6  4  0  0  0
 13  5  4  0  0  0
  5 14  1  0  0  0
  6 11  1  0  0  0
 12  6  4  0  0  0
  8  7  1  0  0  0
  7 13  4  0  0  0
  8  9  4  0  0  0
 22  8  4  0  0  0
  9 28  4  0  0  0
 24 10  4  0  0  0
 10 26  4  0  0  0
 15 16  1  0  0  0
 15 20  2  0  0  0
 23 22  4  0  0  0
 22 27  4  0  0  0
 23 24  4  0  0  0
 24 25  1  0  0  0
 26 27  4  0  0  0
 27 28  4  0  0  0
  1 29  1  0  0  0
  3 30  1  0  0  0
  3 31  1  0  0  0
  9 32  1  0  0  0
 10 33  1  0  0  0
 12 34  1  0  0  0
 14 35  1  0  0  0
 16 36  1  0  0  0
 21 37  1  0  0  0
 21 38  1  0  0  0
 21 39  1  0  0  0
 23 40  1  0  0  0
M  END
$$$$
