### 
### Created by X-TOOL on Wed Jan  1 15:39:37 2020
### 

@<TRIPOS>MOLECULE
6bvb_ligand
  206   209     1     0     0
SMALL
GAST_HUCK


@<TRIPOS>ATOM
      1 N          32.0390   11.0310  157.6890 N.4       1 GLU         0.2377
      2 CA         31.9120   10.2020  156.4920 C.3       1 GLU         0.0621
      3 C          32.0630   11.0330  155.2230 C.2       1 GLU         0.2265
      4 O          31.6700   12.1980  155.1710 O.2       1 GLU        -0.3907
      5 CB         30.5670    9.4770  156.4710 C.3       1 GLU        -0.0040
      6 N          32.6150   10.4180  154.1850 N.am      1 THR        -0.2586
      7 CA         32.9520   11.1210  152.9560 C.3       1 THR         0.1566
      8 C          31.8890   10.8990  151.8870 C.2       1 THR         0.2065
      9 O          31.3050    9.8180  151.7890 O.2       1 THR        -0.3943
     10 CB         34.3160   10.6640  152.4340 C.3       1 THR         0.0924
     11 OG1        34.3610    9.2330  152.3810 O.3       1 THR        -0.3874
     12 CG2        35.4250   11.1750  153.3400 C.3       1 THR        -0.0346
     13 N          31.6580   11.9350  151.0780 N.am      1 LEU        -0.2636
     14 CA         30.6390   11.9290  150.0410 C.3       1 LEU         0.1312
     15 C          31.3170   12.3030  148.7270 C.2       1 LEU         0.2039
     16 O          31.7110   13.4580  148.5480 O.2       1 LEU        -0.3944
     17 CB         29.5160   12.9160  150.3660 C.3       1 LEU        -0.0101
     18 CG         28.6890   12.6250  151.6310 C.3       1 LEU        -0.0425
     19 CD1        27.5280   13.6230  151.8170 C.3       1 LEU        -0.0625
     20 CD2        28.1670   11.1810  151.6300 C.3       1 LEU        -0.0625
     21 N          31.4610   11.3360  147.8210 N.am      1 ALA        -0.2640
     22 CA         32.0900   11.6010  146.5380 C.3       1 ALA         0.1284
     23 C          31.0430   11.9330  145.4600 C.2       1 ALA         0.2062
     24 O          29.8640   11.6600  145.6070 O.2       1 ALA        -0.3942
     25 CB         32.9400   10.4180  146.1230 C.3       1 ALA        -0.0244
     26 N          31.4810   12.5550  144.3820 N.am      1 HYP        -0.2473
     27 CA         30.5690   12.8920  143.3090 C.3       1 HYP         0.1362
     28 C          29.9230   11.6200  142.6570 C.2       1 HYP         0.2043
     29 O          30.5040   10.5220  142.6730 O.2       1 HYP        -0.3944
     30 CB         31.3750   13.6790  142.2270 C.3       1 HYP         0.0158
     31 CG         32.5500   14.2320  143.0400 C.3       1 HYP         0.0799
     32 CD         32.8480   13.1300  144.0890 C.3       1 HYP         0.0629
     33 OD1        32.1370   15.4160  143.6550 O.3       1 HYP        -0.3896
     34 N          28.7640   11.8080  142.0590 N.am      1 TYR        -0.2621
     35 CA         28.1550   10.7360  141.3060 C.3       1 TYR         0.1390
     36 C          27.2930   11.2700  140.1680 C.2       1 TYR         0.2057
     37 O          26.8470   12.4380  140.1770 O.2       1 TYR        -0.3942
     38 CB         27.3360    9.8520  142.2440 C.3       1 TYR         0.0163
     39 CG         26.2030   10.5520  142.9200 C.ar      1 TYR        -0.0493
     40 CD1        26.4070   11.2250  144.1200 C.ar      1 TYR        -0.0685
     41 CD2        24.9070   10.5320  142.3800 C.ar      1 TYR        -0.0685
     42 CE1        25.3570   11.8810  144.7570 C.ar      1 TYR        -0.0398
     43 CE2        23.8570   11.1740  143.0190 C.ar      1 TYR        -0.0398
     44 CZ         24.0910   11.8440  144.2020 C.ar      1 TYR         0.0805
     45 OH         23.0620   12.4790  144.8480 O.3       1 TYR        -0.3376
     46 N          27.0680   10.4010  139.1900 N.am      1 ILE        -0.2633
     47 CA         26.2350   10.7070  138.0330 C.3       1 ILE         0.1337
     48 C          24.9010   10.0080  138.2280 C.2       1 ILE         0.2067
     49 O          24.8790    8.7770  138.3490 O.2       1 ILE        -0.3942
     50 CB         26.8990   10.2590  136.7300 C.3       1 ILE        -0.0037
     51 CG1        28.2040   11.0210  136.5550 C.3       1 ILE        -0.0491
     52 CG2        25.9700   10.5050  135.5480 C.3       1 ILE        -0.0582
     53 CD1        29.1620   10.3570  135.6180 C.3       1 ILE        -0.0648
     54 N          23.7810   10.7270  138.2630 N.am      1 PRO        -0.2498
     55 CA         22.4830   10.0470  138.3620 C.3       1 PRO         0.1338
     56 C          22.2210    9.2080  137.1240 C.2       1 PRO         0.2041
     57 O          22.4160    9.6630  135.9900 O.2       1 PRO        -0.3944
     58 CB         21.4770   11.1950  138.4850 C.3       1 PRO        -0.0104
     59 CG         22.2730   12.4190  138.6880 C.3       1 PRO        -0.0281
     60 CD         23.6260   12.1780  138.1220 C.3       1 PRO         0.0369
     61 N          21.7620    7.9790  137.3500 N.am      1 MET        -0.2637
     62 CA         21.5590    7.0600  136.2380 C.3       1 MET         0.1317
     63 C          20.4670    7.5690  135.2980 C.2       1 MET         0.2040
     64 O          20.5600    7.3960  134.0780 O.2       1 MET        -0.3944
     65 CB         21.2180    5.6670  136.7740 C.3       1 MET        -0.0034
     66 CG         21.8820    4.5180  136.0130 C.3       1 MET        -0.0024
     67 SD         22.8620    3.4290  137.0790 S.3       1 MET        -0.1639
     68 CE         21.6060    2.3250  137.7090 C.3       1 MET        -0.0181
     69 N          19.4370    8.2180  135.8440 N.am      1 ASP        -0.2622
     70 CA         18.3250    8.7450  135.0510 C.3       1 ASP         0.1423
     71 C          18.6260   10.0960  134.3960 C.2       1 ASP         0.2054
     72 O          17.7320   10.6760  133.7600 O.2       1 ASP        -0.3943
     73 CB         17.0700    8.8680  135.9260 C.3       1 ASP         0.0406
     74 CG         17.2460    9.8470  137.0810 C.2       1 ASP         0.0393
     75 OD1        18.3390    9.8870  137.6860 O.co2     1 ASP        -0.5688
     76 OD2        16.2810   10.5780  137.3910 O.co2     1 ASP        -0.5688
     77 N          19.8510   10.6050  134.5290 N.am      1 GLY        -0.2663
     78 CA         20.2270   11.8510  133.8980 C.3       1 GLY         0.1201
     79 C          20.4470   11.6560  132.4160 C.2       1 GLY         0.2007
     80 O          21.4120   11.0040  132.0020 O.2       1 GLY        -0.3947
     81 N          19.5470   12.2090  131.6080 N.am      1 GLU        -0.2639
     82 CA         19.6280   12.0840  130.1550 C.3       1 GLU         0.1324
     83 C          20.7230   13.0200  129.6590 C.2       1 GLU         0.2040
     84 O          20.4830   14.1830  129.3290 O.2       1 GLU        -0.3944
     85 CB         18.2770   12.3860  129.5150 C.3       1 GLU        -0.0008
     86 CG         17.3660   11.1590  129.4160 C.3       1 GLU         0.0044
     87 CD         15.8950   11.5040  129.2460 C.2       1 GLU         0.0350
     88 OE1        15.5290   12.6920  129.3950 O.co2     1 GLU        -0.5690
     89 OE2        15.1010   10.5780  128.9670 O.co2     1 GLU        -0.5690
     90 N          21.9520   12.5010  129.6270 N.am      1 ASP        -0.2640
     91 CA         23.0870   13.2400  129.0880 C.3       1 ASP         0.1282
     92 C          22.7100   13.8610  127.7460 C.2       1 ASP         0.2032
     93 O          22.4820   13.1470  126.7640 O.2       1 ASP        -0.3944
     94 CB         24.3080   12.3210  128.9450 C.3       1 ASP        -0.0244
     95 N          22.6240   15.1900  127.7030 N.am      1 PHE        -0.2677
     96 CA         22.2760   15.9090  126.4800 C.3       1 PHE         0.1039
     97 C          23.5340   16.4050  125.7630 C.2       1 PHE         0.0621
     98 O          23.4520   17.0740  124.7280 O.co2     1 PHE        -0.5664
     99 CB         21.3370   17.0850  126.7950 C.3       1 PHE         0.0159
    100 CG         21.9840   18.2090  127.5860 C.ar      1 PHE        -0.0392
    101 CD1        22.2950   18.0450  128.9290 C.ar      1 PHE        -0.0602
    102 CD2        22.2480   19.4400  126.9870 C.ar      1 PHE        -0.0602
    103 CE1        22.8720   19.0700  129.6520 C.ar      1 PHE        -0.0686
    104 CE2        22.8280   20.4730  127.7100 C.ar      1 PHE        -0.0686
    105 CZ         23.1400   20.2860  129.0440 C.ar      1 PHE        -0.0687
    106 OXT        24.6590   16.1470  126.2040 O.co2     1 PHE        -0.5664
    107 H1         31.9349   10.4547  158.5094 H         1 GLU         0.2015
    108 H2         31.3231   11.7406  157.6838 H         1 GLU         0.2015
    109 H3         32.9466   11.4694  157.6994 H         1 GLU         0.2015
    110 H4         32.7135    9.4489  156.5109 H         1 GLU         0.1095
    111 H5         30.4965    8.8613  155.5622 H         1 GLU         0.0310
    112 H6         29.7521   10.2158  156.4774 H         1 GLU         0.0310
    113 H7         30.4842    8.8320  157.3582 H         1 GLU         0.0310
    114 H8         32.8059    9.4385  154.2493 H         1 THR         0.1885
    115 H9         33.0041   12.1974  153.1767 H         1 THR         0.0826
    116 H10        34.4653   11.0672  151.4215 H         1 THR         0.0639
    117 H11        33.6796    8.9172  151.7992 H         1 THR         0.2101
    118 H12        36.3984   10.8393  152.9531 H         1 THR         0.0257
    119 H13        35.2789   10.7809  154.3565 H         1 THR         0.0257
    120 H14        35.4001   12.2744  153.3658 H         1 THR         0.0257
    121 H15        32.2146   12.7580  151.1909 H         1 LEU         0.1883
    122 H16        30.2097   10.9197  149.9577 H         1 LEU         0.0800
    123 H17        28.8245   12.9286  149.5106 H         1 LEU         0.0315
    124 H18        29.9699   13.9108  150.4853 H         1 LEU         0.0315
    125 H19        29.3609   12.7367  152.4947 H         1 LEU         0.0298
    126 H20        26.9712   13.3714  152.7317 H         1 LEU         0.0232
    127 H21        26.8535   13.5666  150.9499 H         1 LEU         0.0232
    128 H22        27.9312   14.6429  151.9021 H         1 LEU         0.0232
    129 H23        29.0096   10.4866  151.4963 H         1 LEU         0.0232
    130 H24        27.4503   11.0507  150.8058 H         1 LEU         0.0232
    131 H25        27.6672   10.9711  152.5871 H         1 LEU         0.0232
    132 H26        31.1314   10.4147  148.0272 H         1 ALA         0.1883
    133 H27        32.7484   12.4747  146.6525 H         1 ALA         0.0797
    134 H28        33.4114   10.6281  145.1516 H         1 ALA         0.0277
    135 H29        32.3061    9.5232  146.0370 H         1 ALA         0.0277
    136 H30        33.7198   10.2436  146.8789 H         1 ALA         0.0277
    137 H31        29.7665   13.5301  143.7076 H         1 HYP         0.0803
    138 H32        30.7730   14.4908  141.7928 H         1 HYP         0.0338
    139 H33        31.7236   13.0117  141.4250 H         1 HYP         0.0338
    140 H34        33.4287   14.4195  142.4054 H         1 HYP         0.0616
    141 H35        33.5186   12.3625  143.6754 H         1 HYP         0.0550
    142 H36        33.2980   13.5599  144.9960 H         1 HYP         0.0550
    143 H37        31.9617   16.0722  142.9907 H         1 HYP         0.2099
    144 H38        28.3053   12.6940  142.1265 H         1 TYR         0.1885
    145 H39        28.9571   10.1250  140.8664 H         1 TYR         0.0821
    146 H40        28.0088    9.4579  143.0199 H         1 TYR         0.0453
    147 H41        26.9239    9.0175  141.6577 H         1 TYR         0.0453
    148 H42        27.3955   11.2390  144.5647 H         1 TYR         0.0530
    149 H43        24.7245   10.0067  141.4495 H         1 TYR         0.0530
    150 H44        25.5310   12.4176  145.6827 H         1 TYR         0.0525
    151 H45        22.8607   11.1496  142.5925 H         1 TYR         0.0525
    152 H46        23.3910   12.8875  145.6401 H         1 TYR         0.2458
    153 H47        27.4887    9.4958  139.2494 H         1 ILE         0.1883
    154 H48        26.0710   11.7936  137.9848 H         1 ILE         0.0803
    155 H49        27.1174    9.1825  136.7893 H         1 ILE         0.0345
    156 H50        28.6874   11.1141  137.5387 H         1 ILE         0.0267
    157 H51        27.9725   12.0227  136.1639 H         1 ILE         0.0267
    158 H52        25.0342    9.9458  135.6946 H         1 ILE         0.0235
    159 H53        26.4577   10.1671  134.6218 H         1 ILE         0.0235
    160 H54        25.7472   11.5797  135.4742 H         1 ILE         0.0235
    161 H55        30.0779   10.9613  135.5411 H         1 ILE         0.0230
    162 H56        28.6989   10.2650  134.6245 H         1 ILE         0.0230
    163 H57        29.4138    9.3564  135.9993 H         1 ILE         0.0230
    164 H58        22.4464    9.4022  139.2525 H         1 PRO         0.0802
    165 H59        20.8099   11.0272  139.3434 H         1 PRO         0.0313
    166 H60        20.8783   11.2776  137.5659 H         1 PRO         0.0313
    167 H61        22.3507   12.6413  139.7625 H         1 PRO         0.0287
    168 H62        21.7965   13.2655  138.1719 H         1 PRO         0.0287
    169 H63        23.6737   12.4812  137.0657 H         1 PRO         0.0524
    170 H64        24.3965   12.7165  138.6932 H         1 PRO         0.0524
    171 H65        21.5564    7.6864  138.2839 H         1 MET         0.1883
    172 H66        22.4973    6.9923  135.6679 H         1 MET         0.0800
    173 H67        20.1277    5.5334  136.7162 H         1 MET         0.0320
    174 H68        21.5387    5.6145  137.8249 H         1 MET         0.0320
    175 H69        22.5443    4.9438  135.2449 H         1 MET         0.0378
    176 H70        21.0966    3.9191  135.5289 H         1 MET         0.0378
    177 H71        22.0684    1.5923  138.3868 H         1 MET         0.0340
    178 H72        21.1272    1.7978  136.8707 H         1 MET         0.0340
    179 H73        20.8494    2.9052  138.2574 H         1 MET         0.0340
    180 H74        19.4241    8.3498  136.8352 H         1 ASP         0.1884
    181 H75        18.1184    8.0229  134.2473 H         1 ASP         0.0819
    182 H76        16.8317    7.8768  136.3393 H         1 ASP         0.0478
    183 H77        16.2361    9.2133  135.2972 H         1 ASP         0.0478
    184 H78        20.5265   10.1133  135.0785 H         1 GLY         0.1881
    185 H79        21.1567   12.2208  134.3551 H         1 GLY         0.0763
    186 H80        19.4252   12.5886  134.0497 H         1 GLY         0.0763
    187 H81        18.7908   12.7269  132.0079 H         1 GLU         0.1883
    188 H82        19.9056   11.0508  129.8993 H         1 GLU         0.0801
    189 H83        18.4502   12.7750  128.5008 H         1 GLU         0.0330
    190 H84        17.7676   13.1512  130.1192 H         1 GLU         0.0330
    191 H85        17.4799   10.5664  130.3357 H         1 GLU         0.0433
    192 H86        17.6843   10.5586  128.5511 H         1 GLU         0.0433
    193 H87        22.0986   11.5782  129.9832 H         1 ASP         0.1883
    194 H88        23.3427   14.0494  129.7876 H         1 ASP         0.0797
    195 H89        25.1532   12.8951  128.5376 H         1 ASP         0.0277
    196 H90        24.0654   11.4922  128.2637 H         1 ASP         0.0277
    197 H91        24.5805   11.9172  129.9312 H         1 ASP         0.0277
    198 H92        22.8038   15.7129  128.5362 H         1 PHE         0.1877
    199 H93        21.7482   15.2145  125.8099 H         1 PHE         0.0749
    200 H94        20.4865   16.7001  127.3767 H         1 PHE         0.0467
    201 H95        20.9729   17.4992  125.8433 H         1 PHE         0.0467
    202 H96        22.0821   17.1003  129.4161 H         1 PHE         0.0557
    203 H97        21.9971   19.5922  125.9435 H         1 PHE         0.0557
    204 H98        23.1160   18.9231  130.6979 H         1 PHE         0.0599
    205 H99        23.0356   21.4228  127.2307 H         1 PHE         0.0599
    206 H100       23.5935   21.0893  129.6133 H         1 PHE         0.0559
@<TRIPOS>BOND
     1    1    2 1  
     2    2    3 1  
     3    2    5 1  
     4    3    4 2  
     5    3    6 am 
     6    6    7 1  
     7    7    8 1  
     8    7   10 1  
     9    8    9 2  
    10    8   13 am 
    11   10   11 1  
    12   10   12 1  
    13   13   14 1  
    14   14   15 1  
    15   14   17 1  
    16   15   16 2  
    17   15   21 am 
    18   17   18 1  
    19   18   19 1  
    20   18   20 1  
    21   21   22 1  
    22   22   23 1  
    23   22   25 1  
    24   23   24 2  
    25   23   26 am 
    26   26   27 1  
    27   26   32 1  
    28   27   28 1  
    29   27   30 1  
    30   28   29 2  
    31   28   34 am 
    32   30   31 1  
    33   31   32 1  
    34   31   33 1  
    35   34   35 1  
    36   35   36 1  
    37   35   38 1  
    38   36   37 2  
    39   36   46 am 
    40   38   39 1  
    41   39   40 ar 
    42   39   41 ar 
    43   40   42 ar 
    44   41   43 ar 
    45   42   44 ar 
    46   43   44 ar 
    47   44   45 1  
    48   46   47 1  
    49   47   48 1  
    50   47   50 1  
    51   48   49 2  
    52   48   54 am 
    53   50   51 1  
    54   50   52 1  
    55   51   53 1  
    56   54   55 1  
    57   54   60 1  
    58   55   56 1  
    59   55   58 1  
    60   56   57 2  
    61   56   61 am 
    62   58   59 1  
    63   59   60 1  
    64   61   62 1  
    65   62   63 1  
    66   62   65 1  
    67   63   64 2  
    68   63   69 am 
    69   65   66 1  
    70   66   67 1  
    71   67   68 1  
    72   69   70 1  
    73   70   71 1  
    74   70   73 1  
    75   71   72 2  
    76   71   77 am 
    77   73   74 1  
    78   74   75 ar 
    79   74   76 ar 
    80   77   78 1  
    81   78   79 1  
    82   79   80 2  
    83   79   81 am 
    84   81   82 1  
    85   82   83 1  
    86   82   85 1  
    87   83   84 2  
    88   83   90 am 
    89   85   86 1  
    90   86   87 1  
    91   87   88 ar 
    92   87   89 ar 
    93   90   91 1  
    94   91   92 1  
    95   91   94 1  
    96   92   93 2  
    97   92   95 am 
    98   95   96 1  
    99   96   97 1  
   100   96   99 1  
   101   97   98 ar 
   102   97  106 ar 
   103   99  100 1  
   104  100  101 ar 
   105  100  102 ar 
   106  101  103 ar 
   107  102  104 ar 
   108  103  105 ar 
   109  104  105 ar 
   110    1  107 1  
   111    1  108 1  
   112    1  109 1  
   113    2  110 1  
   114    5  111 1  
   115    5  112 1  
   116    5  113 1  
   117    6  114 1  
   118    7  115 1  
   119   10  116 1  
   120   11  117 1  
   121   12  118 1  
   122   12  119 1  
   123   12  120 1  
   124   13  121 1  
   125   14  122 1  
   126   17  123 1  
   127   17  124 1  
   128   18  125 1  
   129   19  126 1  
   130   19  127 1  
   131   19  128 1  
   132   20  129 1  
   133   20  130 1  
   134   20  131 1  
   135   21  132 1  
   136   22  133 1  
   137   25  134 1  
   138   25  135 1  
   139   25  136 1  
   140   27  137 1  
   141   30  138 1  
   142   30  139 1  
   143   31  140 1  
   144   32  141 1  
   145   32  142 1  
   146   33  143 1  
   147   34  144 1  
   148   35  145 1  
   149   38  146 1  
   150   38  147 1  
   151   40  148 1  
   152   41  149 1  
   153   42  150 1  
   154   43  151 1  
   155   45  152 1  
   156   46  153 1  
   157   47  154 1  
   158   50  155 1  
   159   51  156 1  
   160   51  157 1  
   161   52  158 1  
   162   52  159 1  
   163   52  160 1  
   164   53  161 1  
   165   53  162 1  
   166   53  163 1  
   167   55  164 1  
   168   58  165 1  
   169   58  166 1  
   170   59  167 1  
   171   59  168 1  
   172   60  169 1  
   173   60  170 1  
   174   61  171 1  
   175   62  172 1  
   176   65  173 1  
   177   65  174 1  
   178   66  175 1  
   179   66  176 1  
   180   68  177 1  
   181   68  178 1  
   182   68  179 1  
   183   69  180 1  
   184   70  181 1  
   185   73  182 1  
   186   73  183 1  
   187   77  184 1  
   188   78  185 1  
   189   78  186 1  
   190   81  187 1  
   191   82  188 1  
   192   85  189 1  
   193   85  190 1  
   194   86  191 1  
   195   86  192 1  
   196   90  193 1  
   197   91  194 1  
   198   94  195 1  
   199   94  196 1  
   200   94  197 1  
   201   95  198 1  
   202   96  199 1  
   203   99  200 1  
   204   99  201 1  
   205  101  202 1  
   206  102  203 1  
   207  103  204 1  
   208  104  205 1  
   209  105  206 1  
@<TRIPOS>SUBSTRUCTURE
     1 GLU         1

