6bvb_ligand
  -I-interpret- 

209212  0  0  0  0  0  0  0  0999 V2000
   32.0390   11.0310  157.6890 N   0  3  0  0  0
   31.9120   10.2020  156.4920 C   0  0  0  0  0
   32.0630   11.0330  155.2230 C   0  0  0  0  0
   31.6700   12.1980  155.1710 O   0  0  0  0  0
   30.5670    9.4770  156.4710 C   0  0  0  0  0
   32.6150   10.4180  154.1850 N   0  0  0  0  0
   32.9520   11.1210  152.9560 C   0  0  0  0  0
   31.8890   10.8990  151.8870 C   0  0  0  0  0
   31.3050    9.8180  151.7890 O   0  0  0  0  0
   34.3160   10.6640  152.4340 C   0  0  0  0  0
   34.3610    9.2330  152.3810 O   0  0  0  0  0
   35.4250   11.1750  153.3400 C   0  0  0  0  0
   31.6580   11.9350  151.0780 N   0  0  0  0  0
   30.6390   11.9290  150.0410 C   0  0  0  0  0
   31.3170   12.3030  148.7270 C   0  0  0  0  0
   31.7110   13.4580  148.5480 O   0  0  0  0  0
   29.5160   12.9160  150.3660 C   0  0  0  0  0
   28.6890   12.6250  151.6310 C   0  0  0  0  0
   27.5280   13.6230  151.8170 C   0  0  0  0  0
   28.1670   11.1810  151.6300 C   0  0  0  0  0
   31.4610   11.3360  147.8210 N   0  0  0  0  0
   32.0900   11.6010  146.5380 C   0  0  0  0  0
   31.0430   11.9330  145.4600 C   0  0  0  0  0
   29.8640   11.6600  145.6070 O   0  0  0  0  0
   32.9400   10.4180  146.1230 C   0  0  0  0  0
   31.4810   12.5550  144.3820 N   0  0  0  0  0
   30.5690   12.8920  143.3090 C   0  0  0  0  0
   29.9230   11.6200  142.6570 C   0  0  0  0  0
   30.5040   10.5220  142.6730 O   0  0  0  0  0
   31.3750   13.6790  142.2270 C   0  0  0  0  0
   32.5500   14.2320  143.0400 C   0  0  0  0  0
   32.8480   13.1300  144.0890 C   0  0  0  0  0
   32.1370   15.4160  143.6550 O   0  0  0  0  0
   28.7640   11.8080  142.0590 N   0  0  0  0  0
   28.1550   10.7360  141.3060 C   0  0  0  0  0
   27.2930   11.2700  140.1680 C   0  0  0  0  0
   26.8470   12.4380  140.1770 O   0  0  0  0  0
   27.3360    9.8520  142.2440 C   0  0  0  0  0
   26.2030   10.5520  142.9200 C   0  0  0  0  0
   26.4070   11.2250  144.1200 C   0  0  0  0  0
   24.9070   10.5320  142.3800 C   0  0  0  0  0
   25.3570   11.8810  144.7570 C   0  0  0  0  0
   23.8570   11.1740  143.0190 C   0  0  0  0  0
   24.0910   11.8440  144.2020 C   0  0  0  0  0
   23.0620   12.4790  144.8480 O   0  0  0  0  0
   27.0680   10.4010  139.1900 N   0  0  0  0  0
   26.2350   10.7070  138.0330 C   0  0  0  0  0
   24.9010   10.0080  138.2280 C   0  0  0  0  0
   24.8790    8.7770  138.3490 O   0  0  0  0  0
   26.8990   10.2590  136.7300 C   0  0  0  0  0
   28.2040   11.0210  136.5550 C   0  0  0  0  0
   25.9700   10.5050  135.5480 C   0  0  0  0  0
   29.1620   10.3570  135.6180 C   0  0  0  0  0
   23.7810   10.7270  138.2630 N   0  0  0  0  0
   22.4830   10.0470  138.3620 C   0  0  0  0  0
   22.2210    9.2080  137.1240 C   0  0  0  0  0
   22.4160    9.6630  135.9900 O   0  0  0  0  0
   21.4770   11.1950  138.4850 C   0  0  0  0  0
   22.2730   12.4190  138.6880 C   0  0  0  0  0
   23.6260   12.1780  138.1220 C   0  0  0  0  0
   21.7620    7.9790  137.3500 N   0  0  0  0  0
   21.5590    7.0600  136.2380 C   0  0  0  0  0
   20.4670    7.5690  135.2980 C   0  0  0  0  0
   20.5600    7.3960  134.0780 O   0  0  0  0  0
   21.2180    5.6670  136.7740 C   0  0  0  0  0
   21.8820    4.5180  136.0130 C   0  0  0  0  0
   22.8620    3.4290  137.0790 S   0  0  0  0  0
   21.6060    2.3250  137.7090 C   0  0  0  0  0
   19.4370    8.2180  135.8440 N   0  0  0  0  0
   18.3250    8.7450  135.0510 C   0  0  0  0  0
   18.6260   10.0960  134.3960 C   0  0  0  0  0
   17.7320   10.6760  133.7600 O   0  0  0  0  0
   17.0700    8.8680  135.9260 C   0  0  0  0  0
   17.2460    9.8470  137.0810 C   0  0  0  0  0
   18.3390    9.8870  137.6860 O   0  0  0  0  0
   16.2810   10.5780  137.3910 O   0  0  0  0  0
   19.8510   10.6050  134.5290 N   0  0  0  0  0
   20.2270   11.8510  133.8980 C   0  0  0  0  0
   20.4470   11.6560  132.4160 C   0  0  0  0  0
   21.4120   11.0040  132.0020 O   0  0  0  0  0
   19.5470   12.2090  131.6080 N   0  0  0  0  0
   19.6280   12.0840  130.1550 C   0  0  0  0  0
   20.7230   13.0200  129.6590 C   0  0  0  0  0
   20.4830   14.1830  129.3290 O   0  0  0  0  0
   18.2770   12.3860  129.5150 C   0  0  0  0  0
   17.3660   11.1590  129.4160 C   0  0  0  0  0
   15.8950   11.5040  129.2460 C   0  0  0  0  0
   15.5290   12.6920  129.3950 O   0  0  0  0  0
   15.1010   10.5780  128.9670 O   0  0  0  0  0
   21.9520   12.5010  129.6270 N   0  0  0  0  0
   23.0870   13.2400  129.0880 C   0  0  0  0  0
   22.7100   13.8610  127.7460 C   0  0  0  0  0
   22.4820   13.1470  126.7640 O   0  0  0  0  0
   24.3080   12.3210  128.9450 C   0  0  0  0  0
   22.6240   15.1900  127.7030 N   0  0  0  0  0
   22.2760   15.9090  126.4800 C   0  0  0  0  0
   23.5340   16.4050  125.7630 C   0  0  0  0  0
   23.4520   17.0740  124.7280 O   0  0  0  0  0
   21.3370   17.0850  126.7950 C   0  0  0  0  0
   21.9840   18.2090  127.5860 C   0  0  0  0  0
   22.2950   18.0450  128.9290 C   0  0  0  0  0
   22.2480   19.4400  126.9870 C   0  0  0  0  0
   22.8720   19.0700  129.6520 C   0  0  0  0  0
   22.8280   20.4730  127.7100 C   0  0  0  0  0
   23.1400   20.2860  129.0440 C   0  0  0  0  0
   24.6590   16.1470  126.2040 O   0  0  0  0  0
   32.9430   11.5033  157.6796 H   0  0  0  0  0
   31.2916   11.7250  157.7014 H   0  0  0  0  0
   31.9708   10.4412  158.5184 H   0  0  0  0  0
   32.7143    9.4648  156.5235 H   0  0  0  0  0
   29.7616   10.2096  156.4184 H   0  0  0  0  0
   30.5220    8.8225  155.6005 H   0  0  0  0  0
   30.4613    8.8836  157.3792 H   0  0  0  0  0
   32.8097    9.4189  154.2505 H   0  0  0  0  0
   32.9954   12.1861  153.1836 H   0  0  0  0  0
   34.4613   11.0692  151.4326 H   0  0  0  0  0
   35.2186    8.9529  152.0530 H   0  0  0  0  0
   35.2888   10.7700  154.3428 H   0  0  0  0  0
   36.3901   10.8563  152.9460 H   0  0  0  0  0
   35.3884   12.2637  153.3784 H   0  0  0  0  0
   32.2258   12.7745  151.1932 H   0  0  0  0  0
   30.1844   10.9408  149.9701 H   0  0  0  0  0
   28.8177   12.8637  149.5307 H   0  0  0  0  0
   30.0000   13.8776  150.5369 H   0  0  0  0  0
   29.3608   12.7511  152.4800 H   0  0  0  0  0
   27.9288   14.6331  151.9012 H   0  0  0  0  0
   26.8604   13.5661  150.9572 H   0  0  0  0  0
   26.9771   13.3726  152.7236 H   0  0  0  0  0
   27.5348   11.0252  150.7559 H   0  0  0  0  0
   29.0103   10.4912  151.5977 H   0  0  0  0  0
   27.5866   11.0052  152.5357 H   0  0  0  0  0
   31.1248   10.3962  148.0313 H   0  0  0  0  0
   32.7343   12.4737  146.6449 H   0  0  0  0  0
   33.7123   10.2463  146.8728 H   0  0  0  0  0
   32.3107    9.5320  146.0382 H   0  0  0  0  0
   33.4066   10.6273  145.1604 H   0  0  0  0  0
   29.7546   13.4909  143.7166 H   0  0  0  0  0
   30.7896   14.4550  141.7338 H   0  0  0  0  0
   31.6869   13.0588  141.3867 H   0  0  0  0  0
   33.4341   14.4595  142.4444 H   0  0  0  0  0
   33.5505   12.3806  143.7243 H   0  0  0  0  0
   33.3407   13.5192  144.9800 H   0  0  0  0  0
   32.8620   15.7776  144.1700 H   0  0  0  0  0
   28.2961   12.7117  142.1278 H   0  0  0  0  0
   28.9465   10.1385  140.8536 H   0  0  0  0  0
   28.0106    9.5057  143.0270 H   0  0  0  0  0
   26.9037    9.0564  141.6371 H   0  0  0  0  0
   27.4010   11.2390  144.5672 H   0  0  0  0  0
   24.7235   10.0038  141.4443 H   0  0  0  0  0
   25.5319   12.4206  145.6878 H   0  0  0  0  0
   22.8552   11.1495  142.5902 H   0  0  0  0  0
   22.2519   12.3660  144.3454 H   0  0  0  0  0
   27.4971    9.4777  139.2506 H   0  0  0  0  0
   26.0929   11.7849  137.9547 H   0  0  0  0  0
   27.1073    9.1900  136.7737 H   0  0  0  0  0
   28.6852   11.0748  137.5315 H   0  0  0  0  0
   27.9596   11.9971  136.1360 H   0  0  0  0  0
   25.0477    9.9414  135.6890 H   0  0  0  0  0
   25.7410   11.5687  135.4828 H   0  0  0  0  0
   26.4589   10.1803  134.6295 H   0  0  0  0  0
   29.4107    9.3657  135.9969 H   0  0  0  0  0
   28.7020   10.2664  134.6340 H   0  0  0  0  0
   30.0691   10.9567  135.5426 H   0  0  0  0  0
   22.4261    9.3555  139.2027 H   0  0  0  0  0
   20.7915   11.0296  139.3162 H   0  0  0  0  0
   20.8578   11.2725  137.5913 H   0  0  0  0  0
   22.3428   12.6540  139.7501 H   0  0  0  0  0
   21.7996   13.2658  138.1911 H   0  0  0  0  0
   23.7219   12.5175  137.0907 H   0  0  0  0  0
   24.4071   12.7406  138.6334 H   0  0  0  0  0
   21.5523    7.6805  138.3025 H   0  0  0  0  0
   22.4820    6.9975  135.6616 H   0  0  0  0  0
   20.1405    5.5391  136.6706 H   0  0  0  0  0
   21.5796    5.6219  137.8013 H   0  0  0  0  0
   22.5571    4.9553  135.2774 H   0  0  0  0  0
   21.0905    3.9172  135.5651 H   0  0  0  0  0
   20.8569    2.9011  138.2521 H   0  0  0  0  0
   21.1323    1.8033  136.8774 H   0  0  0  0  0
   22.0653    1.5995  138.3804 H   0  0  0  0  0
   19.4238    8.3524  136.8550 H   0  0  0  0  0
   18.1613    8.0328  134.2423 H   0  0  0  0  0
   16.8626    7.8858  136.3507 H   0  0  0  0  0
   16.2603    9.2375  135.2968 H   0  0  0  0  0
   18.9430    9.2512  137.2956 H   0  0  0  0  0
   20.5400   10.1034  135.0895 H   0  0  0  0  0
   21.1540   12.2071  134.3474 H   0  0  0  0  0
   19.4246   12.5745  134.0423 H   0  0  0  0  0
   18.7757   12.7372  132.0159 H   0  0  0  0  0
   19.8812   11.0625  129.8711 H   0  0  0  0  0
   18.4644   12.7399  128.5012 H   0  0  0  0  0
   17.7725   13.1213  130.1418 H   0  0  0  0  0
   17.4653   10.6026  130.3480 H   0  0  0  0  0
   17.6729   10.5947  128.5354 H   0  0  0  0  0
   16.2914   13.2368  129.6037 H   0  0  0  0  0
   22.1015   11.5597  129.9903 H   0  0  0  0  0
   23.3508   14.0408  129.7788 H   0  0  0  0  0
   24.5770   11.9215  129.9228 H   0  0  0  0  0
   24.0663   11.5002  128.2697 H   0  0  0  0  0
   25.1448   12.8909  128.5412 H   0  0  0  0  0
   22.8074   15.7234  128.5529 H   0  0  0  0  0
   21.7559   15.2184  125.8161 H   0  0  0  0  0
   20.5240   16.6911  127.4049 H   0  0  0  0  0
   21.0201   17.5061  125.8409 H   0  0  0  0  0
   22.0810   17.0951  129.4188 H   0  0  0  0  0
   21.9957   19.5930  125.9377 H   0  0  0  0  0
   23.1173   18.9223  130.7037 H   0  0  0  0  0
   23.0368   21.4281  127.2280 H   0  0  0  0  0
   23.5960   21.0938  129.6164 H   0  0  0  0  0
   24.5754   15.6253  127.0055 H   0  0  0  0  0
  1  2  1  0  0  0
  2  3  1  0  0  0
  2  5  1  0  0  0
  3  4  2  0  0  0
  3  6  1  0  0  0
  6  7  1  0  0  0
  7  8  1  0  0  0
  7 10  1  0  0  0
  8  9  2  0  0  0
  8 13  1  0  0  0
 10 11  1  0  0  0
 10 12  1  0  0  0
 13 14  1  0  0  0
 14 15  1  0  0  0
 14 17  1  0  0  0
 15 16  2  0  0  0
 15 21  1  0  0  0
 17 18  1  0  0  0
 18 19  1  0  0  0
 18 20  1  0  0  0
 21 22  1  0  0  0
 22 23  1  0  0  0
 22 25  1  0  0  0
 23 24  2  0  0  0
 23 26  1  0  0  0
 26 27  1  0  0  0
 26 32  1  0  0  0
 27 28  1  0  0  0
 27 30  1  0  0  0
 28 29  2  0  0  0
 28 34  1  0  0  0
 30 31  1  0  0  0
 31 32  1  0  0  0
 31 33  1  0  0  0
 34 35  1  0  0  0
 35 36  1  0  0  0
 35 38  1  0  0  0
 36 37  2  0  0  0
 36 46  1  0  0  0
 38 39  1  0  0  0
 39 40  4  0  0  0
 39 41  4  0  0  0
 40 42  4  0  0  0
 41 43  4  0  0  0
 42 44  4  0  0  0
 43 44  4  0  0  0
 44 45  1  0  0  0
 46 47  1  0  0  0
 47 48  1  0  0  0
 47 50  1  0  0  0
 48 49  2  0  0  0
 48 54  1  0  0  0
 50 51  1  0  0  0
 50 52  1  0  0  0
 51 53  1  0  0  0
 54 55  1  0  0  0
 54 60  1  0  0  0
 55 56  1  0  0  0
 55 58  1  0  0  0
 56 57  2  0  0  0
 56 61  1  0  0  0
 58 59  1  0  0  0
 59 60  1  0  0  0
 61 62  1  0  0  0
 62 63  1  0  0  0
 62 65  1  0  0  0
 63 64  2  0  0  0
 63 69  1  0  0  0
 65 66  1  0  0  0
 66 67  1  0  0  0
 67 68  1  0  0  0
 69 70  1  0  0  0
 70 71  1  0  0  0
 70 73  1  0  0  0
 71 72  2  0  0  0
 71 77  1  0  0  0
 73 74  1  0  0  0
 74 75  1  0  0  0
 74 76  2  0  0  0
 77 78  1  0  0  0
 78 79  1  0  0  0
 79 80  2  0  0  0
 79 81  1  0  0  0
 81 82  1  0  0  0
 82 83  1  0  0  0
 82 85  1  0  0  0
 83 84  2  0  0  0
 83 90  1  0  0  0
 85 86  1  0  0  0
 86 87  1  0  0  0
 87 88  1  0  0  0
 87 89  2  0  0  0
 90 91  1  0  0  0
 91 92  1  0  0  0
 91 94  1  0  0  0
 92 93  2  0  0  0
 92 95  1  0  0  0
 95 96  1  0  0  0
 96 97  1  0  0  0
 96 99  1  0  0  0
 97 98  2  0  0  0
 97106  1  0  0  0
 99100  1  0  0  0
100101  4  0  0  0
100102  4  0  0  0
101103  4  0  0  0
102104  4  0  0  0
103105  4  0  0  0
104105  4  0  0  0
  1107  1  0  0  0
  1108  1  0  0  0
  1109  1  0  0  0
  2110  1  0  0  0
  5111  1  0  0  0
  5112  1  0  0  0
  5113  1  0  0  0
  6114  1  0  0  0
  7115  1  0  0  0
 10116  1  0  0  0
 11117  1  0  0  0
 12118  1  0  0  0
 12119  1  0  0  0
 12120  1  0  0  0
 13121  1  0  0  0
 14122  1  0  0  0
 17123  1  0  0  0
 17124  1  0  0  0
 18125  1  0  0  0
 19126  1  0  0  0
 19127  1  0  0  0
 19128  1  0  0  0
 20129  1  0  0  0
 20130  1  0  0  0
 20131  1  0  0  0
 21132  1  0  0  0
 22133  1  0  0  0
 25134  1  0  0  0
 25135  1  0  0  0
 25136  1  0  0  0
 27137  1  0  0  0
 30138  1  0  0  0
 30139  1  0  0  0
 31140  1  0  0  0
 32141  1  0  0  0
 32142  1  0  0  0
 33143  1  0  0  0
 34144  1  0  0  0
 35145  1  0  0  0
 38146  1  0  0  0
 38147  1  0  0  0
 40148  1  0  0  0
 41149  1  0  0  0
 42150  1  0  0  0
 43151  1  0  0  0
 45152  1  0  0  0
 46153  1  0  0  0
 47154  1  0  0  0
 50155  1  0  0  0
 51156  1  0  0  0
 51157  1  0  0  0
 52158  1  0  0  0
 52159  1  0  0  0
 52160  1  0  0  0
 53161  1  0  0  0
 53162  1  0  0  0
 53163  1  0  0  0
 55164  1  0  0  0
 58165  1  0  0  0
 58166  1  0  0  0
 59167  1  0  0  0
 59168  1  0  0  0
 60169  1  0  0  0
 60170  1  0  0  0
 61171  1  0  0  0
 62172  1  0  0  0
 65173  1  0  0  0
 65174  1  0  0  0
 66175  1  0  0  0
 66176  1  0  0  0
 68177  1  0  0  0
 68178  1  0  0  0
 68179  1  0  0  0
 69180  1  0  0  0
 70181  1  0  0  0
 73182  1  0  0  0
 73183  1  0  0  0
 75184  1  0  0  0
 77185  1  0  0  0
 78186  1  0  0  0
 78187  1  0  0  0
 81188  1  0  0  0
 82189  1  0  0  0
 85190  1  0  0  0
 85191  1  0  0  0
 86192  1  0  0  0
 86193  1  0  0  0
 88194  1  0  0  0
 90195  1  0  0  0
 91196  1  0  0  0
 94197  1  0  0  0
 94198  1  0  0  0
 94199  1  0  0  0
 95200  1  0  0  0
 96201  1  0  0  0
 99202  1  0  0  0
 99203  1  0  0  0
101204  1  0  0  0
102205  1  0  0  0
103206  1  0  0  0
104207  1  0  0  0
105208  1  0  0  0
106209  1  0  0  0
M  END
$$$$
