6bic_ligand
  -I-interpret- 

 79 81  0  0  0  0  0  0  0  0999 V2000
   40.0010   67.4230  -10.1310 C   0  0  0  0  0
   40.4170   67.9650  -11.1070 O   0  0  0  0  0
   39.4430   66.1080  -10.2490 O   0  0  0  0  0
   40.1600   65.0930   -9.5630 C   0  0  0  0  0
   40.8600   64.1970  -10.6130 C   0  0  0  0  0
   40.8160   64.5300  -11.9650 C   0  0  0  0  0
   41.4590   63.7270  -12.9130 C   0  0  0  0  0
   42.1520   62.5980  -12.5010 C   0  0  0  0  0
   42.1990   62.2680  -11.1430 C   0  0  0  0  0
   41.5540   63.0670  -10.2040 C   0  0  0  0  0
   39.1290   68.9230   -2.0400 N   0  0  0  0  0
   38.4370   70.1210   -2.5050 C   0  0  0  0  0
   37.0710   69.7840   -3.1430 C   0  0  0  0  0
   36.7830   70.8030   -4.2130 C   0  0  0  0  0
   37.4390   70.3900   -5.4480 N   0  0  0  0  0
   38.3910   71.0270   -6.1730 C   0  0  0  0  0
   38.7710   70.2640   -7.3550 C   0  0  0  0  0
   39.8040   70.5740   -8.4700 C   0  0  0  0  0
   40.7720   69.4310   -8.7690 C   0  0  0  0  0
   40.0830   68.1380   -8.8200 N   0  0  0  0  0
   41.8880   69.4370   -7.7160 C   0  0  0  0  0
   41.8400   68.7710   -6.7280 O   0  0  0  0  0
   37.9890   69.2000   -7.2220 N   0  0  0  0  0
   37.2240   69.2760   -6.1190 N   0  0  0  0  0
   43.0440   70.3160   -7.9770 N   0  0  0  0  0
   44.1490   70.3840   -7.0300 C   0  0  0  0  0
   43.5990   70.9480   -5.7190 C   0  0  0  0  0
   42.6720   71.6990   -5.7170 O   0  0  0  0  0
   45.2620   71.2620   -7.5730 C   0  0  0  0  0
   45.9350   70.6320   -8.8320 C   0  0  0  0  0
   46.5790   69.2760   -8.5740 C   0  0  0  0  0
   46.9590   71.5960   -9.4070 C   0  0  0  0  0
   44.2340   70.5080   -4.4720 N   0  0  0  0  0
   43.7290   71.0070   -3.1850 C   0  0  0  0  0
   42.9270   69.8830   -2.5070 C   0  0  0  0  0
   41.4130   70.1110   -2.5430 C   0  0  0  0  0
   40.5870   68.8920   -2.0360 C   0  0  0  0  0
   41.1220   67.9080   -1.6480 O   0  0  0  0  0
   44.8820   71.4240   -2.2880 C   0  0  0  0  0
   45.5520   72.4970   -2.8970 O   0  0  0  0  0
   39.4767   64.4963   -8.9587 H   0  0  0  0  0
   40.9009   65.5413   -8.9010 H   0  0  0  0  0
   40.2774   65.4215  -12.2861 H   0  0  0  0  0
   41.4157   63.9872  -13.9706 H   0  0  0  0  0
   42.6585   61.9699  -13.2339 H   0  0  0  0  0
   42.7432   61.3811  -10.8186 H   0  0  0  0  0
   41.5939   62.8052   -9.1467 H   0  0  0  0  0
   38.5969   68.1137   -1.7203 H   0  0  0  0  0
   39.0577   70.6037   -3.2599 H   0  0  0  0  0
   38.2633   70.7708   -1.6472 H   0  0  0  0  0
   36.2886   69.8079   -2.3844 H   0  0  0  0  0
   37.0981   68.7845   -3.5770 H   0  0  0  0  0
   37.1598   71.7780   -3.9041 H   0  0  0  0  0
   35.7073   70.8745   -4.3735 H   0  0  0  0  0
   38.8200   71.9924   -5.9045 H   0  0  0  0  0
   40.4021   71.4179   -8.1262 H   0  0  0  0  0
   39.2410   70.7636   -9.3839 H   0  0  0  0  0
   41.2103   69.5821   -9.7555 H   0  0  0  0  0
   39.6686   67.7348   -7.9797 H   0  0  0  0  0
   43.0697   70.8800   -8.8265 H   0  0  0  0  0
   44.5725   69.3934   -6.8644 H   0  0  0  0  0
   46.0205   71.3722   -6.7980 H   0  0  0  0  0
   44.8325   72.2223   -7.8584 H   0  0  0  0  0
   45.1350   70.4541   -9.5506 H   0  0  0  0  0
   47.3520   69.3813   -7.8128 H   0  0  0  0  0
   45.8198   68.5745   -8.2281 H   0  0  0  0  0
   47.0245   68.9052   -9.4971 H   0  0  0  0  0
   46.4632   72.5245   -9.6900 H   0  0  0  0  0
   47.7218   71.8040   -8.6566 H   0  0  0  0  0
   47.4241   71.1486  -10.2854 H   0  0  0  0  0
   45.0211   69.8598   -4.4979 H   0  0  0  0  0
   43.0940   71.8764   -3.3550 H   0  0  0  0  0
   43.2297   69.8480   -1.4605 H   0  0  0  0  0
   43.1336   68.9593   -3.0475 H   0  0  0  0  0
   41.1334   70.2860   -3.5819 H   0  0  0  0  0
   41.1932   70.9514   -1.8846 H   0  0  0  0  0
   45.5670   70.5877   -2.1482 H   0  0  0  0  0
   44.5041   71.7264   -1.3114 H   0  0  0  0  0
   46.2846   72.7723   -2.3411 H   0  0  0  0  0
  1  2  2  0  0  0
  1  3  1  0  0  0
 20  1  1  0  0  0
  3  4  1  0  0  0
  4  5  1  0  0  0
  5  6  4  0  0  0
  5 10  4  0  0  0
  6  7  4  0  0  0
  7  8  4  0  0  0
  9  8  4  0  0  0
 10  9  4  0  0  0
 12 11  1  0  0  0
 11 37  1  0  0  0
 13 12  1  0  0  0
 14 13  1  0  0  0
 15 14  1  0  0  0
 16 15  4  0  0  0
 15 24  4  0  0  0
 17 16  4  0  0  0
 18 17  1  0  0  0
 17 23  4  0  0  0
 19 18  1  0  0  0
 19 20  1  0  0  0
 19 21  1  0  0  0
 21 22  2  0  0  0
 21 25  1  0  0  0
 23 24  4  0  0  0
 25 26  1  0  0  0
 26 27  1  0  0  0
 26 29  1  0  0  0
 27 28  2  0  0  0
 27 33  1  0  0  0
 29 30  1  0  0  0
 30 31  1  0  0  0
 30 32  1  0  0  0
 33 34  1  0  0  0
 34 35  1  0  0  0
 34 39  1  0  0  0
 35 36  1  0  0  0
 36 37  1  0  0  0
 37 38  2  0  0  0
 39 40  1  0  0  0
  4 41  1  0  0  0
  4 42  1  0  0  0
  6 43  1  0  0  0
  7 44  1  0  0  0
  8 45  1  0  0  0
  9 46  1  0  0  0
 10 47  1  0  0  0
 11 48  1  0  0  0
 12 49  1  0  0  0
 12 50  1  0  0  0
 13 51  1  0  0  0
 13 52  1  0  0  0
 14 53  1  0  0  0
 14 54  1  0  0  0
 16 55  1  0  0  0
 18 56  1  0  0  0
 18 57  1  0  0  0
 19 58  1  0  0  0
 20 59  1  0  0  0
 25 60  1  0  0  0
 26 61  1  0  0  0
 29 62  1  0  0  0
 29 63  1  0  0  0
 30 64  1  0  0  0
 31 65  1  0  0  0
 31 66  1  0  0  0
 31 67  1  0  0  0
 32 68  1  0  0  0
 32 69  1  0  0  0
 32 70  1  0  0  0
 33 71  1  0  0  0
 34 72  1  0  0  0
 35 73  1  0  0  0
 35 74  1  0  0  0
 36 75  1  0  0  0
 36 76  1  0  0  0
 39 77  1  0  0  0
 39 78  1  0  0  0
 40 79  1  0  0  0
M  END
$$$$
