4wvs_ligand
  -I-interpret- 

 91 93  0  0  0  0  0  0  0  0999 V2000
   -5.7380 -846.3630    0.6600 N   0  3  0  0  0
   -6.2080 -846.6870   -0.6910 C   0  0  0  0  0
   -5.6290 -847.4660    1.6240 C   0  0  0  0  0
   -4.9310 -846.9790    2.8890 C   0  0  0  0  0
   -7.0110 -847.9990    1.9720 C   0  0  0  0  0
   -8.0040 -847.2860    1.8500 O   0  0  0  0  0
   -8.4380 -850.1760   -0.8950 C   0  0  0  0  0
   -8.4170 -850.6290    0.1930 C   0  0  0  0  0
   -8.4390 -851.1610    1.5590 C   0  0  0  0  0
   -8.3300 -849.9670    2.5280 C   0  0  0  0  0
   -7.0680 -849.2700    2.3760 N   0  0  0  0  0
   -8.3530 -850.4550    3.9740 C   0  0  0  0  0
   -7.4030 -851.0690    4.4110 O   0  0  0  0  0
   -9.4270 -850.1770    4.7300 N   0  0  0  0  0
   -9.5710 -850.7750    6.0550 C   0  0  0  0  0
   -9.8870 -852.2600    5.9470 C   0  0  0  0  0
  -10.4280 -852.7210    4.9440 O   0  0  0  0  0
  -10.7210 -849.9790    6.6740 C   0  0  0  0  0
  -11.5810 -849.6050    5.4770 C   0  0  0  0  0
  -10.6060 -849.3770    4.3460 C   0  0  0  0  0
   -9.5650 -853.0030    7.0060 N   0  0  0  0  0
   -9.9070 -854.4160    7.0560 C   0  0  0  0  0
   -9.9360 -854.9130    8.4960 C   0  0  0  0  0
   -9.5110 -854.2180    9.4110 O   0  0  0  0  0
   -8.9460 -855.2610    6.1980 C   0  0  0  0  0
   -7.5570 -855.3470    6.7800 C   0  0  0  0  0
   -7.1510 -856.4830    7.4700 C   0  0  0  0  0
   -6.6800 -854.2750    6.7020 C   0  0  0  0  0
   -5.9010 -856.5450    8.0620 C   0  0  0  0  0
   -5.4230 -854.3410    7.2870 C   0  0  0  0  0
   -5.0250 -855.4840    7.9510 C   0  0  0  0  0
  -10.3810 -858.1270    9.9690 C   0  0  0  0  0
  -10.4650 -856.1230    8.6740 N   0  0  0  0  0
   -9.5950 -858.5900   10.7660 O   0  0  0  0  0
  -13.5820 -848.2470    7.7200 N   0  0  0  0  0
  -14.0430 -847.6290    6.7580 N   0  0  0  0  0
  -14.4650 -847.0600    5.8690 N   0  0  0  0  0
  -10.8010 -856.6650    9.9750 C   0  0  0  0  0
  -12.3060 -856.4810   10.2550 C   0  0  0  0  0
  -12.7710 -855.0560   10.0510 C   0  0  0  0  0
  -13.7020 -851.0260    9.5230 O   0  0  0  0  0
  -13.4050 -852.3680    9.6010 C   0  0  0  0  0
  -14.2700 -850.5180    8.3000 C   0  0  0  0  0
  -14.5510 -849.0540    8.5010 C   0  0  0  0  0
  -12.6450 -854.1130   11.0630 C   0  0  0  0  0
  -13.2490 -854.6330    8.8160 C   0  0  0  0  0
  -12.9630 -852.7800   10.8490 C   0  0  0  0  0
  -13.5610 -853.3030    8.5830 C   0  0  0  0  0
  -10.8450 -858.7710    8.9310 O   0  0  0  0  0
   -6.4354 -845.7278    1.0479 H   0  0  0  0  0
   -4.7894 -846.0070    0.5423 H   0  0  0  0  0
   -5.5268 -847.4041   -1.1491 H   0  0  0  0  0
   -7.2071 -847.1190   -0.6329 H   0  0  0  0  0
   -6.2382 -845.7779   -1.2916 H   0  0  0  0  0
   -5.0439 -848.2689    1.1755 H   0  0  0  0  0
   -5.5209 -846.1837    3.3447 H   0  0  0  0  0
   -4.8328 -847.8077    3.5902 H   0  0  0  0  0
   -3.9421 -846.5986    2.6333 H   0  0  0  0  0
   -7.6086 -851.8504    1.7113 H   0  0  0  0  0
   -9.3628 -851.7113    1.7372 H   0  0  0  0  0
   -9.1696 -849.3107    2.2991 H   0  0  0  0  0
   -6.2001 -849.7641    2.5834 H   0  0  0  0  0
   -8.6646 -850.7267    6.6585 H   0  0  0  0  0
  -10.3739 -849.1063    7.2272 H   0  0  0  0  0
  -11.2712 -850.5525    7.4200 H   0  0  0  0  0
  -12.1824 -848.7178    5.6750 H   0  0  0  0  0
  -12.2996 -850.3887    5.2371 H   0  0  0  0  0
  -11.0136 -849.6762    3.3804 H   0  0  0  0  0
  -10.3657 -848.3223    4.2118 H   0  0  0  0  0
   -9.0729 -852.5756    7.7906 H   0  0  0  0  0
  -10.9059 -854.5310    6.6351 H   0  0  0  0  0
   -8.8676 -854.7848    5.2206 H   0  0  0  0  0
   -9.3482 -856.2728    6.1478 H   0  0  0  0  0
   -7.8253 -857.3360    7.5461 H   0  0  0  0  0
   -6.9817 -853.3699    6.1749 H   0  0  0  0  0
   -5.6074 -857.4353    8.6180 H   0  0  0  0  0
   -4.7480 -853.4876    7.2219 H   0  0  0  0  0
   -4.0269 -855.5482    8.3842 H   0  0  0  0  0
  -10.6428 -856.6982    7.8506 H   0  0  0  0  0
  -10.2793 -856.1438   10.7777 H   0  0  0  0  0
  -12.4861 -856.7447   11.2972 H   0  0  0  0  0
  -12.8548 -857.1140    9.5577 H   0  0  0  0  0
  -15.1893 -851.0513    8.0581 H   0  0  0  0  0
  -13.5767 -850.6612    7.4712 H   0  0  0  0  0
  -15.5628 -848.8306    8.1627 H   0  0  0  0  0
  -14.4549 -848.8096    9.5589 H   0  0  0  0  0
  -12.2893 -854.4266   12.0444 H   0  0  0  0  0
  -13.3809 -855.3612    8.0158 H   0  0  0  0  0
  -12.8657 -852.0581   11.6599 H   0  0  0  0  0
  -13.9275 -852.9906    7.6051 H   0  0  0  0  0
  -11.4501 -858.2035    8.4480 H   0  0  0  0  0
  1  2  1  0  0  0
  3  1  1  0  0  0
  3  4  1  0  0  0
  5  3  1  0  0  0
  5  6  2  0  0  0
 11  5  1  0  0  0
  8  7  3  0  0  0
  9  8  1  0  0  0
 10  9  1  0  0  0
 10 11  1  0  0  0
 12 10  1  0  0  0
 12 13  2  0  0  0
 14 12  1  0  0  0
 15 14  1  0  0  0
 14 20  1  0  0  0
 16 15  1  0  0  0
 15 18  1  0  0  0
 16 17  2  0  0  0
 21 16  1  0  0  0
 18 19  1  0  0  0
 19 20  1  0  0  0
 22 21  1  0  0  0
 23 22  1  0  0  0
 22 25  1  0  0  0
 23 24  2  0  0  0
 33 23  1  0  0  0
 25 26  1  0  0  0
 26 27  4  0  0  0
 26 28  4  0  0  0
 27 29  4  0  0  0
 28 30  4  0  0  0
 29 31  4  0  0  0
 30 31  4  0  0  0
 32 34  2  0  0  0
 38 32  1  0  0  0
 32 49  1  0  0  0
 38 33  1  0  0  0
 35 36  2  0  0  0
 44 35  1  0  0  0
 36 37  3  0  0  0
 39 38  1  0  0  0
 40 39  1  0  0  0
 45 40  4  0  0  0
 40 46  4  0  0  0
 42 41  1  0  0  0
 41 43  1  0  0  0
 47 42  4  0  0  0
 42 48  4  0  0  0
 43 44  1  0  0  0
 45 47  4  0  0  0
 46 48  4  0  0  0
  1 50  1  0  0  0
  1 51  1  0  0  0
  2 52  1  0  0  0
  2 53  1  0  0  0
  2 54  1  0  0  0
  3 55  1  0  0  0
  4 56  1  0  0  0
  4 57  1  0  0  0
  4 58  1  0  0  0
  9 59  1  0  0  0
  9 60  1  0  0  0
 10 61  1  0  0  0
 11 62  1  0  0  0
 15 63  1  0  0  0
 18 64  1  0  0  0
 18 65  1  0  0  0
 19 66  1  0  0  0
 19 67  1  0  0  0
 20 68  1  0  0  0
 20 69  1  0  0  0
 21 70  1  0  0  0
 22 71  1  0  0  0
 25 72  1  0  0  0
 25 73  1  0  0  0
 27 74  1  0  0  0
 28 75  1  0  0  0
 29 76  1  0  0  0
 30 77  1  0  0  0
 31 78  1  0  0  0
 33 79  1  0  0  0
 38 80  1  0  0  0
 39 81  1  0  0  0
 39 82  1  0  0  0
 43 83  1  0  0  0
 43 84  1  0  0  0
 44 85  1  0  0  0
 44 86  1  0  0  0
 45 87  1  0  0  0
 46 88  1  0  0  0
 47 89  1  0  0  0
 48 90  1  0  0  0
 49 91  1  0  0  0
M  END
$$$$
