6nel_ligand
  -I-interpret- 

 36 38  0  0  0  0  0  0  0  0999 V2000
    9.0280   20.0220   -8.4380 O   0  0  0  0  0
    9.5870   20.8440   -9.1790 C   0  0  0  0  0
    9.9930   22.1880   -8.8120 C   0  0  0  0  0
    9.7070   22.5310   -7.5430 O   0  0  0  0  0
   10.5920   22.9900   -9.7130 C   0  0  0  0  0
   10.8690   22.5700  -11.0590 C   0  0  0  0  0
   11.5490   23.5220  -11.9650 C   0  0  0  0  0
   12.8360   23.3200  -12.4540 C   0  0  0  0  0
   13.4540   24.2750  -13.2660 C   0  0  0  0  0
   12.8280   25.4730  -13.6140 C   0  0  0  0  0
   13.5260   26.5630  -14.5250 C   0  0  0  0  0
   12.7910   27.3910  -15.0770 O   0  0  0  0  0
   14.7610   26.5230  -14.5970 O   0  0  0  0  0
   11.5490   25.6720  -13.1010 C   0  0  0  0  0
   10.9220   24.7290  -12.2890 C   0  0  0  0  0
   10.5000   21.2840  -11.4540 C   0  0  0  0  0
   10.7140   20.6810  -12.7870 C   0  0  0  0  0
   10.3070   21.3200  -13.9730 C   0  0  0  0  0
   10.5170   20.7220  -15.2130 C   0  0  0  0  0
   11.1230   19.4710  -15.2190 C   0  0  0  0  0
   11.3290   18.8660  -16.4180 F   0  0  0  0  0
   11.5290   18.7970  -14.0820 C   0  0  0  0  0
   11.3050   19.4260  -12.8660 C   0  0  0  0  0
    9.8770   20.4650  -10.4970 N   0  0  0  0  0
    9.2823   21.7922   -7.1010 H   0  0  0  0  0
   10.8779   23.9971   -9.4093 H   0  0  0  0  0
   13.3697   22.4041  -12.2002 H   0  0  0  0  0
   14.4586   24.0776  -13.6401 H   0  0  0  0  0
   15.0869   25.7844  -14.0775 H   0  0  0  0  0
   11.0214   26.5948  -13.3422 H   0  0  0  0  0
    9.9252   24.9360  -11.8996 H   0  0  0  0  0
    9.8216   22.2946  -13.9204 H   0  0  0  0  0
   10.2190   21.2137  -16.1390 H   0  0  0  0  0
   12.0030   17.8171  -14.1385 H   0  0  0  0  0
   11.6011   18.9213  -11.9464 H   0  0  0  0  0
    9.6156   19.5217  -10.7836 H   0  0  0  0  0
  1  2  2  0  0  0
  2  3  1  0  0  0
  2 24  1  0  0  0
  3  4  1  0  0  0
  3  5  2  0  0  0
  5  6  1  0  0  0
  6  7  1  0  0  0
  6 16  2  0  0  0
  7  8  4  0  0  0
  7 15  4  0  0  0
  8  9  4  0  0  0
  9 10  4  0  0  0
 10 11  1  0  0  0
 10 14  4  0  0  0
 11 12  2  0  0  0
 11 13  1  0  0  0
 14 15  4  0  0  0
 16 17  1  0  0  0
 16 24  1  0  0  0
 17 18  4  0  0  0
 17 23  4  0  0  0
 18 19  4  0  0  0
 19 20  4  0  0  0
 20 21  1  0  0  0
 20 22  4  0  0  0
 22 23  4  0  0  0
  4 25  1  0  0  0
  5 26  1  0  0  0
  8 27  1  0  0  0
  9 28  1  0  0  0
 13 29  1  0  0  0
 14 30  1  0  0  0
 15 31  1  0  0  0
 18 32  1  0  0  0
 19 33  1  0  0  0
 22 34  1  0  0  0
 23 35  1  0  0  0
 24 36  1  0  0  0
M  END
$$$$
