1f57_ligand
  -I-interpret- 

 15 14  0  0  0  0  0  0  0  0999 V2000
   10.3800  -11.1390   23.1390 N   0  3  0  0  0
    9.8350   -9.7500   23.2030 C   0  0  0  0  0
    9.7540   -9.2620   24.6560 C   0  0  0  0  0
    9.1790   -8.1830   24.9000 O   0  0  0  0  0
   10.7420   -8.8210   22.3980 C   0  0  0  0  0
   12.4220   -8.5870   23.0460 S   0  0  0  0  0
   10.2820   -9.9690   25.5330 O   0  0  0  0  0
   10.4244  -11.4410   22.1658 H   0  0  0  0  0
   11.3159  -11.1547   23.5442 H   0  0  0  0  0
    9.7706  -11.7666   23.6635 H   0  0  0  0  0
    8.8286   -9.7456   22.7844 H   0  0  0  0  0
    8.8467   -7.8066   24.0818 H   0  0  0  0  0
   10.2680   -7.8397   22.4169 H   0  0  0  0  0
   10.8547   -9.2800   21.4158 H   0  0  0  0  0
   13.0919   -7.7598   22.2485 H   0  0  0  0  0
  1  2  1  0  0  0
  2  5  1  0  0  0
  2  3  1  0  0  0
  3  7  2  0  0  0
  3  4  1  0  0  0
  5  6  1  0  0  0
  1  8  1  0  0  0
  1  9  1  0  0  0
  1 10  1  0  0  0
  2 11  1  0  0  0
  4 12  1  0  0  0
  5 13  1  0  0  0
  5 14  1  0  0  0
  6 15  1  0  0  0
M  END
$$$$
