4kyh_ligand
  -I-interpret- 

 41 44  0  0  0  0  0  0  0  0999 V2000
   -5.0530   14.0640   -0.7170 C   0  0  0  0  0
   -6.1380   14.5980   -0.7280 O   0  0  0  0  0
   -4.7730   12.8930    0.1170 C   0  0  0  0  0
   -3.5290   12.2250    0.0300 C   0  0  0  0  0
   -2.5260   12.8100   -0.9090 C   0  0  0  0  0
   -5.7740   12.3970    0.9600 C   0  0  0  0  0
   -5.5560   11.2380    1.6860 C   0  0  0  0  0
   -4.3490   10.5660    1.5820 C   0  0  0  0  0
   -3.3350   11.0550    0.7640 C   0  0  0  0  0
   -3.9710   14.5020   -1.5860 N   0  0  0  0  0
   -2.7350   13.8550   -1.6450 N   0  0  0  0  0
   -4.1750   15.6570   -2.4450 C   0  0  0  0  0
   -4.0950   16.9250   -1.6500 C   0  0  0  0  0
   -3.3380   18.6480   -0.1060 C   0  0  0  0  0
   -4.5900   18.8560   -0.6970 C   0  0  0  0  0
   -2.8020   19.5640    0.7940 C   0  0  0  0  0
   -3.5230   20.7110    1.0720 C   0  0  0  0  0
   -4.7540   20.9460    0.4740 C   0  0  0  0  0
   -5.2980   20.0160   -0.4100 C   0  0  0  0  0
   -5.0010   17.8440   -1.5690 N   0  0  0  0  0
   -2.6540   17.1730   -0.6910 S   0  0  0  0  0
   -1.1390   12.2140   -1.0160 C   0  0  0  0  0
   -0.3280   12.3220    0.2530 C   0  0  0  0  0
   -0.8250   13.1350    1.1520 O   0  0  0  0  0
    0.6940   11.6850    0.4360 O   0  0  0  0  0
   -5.4900   22.1960    0.7790 C   0  0  0  0  0
   -6.5580   21.9620    1.5400 F   0  0  0  0  0
   -4.7060   22.9820    1.4370 F   0  0  0  0  0
   -5.8900   22.9080   -0.3210 F   0  0  0  0  0
   -6.7250   12.9228    1.0451 H   0  0  0  0  0
   -6.3370   10.8531    2.3417 H   0  0  0  0  0
   -4.1923    9.6464    2.1457 H   0  0  0  0  0
   -2.3865   10.5222    0.6967 H   0  0  0  0  0
   -5.1622   15.5879   -2.9019 H   0  0  0  0  0
   -3.3989   15.6699   -3.2103 H   0  0  0  0  0
   -1.8376   19.3820    1.2682 H   0  0  0  0  0
   -3.1184   21.4423    1.7718 H   0  0  0  0  0
   -6.2688   20.1970   -0.8713 H   0  0  0  0  0
   -0.6067   12.7678   -1.7894 H   0  0  0  0  0
   -1.2578   11.1530   -1.2358 H   0  0  0  0  0
   -1.6282   13.5351    0.8108 H   0  0  0  0  0
  1  2  2  0  0  0
  1  3  1  0  0  0
 10  1  1  0  0  0
  3  4  4  0  0  0
  3  6  4  0  0  0
  5  4  1  0  0  0
  4  9  4  0  0  0
 11  5  2  0  0  0
  5 22  1  0  0  0
  6  7  4  0  0  0
  7  8  4  0  0  0
  9  8  4  0  0  0
 10 11  1  0  0  0
 12 10  1  0  0  0
 13 12  1  0  0  0
 13 20  4  0  0  0
 21 13  4  0  0  0
 14 15  4  0  0  0
 14 16  4  0  0  0
 14 21  4  0  0  0
 15 19  4  0  0  0
 15 20  4  0  0  0
 16 17  4  0  0  0
 17 18  4  0  0  0
 18 19  4  0  0  0
 18 26  1  0  0  0
 22 23  1  0  0  0
 23 24  1  0  0  0
 23 25  2  0  0  0
 26 27  1  0  0  0
 26 28  1  0  0  0
 26 29  1  0  0  0
  6 30  1  0  0  0
  7 31  1  0  0  0
  8 32  1  0  0  0
  9 33  1  0  0  0
 12 34  1  0  0  0
 12 35  1  0  0  0
 16 36  1  0  0  0
 17 37  1  0  0  0
 19 38  1  0  0  0
 22 39  1  0  0  0
 22 40  1  0  0  0
 24 41  1  0  0  0
M  END
$$$$
