4r5v_ligand
  -I-interpret- 

 43 44  0  0  0  0  0  0  0  0999 V2000
   18.3390    8.9020   10.0550 C   0  0  0  0  0
   16.8180    8.7630   10.0800 C   0  0  0  0  0
   16.4400    7.3810   10.5970 C   0  0  0  0  0
   16.2750    8.9450    8.6600 C   0  0  0  0  0
   16.2240    9.8520   10.9720 C   0  0  0  0  0
   16.9470   10.6710   11.5330 O   0  0  0  0  0
   14.8900    9.8560   11.0820 N   0  0  0  0  0
   14.2300   10.9300   11.8410 C   0  0  0  0  0
   13.1110   11.5210   10.9780 C   0  0  0  0  0
   12.1000   10.8760   10.7040 O   0  0  0  0  0
   13.3740   12.7560   10.5260 N   0  0  0  0  0
   12.3930   13.3860    9.6990 O   0  0  0  0  0
   13.8110   10.6130   13.1430 C   0  0  0  0  0
   13.0420   11.5550   13.8130 C   0  0  0  0  0
   12.6060   11.3380   15.1110 C   0  0  0  0  0
   14.1740    9.4390   13.7980 C   0  0  0  0  0
   13.7360    9.2160   15.1050 C   0  0  0  0  0
   12.9520   10.1630   15.7620 C   0  0  0  0  0
   12.5370    9.9800   17.0150 N   0  0  0  0  0
   11.7580   10.7020   17.6020 N   0  0  0  0  0
   11.5650   10.2570   18.8420 C   0  0  0  0  0
   12.3170    9.1750   18.9910 C   0  0  0  0  0
   12.9400    9.0070   17.8310 C   0  0  0  0  0
   18.6065    9.8825    9.6610 H   0  0  0  0  0
   18.7288    8.7971   11.0675 H   0  0  0  0  0
   18.7631    8.1252    9.4187 H   0  0  0  0  0
   16.8227    7.2562   11.6100 H   0  0  0  0  0
   15.3546    7.2808   10.6023 H   0  0  0  0  0
   16.8732    6.6205    9.9474 H   0  0  0  0  0
   15.1883    8.8620    8.6745 H   0  0  0  0  0
   16.5606    9.9284    8.2864 H   0  0  0  0  0
   16.6910    8.1738    8.0117 H   0  0  0  0  0
   14.3356    9.1207   10.6434 H   0  0  0  0  0
   14.9946   11.6806   12.0411 H   0  0  0  0  0
   14.2451   13.2300   10.7645 H   0  0  0  0  0
   12.7024   14.2587    9.4457 H   0  0  0  0  0
   12.7757   12.4837   13.3084 H   0  0  0  0  0
   11.9952   12.0859   15.6167 H   0  0  0  0  0
   14.7958    8.6992   13.2939 H   0  0  0  0  0
   14.0096    8.2930   15.6162 H   0  0  0  0  0
   10.9113   10.6993   19.5938 H   0  0  0  0  0
   12.4053    8.5526   19.8815 H   0  0  0  0  0
   13.6515    8.2171   17.5900 H   0  0  0  0  0
  1  2  1  0  0  0
  2  3  1  0  0  0
  2  4  1  0  0  0
  2  5  1  0  0  0
  5  6  2  0  0  0
  5  7  1  0  0  0
  7  8  1  0  0  0
  8  9  1  0  0  0
  8 13  1  0  0  0
  9 10  2  0  0  0
  9 11  1  0  0  0
 11 12  1  0  0  0
 13 14  4  0  0  0
 13 16  4  0  0  0
 14 15  4  0  0  0
 15 18  4  0  0  0
 16 17  4  0  0  0
 17 18  4  0  0  0
 18 19  1  0  0  0
 19 20  4  0  0  0
 19 23  4  0  0  0
 20 21  4  0  0  0
 21 22  4  0  0  0
 22 23  4  0  0  0
  1 24  1  0  0  0
  1 25  1  0  0  0
  1 26  1  0  0  0
  3 27  1  0  0  0
  3 28  1  0  0  0
  3 29  1  0  0  0
  4 30  1  0  0  0
  4 31  1  0  0  0
  4 32  1  0  0  0
  7 33  1  0  0  0
  8 34  1  0  0  0
 11 35  1  0  0  0
 12 36  1  0  0  0
 14 37  1  0  0  0
 15 38  1  0  0  0
 16 39  1  0  0  0
 17 40  1  0  0  0
 21 41  1  0  0  0
 22 42  1  0  0  0
 23 43  1  0  0  0
M  END
$$$$
