1n4h_ligand
  -I-interpret- 

 50 50  0  0  0  0  0  0  0  0999 V2000
   22.6760   32.3860    7.5850 C   0  0  0  0  0
   21.9060   33.5740    6.8750 C   0  0  0  0  0
   21.6370   33.4550    5.3740 C   0  0  0  0  0
   22.7900   32.9260    4.5060 C   0  0  0  0  0
   23.8910   32.0960    5.2550 C   0  0  0  0  0
   23.8620   31.8350    6.6380 C   0  0  0  0  0
   24.9190   31.0450    7.3340 C   0  0  0  0  0
   25.0460   29.7100    7.5730 C   0  0  0  0  0
   26.0800   29.0940    8.3970 C   0  0  0  0  0
   26.0660   27.7250    8.5310 C   0  0  0  0  0
   27.0510   27.0180    9.3290 C   0  0  0  0  0
   27.0700   25.6940    9.4400 C   0  0  0  0  0
   28.0570   24.9770   10.2420 C   0  0  0  0  0
   27.9510   23.6260   10.2240 C   0  0  0  0  0
   28.7050   22.5640   10.8700 C   0  0  0  0  0
   21.6500   31.2540    7.8880 C   0  0  0  0  0
   23.2350   32.9900    8.9100 C   0  0  0  0  0
   24.9480   31.6510    4.2340 C   0  0  0  0  0
   27.1570   29.9910    9.0840 C   0  0  0  0  0
   29.1590   25.7760   11.0430 C   0  0  0  0  0
   28.3770   21.4240   10.6260 O   0  0  0  0  0
   29.6410   22.7790   11.6280 O   0  0  0  0  0
   22.5509   34.4457    6.9863 H   0  0  0  0  0
   20.9229   33.6047    7.3447 H   0  0  0  0  0
   21.4374   34.4676    5.0235 H   0  0  0  0  0
   20.8273   32.7327    5.2704 H   0  0  0  0  0
   23.2928   33.8028    4.0979 H   0  0  0  0  0
   22.3400   32.2506    3.7783 H   0  0  0  0  0
   25.7406   31.6466    7.7227 H   0  0  0  0  0
   24.3146   29.0474    7.1103 H   0  0  0  0  0
   25.2905   27.1529    8.0217 H   0  0  0  0  0
   27.8067   27.5974    9.8594 H   0  0  0  0  0
   26.3139   25.1167    8.9078 H   0  0  0  0  0
   27.1356   23.2621    9.5988 H   0  0  0  0  0
   22.1399   30.4642    8.4575 H   0  0  0  0  0
   20.8219   31.6616    8.4678 H   0  0  0  0  0
   21.2727   30.8467    6.9500 H   0  0  0  0  0
   22.4133   33.4046    9.4939 H   0  0  0  0  0
   23.7313   32.2072    9.4836 H   0  0  0  0  0
   23.9497   33.7788    8.6751 H   0  0  0  0  0
   25.9190   32.0568    4.5179 H   0  0  0  0  0
   24.9988   30.5623    4.2166 H   0  0  0  0  0
   24.6739   32.0191    3.2453 H   0  0  0  0  0
   27.1048   29.8562   10.1644 H   0  0  0  0  0
   28.1468   29.7050    8.7283 H   0  0  0  0  0
   26.9688   31.0359    8.8374 H   0  0  0  0  0
   29.0703   25.5490   12.1054 H   0  0  0  0  0
   30.1475   25.4833   10.6889 H   0  0  0  0  0
   29.0171   26.8452   10.8856 H   0  0  0  0  0
   29.7704   23.7263   11.7142 H   0  0  0  0  0
  1  2  1  0  0  0
  1  6  1  0  0  0
  1 16  1  0  0  0
  1 17  1  0  0  0
  2  3  1  0  0  0
  3  4  1  0  0  0
  4  5  1  0  0  0
  5  6  2  0  0  0
  5 18  1  0  0  0
  6  7  1  0  0  0
  7  8  2  0  0  0
  8  9  1  0  0  0
  9 10  2  0  0  0
  9 19  1  0  0  0
 10 11  1  0  0  0
 11 12  2  0  0  0
 12 13  1  0  0  0
 13 14  2  0  0  0
 13 20  1  0  0  0
 14 15  1  0  0  0
 15 21  2  0  0  0
 15 22  1  0  0  0
  2 23  1  0  0  0
  2 24  1  0  0  0
  3 25  1  0  0  0
  3 26  1  0  0  0
  4 27  1  0  0  0
  4 28  1  0  0  0
  7 29  1  0  0  0
  8 30  1  0  0  0
 10 31  1  0  0  0
 11 32  1  0  0  0
 12 33  1  0  0  0
 14 34  1  0  0  0
 16 35  1  0  0  0
 16 36  1  0  0  0
 16 37  1  0  0  0
 17 38  1  0  0  0
 17 39  1  0  0  0
 17 40  1  0  0  0
 18 41  1  0  0  0
 18 42  1  0  0  0
 18 43  1  0  0  0
 19 44  1  0  0  0
 19 45  1  0  0  0
 19 46  1  0  0  0
 20 47  1  0  0  0
 20 48  1  0  0  0
 20 49  1  0  0  0
 22 50  1  0  0  0
M  END
$$$$
