4xbd_ligand
  -I-interpret- 

 57 58  0  0  0  0  0  0  0  0999 V2000
  -21.1340   18.8300  -34.3770 O   0  0  0  0  0
  -21.2420   20.0530  -34.5230 C   0  0  0  0  0
  -22.2000   20.5890  -35.3660 O   0  0  0  0  0
  -23.3030   19.8570  -35.8060 C   0  0  0  0  0
  -20.3150   21.0540  -33.9690 N   0  0  0  0  0
  -19.2640   20.5850  -33.1320 C   0  0  0  0  0
  -18.3930   21.7590  -32.7440 C   0  0  0  0  0
  -17.6850   22.5490  -33.8630 C   0  0  0  0  0
  -16.9990   23.7050  -33.1930 C   0  0  0  0  0
  -15.9970   24.4040  -34.0770 C   0  0  0  0  0
  -15.0620   23.4460  -34.7180 C   0  0  0  0  0
  -15.7750   22.3260  -35.4500 C   0  0  0  0  0
  -16.7480   21.6030  -34.5870 C   0  0  0  0  0
  -19.7660   19.9680  -31.8930 C   0  0  0  0  0
  -19.0660   18.8160  -31.4130 N   0  0  0  0  0
  -19.4260   18.1400  -30.1910 C   0  0  0  0  0
  -20.0140   16.8160  -30.5300 C   0  0  0  0  0
  -21.3070   16.8440  -31.4070 C   0  0  0  0  0
  -22.4280   17.5750  -30.7130 C   0  0  0  0  0
  -23.6900   16.8860  -31.2420 C   0  0  0  0  0
  -23.2600   15.5130  -31.5860 N   0  0  0  0  0
  -21.8230   15.4860  -31.6690 C   0  0  0  0  0
  -21.2180   14.4810  -31.9340 O   0  0  0  0  0
  -17.8110   19.2100  -28.7590 O   0  0  0  0  0
  -20.7190   20.4310  -31.2800 O   0  0  0  0  0
  -18.2050   17.9810  -29.3030 C   0  0  0  0  0
  -22.9600   18.9822  -36.3583 H   0  0  0  0  0
  -23.8919   19.5375  -34.9462 H   0  0  0  0  0
  -23.9159   20.4814  -36.4560 H   0  0  0  0  0
  -20.4222   22.0467  -34.1774 H   0  0  0  0  0
  -18.7110   19.8309  -33.6919 H   0  0  0  0  0
  -17.5897   21.3324  -32.1433 H   0  0  0  0  0
  -19.0691   22.4732  -32.2740 H   0  0  0  0  0
  -18.3577   22.9498  -34.6213 H   0  0  0  0  0
  -16.4582   23.3111  -32.3325 H   0  0  0  0  0
  -17.7662   24.4326  -32.9283 H   0  0  0  0  0
  -15.4152   25.0885  -33.4597 H   0  0  0  0  0
  -16.5412   24.9283  -34.8626 H   0  0  0  0  0
  -14.4551   22.9966  -33.9320 H   0  0  0  0  0
  -14.4697   23.9970  -35.4485 H   0  0  0  0  0
  -15.0225   21.6092  -35.7787 H   0  0  0  0  0
  -16.3273   22.7672  -36.2797 H   0  0  0  0  0
  -17.3480   20.9529  -35.2237 H   0  0  0  0  0
  -16.1868   21.0432  -33.8388 H   0  0  0  0  0
  -18.2807   18.4585  -31.9570 H   0  0  0  0  0
  -20.1623   18.7279  -29.6430 H   0  0  0  0  0
  -20.2965   16.3555  -29.5833 H   0  0  0  0  0
  -19.2603   16.2870  -31.1133 H   0  0  0  0  0
  -21.0157   17.3407  -32.3325 H   0  0  0  0  0
  -22.4192   18.6450  -30.9208 H   0  0  0  0  0
  -22.3494   17.5238  -29.6270 H   0  0  0  0  0
  -24.1041   17.4080  -32.1046 H   0  0  0  0  0
  -24.4906   16.8855  -30.5023 H   0  0  0  0  0
  -23.8792   14.7171  -31.7391 H   0  0  0  0  0
  -17.0390   19.0800  -28.2034 H   0  0  0  0  0
  -17.3856   17.5883  -29.9051 H   0  0  0  0  0
  -18.4543   17.3031  -28.4867 H   0  0  0  0  0
  1  2  2  0  0  0
  2  3  1  0  0  0
  2  5  1  0  0  0
  3  4  1  0  0  0
  5  6  1  0  0  0
  6  7  1  0  0  0
  6 14  1  0  0  0
  7  8  1  0  0  0
  8  9  1  0  0  0
  8 13  1  0  0  0
  9 10  1  0  0  0
 10 11  1  0  0  0
 11 12  1  0  0  0
 12 13  1  0  0  0
 14 15  1  0  0  0
 14 25  2  0  0  0
 15 16  1  0  0  0
 16 17  1  0  0  0
 16 26  1  0  0  0
 17 18  1  0  0  0
 18 19  1  0  0  0
 18 22  1  0  0  0
 19 20  1  0  0  0
 20 21  1  0  0  0
 21 22  1  0  0  0
 22 23  2  0  0  0
 26 24  1  0  0  0
  4 27  1  0  0  0
  4 28  1  0  0  0
  4 29  1  0  0  0
  5 30  1  0  0  0
  6 31  1  0  0  0
  7 32  1  0  0  0
  7 33  1  0  0  0
  8 34  1  0  0  0
  9 35  1  0  0  0
  9 36  1  0  0  0
 10 37  1  0  0  0
 10 38  1  0  0  0
 11 39  1  0  0  0
 11 40  1  0  0  0
 12 41  1  0  0  0
 12 42  1  0  0  0
 13 43  1  0  0  0
 13 44  1  0  0  0
 15 45  1  0  0  0
 16 46  1  0  0  0
 17 47  1  0  0  0
 17 48  1  0  0  0
 18 49  1  0  0  0
 19 50  1  0  0  0
 19 51  1  0  0  0
 20 52  1  0  0  0
 20 53  1  0  0  0
 21 54  1  0  0  0
 24 55  1  0  0  0
 26 56  1  0  0  0
 26 57  1  0  0  0
M  END
$$$$
