3el1_ligand
  -I-interpret- 

104106  0  0  0  0  0  0  0  0999 V2000
   21.4750   24.0530    8.9880 C   0  0  0  0  0
   21.1020   25.3620    9.4340 O   0  0  0  0  0
   21.6540   25.9040   10.6610 C   0  0  0  0  0
   21.8660   25.1620   11.6120 O   0  0  0  0  0
   21.8790   27.2110   10.5900 N   0  0  0  0  0
   22.4320   28.1380   11.5540 C   0  0  0  0  0
   23.9300   28.2660   11.7700 C   0  0  0  0  0
   24.4310   29.2030   10.6690 C   0  0  0  0  0
   24.6550   26.9290   11.6700 C   0  0  0  0  0
   24.2500   28.9120   13.1160 C   0  0  0  0  0
   21.4950   29.1090   12.2540 C   0  0  0  0  0
   21.3450   30.2100   11.7620 O   0  0  0  0  0
   20.8200   28.6540   13.3250 N   0  0  0  0  0
   19.6970   29.3480   13.9410 C   0  0  0  0  0
   18.4470   28.4750   13.8000 C   0  0  0  0  0
   18.1730   28.1730   12.3410 C   0  0  0  0  0
   18.5630   26.9530   11.7940 C   0  0  0  0  0
   18.3150   26.6700   10.4520 C   0  0  0  0  0
   17.6650   27.6040    9.6530 C   0  0  0  0  0
   17.2720   28.8230   10.1950 C   0  0  0  0  0
   17.5190   29.1060   11.5380 C   0  0  0  0  0
   19.9610   29.6870   15.4110 C   0  0  0  0  0
   20.2070   28.4870   16.1560 O   0  0  0  0  0
   21.1580   30.5960   15.6350 C   0  0  0  0  0
   20.9710   31.9840   15.1870 N   0  3  0  0  0
   19.9490   32.6100   15.9460 N   0  0  0  0  0
   18.9190   33.2460   15.3720 C   0  0  0  0  0
   18.7720   33.3410   14.1660 O   0  0  0  0  0
   17.9580   33.9140   16.3200 C   0  0  0  0  0
   16.5160   33.9850   15.8090 C   0  0  0  0  0
   16.3870   34.8830   14.5860 C   0  0  0  0  0
   16.0200   32.5850   15.4520 C   0  0  0  0  0
   15.6310   34.5710   16.9140 C   0  0  0  0  0
   18.4860   35.2380   16.5560 N   0  0  0  0  0
   18.5690   35.8170   17.7480 C   0  0  0  0  0
   18.1830   35.3140   18.8020 O   0  0  0  0  0
   19.1720   37.1370   17.7390 O   0  0  0  0  0
   19.6090   37.7430   18.9590 C   0  0  0  0  0
   22.2880   32.6520   15.3510 C   0  0  0  0  0
   22.2310   34.1030   15.7800 C   0  0  0  0  0
   22.1840   35.1100   14.8210 C   0  0  0  0  0
   22.1480   36.4470   15.2070 C   0  0  0  0  0
   22.2600   34.4410   17.1290 C   0  0  0  0  0
   22.2210   35.7770   17.5170 C   0  0  0  0  0
   22.1610   36.7870   16.5570 C   0  0  0  0  0
   22.1340   38.2140   16.9910 C   0  0  0  0  0
   21.3560   39.1580   16.3270 C   0  0  0  0  0
   21.3680   40.4780   16.7660 C   0  0  0  0  0
   22.1510   40.8260   17.8610 C   0  0  0  0  0
   22.9130   39.8500   18.4980 C   0  0  0  0  0
   22.8900   38.5860   18.0540 N   0  0  0  0  0
   22.5524   24.0190    8.8261 H   0  0  0  0  0
   21.1967   23.3197    9.7449 H   0  0  0  0  0
   20.9588   23.8277    8.0548 H   0  0  0  0  0
   21.6161   27.6356    9.7006 H   0  0  0  0  0
   22.5596   27.2798   12.2137 H   0  0  0  0  0
   25.5029   29.3610   10.7880 H   0  0  0  0  0
   24.2344   28.7549    9.6950 H   0  0  0  0  0
   23.9113   30.1583   10.7424 H   0  0  0  0  0
   24.4583   26.4825   10.6953 H   0  0  0  0  0
   25.7267   27.0886   11.7883 H   0  0  0  0  0
   24.2966   26.2632   12.4551 H   0  0  0  0  0
   25.3272   29.0549   13.2020 H   0  0  0  0  0
   23.7477   29.8770   13.1830 H   0  0  0  0  0
   23.9028   28.2636   13.9204 H   0  0  0  0  0
   21.1134   27.7659   13.7320 H   0  0  0  0  0
   19.5508   30.2988   13.4284 H   0  0  0  0  0
   17.5933   29.0086   14.2177 H   0  0  0  0  0
   18.6080   27.5372   14.3317 H   0  0  0  0  0
   19.0653   26.2149   12.4193 H   0  0  0  0  0
   18.6306   25.7164   10.0288 H   0  0  0  0  0
   17.4641   27.3815    8.6050 H   0  0  0  0  0
   16.7693   29.5595    9.5681 H   0  0  0  0  0
   17.2000   30.0587   11.9607 H   0  0  0  0  0
   19.0652   30.2109   15.7443 H   0  0  0  0  0
   20.3711   28.7103   17.0751 H   0  0  0  0  0
   21.9817   30.1837   15.0522 H   0  0  0  0  0
   21.3315   30.6314   16.7105 H   0  0  0  0  0
   20.6707   32.0384   14.2137 H   0  0  0  0  0
   20.0001   32.5747   16.9641 H   0  0  0  0  0
   17.8873   33.3217   17.2323 H   0  0  0  0  0
   16.7076   35.8927   14.8427 H   0  0  0  0  0
   17.0141   34.4943   13.7836 H   0  0  0  0  0
   15.3473   34.9026   14.2593 H   0  0  0  0  0
   16.6567   32.1626   14.6746 H   0  0  0  0  0
   16.0568   31.9510   16.3379 H   0  0  0  0  0
   14.9938   32.6459   15.0897 H   0  0  0  0  0
   15.6809   33.9314   17.7952 H   0  0  0  0  0
   15.9837   35.5705   17.1685 H   0  0  0  0  0
   14.6010   34.6265   16.5617 H   0  0  0  0  0
   18.8188   35.7657   15.7491 H   0  0  0  0  0
   18.7602   37.8500   19.6345 H   0  0  0  0  0
   20.3681   37.1140   19.4241 H   0  0  0  0  0
   20.0305   38.7251   18.7447 H   0  0  0  0  0
   22.7696   32.6351   14.3733 H   0  0  0  0  0
   22.8136   32.1144   16.1402 H   0  0  0  0  0
   22.1753   34.8507   13.7623 H   0  0  0  0  0
   22.1095   37.2302   14.4499 H   0  0  0  0  0
   22.3134   33.6571   17.8845 H   0  0  0  0  0
   22.2374   36.0352   18.5759 H   0  0  0  0  0
   20.7445   38.8664   15.4731 H   0  0  0  0  0
   20.7690   41.2326   16.2562 H   0  0  0  0  0
   22.1682   41.8556   18.2183 H   0  0  0  0  0
   23.5283   40.1143   19.3580 H   0  0  0  0  0
  1  2  1  0  0  0
  2  3  1  0  0  0
  3  4  2  0  0  0
  3  5  1  0  0  0
  5  6  1  0  0  0
  6  7  1  0  0  0
  6 11  1  0  0  0
  7  8  1  0  0  0
  7  9  1  0  0  0
  7 10  1  0  0  0
 11 12  2  0  0  0
 11 13  1  0  0  0
 13 14  1  0  0  0
 14 15  1  0  0  0
 14 22  1  0  0  0
 15 16  1  0  0  0
 16 17  4  0  0  0
 16 21  4  0  0  0
 17 18  4  0  0  0
 18 19  4  0  0  0
 19 20  4  0  0  0
 20 21  4  0  0  0
 22 23  1  0  0  0
 22 24  1  0  0  0
 24 25  1  0  0  0
 25 26  1  0  0  0
 25 39  1  0  0  0
 26 27  1  0  0  0
 27 28  2  0  0  0
 27 29  1  0  0  0
 29 30  1  0  0  0
 29 34  1  0  0  0
 30 31  1  0  0  0
 30 32  1  0  0  0
 30 33  1  0  0  0
 34 35  1  0  0  0
 35 36  2  0  0  0
 35 37  1  0  0  0
 37 38  1  0  0  0
 39 40  1  0  0  0
 40 41  4  0  0  0
 40 43  4  0  0  0
 41 42  4  0  0  0
 42 45  4  0  0  0
 43 44  4  0  0  0
 44 45  4  0  0  0
 45 46  1  0  0  0
 46 47  4  0  0  0
 46 51  4  0  0  0
 47 48  4  0  0  0
 48 49  4  0  0  0
 49 50  4  0  0  0
 50 51  4  0  0  0
  1 52  1  0  0  0
  1 53  1  0  0  0
  1 54  1  0  0  0
  5 55  1  0  0  0
  6 56  1  0  0  0
  8 57  1  0  0  0
  8 58  1  0  0  0
  8 59  1  0  0  0
  9 60  1  0  0  0
  9 61  1  0  0  0
  9 62  1  0  0  0
 10 63  1  0  0  0
 10 64  1  0  0  0
 10 65  1  0  0  0
 13 66  1  0  0  0
 14 67  1  0  0  0
 15 68  1  0  0  0
 15 69  1  0  0  0
 17 70  1  0  0  0
 18 71  1  0  0  0
 19 72  1  0  0  0
 20 73  1  0  0  0
 21 74  1  0  0  0
 22 75  1  0  0  0
 23 76  1  0  0  0
 24 77  1  0  0  0
 24 78  1  0  0  0
 25 79  1  0  0  0
 26 80  1  0  0  0
 29 81  1  0  0  0
 31 82  1  0  0  0
 31 83  1  0  0  0
 31 84  1  0  0  0
 32 85  1  0  0  0
 32 86  1  0  0  0
 32 87  1  0  0  0
 33 88  1  0  0  0
 33 89  1  0  0  0
 33 90  1  0  0  0
 34 91  1  0  0  0
 38 92  1  0  0  0
 38 93  1  0  0  0
 38 94  1  0  0  0
 39 95  1  0  0  0
 39 96  1  0  0  0
 41 97  1  0  0  0
 42 98  1  0  0  0
 43 99  1  0  0  0
 44100  1  0  0  0
 47101  1  0  0  0
 48102  1  0  0  0
 49103  1  0  0  0
 50104  1  0  0  0
M  END
$$$$
