4jt9_ligand
  -I-interpret- 

 46 48  0  0  0  0  0  0  0  0999 V2000
   25.3710   48.3880  -12.9830 C   0  0  0  0  0
   25.1120   47.8130  -14.6100 S   0  0  0  0  0
   25.5350   46.2060  -14.8120 N   0  0  0  0  0
   24.5380   45.2740  -14.5540 C   0  0  0  0  0
   24.9100   44.3190  -13.4170 C   0  0  0  0  0
   24.4930   44.9190  -12.0900 C   0  0  0  0  0
   23.3580   44.1370  -11.5840 C   0  0  0  0  0
   22.9100   44.7520  -10.3010 C   0  0  0  0  0
   24.0420   44.8620   -9.3810 N   0  0  0  0  0
   24.3440   44.2040   -8.1130 C   0  0  0  0  0
   23.6990   43.0050   -7.7600 C   0  0  0  0  0
   24.0090   42.4130   -6.5080 C   0  0  0  0  0
   23.2530   41.1230   -6.2430 C   0  0  0  0  0
   22.4230   40.8320   -7.3710 C   0  0  0  0  0
   21.5560   39.7110   -7.5090 C   0  0  0  0  0
   21.2030   38.9470   -6.3380 N   0  0  0  0  0
   21.0900   39.4320   -8.6170 O   0  0  0  0  0
   22.6080   42.0260   -8.5590 S   0  0  0  0  0
   24.9030   43.0550   -5.6870 N   0  0  0  0  0
   25.4960   44.2020   -6.0290 C   0  0  0  0  0
   25.2090   44.7900   -7.2300 N   0  0  0  0  0
   25.1870   45.6250   -9.8250 C   0  0  0  0  0
   25.6410   45.0860  -11.1540 C   0  0  0  0  0
   23.8920   48.1640  -15.1430 O   0  0  0  0  0
   26.0240   48.5720  -15.5770 O   0  0  0  0  0
   25.3162   49.4765  -12.9707 H   0  0  0  0  0
   24.6036   47.9768  -12.3272 H   0  0  0  0  0
   26.3545   48.0686  -12.6384 H   0  0  0  0  0
   26.4707   45.9274  -15.1074 H   0  0  0  0  0
   24.3894   44.6812  -15.4566 H   0  0  0  0  0
   23.6393   45.8154  -14.2586 H   0  0  0  0  0
   25.9881   44.1581  -13.4182 H   0  0  0  0  0
   24.3969   43.3682  -13.5610 H   0  0  0  0  0
   24.1502   45.9465  -12.2115 H   0  0  0  0  0
   23.6569   43.1015  -11.4211 H   0  0  0  0  0
   22.5439   44.1426  -12.3088 H   0  0  0  0  0
   22.1400   44.1253   -9.8510 H   0  0  0  0  0
   22.5092   45.7461  -10.4990 H   0  0  0  0  0
   23.3303   40.5173   -5.3401 H   0  0  0  0  0
   20.5579   38.1609   -6.4173 H   0  0  0  0  0
   21.5984   39.1927   -5.4304 H   0  0  0  0  0
   26.2092   44.6698   -5.3503 H   0  0  0  0  0
   25.9932   45.5401   -9.0964 H   0  0  0  0  0
   24.9150   46.6757   -9.9253 H   0  0  0  0  0
   26.3469   45.7915  -11.5923 H   0  0  0  0  0
   26.1036   44.1120  -10.9943 H   0  0  0  0  0
  1  2  1  0  0  0
  2  3  1  0  0  0
  2 24  2  0  0  0
  2 25  2  0  0  0
  3  4  1  0  0  0
  4  5  1  0  0  0
  5  6  1  0  0  0
  6  7  1  0  0  0
  6 23  1  0  0  0
  7  8  1  0  0  0
  8  9  1  0  0  0
  9 10  1  0  0  0
  9 22  1  0  0  0
 10 11  4  0  0  0
 10 21  4  0  0  0
 11 12  4  0  0  0
 11 18  4  0  0  0
 12 13  4  0  0  0
 12 19  4  0  0  0
 13 14  4  0  0  0
 14 15  1  0  0  0
 14 18  4  0  0  0
 15 16  1  0  0  0
 15 17  2  0  0  0
 19 20  4  0  0  0
 20 21  4  0  0  0
 22 23  1  0  0  0
  1 26  1  0  0  0
  1 27  1  0  0  0
  1 28  1  0  0  0
  3 29  1  0  0  0
  4 30  1  0  0  0
  4 31  1  0  0  0
  5 32  1  0  0  0
  5 33  1  0  0  0
  6 34  1  0  0  0
  7 35  1  0  0  0
  7 36  1  0  0  0
  8 37  1  0  0  0
  8 38  1  0  0  0
 13 39  1  0  0  0
 16 40  1  0  0  0
 16 41  1  0  0  0
 20 42  1  0  0  0
 22 43  1  0  0  0
 22 44  1  0  0  0
 23 45  1  0  0  0
 23 46  1  0  0  0
M  END
$$$$
