5c1x_ligand
  -I-interpret- 

 61 63  0  0  0  0  0  0  0  0999 V2000
   21.0610  -13.4380   34.7870 O   0  0  0  0  0
   22.2300  -13.6570   35.0680 C   0  0  0  0  0
   22.7640  -14.7950   35.3330 N   0  0  0  0  0
   24.1930  -14.7450   35.6080 C   0  0  0  0  0
   24.5440  -13.2800   35.2220 C   0  0  0  0  0
   23.2040  -12.5400   35.1780 C   0  0  0  0  0
   22.9840  -11.5960   33.9750 C   0  0  0  0  0
   23.8860  -10.3920   33.9110 C   0  0  0  0  0
   23.5920   -9.4880   32.6890 C   0  0  0  0  0
   24.6110   -8.5500   32.8840 O   0  0  0  0  0
   23.7810   -9.5740   35.1300 N   0  0  0  0  0
   24.7490   -9.6360   36.0740 C   0  0  0  0  0
   25.7170  -10.3720   36.0040 O   0  0  0  0  0
   24.5720   -8.7360   37.2390 C   0  0  0  0  0
   25.4130   -7.4760   36.9640 C   0  0  0  0  0
   25.2230   -6.2740   37.8660 C   0  0  0  0  0
   26.3400   -5.6570   38.4050 C   0  0  0  0  0
   26.2170   -4.5470   39.2180 C   0  0  0  0  0
   24.9660   -4.0270   39.5190 C   0  0  0  0  0
   23.8420   -4.6180   38.9680 C   0  0  0  0  0
   23.9770   -5.7390   38.1160 C   0  0  0  0  0
   25.0040   -9.3240   38.5030 N   0  0  0  0  0
   24.4310  -10.4290   38.9400 C   0  0  0  0  0
   23.5540  -11.0440   38.3300 O   0  0  0  0  0
   24.9020  -10.9760   40.2280 O   0  0  0  0  0
   24.4350  -12.2880   40.6150 C   0  0  0  0  0
   23.2460  -12.2070   41.5860 C   0  0  0  0  0
   22.0380  -11.6370   41.2130 C   0  0  0  0  0
   20.9490  -11.5550   42.0920 C   0  0  0  0  0
   21.0490  -12.0450   43.3890 C   0  0  0  0  0
   22.2490  -12.6450   43.7690 C   0  0  0  0  0
   23.3360  -12.7190   42.8850 C   0  0  0  0  0
   22.2298  -15.6638   35.3494 H   0  0  0  0  0
   24.7662  -15.4874   35.0527 H   0  0  0  0  0
   24.4435  -14.9920   36.6397 H   0  0  0  0  0
   25.0604  -13.2310   34.2633 H   0  0  0  0  0
   25.2274  -12.8289   35.9414 H   0  0  0  0  0
   23.1228  -11.8839   36.0446 H   0  0  0  0  0
   21.9674  -11.2137   34.0665 H   0  0  0  0  0
   23.1925  -12.1839   33.0811 H   0  0  0  0  0
   24.8958  -10.7912   33.8154 H   0  0  0  0  0
   22.5829   -9.0785   32.6431 H   0  0  0  0  0
   23.6000   -9.9921   31.7226 H   0  0  0  0  0
   24.5741   -7.8898   32.1880 H   0  0  0  0  0
   22.9778   -8.9596   35.2636 H   0  0  0  0  0
   23.5083   -8.5242   37.3477 H   0  0  0  0  0
   25.1102   -7.1404   35.9721 H   0  0  0  0  0
   26.4479   -7.7845   37.1121 H   0  0  0  0  0
   27.3311   -6.0534   38.1842 H   0  0  0  0  0
   27.1106   -4.0753   39.6268 H   0  0  0  0  0
   24.8699   -3.1655   40.1798 H   0  0  0  0  0
   22.8523   -4.2193   39.1908 H   0  0  0  0  0
   23.0934   -6.1812   37.6557 H   0  0  0  0  0
   25.7458   -8.8824   39.0462 H   0  0  0  0  0
   25.2514  -12.8085   41.1156 H   0  0  0  0  0
   24.1095  -12.8143   39.7177 H   0  0  0  0  0
   21.9318  -11.2398   40.2035 H   0  0  0  0  0
   20.0159  -11.1031   41.7555 H   0  0  0  0  0
   20.2158  -11.9628   44.0869 H   0  0  0  0  0
   22.3443  -13.0640   44.7707 H   0  0  0  0  0
   24.2654  -13.1828   43.2155 H   0  0  0  0  0
  1  2  2  0  0  0
  2  3  1  0  0  0
  2  6  1  0  0  0
  3  4  1  0  0  0
  4  5  1  0  0  0
  5  6  1  0  0  0
  6  7  1  0  0  0
  7  8  1  0  0  0
  8  9  1  0  0  0
  8 11  1  0  0  0
  9 10  1  0  0  0
 11 12  1  0  0  0
 12 13  2  0  0  0
 12 14  1  0  0  0
 14 15  1  0  0  0
 14 22  1  0  0  0
 15 16  1  0  0  0
 16 17  4  0  0  0
 16 21  4  0  0  0
 17 18  4  0  0  0
 18 19  4  0  0  0
 19 20  4  0  0  0
 20 21  4  0  0  0
 22 23  1  0  0  0
 23 24  2  0  0  0
 23 25  1  0  0  0
 25 26  1  0  0  0
 26 27  1  0  0  0
 27 28  4  0  0  0
 27 32  4  0  0  0
 28 29  4  0  0  0
 29 30  4  0  0  0
 30 31  4  0  0  0
 31 32  4  0  0  0
  3 33  1  0  0  0
  4 34  1  0  0  0
  4 35  1  0  0  0
  5 36  1  0  0  0
  5 37  1  0  0  0
  6 38  1  0  0  0
  7 39  1  0  0  0
  7 40  1  0  0  0
  8 41  1  0  0  0
  9 42  1  0  0  0
  9 43  1  0  0  0
 10 44  1  0  0  0
 11 45  1  0  0  0
 14 46  1  0  0  0
 15 47  1  0  0  0
 15 48  1  0  0  0
 17 49  1  0  0  0
 18 50  1  0  0  0
 19 51  1  0  0  0
 20 52  1  0  0  0
 21 53  1  0  0  0
 22 54  1  0  0  0
 26 55  1  0  0  0
 26 56  1  0  0  0
 28 57  1  0  0  0
 29 58  1  0  0  0
 30 59  1  0  0  0
 31 60  1  0  0  0
 32 61  1  0  0  0
M  END
$$$$
