5nki_ligand
  -I-interpret- 

 56 59  0  0  0  0  0  0  0  0999 V2000
  -93.3620  -13.5980   43.1500 C   0  0  0  0  0
  -92.3680  -12.7770   42.3400 C   0  0  0  0  0
  -92.5600  -13.0290   40.9360 O   0  0  0  0  0
  -93.8170  -12.4440   40.5440 C   0  0  0  0  0
  -94.9750  -13.1850   41.2110 C   0  0  0  0  0
  -94.7430  -13.4200   42.6490 N   0  0  0  0  0
  -95.7690  -13.4620   43.5220 C   0  0  0  0  0
  -97.0910  -13.4690   43.0800 C   0  0  0  0  0
  -95.5000  -13.4890   44.8870 C   0  0  0  0  0
  -96.5520  -13.5220   45.7890 C   0  0  0  0  0
  -96.2860  -13.5620   47.5090 S   0  0  0  0  0
  -94.7950  -13.4310   47.8140 O   0  0  0  0  0
  -97.0750  -12.4180   48.1490 O   0  0  0  0  0
  -96.8840  -15.1120   48.1460 C   0  0  0  0  0
  -97.8610  -13.5250   45.3320 C   0  0  0  0  0
  -98.1590  -13.5210   43.9710 C   0  0  0  0  0
  -99.4260  -13.5140   43.4690 N   0  0  0  0  0
 -100.5030  -14.0250   44.0950 C   0  0  0  0  0
 -100.6110  -14.7590   45.6150 S   0  0  0  0  0
 -101.7430  -14.0460   43.5540 N   0  0  0  0  0
 -102.6890  -14.6030   44.3520 C   0  0  0  0  0
 -102.2290  -15.0660   45.5290 C   0  0  0  0  0
 -102.9170  -15.6740   46.5240 C   0  0  0  0  0
 -102.3590  -15.8840   47.5980 O   0  0  0  0  0
 -104.1870  -16.0630   46.2870 N   0  0  0  0  0
 -104.8790  -16.6890   47.2820 C   0  0  0  0  0
 -105.3930  -15.9590   48.3600 C   0  0  0  0  0
 -105.1750  -14.2480   48.5200 Cl  0  0  0  0  0
 -106.1100  -16.6260   49.3540 C   0  0  0  0  0
 -106.3180  -18.0000   49.2850 C   0  0  0  0  0
 -105.8070  -18.7190   48.2110 C   0  0  0  0  0
 -105.0870  -18.0690   47.2070 C   0  0  0  0  0
 -104.5950  -18.8170   46.1410 C   0  0  0  0  0
  -93.3238  -13.2638   44.1868 H   0  0  0  0  0
  -93.0946  -14.6510   43.0621 H   0  0  0  0  0
  -91.3532  -13.0579   42.6218 H   0  0  0  0  0
  -92.5258  -11.7175   42.5416 H   0  0  0  0  0
  -93.9226  -12.5177   39.4616 H   0  0  0  0  0
  -93.8363  -11.3992   40.8540 H   0  0  0  0  0
  -95.0780  -14.1549   40.7244 H   0  0  0  0  0
  -95.8694  -12.5701   41.1111 H   0  0  0  0  0
  -97.2935  -13.4328   42.0096 H   0  0  0  0  0
  -94.4702  -13.4842   45.2441 H   0  0  0  0  0
  -96.3414  -15.9310   47.6738 H   0  0  0  0  0
  -96.7277  -15.1448   49.2242 H   0  0  0  0  0
  -97.9480  -15.2064   47.9288 H   0  0  0  0  0
  -98.6767  -13.5306   46.0550 H   0  0  0  0  0
  -99.5688  -13.0907   42.5520 H   0  0  0  0  0
 -103.7378  -14.6700   44.0627 H   0  0  0  0  0
 -104.6218  -15.8921   45.3803 H   0  0  0  0  0
 -106.5126  -16.0630   50.1960 H   0  0  0  0  0
 -106.8785  -18.5096   50.0688 H   0  0  0  0  0
 -105.9691  -19.7953   48.1523 H   0  0  0  0  0
 -105.0248  -18.4470   45.2102 H   0  0  0  0  0
 -103.5096  -18.7239   46.1038 H   0  0  0  0  0
 -104.8667  -19.8638   46.2773 H   0  0  0  0  0
  1  2  1  0  0  0
  1  6  1  0  0  0
  2  3  1  0  0  0
  3  4  1  0  0  0
  4  5  1  0  0  0
  5  6  1  0  0  0
  6  7  1  0  0  0
  7  8  4  0  0  0
  7  9  4  0  0  0
  8 16  4  0  0  0
  9 10  4  0  0  0
 10 11  1  0  0  0
 10 15  4  0  0  0
 11 12  2  0  0  0
 11 13  2  0  0  0
 11 14  1  0  0  0
 15 16  4  0  0  0
 16 17  1  0  0  0
 17 18  1  0  0  0
 18 19  4  0  0  0
 18 20  4  0  0  0
 19 22  4  0  0  0
 20 21  4  0  0  0
 21 22  4  0  0  0
 22 23  1  0  0  0
 23 24  2  0  0  0
 23 25  1  0  0  0
 25 26  1  0  0  0
 26 27  4  0  0  0
 26 32  4  0  0  0
 27 28  1  0  0  0
 27 29  4  0  0  0
 29 30  4  0  0  0
 30 31  4  0  0  0
 31 32  4  0  0  0
 32 33  1  0  0  0
  1 34  1  0  0  0
  1 35  1  0  0  0
  2 36  1  0  0  0
  2 37  1  0  0  0
  4 38  1  0  0  0
  4 39  1  0  0  0
  5 40  1  0  0  0
  5 41  1  0  0  0
  8 42  1  0  0  0
  9 43  1  0  0  0
 14 44  1  0  0  0
 14 45  1  0  0  0
 14 46  1  0  0  0
 15 47  1  0  0  0
 17 48  1  0  0  0
 21 49  1  0  0  0
 25 50  1  0  0  0
 29 51  1  0  0  0
 30 52  1  0  0  0
 31 53  1  0  0  0
 33 54  1  0  0  0
 33 55  1  0  0  0
 33 56  1  0  0  0
M  END
$$$$
