3umo_ligand
  -I-interpret- 

 47 49  0  0  0  0  0  0  0  0999 V2000
    8.5350  -15.7940   16.2410 P   0  0  0  0  0
    9.3870  -15.6450   17.4520 O   0  0  0  0  0
    7.1210  -15.4710   16.7160 O   0  0  0  0  0
    8.9430  -14.9080   15.1150 O   0  0  0  0  0
    9.7960  -18.1030   15.4680 P   0  0  0  0  0
   10.5590  -17.4840   14.2570 O   0  0  0  0  0
   10.6700  -18.3090   16.7230 O   0  0  0  0  0
    8.4680  -17.2890   15.8110 O   0  0  0  0  0
    8.5400  -20.1130   13.8340 P   0  0  0  0  0
    8.4220  -19.0650   12.7670 O   0  0  0  0  0
    9.2260  -21.3940   13.3550 O   0  0  0  0  0
    9.2820  -19.5560   15.0790 O   0  0  0  0  0
    7.0550  -20.4120   14.3760 O   0  0  0  0  0
    6.8500  -21.4700   15.2490 C   0  0  0  0  0
    5.8050  -22.4310   14.9010 C   0  0  0  0  0
    4.6290  -21.6910   14.5070 O   0  0  0  0  0
    6.1360  -23.2160   13.7010 C   0  0  0  0  0
    6.9130  -24.3120   14.0060 O   0  0  0  0  0
    4.8090  -23.5720   13.1700 C   0  0  0  0  0
    4.2390  -24.5510   13.9390 O   0  0  0  0  0
    4.0510  -22.3190   13.3860 C   0  0  0  0  0
    4.1210  -21.4380   12.2220 N   0  0  0  0  0
    4.9450  -20.3850   12.0690 C   0  0  0  0  0
    4.6950  -19.8410   10.8520 N   0  0  0  0  0
    3.7200  -20.5480   10.2440 C   0  0  0  0  0
    3.0700  -20.4410    9.0100 C   0  0  0  0  0
    3.4270  -19.3580    8.0340 N   0  0  0  0  0
    2.1150  -21.3380    8.7090 N   0  0  0  0  0
    1.7810  -22.3180    9.5660 C   0  0  0  0  0
    2.3840  -22.4390   10.7520 N   0  0  0  0  0
    3.3470  -21.5740   11.1160 C   0  0  0  0  0
    6.5114  -15.5480   15.9784 H   0  0  0  0  0
    8.3572  -15.0514   14.3681 H   0  0  0  0  0
    9.9558  -17.3854   13.5167 H   0  0  0  0  0
    9.2707  -22.0219   14.0798 H   0  0  0  0  0
    6.5361  -21.0198   16.1907 H   0  0  0  0  0
    7.7821  -22.0351   15.2529 H   0  0  0  0  0
    5.6770  -23.0797   15.7676 H   0  0  0  0  0
    6.7403  -22.6741   12.9735 H   0  0  0  0  0
    7.1083  -24.7982   13.2016 H   0  0  0  0  0
    4.8355  -23.9314   12.1413 H   0  0  0  0  0
    3.3757  -24.7739   13.5831 H   0  0  0  0  0
    2.9954  -22.5389   13.5456 H   0  0  0  0  0
    5.6804  -20.0330   12.7924 H   0  0  0  0  0
    4.1556  -18.6828    8.2655 H   0  0  0  0  0
    2.9410  -19.2973    7.1393 H   0  0  0  0  0
    1.0025  -23.0284    9.2878 H   0  0  0  0  0
  1  2  2  0  0  0
  1  3  1  0  0  0
  1  4  1  0  0  0
  8  1  1  0  0  0
  5  6  1  0  0  0
  5  7  2  0  0  0
  5  8  1  0  0  0
 12  5  1  0  0  0
  9 10  2  0  0  0
  9 11  1  0  0  0
  9 12  1  0  0  0
  9 13  1  0  0  0
 13 14  1  0  0  0
 14 15  1  0  0  0
 15 16  1  0  0  0
 15 17  1  0  0  0
 16 21  1  0  0  0
 17 18  1  0  0  0
 17 19  1  0  0  0
 19 20  1  0  0  0
 19 21  1  0  0  0
 21 22  1  0  0  0
 22 23  4  0  0  0
 22 31  4  0  0  0
 23 24  4  0  0  0
 24 25  4  0  0  0
 25 26  4  0  0  0
 25 31  4  0  0  0
 26 27  1  0  0  0
 26 28  4  0  0  0
 28 29  4  0  0  0
 29 30  4  0  0  0
 30 31  4  0  0  0
  3 32  1  0  0  0
  4 33  1  0  0  0
  6 34  1  0  0  0
 11 35  1  0  0  0
 14 36  1  0  0  0
 14 37  1  0  0  0
 15 38  1  0  0  0
 17 39  1  0  0  0
 18 40  1  0  0  0
 19 41  1  0  0  0
 20 42  1  0  0  0
 21 43  1  0  0  0
 23 44  1  0  0  0
 27 45  1  0  0  0
 27 46  1  0  0  0
 29 47  1  0  0  0
M  END
$$$$
