### 
### Created by X-TOOL on Mon Sep 10 21:13:09 2018
### 

@<TRIPOS>MOLECULE
3umo_ligand
   43    45     1     0     0
SMALL
GAST_HUCK


@<TRIPOS>ATOM
      1 PG          8.5350  -15.7940   16.2410 P.3       1 ATP         0.1879
      2 O1G         9.3870  -15.6450   17.4520 O.co2     1 ATP        -0.6091
      3 O2G         7.1210  -15.4710   16.7160 O.co2     1 ATP        -0.6091
      4 O3G         8.9430  -14.9080   15.1150 O.co2     1 ATP        -0.6091
      5 PB          9.7960  -18.1030   15.4680 P.3       1 ATP         0.3553
      6 O1B        10.5590  -17.4840   14.2570 O.co2     1 ATP        -0.5652
      7 O2B        10.6700  -18.3090   16.7230 O.co2     1 ATP        -0.5652
      8 O3B         8.4680  -17.2890   15.8110 O.3       1 ATP        -0.1546
      9 PA          8.5400  -20.1130   13.8340 P.3       1 ATP         0.3266
     10 O1A         8.4220  -19.0650   12.7670 O.co2     1 ATP        -0.5692
     11 O2A         9.2260  -21.3940   13.3550 O.co2     1 ATP        -0.5692
     12 O3A         9.2820  -19.5560   15.0790 O.3       1 ATP        -0.1171
     13 O5'         7.0550  -20.4120   14.3760 O.3       1 ATP        -0.2441
     14 C5'         6.8500  -21.4700   15.2490 C.3       1 ATP         0.1131
     15 C4'         5.8050  -22.4310   14.9010 C.3       1 ATP         0.1189
     16 O4'         4.6290  -21.6910   14.5070 O.3       1 ATP        -0.3364
     17 C3'         6.1360  -23.2160   13.7010 C.3       1 ATP         0.1149
     18 O3'         6.9130  -24.3120   14.0060 O.3       1 ATP        -0.3864
     19 C2'         4.8090  -23.5720   13.1700 C.3       1 ATP         0.1385
     20 O2'         4.2390  -24.5510   13.9390 O.3       1 ATP        -0.3836
     21 C1'         4.0510  -22.3190   13.3860 C.3       1 ATP         0.2010
     22 N9          4.1210  -21.4380   12.2220 N.pl3     1 ATP        -0.1919
     23 C8          4.9450  -20.3850   12.0690 C.2       1 ATP         0.1123
     24 N7          4.6950  -19.8410   10.8520 N.2       1 ATP        -0.2958
     25 C5          3.7200  -20.5480   10.2440 C.ar      1 ATP         0.1045
     26 C6          3.0700  -20.4410    9.0100 C.ar      1 ATP         0.1298
     27 N6          3.4270  -19.3580    8.0340 N.pl3     1 ATP        -0.3152
     28 N1          2.1150  -21.3380    8.7090 N.ar      1 ATP        -0.2698
     29 C2          1.7810  -22.3180    9.5660 C.ar      1 ATP         0.0533
     30 N3          2.3840  -22.4390   10.7520 N.ar      1 ATP        -0.2714
     31 C4          3.3470  -21.5740   11.1160 C.ar      1 ATP         0.1613
     32 H1          6.5943  -21.0443   16.2305 H         1 ATP         0.0648
     33 H2          7.7970  -22.0243   15.3252 H         1 ATP         0.0648
     34 H3          5.6032  -23.0918   15.7569 H         1 ATP         0.0651
     35 H4          6.6809  -22.5959   12.9740 H         1 ATP         0.0648
     36 H5          7.1062  -24.7931   13.2101 H         1 ATP         0.2100
     37 H6          4.8475  -23.8707   12.1120 H         1 ATP         0.0676
     38 H7          3.3847  -24.7716   13.5868 H         1 ATP         0.2101
     39 H8          2.9965  -22.5556   13.5908 H         1 ATP         0.0996
     40 H9          5.6797  -20.0333   12.7918 H         1 ATP         0.1349
     41 H10         2.9362  -19.2967    7.1305 H         1 ATP         0.1820
     42 H11         4.1627  -18.6761    8.2677 H         1 ATP         0.1820
     43 H12         1.0068  -23.0244    9.2893 H         1 ATP         0.0996
@<TRIPOS>BOND
     1    1    2 ar 
     2    1    3 ar 
     3    1    4 ar 
     4    8    1 1  
     5    5    6 ar 
     6    5    7 ar 
     7    5    8 1  
     8   12    5 1  
     9    9   10 ar 
    10    9   11 ar 
    11    9   12 1  
    12    9   13 1  
    13   13   14 1  
    14   14   15 1  
    15   15   16 1  
    16   15   17 1  
    17   16   21 1  
    18   17   18 1  
    19   17   19 1  
    20   19   20 1  
    21   19   21 1  
    22   21   22 1  
    23   22   23 1  
    24   22   31 1  
    25   23   24 2  
    26   24   25 1  
    27   25   26 ar 
    28   25   31 ar 
    29   26   27 1  
    30   26   28 ar 
    31   28   29 ar 
    32   29   30 ar 
    33   30   31 ar 
    34   14   32 1  
    35   14   33 1  
    36   15   34 1  
    37   17   35 1  
    38   18   36 1  
    39   19   37 1  
    40   20   38 1  
    41   21   39 1  
    42   23   40 1  
    43   27   41 1  
    44   27   42 1  
    45   29   43 1  
@<TRIPOS>SUBSTRUCTURE
     1 ATP         1

