1yc4_ligand
  -I-interpret- 

 32 34  0  0  0  0  0  0  0  0999 V2000
   32.7690   32.2390   -3.8380 O   0  0  0  0  0
   33.9300   32.1240   -3.1370 C   0  0  0  0  0
   33.8620   31.7060   -1.8070 C   0  0  0  0  0
   35.0320   31.5290   -1.0690 C   0  0  0  0  0
   34.9460   31.2410    0.2620 O   0  0  0  0  0
   36.2710   31.7420   -1.6720 C   0  0  0  0  0
   37.5870   31.3210   -1.0050 C   0  0  0  0  0
   37.7730   29.8000   -1.0560 C   0  0  0  0  0
   36.3180   32.2020   -2.9890 C   0  0  0  0  0
   35.1570   32.3960   -3.7360 C   0  0  0  0  0
   35.2030   32.8350   -5.0630 C   0  0  0  0  0
   34.8650   32.1240   -6.1400 N   0  0  0  0  0
   35.0220   32.7870   -7.1700 N   0  0  0  0  0
   35.4930   33.9940   -6.8710 C   0  0  0  0  0
   35.6180   34.0750   -5.5490 C   0  0  0  0  0
   35.9810   35.2120   -4.8340 C   0  0  0  0  0
   36.6170   36.2670   -5.3390 C   0  0  0  0  0
   36.7480   37.1850   -4.3850 N   0  0  0  0  0
   36.1990   36.7030   -3.2730 C   0  0  0  0  0
   35.7300   35.4900   -3.5570 N   0  0  0  0  0
   32.9635   32.5328   -4.7310 H   0  0  0  0  0
   32.8931   31.5177   -1.3446 H   0  0  0  0  0
   35.8295   31.1493    0.6262 H   0  0  0  0  0
   37.5634   31.6337    0.0389 H   0  0  0  0  0
   38.4133   31.7905   -1.5388 H   0  0  0  0  0
   36.9475   29.3166   -0.5335 H   0  0  0  0  0
   37.7888   29.4718   -2.0953 H   0  0  0  0  0
   38.7145   29.5341   -0.5753 H   0  0  0  0  0
   37.2853   32.4146   -3.4442 H   0  0  0  0  0
   35.7348   34.7809   -7.5854 H   0  0  0  0  0
   36.9719   36.3628   -6.3651 H   0  0  0  0  0
   36.1436   37.2077   -2.3085 H   0  0  0  0  0
  1  2  1  0  0  0
  2  3  4  0  0  0
  2 10  4  0  0  0
  3  4  4  0  0  0
  4  5  1  0  0  0
  4  6  4  0  0  0
  6  7  1  0  0  0
  6  9  4  0  0  0
  7  8  1  0  0  0
  9 10  4  0  0  0
 10 11  1  0  0  0
 11 12  4  0  0  0
 11 15  4  0  0  0
 12 13  4  0  0  0
 13 14  4  0  0  0
 14 15  4  0  0  0
 15 16  1  0  0  0
 16 17  4  0  0  0
 16 20  4  0  0  0
 17 18  4  0  0  0
 18 19  4  0  0  0
 19 20  4  0  0  0
  1 21  1  0  0  0
  3 22  1  0  0  0
  5 23  1  0  0  0
  7 24  1  0  0  0
  7 25  1  0  0  0
  8 26  1  0  0  0
  8 27  1  0  0  0
  8 28  1  0  0  0
  9 29  1  0  0  0
 14 30  1  0  0  0
 17 31  1  0  0  0
 19 32  1  0  0  0
M  END
$$$$
