### 
### Created by X-TOOL on Mon Sep 10 21:13:07 2018
### 

@<TRIPOS>MOLECULE
2xu5_ligand
   63    67     1     0     0
SMALL
GAST_HUCK


@<TRIPOS>ATOM
      1 CL         17.5160   10.3740   22.2700 Cl        1 XU5        -0.0687
      2 C1         23.1640   11.3010   22.6180 C.3       1 XU5         0.1341
      3 C2         24.2120   11.8790   23.5490 C.2       1 XU5         0.1971
      4 N3         25.2370   12.5430   22.9660 N.am      1 XU5        -0.2955
      5 C4         26.2950   13.2800   23.6530 C.3       1 XU5         0.0783
      6 C5         25.9000   14.6860   23.9020 C.2       1 XU5         0.0437
      7 O6         24.1070   11.7470   24.7590 O.2       1 XU5        -0.3951
      8 C7         27.2370   12.5900   24.6510 C.3       1 XU5        -0.0407
      9 C8         27.7410   12.9720   23.2580 C.3       1 XU5        -0.0407
     10 N9         26.7720   15.5410   24.2520 N.2       1 XU5        -0.2686
     11 N10        23.1690    9.8430   22.6850 N.am      1 XU5        -0.2575
     12 C11        21.8490    9.3590   23.0990 C.3       1 XU5         0.0586
     13 C12        20.9030   10.5780   22.8370 C.3       1 XU5         0.1066
     14 C13        21.8290   11.7630   23.2470 C.3       1 XU5         0.0125
     15 S14        20.4130   10.8210   21.1110 S.o2      1 XU5         0.0023
     16 C15        19.4770    9.3470   20.7560 C.ar      1 XU5         0.1025
     17 C16        18.2130    9.1530   21.2860 C.ar      1 XU5         0.0651
     18 C17        17.4520    8.0110   21.0540 C.ar      1 XU5        -0.0460
     19 C18        17.9840    7.0370   20.2410 C.ar      1 XU5        -0.0612
     20 C19        19.2410    7.2170   19.7120 C.ar      1 XU5        -0.0598
     21 C20        19.9990    8.3520   19.9580 C.ar      1 XU5        -0.0364
     22 O22        19.5650   11.9890   21.0640 O.2       1 XU5        -0.1690
     23 O23        21.5480   10.7460   20.2590 O.2       1 XU5        -0.1690
     24 C24        24.2190    9.0690   22.3540 C.2       1 XU5         0.1651
     25 O25        25.2220    9.6230   21.9740 O.2       1 XU5        -0.3685
     26 C26        23.5700    6.7790   21.2670 C.3       1 XU5        -0.0751
     27 C27        24.1200    7.5660   22.4550 C.3       1 XU5         0.0343
     28 C28        25.0700    6.7770   21.5720 C.3       1 XU5        -0.0751
     29 C29        22.3540    5.8560   25.3910 C.ar      1 XU5        -0.0282
     30 C30        23.2160    6.1980   26.4310 C.ar      1 XU5        -0.0137
     31 C31        24.3290    6.9720   26.1590 C.ar      1 XU5        -0.0282
     32 C32        24.6170    7.3920   24.8750 C.ar      1 XU5        -0.0445
     33 C33        23.7800    7.0590   23.8360 C.ar      1 XU5        -0.0473
     34 C34        22.6320    6.2890   24.0900 C.ar      1 XU5        -0.0445
     35 C35        22.9550    5.7450   27.8540 C.3       1 XU5        -0.0153
     36 H          23.3273   11.6098   21.5855 H         1 XU5         0.0804
     37 H          25.2746   12.5274   21.9468 H         1 XU5         0.1774
     38 H          24.8591   14.9875   23.7847 H         1 XU5         0.1090
     39 H          27.2365   11.7233   25.3120 H         1 XU5         0.0220
     40 H          27.5469   12.6949   25.6907 H         1 XU5         0.0220
     41 H          28.5916   13.4870   22.8115 H         1 XU5         0.0220
     42 H          28.2794   12.5098   22.4306 H         1 XU5         0.0220
     43 H          27.7463   15.2600   24.3621 H         1 XU5         0.2165
     44 H          21.8332    9.0388   24.1408 H         1 XU5         0.0544
     45 H          21.5419    8.4703   22.5476 H         1 XU5         0.0544
     46 H          19.9589   10.4604   23.3690 H         1 XU5         0.0563
     47 H          21.4861   12.7388   22.9029 H         1 XU5         0.0332
     48 H          21.8784   11.9415   24.3211 H         1 XU5         0.0332
     49 H          16.4656    7.8921   21.5023 H         1 XU5         0.0624
     50 H          17.4163    6.1335   20.0187 H         1 XU5         0.0618
     51 H          19.6575    6.4371   19.0746 H         1 XU5         0.0620
     52 H          20.9943    8.4557   19.5260 H         1 XU5         0.0636
     53 H          22.9048    6.9324   20.4173 H         1 XU5         0.0147
     54 H          22.7746    6.0655   21.0518 H         1 XU5         0.0147
     55 H          26.0108    6.9305   21.0434 H         1 XU5         0.0147
     56 H          25.8794    6.0556   21.6838 H         1 XU5         0.0147
     57 H          21.4674    5.2540   25.5901 H         1 XU5         0.0655
     58 H          24.9932    7.2567   26.9750 H         1 XU5         0.0655
     59 H          25.5093    7.9885   24.6850 H         1 XU5         0.0832
     60 H          21.9583    6.0292   23.2735 H         1 XU5         0.0832
     61 H          23.7945    5.1432   28.2021 H         1 XU5         0.0466
     62 H          22.8409    6.6179   28.4967 H         1 XU5         0.0466
     63 H          22.0426    5.1493   27.8827 H         1 XU5         0.0466
@<TRIPOS>BOND
     1   17    1 1  
     2    2    3 1  
     3   11    2 1  
     4    2   14 1  
     5    3    4 am 
     6    3    7 2  
     7    4    5 1  
     8    5    6 1  
     9    5    8 1  
    10    5    9 1  
    11    6   10 2  
    12    9    8 1  
    13   11   12 1  
    14   24   11 am 
    15   12   13 1  
    16   13   14 1  
    17   13   15 1  
    18   15   16 1  
    19   15   22 2  
    20   15   23 2  
    21   16   17 ar 
    22   16   21 ar 
    23   17   18 ar 
    24   18   19 ar 
    25   20   19 ar 
    26   21   20 ar 
    27   24   25 2  
    28   27   24 1  
    29   27   26 1  
    30   28   26 1  
    31   27   28 1  
    32   33   27 1  
    33   30   29 ar 
    34   29   34 ar 
    35   31   30 ar 
    36   30   35 1  
    37   32   31 ar 
    38   32   33 ar 
    39   33   34 ar 
    40    2   36 1  
    41    4   37 1  
    42    6   38 1  
    43    8   39 1  
    44    8   40 1  
    45    9   41 1  
    46    9   42 1  
    47   10   43 1  
    48   12   44 1  
    49   12   45 1  
    50   13   46 1  
    51   14   47 1  
    52   14   48 1  
    53   18   49 1  
    54   19   50 1  
    55   20   51 1  
    56   21   52 1  
    57   26   53 1  
    58   26   54 1  
    59   28   55 1  
    60   28   56 1  
    61   29   57 1  
    62   31   58 1  
    63   32   59 1  
    64   34   60 1  
    65   35   61 1  
    66   35   62 1  
    67   35   63 1  
@<TRIPOS>SUBSTRUCTURE
     1 XU5         1

