2xu5_ligand
  -I-interpret- 

 63 67  0  0  0  0  0  0  0  0999 V2000
   17.5160   10.3740   22.2700 Cl  0  0  0  0  0
   23.1640   11.3010   22.6180 C   0  0  0  0  0
   24.2120   11.8790   23.5490 C   0  0  0  0  0
   25.2370   12.5430   22.9660 N   0  0  0  0  0
   26.2950   13.2800   23.6530 C   0  0  0  0  0
   25.9000   14.6860   23.9020 C   0  0  0  0  0
   24.1070   11.7470   24.7590 O   0  0  0  0  0
   27.2370   12.5900   24.6510 C   0  0  0  0  0
   27.7410   12.9720   23.2580 C   0  0  0  0  0
   26.7720   15.5410   24.2520 N   0  0  0  0  0
   23.1690    9.8430   22.6850 N   0  0  0  0  0
   21.8490    9.3590   23.0990 C   0  0  0  0  0
   20.9030   10.5780   22.8370 C   0  0  0  0  0
   21.8290   11.7630   23.2470 C   0  0  0  0  0
   20.4130   10.8210   21.1110 S   0  0  0  0  0
   19.4770    9.3470   20.7560 C   0  0  0  0  0
   18.2130    9.1530   21.2860 C   0  0  0  0  0
   17.4520    8.0110   21.0540 C   0  0  0  0  0
   17.9840    7.0370   20.2410 C   0  0  0  0  0
   19.2410    7.2170   19.7120 C   0  0  0  0  0
   19.9990    8.3520   19.9580 C   0  0  0  0  0
   19.5650   11.9890   21.0640 O   0  0  0  0  0
   21.5480   10.7460   20.2590 O   0  0  0  0  0
   24.2190    9.0690   22.3540 C   0  0  0  0  0
   25.2220    9.6230   21.9740 O   0  0  0  0  0
   23.5700    6.7790   21.2670 C   0  0  0  0  0
   24.1200    7.5660   22.4550 C   0  0  0  0  0
   25.0700    6.7770   21.5720 C   0  0  0  0  0
   22.3540    5.8560   25.3910 C   0  0  0  0  0
   23.2160    6.1980   26.4310 C   0  0  0  0  0
   24.3290    6.9720   26.1590 C   0  0  0  0  0
   24.6170    7.3920   24.8750 C   0  0  0  0  0
   23.7800    7.0590   23.8360 C   0  0  0  0  0
   22.6320    6.2890   24.0900 C   0  0  0  0  0
   22.9550    5.7450   27.8540 C   0  0  0  0  0
   23.3273   11.6098   21.5855 H   0  0  0  0  0
   25.2746   12.5274   21.9468 H   0  0  0  0  0
   24.8591   14.9875   23.7847 H   0  0  0  0  0
   27.2365   11.7233   25.3120 H   0  0  0  0  0
   27.5469   12.6949   25.6907 H   0  0  0  0  0
   28.5916   13.4870   22.8115 H   0  0  0  0  0
   28.2794   12.5098   22.4306 H   0  0  0  0  0
   27.7463   15.2600   24.3621 H   0  0  0  0  0
   21.8332    9.0388   24.1408 H   0  0  0  0  0
   21.5419    8.4703   22.5476 H   0  0  0  0  0
   19.9589   10.4604   23.3690 H   0  0  0  0  0
   21.4861   12.7388   22.9029 H   0  0  0  0  0
   21.8784   11.9415   24.3211 H   0  0  0  0  0
   16.4656    7.8921   21.5023 H   0  0  0  0  0
   17.4163    6.1335   20.0187 H   0  0  0  0  0
   19.6575    6.4371   19.0746 H   0  0  0  0  0
   20.9943    8.4557   19.5260 H   0  0  0  0  0
   22.9048    6.9324   20.4173 H   0  0  0  0  0
   22.7746    6.0655   21.0518 H   0  0  0  0  0
   26.0108    6.9305   21.0434 H   0  0  0  0  0
   25.8794    6.0556   21.6838 H   0  0  0  0  0
   21.4674    5.2540   25.5901 H   0  0  0  0  0
   24.9932    7.2567   26.9750 H   0  0  0  0  0
   25.5093    7.9885   24.6850 H   0  0  0  0  0
   21.9583    6.0292   23.2735 H   0  0  0  0  0
   21.9933    6.1349   28.1875 H   0  0  0  0  0
   22.9391    4.6557   27.8900 H   0  0  0  0  0
   23.7456    6.1198   28.5040 H   0  0  0  0  0
 17  1  1  0  0  0
  2  3  1  0  0  0
 11  2  1  0  0  0
  2 14  1  0  0  0
  3  4  1  0  0  0
  3  7  2  0  0  0
  4  5  1  0  0  0
  5  6  1  0  0  0
  5  8  1  0  0  0
  5  9  1  0  0  0
  6 10  2  0  0  0
  9  8  1  0  0  0
 11 12  1  0  0  0
 24 11  1  0  0  0
 12 13  1  0  0  0
 13 14  1  0  0  0
 13 15  1  0  0  0
 15 16  1  0  0  0
 15 22  2  0  0  0
 15 23  2  0  0  0
 16 17  4  0  0  0
 16 21  4  0  0  0
 17 18  4  0  0  0
 18 19  4  0  0  0
 20 19  4  0  0  0
 21 20  4  0  0  0
 24 25  2  0  0  0
 27 24  1  0  0  0
 27 26  1  0  0  0
 28 26  1  0  0  0
 27 28  1  0  0  0
 33 27  1  0  0  0
 30 29  4  0  0  0
 29 34  4  0  0  0
 31 30  4  0  0  0
 30 35  1  0  0  0
 32 31  4  0  0  0
 32 33  4  0  0  0
 33 34  4  0  0  0
  2 36  1  0  0  0
  4 37  1  0  0  0
  6 38  1  0  0  0
  8 39  1  0  0  0
  8 40  1  0  0  0
  9 41  1  0  0  0
  9 42  1  0  0  0
 10 43  1  0  0  0
 12 44  1  0  0  0
 12 45  1  0  0  0
 13 46  1  0  0  0
 14 47  1  0  0  0
 14 48  1  0  0  0
 18 49  1  0  0  0
 19 50  1  0  0  0
 20 51  1  0  0  0
 21 52  1  0  0  0
 26 53  1  0  0  0
 26 54  1  0  0  0
 28 55  1  0  0  0
 28 56  1  0  0  0
 29 57  1  0  0  0
 31 58  1  0  0  0
 32 59  1  0  0  0
 34 60  1  0  0  0
 35 61  1  0  0  0
 35 62  1  0  0  0
 35 63  1  0  0  0
M  END
$$$$
