3hf8_ligand
  -I-interpret- 

 61 64  0  0  0  0  0  0  0  0999 V2000
   15.9710    7.0860   19.1490 O   0  0  0  0  0
   15.4020    6.3880   18.2740 C   0  0  0  0  0
   15.5420    6.5980   17.0400 O   0  0  0  0  0
   14.4860    5.2750   18.7000 C   0  0  0  0  0
   14.6090    4.9720   20.1190 N   0  3  0  0  0
   13.0770    5.7580   18.3920 C   0  0  0  0  0
   12.0180    4.7020   18.6070 C   0  0  0  0  0
   11.0900    4.8950   19.6280 C   0  0  0  0  0
   10.0940    3.9470   19.8430 C   0  0  0  0  0
   11.9450    3.5670   17.7970 C   0  0  0  0  0
   10.9460    2.6190   18.0180 C   0  0  0  0  0
   10.0190    2.8060   19.0480 C   0  0  0  0  0
    8.9210    1.8260   19.2940 C   0  0  0  0  0
    8.3210    1.7340   20.5500 C   0  0  0  0  0
    8.4590    1.0460   18.2820 N   0  0  0  0  0
    7.4460    0.1670   18.4820 C   0  0  0  0  0
    7.0080   -0.6080   17.4650 N   0  0  0  0  0
    6.8630    0.0570   19.6970 N   0  0  0  0  0
    7.2810    0.8250   20.7340 C   0  0  0  0  0
    6.6910    0.7180   21.9700 O   0  0  0  0  0
    5.7920   -0.3540   22.2590 C   0  0  0  0  0
    6.1290   -0.9110   23.6350 C   0  0  0  0  0
    7.4210   -1.1560   23.7170 F   0  0  0  0  0
    5.8130   -0.0300   24.5640 F   0  0  0  0  0
    5.4540   -2.0310   23.8060 F   0  0  0  0  0
    4.3750    0.0960   22.2050 C   0  0  0  0  0
    4.0260    1.4270   22.4460 C   0  0  0  0  0
    2.6880    1.8230   22.3940 C   0  0  0  0  0
    3.3770   -0.8340   21.9130 C   0  0  0  0  0
    2.0430   -0.4380   21.8620 C   0  0  0  0  0
    1.6890    0.8920   22.0980 C   0  0  0  0  0
    0.2520    1.2990   22.0370 C   0  0  0  0  0
   -0.1080    2.5620   21.5650 C   0  0  0  0  0
   -0.7500    0.4170   22.4560 C   0  0  0  0  0
   -2.0940    0.7970   22.3980 C   0  0  0  0  0
   -3.0530   -0.0590   22.7990 F   0  0  0  0  0
   -2.4420    2.0620   21.9230 C   0  0  0  0  0
   -1.4480    2.9440   21.5050 C   0  0  0  0  0
   15.0255    5.9565   16.5468 H   0  0  0  0  0
   14.7375    4.3555   18.1715 H   0  0  0  0  0
   15.5564    4.6492   20.3156 H   0  0  0  0  0
   14.4152    5.8128   20.6630 H   0  0  0  0  0
   13.9413    4.2425   20.3688 H   0  0  0  0  0
   13.0499    6.0399   17.3394 H   0  0  0  0  0
   12.8584    6.5840   19.0687 H   0  0  0  0  0
   11.1438    5.7845   20.2557 H   0  0  0  0  0
    9.3665    4.0988   20.6404 H   0  0  0  0  0
   12.6672    3.4221   16.9936 H   0  0  0  0  0
   10.8879    1.7318   17.3874 H   0  0  0  0  0
    8.6600    2.3625   21.3735 H   0  0  0  0  0
    7.4396   -0.5326   16.5439 H   0  0  0  0  0
    6.2458   -1.2682   17.6186 H   0  0  0  0  0
    5.9074   -1.1326   21.5049 H   0  0  0  0  0
    4.8006    2.1588   22.6754 H   0  0  0  0  0
    2.4218    2.8626   22.5851 H   0  0  0  0  0
    3.6424   -1.8742   21.7241 H   0  0  0  0  0
    1.2692   -1.1717   21.6362 H   0  0  0  0  0
    0.6661    3.2571   21.2399 H   0  0  0  0  0
   -0.4814   -0.5712   22.8294 H   0  0  0  0  0
   -3.4897    2.3595   21.8791 H   0  0  0  0  0
   -1.7173    3.9319   21.1313 H   0  0  0  0  0
  1  2  2  0  0  0
  2  3  1  0  0  0
  2  4  1  0  0  0
  4  5  1  0  0  0
  4  6  1  0  0  0
  6  7  1  0  0  0
  7  8  4  0  0  0
  7 10  4  0  0  0
  8  9  4  0  0  0
  9 12  4  0  0  0
 10 11  4  0  0  0
 11 12  4  0  0  0
 12 13  1  0  0  0
 13 14  4  0  0  0
 13 15  4  0  0  0
 14 19  4  0  0  0
 15 16  4  0  0  0
 16 17  1  0  0  0
 16 18  4  0  0  0
 18 19  4  0  0  0
 19 20  1  0  0  0
 20 21  1  0  0  0
 21 22  1  0  0  0
 21 26  1  0  0  0
 22 23  1  0  0  0
 22 24  1  0  0  0
 22 25  1  0  0  0
 26 27  4  0  0  0
 26 29  4  0  0  0
 27 28  4  0  0  0
 28 31  4  0  0  0
 29 30  4  0  0  0
 30 31  4  0  0  0
 31 32  1  0  0  0
 32 33  4  0  0  0
 32 34  4  0  0  0
 33 38  4  0  0  0
 34 35  4  0  0  0
 35 36  1  0  0  0
 35 37  4  0  0  0
 37 38  4  0  0  0
  3 39  1  0  0  0
  4 40  1  0  0  0
  5 41  1  0  0  0
  5 42  1  0  0  0
  5 43  1  0  0  0
  6 44  1  0  0  0
  6 45  1  0  0  0
  8 46  1  0  0  0
  9 47  1  0  0  0
 10 48  1  0  0  0
 11 49  1  0  0  0
 14 50  1  0  0  0
 17 51  1  0  0  0
 17 52  1  0  0  0
 21 53  1  0  0  0
 27 54  1  0  0  0
 28 55  1  0  0  0
 29 56  1  0  0  0
 30 57  1  0  0  0
 33 58  1  0  0  0
 34 59  1  0  0  0
 37 60  1  0  0  0
 38 61  1  0  0  0
M  END
$$$$
