1utr_ligand
  -I-interpret- 

 34 35  0  0  0  0  0  0  0  0999 V2000
  117.0750   -0.4940    0.1400 C   0  0  0  0  0
  117.4240   -1.1560   -1.0450 C   0  0  0  0  0
  116.9790   -0.4780   -2.5840 Cl  0  0  0  0  0
  118.1300   -2.3660   -0.9900 C   0  0  0  0  0
  118.4880   -2.9150    0.2490 C   0  0  0  0  0
  118.1390   -2.2510    1.4350 C   0  0  0  0  0
  118.5800   -2.9260    2.9760 Cl  0  0  0  0  0
  117.4320   -1.0410    1.3790 C   0  0  0  0  0
  119.3820   -4.4450    0.3130 S   0  0  0  0  0
  120.2420   -4.4220    1.4670 O   0  0  0  0  0
  119.9770   -4.6710   -0.9790 O   0  0  0  0  0
  118.0970   -5.6920    0.5730 C   0  0  0  0  0
  116.3680    0.7160    0.0850 C   0  0  0  0  0
  117.0310    1.9010   -0.2580 C   0  0  0  0  0
  118.7340    1.8720   -0.6160 Cl  0  0  0  0  0
  116.3240    3.1110   -0.3110 C   0  0  0  0  0
  114.9530    3.1360   -0.0220 C   0  0  0  0  0
  114.2890    1.9480    0.3210 C   0  0  0  0  0
  112.5870    1.9720    0.6810 Cl  0  0  0  0  0
  114.9970    0.7390    0.3740 C   0  0  0  0  0
  114.0630    4.6680   -0.0920 S   0  0  0  0  0
  112.7120    4.3910   -0.5070 O   0  0  0  0  0
  114.8380    5.6020   -0.8670 O   0  0  0  0  0
  114.0370    5.2370    1.6250 C   0  0  0  0  0
  118.4009   -2.8805   -1.9120 H   0  0  0  0  0
  117.1602   -0.5259    2.3004 H   0  0  0  0  0
  118.5622   -6.6684    0.7087 H   0  0  0  0  0
  117.5193   -5.4368    1.4613 H   0  0  0  0  0
  117.4382   -5.7194   -0.2949 H   0  0  0  0  0
  116.8413    4.0328   -0.5772 H   0  0  0  0  0
  114.4808   -0.1834    0.6401 H   0  0  0  0  0
  113.4338    6.1420    1.6974 H   0  0  0  0  0
  113.6066    4.4604    2.2573 H   0  0  0  0  0
  115.0550    5.4502    1.9512 H   0  0  0  0  0
  1  2  4  0  0  0
  1  8  4  0  0  0
  1 13  1  0  0  0
  2  3  1  0  0  0
  2  4  4  0  0  0
  4  5  4  0  0  0
  5  6  4  0  0  0
  5  9  1  0  0  0
  6  7  1  0  0  0
  6  8  4  0  0  0
  9 10  2  0  0  0
  9 11  2  0  0  0
  9 12  1  0  0  0
 13 14  4  0  0  0
 13 20  4  0  0  0
 14 15  1  0  0  0
 14 16  4  0  0  0
 16 17  4  0  0  0
 17 18  4  0  0  0
 17 21  1  0  0  0
 18 19  1  0  0  0
 18 20  4  0  0  0
 21 22  2  0  0  0
 21 23  2  0  0  0
 21 24  1  0  0  0
  4 25  1  0  0  0
  8 26  1  0  0  0
 12 27  1  0  0  0
 12 28  1  0  0  0
 12 29  1  0  0  0
 16 30  1  0  0  0
 20 31  1  0  0  0
 24 32  1  0  0  0
 24 33  1  0  0  0
 24 34  1  0  0  0
M  END
$$$$
