4hvg_ligand
  -I-interpret- 

 40 42  0  0  0  0  0  0  0  0999 V2000
    0.6510  -13.5190   -4.1670 C   0  0  0  0  0
    0.1020  -12.2920   -3.9310 C   0  0  0  0  0
   -1.2010  -12.4440   -3.5100 N   0  0  0  0  0
   -0.3870  -14.5150   -3.8740 C   0  0  0  0  0
   -1.5380  -13.7980   -3.4570 C   0  0  0  0  0
   -2.6510  -14.4810   -3.1060 N   0  0  0  0  0
   -2.6680  -15.8080   -3.1590 C   0  0  0  0  0
   -1.5380  -16.4990   -3.5800 C   0  0  0  0  0
   -0.4200  -15.8340   -3.9220 N   0  0  0  0  0
    2.0020  -13.8590   -4.6440 C   0  0  0  0  0
    2.1850  -15.1770   -4.8970 N   0  0  0  0  0
    2.8870  -13.0180   -4.8080 O   0  0  0  0  0
    3.4240  -15.7350   -5.4330 C   0  0  0  0  0
    3.8760  -16.9330   -4.5730 C   0  0  0  0  0
    3.1120  -16.1720   -6.9000 C   0  0  0  0  0
    1.8600  -17.0690   -7.0110 C   0  0  0  0  0
    2.7840  -14.9570   -7.7540 C   0  0  0  0  0
    4.2720  -16.8680   -7.4240 O   0  0  0  0  0
   -1.5720  -18.0120   -3.6410 C   0  0  0  0  0
   -1.0430  -18.7110   -4.8960 C   0  0  0  0  0
   -0.2070  -18.7400   -3.6080 C   0  0  0  0  0
    0.6153  -11.3386   -4.0563 H   0  0  0  0  0
   -3.5668  -16.3543   -2.8728 H   0  0  0  0  0
    1.4141  -15.8160   -4.7023 H   0  0  0  0  0
    4.2368  -15.0089   -5.4173 H   0  0  0  0  0
    4.0445  -16.6003   -3.5488 H   0  0  0  0  0
    3.1013  -17.6997   -4.5845 H   0  0  0  0  0
    4.8005  -17.3426   -4.9801 H   0  0  0  0  0
    2.0090  -17.9732   -6.4208 H   0  0  0  0  0
    0.9920  -16.5272   -6.6353 H   0  0  0  0  0
    1.6984  -17.3375   -8.0550 H   0  0  0  0  0
    1.9131  -14.4483   -7.3406 H   0  0  0  0  0
    3.6357  -14.2768   -7.7581 H   0  0  0  0  0
    2.5690  -15.2782   -8.7732 H   0  0  0  0  0
    4.0973  -17.1442   -8.3267 H   0  0  0  0  0
   -2.5029  -18.0655   -3.0764 H   0  0  0  0  0
   -0.8998  -18.4849   -5.9526 H   0  0  0  0  0
   -1.4028  -19.4142   -5.6471 H   0  0  0  0  0
    0.3230  -19.4639   -2.9890 H   0  0  0  0  0
    0.8179  -18.5495   -3.2896 H   0  0  0  0  0
  1  2  4  0  0  0
  1  4  4  0  0  0
  1 10  1  0  0  0
  2  3  4  0  0  0
  3  5  4  0  0  0
  4  5  4  0  0  0
  4  9  4  0  0  0
  5  6  4  0  0  0
  6  7  4  0  0  0
  7  8  4  0  0  0
  8  9  4  0  0  0
  8 19  1  0  0  0
 10 11  1  0  0  0
 10 12  2  0  0  0
 11 13  1  0  0  0
 13 14  1  0  0  0
 13 15  1  0  0  0
 15 16  1  0  0  0
 15 17  1  0  0  0
 15 18  1  0  0  0
 19 20  1  0  0  0
 19 21  1  0  0  0
 20 21  1  0  0  0
  2 22  1  0  0  0
  7 23  1  0  0  0
 11 24  1  0  0  0
 13 25  1  0  0  0
 14 26  1  0  0  0
 14 27  1  0  0  0
 14 28  1  0  0  0
 16 29  1  0  0  0
 16 30  1  0  0  0
 16 31  1  0  0  0
 17 32  1  0  0  0
 17 33  1  0  0  0
 17 34  1  0  0  0
 18 35  1  0  0  0
 19 36  1  0  0  0
 20 37  1  0  0  0
 20 38  1  0  0  0
 21 39  1  0  0  0
 21 40  1  0  0  0
M  END
$$$$
