2aqb_ligand
  -I-interpret- 

 25 25  0  0  0  0  0  0  0  0999 V2000
   22.2660   88.0160    1.1160 O   0  0  0  0  0
   23.0760   88.9270    1.1820 C   0  0  0  0  0
   23.8050   89.5290   -0.1930 S   0  0  0  0  0
   24.6930   90.7300    0.7510 C   0  0  0  0  0
   24.1800   92.1180    0.3990 C   0  0  0  0  0
   24.3800   90.4160    2.1900 C   0  0  0  0  0
   25.0050   91.0010    3.2170 O   0  0  0  0  0
   23.4360   89.4940    2.3300 C   0  0  0  0  0
   22.8240   89.1300    3.6500 C   0  0  0  0  0
   26.1890   90.6170    0.5240 C   0  0  0  0  0
   26.7320   90.4520   -0.6830 C   0  0  0  0  0
   28.1870   90.3500   -0.8030 C   0  0  0  0  0
   28.8330   90.9270   -1.8010 C   0  0  0  0  0
   24.6814   92.8582    1.0225 H   0  0  0  0  0
   24.3872   92.3251   -0.6509 H   0  0  0  0  0
   23.1050   92.1618    0.5740 H   0  0  0  0  0
   25.6460   91.6325    2.8824 H   0  0  0  0  0
   23.6015   88.7654    4.3213 H   0  0  0  0  0
   22.3505   90.0103    4.0846 H   0  0  0  0  0
   22.0768   88.3507    3.5001 H   0  0  0  0  0
   26.8511   90.6733    1.3880 H   0  0  0  0  0
   26.0999   90.3938   -1.5691 H   0  0  0  0  0
   28.7477   89.7882   -0.0560 H   0  0  0  0  0
   28.2817   91.4911   -2.5533 H   0  0  0  0  0
   29.9171   90.8388   -1.8719 H   0  0  0  0  0
  1  2  2  0  0  0
  2  3  1  0  0  0
  2  8  1  0  0  0
  3  4  1  0  0  0
  4  5  1  0  0  0
  4  6  1  0  0  0
  4 10  1  0  0  0
  6  7  1  0  0  0
  6  8  2  0  0  0
  8  9  1  0  0  0
 10 11  2  0  0  0
 11 12  1  0  0  0
 12 13  2  0  0  0
  5 14  1  0  0  0
  5 15  1  0  0  0
  5 16  1  0  0  0
  7 17  1  0  0  0
  9 18  1  0  0  0
  9 19  1  0  0  0
  9 20  1  0  0  0
 10 21  1  0  0  0
 11 22  1  0  0  0
 12 23  1  0  0  0
 13 24  1  0  0  0
 13 25  1  0  0  0
M  END
$$$$
