### 
### Created by X-TOOL on Mon Sep 10 21:13:23 2018
### 

@<TRIPOS>MOLECULE
4rxz_ligand
  181   184     1     0     0
SMALL
GAST_HUCK


@<TRIPOS>ATOM
      1 N          30.1630   10.1010   13.2380 N.4       1 THR         0.2398
      2 CA         29.4840   11.1030   12.3500 C.3       1 THR         0.0910
      3 C          28.0490   11.3360   12.7870 C.2       1 THR         0.2293
      4 O          27.3170   10.3810   13.0390 O.2       1 THR        -0.3906
      5 CB         29.5460   10.6500   10.8810 C.3       1 THR         0.1120
      6 OG1        30.9130   10.2680   10.5510 O.3       1 THR        -0.3840
      7 CG2        29.1080   11.7470    9.9500 C.3       1 THR        -0.0314
      8 N          27.7180   12.5840   12.9600 N.am      1 SER        -0.2588
      9 CA         26.3420   12.9720   13.4830 C.3       1 SER         0.1540
     10 C          25.4060   13.1520   12.3570 C.2       1 SER         0.2063
     11 O          25.8230   13.3130   11.2170 O.2       1 SER        -0.3943
     12 CB         26.4520   14.2520   14.3080 C.3       1 SER         0.0843
     13 OG         26.7420   15.3290   13.4530 O.3       1 SER        -0.3903
     14 N          24.1030   13.1170   12.6580 N.am      1 PHE        -0.2619
     15 CA         23.1290   13.3090   11.6490 C.3       1 PHE         0.1404
     16 C          23.4030   14.6070   10.8380 C.2       1 PHE         0.2059
     17 O          23.3370   14.6100    9.6280 O.2       1 PHE        -0.3942
     18 CB         21.6920   13.3850   12.2600 C.3       1 PHE         0.0214
     19 CG         20.7040   13.8500   11.2130 C.ar      1 PHE        -0.0386
     20 CD1        20.2990   13.0120   10.2080 C.ar      1 PHE        -0.0601
     21 CD2        20.3620   15.2040   11.0940 C.ar      1 PHE        -0.0601
     22 CE1        19.4530   13.4460    9.1810 C.ar      1 PHE        -0.0686
     23 CE2        19.5060   15.6280   10.0400 C.ar      1 PHE        -0.0686
     24 CZ         19.1120   14.7660    9.0780 C.ar      1 PHE        -0.0687
     25 N          23.6430   15.6900   11.5400 N.am      1 ALA        -0.2639
     26 CA         23.8760   16.9570   10.8580 C.3       1 ALA         0.1282
     27 C          25.0580   16.9010    9.8970 C.2       1 ALA         0.2036
     28 O          25.0120   17.4540    8.8050 O.2       1 ALA        -0.3944
     29 CB         24.0750   18.0580   11.8440 C.3       1 ALA        -0.0244
     30 N          26.0950   16.2100   10.3220 N.am      1 GLU        -0.2636
     31 CA         27.2380   15.9850    9.4470 C.3       1 GLU         0.1325
     32 C          26.9210   15.1330    8.2530 C.2       1 GLU         0.2041
     33 O          27.2120   15.5020    7.0890 O.2       1 GLU        -0.3944
     34 CB         28.4110   15.3760   10.2880 C.3       1 GLU        -0.0008
     35 CG         28.9380   16.3550   11.3280 C.3       1 GLU         0.0044
     36 CD         29.8070   15.7310   12.3910 C.2       1 GLU         0.0350
     37 OE1        29.9220   14.4680   12.4850 O.co2     1 GLU        -0.5690
     38 OE2        30.3620   16.5550   13.2260 O.co2     1 GLU        -0.5690
     39 N          26.2040   13.9980    8.4550 N.am      1 TYR        -0.2621
     40 CA         25.7940   13.2160    7.3150 C.3       1 TYR         0.1390
     41 C          24.9580   14.0110    6.2980 C.2       1 TYR         0.2058
     42 O          25.0700   13.8090    5.0750 O.2       1 TYR        -0.3942
     43 CB         24.9560   11.9930    7.7150 C.3       1 TYR         0.0163
     44 CG         25.6750   10.8170    8.2360 C.ar      1 TYR        -0.0493
     45 CD1        26.4580   10.0550    7.3890 C.ar      1 TYR        -0.0685
     46 CD2        25.5660   10.4300    9.5760 C.ar      1 TYR        -0.0685
     47 CE1        27.1020    8.9360    7.8480 C.ar      1 TYR        -0.0398
     48 CE2        26.2290    9.2990   10.0410 C.ar      1 TYR        -0.0398
     49 CZ         27.0310    8.5820    9.1310 C.ar      1 TYR         0.0805
     50 OH         27.6800    7.4340    9.6100 O.3       1 TYR        -0.3376
     51 N          24.0800   14.8590    6.7980 N.am      1 TRP        -0.2625
     52 CA         23.1470   15.5740    5.9460 C.3       1 TRP         0.1352
     53 C          23.9640   16.5390    5.0140 C.2       1 TRP         0.2053
     54 O          23.5320   16.7990    3.8890 O.2       1 TRP        -0.3942
     55 CB         22.1360   16.4080    6.7730 C.3       1 TRP         0.0042
     56 CG         20.9770   16.9290    5.9280 C.2       1 TRP        -0.0418
     57 CD1        20.7810   18.1670    5.4250 C.2       1 TRP         0.0167
     58 CD2        19.8920   16.1310    5.4290 C.ar      1 TRP        -0.0214
     59 NE1        19.6300   18.2000    4.6860 N.pl3     1 TRP        -0.2890
     60 CE2        19.0570   16.9620    4.6790 C.ar      1 TRP         0.0603
     61 CE3        19.5290   14.8200    5.6140 C.ar      1 TRP        -0.0747
     62 CZ2        17.9080   16.5120    4.0920 C.ar      1 TRP        -0.0443
     63 CZ3        18.3920   14.3650    5.0290 C.ar      1 TRP        -0.0792
     64 CH2        17.5820   15.1870    4.3010 C.ar      1 TRP        -0.0768
     65 N          25.1460   16.9770    5.4890 N.am      1 ASN        -0.2615
     66 CA         26.0040   17.8280    4.6510 C.3       1 ASN         0.1476
     67 C          26.5280   17.0770    3.4030 C.2       1 ASN         0.2063
     68 O          26.9590   17.7170    2.4540 O.2       1 ASN        -0.3942
     69 CB         27.1020   18.4640    5.4920 C.3       1 ASN         0.0773
     70 CG         26.5610   19.5750    6.3930 C.2       1 ASN         0.1780
     71 OD1        25.5820   20.2440    6.0580 O.2       1 ASN        -0.3970
     72 ND2        27.1580   19.7430    7.5280 N.am      1 ASN        -0.3007
     73 N          26.4060   15.7440    3.3540 N.am      1 LEU        -0.2636
     74 CA         26.7930   15.0100    2.1350 C.3       1 LEU         0.1312
     75 C          25.8240   15.2630    1.0100 C.2       1 LEU         0.2039
     76 O          26.1810   15.0640   -0.1430 O.2       1 LEU        -0.3944
     77 CB         26.8990   13.4960    2.4010 C.3       1 LEU        -0.0101
     78 CG         27.9600   13.0530    3.3980 C.3       1 LEU        -0.0425
     79 CD1        27.6890   11.6150    3.8140 C.3       1 LEU        -0.0625
     80 CD2        29.3120   13.2640    2.7950 C.3       1 LEU        -0.0625
     81 N          24.5950   15.6670    1.3250 N.am      1 LEU        -0.2637
     82 CA         23.5420   15.7740    0.3160 C.3       1 LEU         0.1312
     83 C          23.7210   17.1230   -0.4280 C.2       1 LEU         0.2034
     84 O          23.6880   18.2020    0.1760 O.2       1 LEU        -0.3944
     85 CB         22.1510   15.6670    0.9530 C.3       1 LEU        -0.0101
     86 CG         21.8750   14.2590    1.4730 C.3       1 LEU        -0.0425
     87 CD1        20.4880   14.1120    2.0760 C.3       1 LEU        -0.0625
     88 CD2        22.0780   13.2460    0.3690 C.3       1 LEU        -0.0625
     89 N          23.9990   17.0110   -1.7220 N.am      1 SER        -0.2672
     90 CA         24.2060   18.1610   -2.6190 C.3       1 SER         0.1173
     91 C          23.7540   17.7790   -4.0320 C.2       1 SER         0.0623
     92 O          23.6370   16.5910   -4.3640 O.co2     1 SER        -0.5665
     93 CB         25.6770   18.5960   -2.6390 C.3       1 SER         0.0789
     94 OG         25.9540   19.4730   -1.5630 O.3       1 SER        -0.3910
     95 OXT        23.4950   18.6490   -4.8750 O.co2     1 SER        -0.5665
     96 H1         30.1134   10.4125   14.1954 H         1 THR         0.2016
     97 H2         31.1287   10.0093   12.9641 H         1 THR         0.2016
     98 H3         29.7028    9.2085   13.1509 H         1 THR         0.2016
     99 H4         30.0244   12.0572   12.4364 H         1 THR         0.1125
    100 H5         28.8828    9.7826   10.7479 H         1 THR         0.0674
    101 H6         31.1864    9.5547   11.1158 H         1 THR         0.2102
    102 H7         29.1644   11.3903    8.9110 H         1 THR         0.0258
    103 H8         29.7672   12.6187   10.0747 H         1 THR         0.0258
    104 H9         28.0721   12.0342   10.1834 H         1 THR         0.0258
    105 H10        28.3808   13.3013   12.7450 H         1 SER         0.1885
    106 H11        25.9650   12.1656   14.1291 H         1 SER         0.0823
    107 H12        27.2572   14.1438   15.0495 H         1 SER         0.0606
    108 H13        25.4996   14.4392   14.8255 H         1 SER         0.0606
    109 H14        27.5644   15.1650   13.0066 H         1 SER         0.2097
    110 H15        23.8153   12.9542   13.6018 H         1 PHE         0.1885
    111 H16        23.1734   12.4509   10.9622 H         1 PHE         0.0823
    112 H17        21.6915   14.0944   13.1007 H         1 PHE         0.0474
    113 H18        21.3972   12.3886   12.6208 H         1 PHE         0.0474
    114 H19        20.6433   11.9841   10.2081 H         1 PHE         0.0557
    115 H20        20.7489   15.9264   11.8035 H         1 PHE         0.0557
    116 H21        19.0660   12.7317    8.4633 H         1 PHE         0.0599
    117 H22        19.1654   16.6566   10.0086 H         1 PHE         0.0599
    118 H23        18.5313   15.1171    8.2327 H         1 PHE         0.0559
    119 H24        23.6659   15.6459   12.5388 H         1 ALA         0.1883
    120 H25        22.9763   17.1857   10.2679 H         1 ALA         0.0797
    121 H26        24.2488   19.0029   11.3083 H         1 ALA         0.0277
    122 H27        24.9450   17.8302   12.4774 H         1 ALA         0.0277
    123 H28        23.1780   18.1531   12.4735 H         1 ALA         0.0277
    124 H29        26.0981   15.8377   11.2501 H         1 GLU         0.1883
    125 H30        27.5642   16.9648    9.0680 H         1 GLU         0.0801
    126 H31        29.2319   15.1051    9.6078 H         1 GLU         0.0330
    127 H32        28.0479   14.4738   10.8020 H         1 GLU         0.0330
    128 H33        28.0766   16.8277   11.8224 H         1 GLU         0.0433
    129 H34        29.5294   17.1231   10.8082 H         1 GLU         0.0433
    130 H35        25.9636   13.7083    9.3814 H         1 TYR         0.1885
    131 H36        26.7082   12.8655    6.8138 H         1 TYR         0.0821
    132 H37        24.3981   11.6699    6.8237 H         1 TYR         0.0453
    133 H38        24.2489   12.3180    8.4924 H         1 TYR         0.0453
    134 H39        26.5637   10.3460    6.3501 H         1 TYR         0.0530
    135 H40        24.9600   11.0162   10.2574 H         1 TYR         0.0530
    136 H41        27.6775    8.3299    7.1577 H         1 TYR         0.0525
    137 H42        26.1316    8.9790   11.0721 H         1 TYR         0.0525
    138 H43        27.0327    6.8123    9.9213 H         1 TYR         0.2458
    139 H44        24.0565   15.0128    7.7858 H         1 TRP         0.1884
    140 H45        22.5934   14.8486    5.3318 H         1 TRP         0.0815
    141 H46        22.6643   17.2661    7.2141 H         1 TRP         0.0397
    142 H47        21.7302   15.7750    7.5759 H         1 TRP         0.0397
    143 H48        21.4435   19.0164    5.5846 H         1 TRP         0.0795
    144 H49        19.2540   19.0316    4.2085 H         1 TRP         0.2216
    145 H50        20.1405   14.1590    6.2175 H         1 TRP         0.0540
    146 H51        17.2832   17.1635    3.4917 H         1 TRP         0.0541
    147 H52        18.1204   13.3218    5.1430 H         1 TRP         0.0510
    148 H53        16.6651   14.7921    3.8787 H         1 TRP         0.0530
    149 H54        25.4398   16.7237    6.4107 H         1 ASN         0.1885
    150 H55        25.3761   18.6501    4.2770 H         1 ASN         0.0826
    151 H56        27.8624   18.8896    4.8207 H         1 ASN         0.0551
    152 H57        27.5618   17.6881    6.1217 H         1 ASN         0.0551
    153 H58        26.8457   20.4553    8.1566 H         1 ASN         0.1814
    154 H59        27.9318   19.1606    7.7770 H         1 ASN         0.1814
    155 H60        26.0519   15.2457    4.1454 H         1 LEU         0.1883
    156 H61        27.7832   15.3734    1.8228 H         1 LEU         0.0800
    157 H62        27.1154   13.0028    1.4419 H         1 LEU         0.0315
    158 H63        25.9236   13.1540    2.7774 H         1 LEU         0.0315
    159 H64        27.8882   13.6833    4.2966 H         1 LEU         0.0298
    160 H65        28.4543   11.2914    4.5349 H         1 LEU         0.0232
    161 H66        27.7219   10.9644    2.9276 H         1 LEU         0.0232
    162 H67        26.6949   11.5493    4.2804 H         1 LEU         0.0232
    163 H68        29.4305   14.3230    2.5221 H         1 LEU         0.0232
    164 H69        29.4135   12.6399    1.8949 H         1 LEU         0.0232
    165 H70        30.0865   12.9844    3.5244 H         1 LEU         0.0232
    166 H71        24.3871   15.9029    2.2743 H         1 LEU         0.1883
    167 H72        23.6549   14.9517   -0.4059 H         1 LEU         0.0800
    168 H73        21.3927   15.9233    0.1985 H         1 LEU         0.0315
    169 H74        22.0877   16.3756    1.7920 H         1 LEU         0.0315
    170 H75        22.6060   14.0492    2.2677 H         1 LEU         0.0298
    171 H76        20.3501   13.0801    2.4311 H         1 LEU         0.0232
    172 H77        19.7300   14.3414    1.3126 H         1 LEU         0.0232
    173 H78        20.3798   14.8080    2.9209 H         1 LEU         0.0232
    174 H79        23.0852   13.3648   -0.0570 H         1 LEU         0.0232
    175 H80        21.3260   13.4054   -0.4178 H         1 LEU         0.0232
    176 H81        21.9706   12.2308    0.7786 H         1 LEU         0.0232
    177 H82        24.0721   16.0922   -2.1100 H         1 SER         0.1876
    178 H83        23.5957   19.0036   -2.2618 H         1 SER         0.0749
    179 H84        25.8885   19.1106   -3.5879 H         1 SER         0.0599
    180 H85        26.3179   17.7061   -2.5537 H         1 SER         0.0599
    181 H86        25.7752   19.0308   -0.7415 H         1 SER         0.2096
@<TRIPOS>BOND
     1    1    2 1  
     2    2    3 1  
     3    2    5 1  
     4    3    4 2  
     5    3    8 am 
     6    5    6 1  
     7    5    7 1  
     8    8    9 1  
     9    9   10 1  
    10    9   12 1  
    11   10   11 2  
    12   10   14 am 
    13   12   13 1  
    14   14   15 1  
    15   15   16 1  
    16   15   18 1  
    17   16   17 2  
    18   16   25 am 
    19   18   19 1  
    20   19   20 ar 
    21   19   21 ar 
    22   20   22 ar 
    23   21   23 ar 
    24   22   24 ar 
    25   23   24 ar 
    26   25   26 1  
    27   26   27 1  
    28   26   29 1  
    29   27   28 2  
    30   27   30 am 
    31   30   31 1  
    32   31   32 1  
    33   31   34 1  
    34   32   33 2  
    35   32   39 am 
    36   34   35 1  
    37   35   36 1  
    38   36   37 ar 
    39   36   38 ar 
    40   39   40 1  
    41   40   41 1  
    42   40   43 1  
    43   41   42 2  
    44   41   51 am 
    45   43   44 1  
    46   44   45 ar 
    47   44   46 ar 
    48   45   47 ar 
    49   46   48 ar 
    50   47   49 ar 
    51   48   49 ar 
    52   49   50 1  
    53   51   52 1  
    54   52   53 1  
    55   52   55 1  
    56   53   54 2  
    57   53   65 am 
    58   55   56 1  
    59   56   57 2  
    60   56   58 1  
    61   57   59 1  
    62   58   60 ar 
    63   58   61 ar 
    64   59   60 1  
    65   60   62 ar 
    66   61   63 ar 
    67   62   64 ar 
    68   63   64 ar 
    69   65   66 1  
    70   66   67 1  
    71   66   69 1  
    72   67   68 2  
    73   67   73 am 
    74   69   70 1  
    75   70   71 2  
    76   70   72 am 
    77   73   74 1  
    78   74   75 1  
    79   74   77 1  
    80   75   76 2  
    81   75   81 am 
    82   77   78 1  
    83   78   79 1  
    84   78   80 1  
    85   81   82 1  
    86   82   83 1  
    87   82   85 1  
    88   83   84 2  
    89   83   89 am 
    90   85   86 1  
    91   86   87 1  
    92   86   88 1  
    93   89   90 1  
    94   90   91 1  
    95   90   93 1  
    96   91   92 ar 
    97   91   95 ar 
    98   93   94 1  
    99    1   96 1  
   100    1   97 1  
   101    1   98 1  
   102    2   99 1  
   103    5  100 1  
   104    6  101 1  
   105    7  102 1  
   106    7  103 1  
   107    7  104 1  
   108    8  105 1  
   109    9  106 1  
   110   12  107 1  
   111   12  108 1  
   112   13  109 1  
   113   14  110 1  
   114   15  111 1  
   115   18  112 1  
   116   18  113 1  
   117   20  114 1  
   118   21  115 1  
   119   22  116 1  
   120   23  117 1  
   121   24  118 1  
   122   25  119 1  
   123   26  120 1  
   124   29  121 1  
   125   29  122 1  
   126   29  123 1  
   127   30  124 1  
   128   31  125 1  
   129   34  126 1  
   130   34  127 1  
   131   35  128 1  
   132   35  129 1  
   133   39  130 1  
   134   40  131 1  
   135   43  132 1  
   136   43  133 1  
   137   45  134 1  
   138   46  135 1  
   139   47  136 1  
   140   48  137 1  
   141   50  138 1  
   142   51  139 1  
   143   52  140 1  
   144   55  141 1  
   145   55  142 1  
   146   57  143 1  
   147   59  144 1  
   148   61  145 1  
   149   62  146 1  
   150   63  147 1  
   151   64  148 1  
   152   65  149 1  
   153   66  150 1  
   154   69  151 1  
   155   69  152 1  
   156   72  153 1  
   157   72  154 1  
   158   73  155 1  
   159   74  156 1  
   160   77  157 1  
   161   77  158 1  
   162   78  159 1  
   163   79  160 1  
   164   79  161 1  
   165   79  162 1  
   166   80  163 1  
   167   80  164 1  
   168   80  165 1  
   169   81  166 1  
   170   82  167 1  
   171   85  168 1  
   172   85  169 1  
   173   86  170 1  
   174   87  171 1  
   175   87  172 1  
   176   87  173 1  
   177   88  174 1  
   178   88  175 1  
   179   88  176 1  
   180   89  177 1  
   181   90  178 1  
   182   93  179 1  
   183   93  180 1  
   184   94  181 1  
@<TRIPOS>SUBSTRUCTURE
     1 THR         1

