4rxz_ligand
  -I-interpret- 

182185  0  0  0  0  0  0  0  0999 V2000
   30.1630   10.1010   13.2380 N   0  3  0  0  0
   29.4840   11.1030   12.3500 C   0  0  0  0  0
   28.0490   11.3360   12.7870 C   0  0  0  0  0
   27.3170   10.3810   13.0390 O   0  0  0  0  0
   29.5460   10.6500   10.8810 C   0  0  0  0  0
   30.9130   10.2680   10.5510 O   0  0  0  0  0
   29.1080   11.7470    9.9500 C   0  0  0  0  0
   27.7180   12.5840   12.9600 N   0  0  0  0  0
   26.3420   12.9720   13.4830 C   0  0  0  0  0
   25.4060   13.1520   12.3570 C   0  0  0  0  0
   25.8230   13.3130   11.2170 O   0  0  0  0  0
   26.4520   14.2520   14.3080 C   0  0  0  0  0
   26.7420   15.3290   13.4530 O   0  0  0  0  0
   24.1030   13.1170   12.6580 N   0  0  0  0  0
   23.1290   13.3090   11.6490 C   0  0  0  0  0
   23.4030   14.6070   10.8380 C   0  0  0  0  0
   23.3370   14.6100    9.6280 O   0  0  0  0  0
   21.6920   13.3850   12.2600 C   0  0  0  0  0
   20.7040   13.8500   11.2130 C   0  0  0  0  0
   20.2990   13.0120   10.2080 C   0  0  0  0  0
   20.3620   15.2040   11.0940 C   0  0  0  0  0
   19.4530   13.4460    9.1810 C   0  0  0  0  0
   19.5060   15.6280   10.0400 C   0  0  0  0  0
   19.1120   14.7660    9.0780 C   0  0  0  0  0
   23.6430   15.6900   11.5400 N   0  0  0  0  0
   23.8760   16.9570   10.8580 C   0  0  0  0  0
   25.0580   16.9010    9.8970 C   0  0  0  0  0
   25.0120   17.4540    8.8050 O   0  0  0  0  0
   24.0750   18.0580   11.8440 C   0  0  0  0  0
   26.0950   16.2100   10.3220 N   0  0  0  0  0
   27.2380   15.9850    9.4470 C   0  0  0  0  0
   26.9210   15.1330    8.2530 C   0  0  0  0  0
   27.2120   15.5020    7.0890 O   0  0  0  0  0
   28.4110   15.3760   10.2880 C   0  0  0  0  0
   28.9380   16.3550   11.3280 C   0  0  0  0  0
   29.8070   15.7310   12.3910 C   0  0  0  0  0
   29.9220   14.4680   12.4850 O   0  0  0  0  0
   30.3620   16.5550   13.2260 O   0  0  0  0  0
   26.2040   13.9980    8.4550 N   0  0  0  0  0
   25.7940   13.2160    7.3150 C   0  0  0  0  0
   24.9580   14.0110    6.2980 C   0  0  0  0  0
   25.0700   13.8090    5.0750 O   0  0  0  0  0
   24.9560   11.9930    7.7150 C   0  0  0  0  0
   25.6750   10.8170    8.2360 C   0  0  0  0  0
   26.4580   10.0550    7.3890 C   0  0  0  0  0
   25.5660   10.4300    9.5760 C   0  0  0  0  0
   27.1020    8.9360    7.8480 C   0  0  0  0  0
   26.2290    9.2990   10.0410 C   0  0  0  0  0
   27.0310    8.5820    9.1310 C   0  0  0  0  0
   27.6800    7.4340    9.6100 O   0  0  0  0  0
   24.0800   14.8590    6.7980 N   0  0  0  0  0
   23.1470   15.5740    5.9460 C   0  0  0  0  0
   23.9640   16.5390    5.0140 C   0  0  0  0  0
   23.5320   16.7990    3.8890 O   0  0  0  0  0
   22.1360   16.4080    6.7730 C   0  0  0  0  0
   20.9770   16.9290    5.9280 C   0  0  0  0  0
   20.7810   18.1670    5.4250 C   0  0  0  0  0
   19.8920   16.1310    5.4290 C   0  0  0  0  0
   19.6300   18.2000    4.6860 N   0  0  0  0  0
   19.0570   16.9620    4.6790 C   0  0  0  0  0
   19.5290   14.8200    5.6140 C   0  0  0  0  0
   17.9080   16.5120    4.0920 C   0  0  0  0  0
   18.3920   14.3650    5.0290 C   0  0  0  0  0
   17.5820   15.1870    4.3010 C   0  0  0  0  0
   25.1460   16.9770    5.4890 N   0  0  0  0  0
   26.0040   17.8280    4.6510 C   0  0  0  0  0
   26.5280   17.0770    3.4030 C   0  0  0  0  0
   26.9590   17.7170    2.4540 O   0  0  0  0  0
   27.1020   18.4640    5.4920 C   0  0  0  0  0
   26.5610   19.5750    6.3930 C   0  0  0  0  0
   25.5820   20.2440    6.0580 O   0  0  0  0  0
   27.1580   19.7430    7.5280 N   0  0  0  0  0
   26.4060   15.7440    3.3540 N   0  0  0  0  0
   26.7930   15.0100    2.1350 C   0  0  0  0  0
   25.8240   15.2630    1.0100 C   0  0  0  0  0
   26.1810   15.0640   -0.1430 O   0  0  0  0  0
   26.8990   13.4960    2.4010 C   0  0  0  0  0
   27.9600   13.0530    3.3980 C   0  0  0  0  0
   27.6890   11.6150    3.8140 C   0  0  0  0  0
   29.3120   13.2640    2.7950 C   0  0  0  0  0
   24.5950   15.6670    1.3250 N   0  0  0  0  0
   23.5420   15.7740    0.3160 C   0  0  0  0  0
   23.7210   17.1230   -0.4280 C   0  0  0  0  0
   23.6880   18.2020    0.1760 O   0  0  0  0  0
   22.1510   15.6670    0.9530 C   0  0  0  0  0
   21.8750   14.2590    1.4730 C   0  0  0  0  0
   20.4880   14.1120    2.0760 C   0  0  0  0  0
   22.0780   13.2460    0.3690 C   0  0  0  0  0
   23.9990   17.0110   -1.7220 N   0  0  0  0  0
   24.2060   18.1610   -2.6190 C   0  0  0  0  0
   23.7540   17.7790   -4.0320 C   0  0  0  0  0
   23.6370   16.5910   -4.3640 O   0  0  0  0  0
   25.6770   18.5960   -2.6390 C   0  0  0  0  0
   25.9540   19.4730   -1.5630 O   0  0  0  0  0
   23.4950   18.6490   -4.8750 O   0  0  0  0  0
   30.1122   10.4172   14.2064 H   0  0  0  0  0
   29.6965    9.1983   13.1489 H   0  0  0  0  0
   31.1400   10.0090   12.9599 H   0  0  0  0  0
   30.0148   12.0509   12.4384 H   0  0  0  0  0
   28.8712    9.8027   10.7594 H   0  0  0  0  0
   31.1998    9.5676   11.1416 H   0  0  0  0  0
   29.7692   12.6058   10.0659 H   0  0  0  0  0
   29.1528   11.3885    8.9216 H   0  0  0  0  0
   28.0857   12.0390   10.1901 H   0  0  0  0  0
   28.3941   13.3156   12.7407 H   0  0  0  0  0
   25.9571   12.1768   14.1215 H   0  0  0  0  0
   27.2481   14.1451   15.0448 H   0  0  0  0  0
   25.5095   14.4374   14.8233 H   0  0  0  0  0
   26.8119   16.1357   13.9687 H   0  0  0  0  0
   23.8095   12.9509   13.6206 H   0  0  0  0  0
   23.1920   12.4503   10.9806 H   0  0  0  0  0
   21.6934   14.0927   13.0890 H   0  0  0  0  0
   21.4006   12.3952   12.6114 H   0  0  0  0  0
   20.6452   11.9784   10.2081 H   0  0  0  0  0
   20.7511   15.9304   11.8075 H   0  0  0  0  0
   19.0639   12.7277    8.4594 H   0  0  0  0  0
   19.1636   16.6623   10.0084 H   0  0  0  0  0
   18.5280   15.1190    8.2280 H   0  0  0  0  0
   23.6663   15.6451   12.5587 H   0  0  0  0  0
   22.9840   17.1567   10.2642 H   0  0  0  0  0
   23.1855   18.1511   12.4671 H   0  0  0  0  0
   24.9373   17.8311   12.4710 H   0  0  0  0  0
   24.2471   18.9937   11.3120 H   0  0  0  0  0
   26.0982   15.8303   11.2687 H   0  0  0  0  0
   27.5351   16.9498    9.0359 H   0  0  0  0  0
   29.2263   15.1314    9.6072 H   0  0  0  0  0
   28.0345   14.4959   10.8094 H   0  0  0  0  0
   28.0711   16.7802   11.8338 H   0  0  0  0  0
   29.5541   17.0817   10.7985 H   0  0  0  0  0
   30.1495   17.4564   12.9733 H   0  0  0  0  0
   25.9588   13.7026    9.4000 H   0  0  0  0  0
   26.7352   12.9087    6.8592 H   0  0  0  0  0
   24.4701   11.6577    6.7987 H   0  0  0  0  0
   24.3152   12.3300    8.5298 H   0  0  0  0  0
   26.5643   10.3476    6.3444 H   0  0  0  0  0
   24.9567   11.0194   10.2611 H   0  0  0  0  0
   27.6807    8.3266    7.1539 H   0  0  0  0  0
   26.1311    8.9772   11.0778 H   0  0  0  0  0
   27.5151    7.3439   10.5514 H   0  0  0  0  0
   24.0561   15.0159    7.8056 H   0  0  0  0  0
   22.5833   14.8451    5.3638 H   0  0  0  0  0
   22.6658   17.2678    7.1830 H   0  0  0  0  0
   21.7229   15.7626    7.5482 H   0  0  0  0  0
   21.4441   19.0172    5.5847 H   0  0  0  0  0
   20.1439   14.1554    6.2208 H   0  0  0  0  0
   17.2798   17.1671    3.4884 H   0  0  0  0  0
   18.1189   13.3160    5.1437 H   0  0  0  0  0
   16.6600   14.7899    3.8764 H   0  0  0  0  0
   25.4457   16.7186    6.4291 H   0  0  0  0  0
   25.4021   18.6443    4.2517 H   0  0  0  0  0
   27.8391   18.9000    4.8177 H   0  0  0  0  0
   27.5367   17.6915    6.1263 H   0  0  0  0  0
   26.8209   20.4495    8.1819 H   0  0  0  0  0
   27.9660   19.1690    7.7692 H   0  0  0  0  0
   26.0448   15.2358    4.1612 H   0  0  0  0  0
   27.7741   15.3814    1.8392 H   0  0  0  0  0
   27.1717   13.0411    1.4487 H   0  0  0  0  0
   25.9414   13.1972    2.8273 H   0  0  0  0  0
   27.9265   13.6491    4.3100 H   0  0  0  0  0
   26.7038   11.5513    4.2759 H   0  0  0  0  0
   27.7218   10.9715    2.9349 H   0  0  0  0  0
   28.4479   11.2956    4.5282 H   0  0  0  0  0
   29.3967   12.6759    1.8812 H   0  0  0  0  0
   29.4436   14.3206    2.5620 H   0  0  0  0  0
   30.0778   12.9487    3.5038 H   0  0  0  0  0
   24.3829   15.9076    2.2933 H   0  0  0  0  0
   23.6230   14.9502   -0.3931 H   0  0  0  0  0
   21.4063   15.9047    0.1934 H   0  0  0  0  0
   22.1043   16.3589    1.7939 H   0  0  0  0  0
   22.5876   14.0731    2.2766 H   0  0  0  0  0
   20.3821   14.8022    2.9130 H   0  0  0  0  0
   19.7379   14.3396    1.3186 H   0  0  0  0  0
   20.3526   13.0892    2.4275 H   0  0  0  0  0
   21.3954   13.4640   -0.4524 H   0  0  0  0  0
   23.1066   13.3003    0.0125 H   0  0  0  0  0
   21.8778   12.2460    0.7538 H   0  0  0  0  0
   24.0735   16.0739   -2.1177 H   0  0  0  0  0
   23.6170   19.0013   -2.2515 H   0  0  0  0  0
   23.8672   16.0282   -3.6212 H   0  0  0  0  0
   25.8786   19.1140   -3.5766 H   0  0  0  0  0
   26.3073   17.7118   -2.5441 H   0  0  0  0  0
   26.8776   19.7331   -1.5933 H   0  0  0  0  0
  1  2  1  0  0  0
  2  3  1  0  0  0
  2  5  1  0  0  0
  3  4  2  0  0  0
  3  8  1  0  0  0
  5  6  1  0  0  0
  5  7  1  0  0  0
  8  9  1  0  0  0
  9 10  1  0  0  0
  9 12  1  0  0  0
 10 11  2  0  0  0
 10 14  1  0  0  0
 12 13  1  0  0  0
 14 15  1  0  0  0
 15 16  1  0  0  0
 15 18  1  0  0  0
 16 17  2  0  0  0
 16 25  1  0  0  0
 18 19  1  0  0  0
 19 20  4  0  0  0
 19 21  4  0  0  0
 20 22  4  0  0  0
 21 23  4  0  0  0
 22 24  4  0  0  0
 23 24  4  0  0  0
 25 26  1  0  0  0
 26 27  1  0  0  0
 26 29  1  0  0  0
 27 28  2  0  0  0
 27 30  1  0  0  0
 30 31  1  0  0  0
 31 32  1  0  0  0
 31 34  1  0  0  0
 32 33  2  0  0  0
 32 39  1  0  0  0
 34 35  1  0  0  0
 35 36  1  0  0  0
 36 37  2  0  0  0
 36 38  1  0  0  0
 39 40  1  0  0  0
 40 41  1  0  0  0
 40 43  1  0  0  0
 41 42  2  0  0  0
 41 51  1  0  0  0
 43 44  1  0  0  0
 44 45  4  0  0  0
 44 46  4  0  0  0
 45 47  4  0  0  0
 46 48  4  0  0  0
 47 49  4  0  0  0
 48 49  4  0  0  0
 49 50  1  0  0  0
 51 52  1  0  0  0
 52 53  1  0  0  0
 52 55  1  0  0  0
 53 54  2  0  0  0
 53 65  1  0  0  0
 55 56  1  0  0  0
 56 57  4  0  0  0
 56 58  4  0  0  0
 57 59  4  0  0  0
 58 60  4  0  0  0
 58 61  4  0  0  0
 59 60  4  0  0  0
 60 62  4  0  0  0
 61 63  4  0  0  0
 62 64  4  0  0  0
 63 64  4  0  0  0
 65 66  1  0  0  0
 66 67  1  0  0  0
 66 69  1  0  0  0
 67 68  2  0  0  0
 67 73  1  0  0  0
 69 70  1  0  0  0
 70 71  2  0  0  0
 70 72  1  0  0  0
 73 74  1  0  0  0
 74 75  1  0  0  0
 74 77  1  0  0  0
 75 76  2  0  0  0
 75 81  1  0  0  0
 77 78  1  0  0  0
 78 79  1  0  0  0
 78 80  1  0  0  0
 81 82  1  0  0  0
 82 83  1  0  0  0
 82 85  1  0  0  0
 83 84  2  0  0  0
 83 89  1  0  0  0
 85 86  1  0  0  0
 86 87  1  0  0  0
 86 88  1  0  0  0
 89 90  1  0  0  0
 90 91  1  0  0  0
 90 93  1  0  0  0
 91 92  1  0  0  0
 91 95  2  0  0  0
 93 94  1  0  0  0
  1 96  1  0  0  0
  1 97  1  0  0  0
  1 98  1  0  0  0
  2 99  1  0  0  0
  5100  1  0  0  0
  6101  1  0  0  0
  7102  1  0  0  0
  7103  1  0  0  0
  7104  1  0  0  0
  8105  1  0  0  0
  9106  1  0  0  0
 12107  1  0  0  0
 12108  1  0  0  0
 13109  1  0  0  0
 14110  1  0  0  0
 15111  1  0  0  0
 18112  1  0  0  0
 18113  1  0  0  0
 20114  1  0  0  0
 21115  1  0  0  0
 22116  1  0  0  0
 23117  1  0  0  0
 24118  1  0  0  0
 25119  1  0  0  0
 26120  1  0  0  0
 29121  1  0  0  0
 29122  1  0  0  0
 29123  1  0  0  0
 30124  1  0  0  0
 31125  1  0  0  0
 34126  1  0  0  0
 34127  1  0  0  0
 35128  1  0  0  0
 35129  1  0  0  0
 38130  1  0  0  0
 39131  1  0  0  0
 40132  1  0  0  0
 43133  1  0  0  0
 43134  1  0  0  0
 45135  1  0  0  0
 46136  1  0  0  0
 47137  1  0  0  0
 48138  1  0  0  0
 50139  1  0  0  0
 51140  1  0  0  0
 52141  1  0  0  0
 55142  1  0  0  0
 55143  1  0  0  0
 57144  1  0  0  0
 61145  1  0  0  0
 62146  1  0  0  0
 63147  1  0  0  0
 64148  1  0  0  0
 65149  1  0  0  0
 66150  1  0  0  0
 69151  1  0  0  0
 69152  1  0  0  0
 72153  1  0  0  0
 72154  1  0  0  0
 73155  1  0  0  0
 74156  1  0  0  0
 77157  1  0  0  0
 77158  1  0  0  0
 78159  1  0  0  0
 79160  1  0  0  0
 79161  1  0  0  0
 79162  1  0  0  0
 80163  1  0  0  0
 80164  1  0  0  0
 80165  1  0  0  0
 81166  1  0  0  0
 82167  1  0  0  0
 85168  1  0  0  0
 85169  1  0  0  0
 86170  1  0  0  0
 87171  1  0  0  0
 87172  1  0  0  0
 87173  1  0  0  0
 88174  1  0  0  0
 88175  1  0  0  0
 88176  1  0  0  0
 89177  1  0  0  0
 90178  1  0  0  0
 92179  1  0  0  0
 93180  1  0  0  0
 93181  1  0  0  0
 94182  1  0  0  0
M  END
$$$$
