3o64_ligand
  -I-interpret- 

 68 71  0  0  0  0  0  0  0  0999 V2000
   49.1300   34.7210   36.7950 C   0  0  0  0  0
   50.4790   35.1680   37.2090 N   0  0  0  0  0
   51.2810   35.3960   35.9750 C   0  0  0  0  0
   50.3740   35.3450   34.7750 C   0  0  0  0  0
   49.0530   34.7020   35.2340 C   0  0  0  0  0
   50.9450   35.3250   38.3890 C   0  0  0  0  0
   52.1250   35.7140   38.5950 O   0  0  0  0  0
   50.0500   35.0120   39.6090 C   0  0  0  0  0
   50.1900   33.4520   39.7620 C   0  0  0  0  0
   49.1620   33.0060   40.7920 C   0  0  0  0  0
   50.7130   35.6130   40.6930 O   0  0  0  0  0
   47.9420   32.9010   40.4720 O   0  0  0  0  0
   49.6120   32.7700   42.0450 N   0  0  0  0  0
   51.5840   33.2440   40.2350 O   0  0  0  0  0
   48.7390   32.3410   43.1710 C   0  0  0  0  0
   49.5510   31.5300   44.1850 C   0  0  0  0  0
   48.9270   31.1400   45.4290 C   0  0  0  0  0
   49.6830   30.4070   46.3800 C   0  0  0  0  0
   51.0150   30.0310   46.1250 C   0  0  0  0  0
   51.6340   30.3890   44.9090 C   0  0  0  0  0
   50.9000   31.1520   43.9490 C   0  0  0  0  0
   51.7540   29.2610   47.0750 N   0  0  0  0  0
   52.2620   34.1990   35.8250 C   0  0  0  0  0
   51.1560   28.2120   47.8410 N   0  0  0  0  0
   52.1090   27.7200   48.6010 C   0  0  0  0  0
   53.3570   28.4400   48.3260 C   0  0  0  0  0
   53.0710   29.3530   47.4110 C   0  0  0  0  0
   51.9600   32.8990   36.2830 N   0  0  0  0  0
   52.8490   31.9010   36.1040 C   0  0  0  0  0
   54.1990   32.6630   35.3060 S   0  0  0  0  0
   53.4660   34.2730   35.2410 C   0  0  0  0  0
   52.8120   30.5620   36.4460 N   0  0  0  0  0
   51.4700   30.2370   36.9190 C   0  0  0  0  0
   48.0630   33.5780   43.8260 C   0  0  0  0  0
   54.2870   35.7030   34.5090 S   0  0  0  0  0
   54.5430   35.2880   33.1410 O   0  0  0  0  0
   55.5760   35.9060   35.1580 O   0  0  0  0  0
   53.4180   37.2770   34.6170 C   0  0  0  0  0
   48.3798   35.4058   37.1904 H   0  0  0  0  0
   48.9405   33.7203   37.1833 H   0  0  0  0  0
   51.7930   36.3561   36.0404 H   0  0  0  0  0
   50.8280   34.7619   33.9738 H   0  0  0  0  0
   50.1986   36.3465   34.3821 H   0  0  0  0  0
   48.1838   35.2438   34.8613 H   0  0  0  0  0
   48.9331   33.6916   34.8432 H   0  0  0  0  0
   49.0132   35.3405   39.5373 H   0  0  0  0  0
   50.0137   32.8839   38.8486 H   0  0  0  0  0
   50.6410   36.5676   40.6212 H   0  0  0  0  0
   50.6077   32.8932   42.2290 H   0  0  0  0  0
   51.7442   32.3047   40.3521 H   0  0  0  0  0
   47.9463   31.6965   42.7912 H   0  0  0  0  0
   47.8898   31.4054   45.6338 H   0  0  0  0  0
   49.2224   30.1293   47.3281 H   0  0  0  0  0
   52.6610   30.0870   44.7038 H   0  0  0  0  0
   51.3840   31.4494   43.0187 H   0  0  0  0  0
   51.9910   26.9085   49.3191 H   0  0  0  0  0
   54.3290   28.2589   48.7849 H   0  0  0  0  0
   53.7793   30.0674   46.9916 H   0  0  0  0  0
   53.5930   29.9094   36.3789 H   0  0  0  0  0
   51.2350   30.8489   37.7899 H   0  0  0  0  0
   50.7485   30.4376   36.1270 H   0  0  0  0  0
   51.4278   29.1826   37.1921 H   0  0  0  0  0
   48.8312   34.2518   44.2055 H   0  0  0  0  0
   47.4584   34.0965   43.0819 H   0  0  0  0  0
   47.4271   33.2500   44.6483 H   0  0  0  0  0
   54.0162   38.0542   34.1413 H   0  0  0  0  0
   52.4566   37.1953   34.1100 H   0  0  0  0  0
   53.2573   37.5307   35.6648 H   0  0  0  0  0
  1  2  1  0  0  0
  1  5  1  0  0  0
  2  3  1  0  0  0
  2  6  1  0  0  0
  3  4  1  0  0  0
  3 23  1  0  0  0
  4  5  1  0  0  0
  6  7  2  0  0  0
  6  8  1  0  0  0
  8  9  1  0  0  0
  8 11  1  0  0  0
  9 10  1  0  0  0
  9 14  1  0  0  0
 10 12  2  0  0  0
 10 13  1  0  0  0
 13 15  1  0  0  0
 15 16  1  0  0  0
 15 34  1  0  0  0
 16 17  4  0  0  0
 16 21  4  0  0  0
 17 18  4  0  0  0
 18 19  4  0  0  0
 19 20  4  0  0  0
 19 22  1  0  0  0
 20 21  4  0  0  0
 22 24  4  0  0  0
 22 27  4  0  0  0
 23 28  4  0  0  0
 23 31  4  0  0  0
 24 25  4  0  0  0
 25 26  4  0  0  0
 26 27  4  0  0  0
 28 29  4  0  0  0
 29 30  4  0  0  0
 29 32  1  0  0  0
 30 31  4  0  0  0
 31 35  1  0  0  0
 32 33  1  0  0  0
 35 36  2  0  0  0
 35 37  2  0  0  0
 35 38  1  0  0  0
  1 39  1  0  0  0
  1 40  1  0  0  0
  3 41  1  0  0  0
  4 42  1  0  0  0
  4 43  1  0  0  0
  5 44  1  0  0  0
  5 45  1  0  0  0
  8 46  1  0  0  0
  9 47  1  0  0  0
 11 48  1  0  0  0
 13 49  1  0  0  0
 14 50  1  0  0  0
 15 51  1  0  0  0
 17 52  1  0  0  0
 18 53  1  0  0  0
 20 54  1  0  0  0
 21 55  1  0  0  0
 25 56  1  0  0  0
 26 57  1  0  0  0
 27 58  1  0  0  0
 32 59  1  0  0  0
 33 60  1  0  0  0
 33 61  1  0  0  0
 33 62  1  0  0  0
 34 63  1  0  0  0
 34 64  1  0  0  0
 34 65  1  0  0  0
 38 66  1  0  0  0
 38 67  1  0  0  0
 38 68  1  0  0  0
M  END
$$$$
