3pcn_ligand
  -I-interpret- 

 20 20  0  0  0  0  0  0  0  0999 V2000
   14.0730   11.5350   40.5930 C   0  0  0  0  0
   14.3540   10.1820   40.2180 C   0  0  0  0  0
   14.1580    9.2130   41.1660 C   0  0  0  0  0
   13.7400    9.5050   42.4530 C   0  0  0  0  0
   13.4970   10.8170   42.8440 C   0  0  0  0  0
   13.6720   11.8540   41.8900 C   0  0  0  0  0
   14.4480   12.6880   39.6060 C   0  0  0  0  0
   15.6910   13.5590   40.1290 C   0  0  0  0  0
   16.8150   13.1380   39.7260 O   0  0  0  0  0
   15.4930   14.5000   40.8920 O   0  0  0  0  0
   14.3350    7.8810   40.8960 O   0  0  0  0  0
   13.5820    8.3990   43.2670 O   0  0  0  0  0
   14.7096    9.9331   39.2182 H   0  0  0  0  0
   13.1789   11.0447   43.8614 H   0  0  0  0  0
   13.4941   12.8924   42.1695 H   0  0  0  0  0
   13.5862   13.3493   39.5160 H   0  0  0  0  0
   14.7273   12.2392   38.6528 H   0  0  0  0  0
   16.6834   12.3910   39.1375 H   0  0  0  0  0
   14.1495    7.3681   41.6860 H   0  0  0  0  0
   13.2923    8.6824   44.1373 H   0  0  0  0  0
  1  7  1  0  0  0
  1  6  4  0  0  0
  1  2  4  0  0  0
  2  3  4  0  0  0
  3 11  1  0  0  0
  3  4  4  0  0  0
  4 12  1  0  0  0
  4  5  4  0  0  0
  5  6  4  0  0  0
  7  8  1  0  0  0
  8 10  2  0  0  0
  8  9  1  0  0  0
  2 13  1  0  0  0
  5 14  1  0  0  0
  6 15  1  0  0  0
  7 16  1  0  0  0
  7 17  1  0  0  0
  9 18  1  0  0  0
 11 19  1  0  0  0
 12 20  1  0  0  0
M  END
$$$$
