4gzw_ligand
  -I-interpret- 

 88 90  0  0  0  0  0  0  0  0999 V2000
   10.4510   85.4990   29.4570 C   0  0  0  0  0
   10.3250   84.8930   30.8490 C   0  0  0  0  0
   10.9910   83.5010   30.8760 C   0  0  0  0  0
   11.9460   83.1950   32.0250 C   0  0  0  0  0
   11.8360   84.1760   33.1790 C   0  0  0  0  0
   11.9110   85.5980   32.6470 C   0  0  0  0  0
   11.9320   86.6310   33.7800 C   0  0  0  0  0
   12.3480   88.0240   33.2960 C   0  0  0  0  0
   12.1140   89.1130   34.3460 C   0  0  0  0  0
   12.5490   83.4500   35.3620 C   0  0  0  0  0
   13.6920   83.1380   36.2800 C   0  0  0  0  0
   12.8760   83.8650   34.1410 N   0  0  0  0  0
   10.3090   84.7640   28.4540 O   0  0  0  0  0
   10.6920   86.7230   29.3490 O   0  0  0  0  0
   11.6580   81.8890   32.5240 O   0  0  0  0  0
   10.7550   85.8380   31.8440 O   0  0  0  0  0
   10.6410   86.6950   34.4090 O   0  0  0  0  0
   13.7340   88.0090   32.9360 O   0  0  0  0  0
   12.7820   88.7820   35.5710 O   0  0  0  0  0
   11.3910   83.3280   35.7210 O   0  0  0  0  0
    1.5980   87.7780   34.5280 C   0  0  0  0  0
    1.3400   86.4840   33.7580 C   0  0  0  0  0
    2.6870   85.8390   33.4120 C   0  0  0  0  0
    3.7010   86.8260   32.7950 C   0  0  0  0  0
    3.6390   88.2550   33.3770 C   0  0  0  0  0
    4.1750   89.2820   32.3850 C   0  0  0  0  0
   -0.7090   85.1370   34.1720 C   0  0  0  0  0
   -1.4390   84.2650   35.1570 C   0  0  0  0  0
    0.4860   85.6110   34.5590 N   0  0  0  0  0
    0.3790   88.3790   34.8990 O   0  0  0  0  0
    2.4980   84.7520   32.5260 O   0  0  0  0  0
    5.0070   86.2890   32.9720 O   0  0  0  0  0
    2.3230   88.6710   33.7050 O   0  0  0  0  0
    5.5580   89.4570   32.5850 O   0  0  0  0  0
   -1.2260   85.3700   33.0780 O   0  0  0  0  0
    5.7010   86.0420   31.7220 C   0  0  0  0  0
    7.1350   85.5940   32.0440 C   0  0  0  0  0
    7.9200   85.1170   30.8110 C   0  0  0  0  0
    7.0610   84.2660   29.8710 C   0  0  0  0  0
    5.7030   84.9230   29.6170 C   0  0  0  0  0
    4.8380   84.0870   28.6710 C   0  0  0  0  0
    7.8210   86.6560   32.6720 O   0  0  0  0  0
    9.0370   84.3330   31.2110 O   0  0  0  0  0
    6.8800   82.9880   30.4490 O   0  0  0  0  0
    5.0500   85.1100   30.8660 O   0  0  0  0  0
    4.3150   84.8850   27.6320 O   0  0  0  0  0
   11.5968   83.4496   29.9713 H   0  0  0  0  0
   10.1730   82.7880   30.9785 H   0  0  0  0  0
   12.9571   83.2717   31.6251 H   0  0  0  0  0
   10.8769   84.0902   33.6897 H   0  0  0  0  0
   12.8321   85.7001   32.0733 H   0  0  0  0  0
   12.6805   86.3037   34.5016 H   0  0  0  0  0
   11.7242   88.2629   32.4347 H   0  0  0  0  0
   11.0442   89.1960   34.5375 H   0  0  0  0  0
   12.5095   90.0570   33.9711 H   0  0  0  0  0
   13.6356   83.7795   37.1594 H   0  0  0  0  0
   13.6356   82.0935   36.5864 H   0  0  0  0  0
   14.6332   83.3149   35.7594 H   0  0  0  0  0
   13.8574   83.9644   33.8816 H   0  0  0  0  0
   10.7662   87.1118   30.2236 H   0  0  0  0  0
   11.7224   81.2527   31.8080 H   0  0  0  0  0
   10.3886   85.8187   34.7089 H   0  0  0  0  0
   13.9942   88.8819   32.6328 H   0  0  0  0  0
   12.6249   89.4745   36.2171 H   0  0  0  0  0
    2.1684   87.5473   35.4277 H   0  0  0  0  0
    0.8161   86.6781   32.8221 H   0  0  0  0  0
    3.1067   85.4942   34.3570 H   0  0  0  0  0
    3.4429   86.9328   31.7414 H   0  0  0  0  0
    4.2472   88.2082   34.2803 H   0  0  0  0  0
    3.6644   90.2328   32.5375 H   0  0  0  0  0
    3.9983   88.9297   31.3688 H   0  0  0  0  0
   -2.3993   84.7195   35.4007 H   0  0  0  0  0
   -1.6024   83.2809   34.7177 H   0  0  0  0  0
   -0.8423   84.1650   36.0637 H   0  0  0  0  0
    0.8232   85.3408   35.4830 H   0  0  0  0  0
    0.5570   89.1898   35.3813 H   0  0  0  0  0
    3.3486   84.3583   32.3183 H   0  0  0  0  0
    5.8914   90.1039   31.9589 H   0  0  0  0  0
    5.7040   86.9746   31.1578 H   0  0  0  0  0
    7.0609   84.7333   32.7087 H   0  0  0  0  0
    8.2420   86.0142   30.2823 H   0  0  0  0  0
    7.5704   84.1748   28.9117 H   0  0  0  0  0
    5.8591   85.8859   29.1307 H   0  0  0  0  0
    4.0098   83.6607   29.2371 H   0  0  0  0  0
    5.4542   83.3013   28.2340 H   0  0  0  0  0
    8.7179   86.3804   32.8751 H   0  0  0  0  0
    6.3421   82.4475   29.8658 H   0  0  0  0  0
    3.7770   84.3411   27.0521 H   0  0  0  0  0
  2  1  1  0  0  0
  1 13  2  0  0  0
  1 14  1  0  0  0
  2  3  1  0  0  0
  2 16  1  0  0  0
 43  2  1  0  0  0
  3  4  1  0  0  0
  4  5  1  0  0  0
  4 15  1  0  0  0
  6  5  1  0  0  0
  5 12  1  0  0  0
  6  7  1  0  0  0
 16  6  1  0  0  0
  7  8  1  0  0  0
  7 17  1  0  0  0
  8  9  1  0  0  0
  8 18  1  0  0  0
  9 19  1  0  0  0
 10 11  1  0  0  0
 12 10  1  0  0  0
 10 20  2  0  0  0
 22 21  1  0  0  0
 21 30  1  0  0  0
 33 21  1  0  0  0
 23 22  1  0  0  0
 22 29  1  0  0  0
 24 23  1  0  0  0
 23 31  1  0  0  0
 24 25  1  0  0  0
 32 24  1  0  0  0
 25 26  1  0  0  0
 25 33  1  0  0  0
 26 34  1  0  0  0
 27 28  1  0  0  0
 29 27  1  0  0  0
 27 35  2  0  0  0
 36 32  1  0  0  0
 37 36  1  0  0  0
 36 45  1  0  0  0
 38 37  1  0  0  0
 37 42  1  0  0  0
 38 39  1  0  0  0
 38 43  1  0  0  0
 39 40  1  0  0  0
 39 44  1  0  0  0
 40 41  1  0  0  0
 40 45  1  0  0  0
 41 46  1  0  0  0
  3 47  1  0  0  0
  3 48  1  0  0  0
  4 49  1  0  0  0
  5 50  1  0  0  0
  6 51  1  0  0  0
  7 52  1  0  0  0
  8 53  1  0  0  0
  9 54  1  0  0  0
  9 55  1  0  0  0
 11 56  1  0  0  0
 11 57  1  0  0  0
 11 58  1  0  0  0
 12 59  1  0  0  0
 14 60  1  0  0  0
 15 61  1  0  0  0
 17 62  1  0  0  0
 18 63  1  0  0  0
 19 64  1  0  0  0
 21 65  1  0  0  0
 22 66  1  0  0  0
 23 67  1  0  0  0
 24 68  1  0  0  0
 25 69  1  0  0  0
 26 70  1  0  0  0
 26 71  1  0  0  0
 28 72  1  0  0  0
 28 73  1  0  0  0
 28 74  1  0  0  0
 29 75  1  0  0  0
 30 76  1  0  0  0
 31 77  1  0  0  0
 34 78  1  0  0  0
 36 79  1  0  0  0
 37 80  1  0  0  0
 38 81  1  0  0  0
 39 82  1  0  0  0
 40 83  1  0  0  0
 41 84  1  0  0  0
 41 85  1  0  0  0
 42 86  1  0  0  0
 44 87  1  0  0  0
 46 88  1  0  0  0
M  END
$$$$
