3m6f_ligand
  -I-interpret- 

 56 60  0  0  0  0  0  0  0  0999 V2000
   -5.9740   -0.3550   28.4070 C   0  0  0  0  0
   -7.1610    0.2840   27.9800 C   0  0  0  0  0
   -7.8720    1.1230   28.8960 C   0  0  0  0  0
   -7.3270    1.3300   30.1760 C   0  0  0  0  0
   -6.1400    0.6880   30.5640 C   0  0  0  0  0
   -5.4570   -0.1730   29.6950 C   0  0  0  0  0
   -5.5160    0.9920   32.1730 Cl  0  0  0  0  0
   -9.1040    1.6450   28.5790 N   0  0  0  0  0
  -10.2190    1.5700   29.3560 C   0  0  0  0  0
  -11.2740    2.0750   28.6980 N   0  0  0  0  0
  -10.9240    2.4560   27.3350 C   0  0  0  0  0
   -9.4000    2.2090   27.3770 C   0  0  0  0  0
   -8.6300    2.4830   26.4510 O   0  0  0  0  0
  -11.2150    3.9130   26.9380 C   0  0  0  0  0
  -11.5990    3.7830   25.5290 N   0  0  0  0  0
  -11.4550    2.4270   24.9970 C   0  0  0  0  0
  -11.5590    1.5730   26.2490 C   0  0  0  0  0
  -11.0030    0.1580   26.1760 C   0  0  0  0  0
  -11.5440   -0.8190   27.0310 C   0  0  0  0  0
  -10.9650   -2.0990   27.1200 C   0  0  0  0  0
   -9.8640   -2.4130   26.3020 C   0  0  0  0  0
   -9.3290   -1.4770   25.4150 C   0  0  0  0  0
   -9.9100   -0.1970   25.3370 C   0  0  0  0  0
   -9.3230   -3.7420   26.3490 C   0  0  0  0  0
   -8.8790   -4.8110   26.3930 N   0  0  0  0  0
  -12.1200    4.8260   24.7860 C   0  0  0  0  0
  -12.4140    6.0050   25.4090 N   0  0  0  0  0
  -12.9240    7.0480   24.6940 C   0  0  0  0  0
  -13.1420    6.9810   23.3100 C   0  0  0  0  0
  -12.8270    5.7780   22.6610 C   0  0  0  0  0
  -12.3250    4.6870   23.3940 C   0  0  0  0  0
  -13.6690    8.1410   22.5670 C   0  0  0  0  0
  -13.7640    8.1500   21.3780 O   0  0  0  0  0
  -14.0130    9.1790   23.3390 O   0  0  0  0  0
  -12.6450    2.1280   29.2500 C   0  0  0  0  0
  -10.3000    1.1100   30.4910 O   0  0  0  0  0
   -5.0970   -1.3710   27.3310 Cl  0  0  0  0  0
   -7.5303    0.1392   26.9647 H   0  0  0  0  0
   -7.8320    1.9966   30.8750 H   0  0  0  0  0
   -4.5494   -0.6862   30.0127 H   0  0  0  0  0
  -10.3642    4.5769   27.0908 H   0  0  0  0  0
  -11.9866    4.3784   27.5513 H   0  0  0  0  0
  -10.5224    2.2774   24.4530 H   0  0  0  0  0
  -12.2058    2.1796   24.2465 H   0  0  0  0  0
  -12.5992    1.3187   26.4524 H   0  0  0  0  0
  -12.4221   -0.5822   27.6319 H   0  0  0  0  0
  -11.3648   -2.8381   27.8143 H   0  0  0  0  0
   -8.4729   -1.7338   24.7912 H   0  0  0  0  0
   -9.5181    0.5302   24.6259 H   0  0  0  0  0
  -13.1722    7.9705   25.2188 H   0  0  0  0  0
  -12.9717    5.6880   21.5844 H   0  0  0  0  0
  -12.0968    3.7455   22.8945 H   0  0  0  0  0
  -13.8560    8.9574   24.2598 H   0  0  0  0  0
  -12.9844    1.1167   29.4742 H   0  0  0  0  0
  -12.6449    2.7234   30.1630 H   0  0  0  0  0
  -13.3126    2.5828   28.5182 H   0  0  0  0  0
  1  2  4  0  0  0
  1  6  4  0  0  0
  1 37  1  0  0  0
  2  3  4  0  0  0
  3  4  4  0  0  0
  3  8  1  0  0  0
  4  5  4  0  0  0
  5  6  4  0  0  0
  5  7  1  0  0  0
  8  9  1  0  0  0
  8 12  1  0  0  0
  9 10  1  0  0  0
  9 36  2  0  0  0
 10 11  1  0  0  0
 10 35  1  0  0  0
 11 12  1  0  0  0
 11 14  1  0  0  0
 11 17  1  0  0  0
 12 13  2  0  0  0
 14 15  1  0  0  0
 15 16  1  0  0  0
 15 26  1  0  0  0
 16 17  1  0  0  0
 17 18  1  0  0  0
 18 19  4  0  0  0
 18 23  4  0  0  0
 19 20  4  0  0  0
 20 21  4  0  0  0
 21 22  4  0  0  0
 21 24  1  0  0  0
 22 23  4  0  0  0
 24 25  3  0  0  0
 26 27  4  0  0  0
 26 31  4  0  0  0
 27 28  4  0  0  0
 28 29  4  0  0  0
 29 30  4  0  0  0
 29 32  1  0  0  0
 30 31  4  0  0  0
 32 33  2  0  0  0
 32 34  1  0  0  0
  2 38  1  0  0  0
  4 39  1  0  0  0
  6 40  1  0  0  0
 14 41  1  0  0  0
 14 42  1  0  0  0
 16 43  1  0  0  0
 16 44  1  0  0  0
 17 45  1  0  0  0
 19 46  1  0  0  0
 20 47  1  0  0  0
 22 48  1  0  0  0
 23 49  1  0  0  0
 28 50  1  0  0  0
 30 51  1  0  0  0
 31 52  1  0  0  0
 34 53  1  0  0  0
 35 54  1  0  0  0
 35 55  1  0  0  0
 35 56  1  0  0  0
M  END
$$$$
