### 
### Created by X-TOOL on Mon Sep 10 21:12:48 2018
### 

@<TRIPOS>MOLECULE
1i43_ligand
   19    19     1     0     0
SMALL
GAST_HUCK


@<TRIPOS>ATOM
      1 C2         69.8420  -21.9140  112.3720 C.ar      1 PMC         0.0851
      2 C3         69.4050  -21.7250  111.0000 C.ar      1 PMC         0.0158
      3 CA         67.9270  -21.3890  110.6470 C.3       1 PMC         0.0614
      4 P1         66.6650  -22.7400  110.5440 P.3       1 PMC         0.0719
      5 O3         67.2530  -24.0590  110.9160 O.co2     1 PMC        -0.5606
      6 O2         65.5290  -22.4270  111.4620 O.co2     1 PMC        -0.5606
      7 O1         66.1340  -22.8290  109.1630 O.co2     1 PMC        -0.5606
      8 C4         70.3830  -21.8590  109.9720 C.ar      1 PMC        -0.0355
      9 C5         71.7360  -22.1650  110.2810 C.ar      1 PMC        -0.0379
     10 C6         72.0920  -22.3290  111.6340 C.ar      1 PMC         0.0078
     11 N1         71.1510  -22.2030  112.6230 N.ar      1 PMC        -0.2895
     12 C          68.9540  -21.8130  113.6160 C.2       1 PMC         0.0767
     13 OC1        68.8490  -22.8870  114.3990 O.co2     1 PMC        -0.5594
     14 OC2        68.3530  -20.7970  113.9470 O.co2     1 PMC        -0.5594
     15 H1         67.9407  -20.8928  109.6654 H         1 PMC         0.0638
     16 H2         67.5719  -20.6814  111.4107 H         1 PMC         0.0638
     17 H3         70.0899  -21.7253  108.9370 H         1 PMC         0.0685
     18 H4         72.4754  -22.2696  109.4953 H         1 PMC         0.0712
     19 H5         73.1190  -22.5568  111.8955 H         1 PMC         0.0777
@<TRIPOS>BOND
     1    1    2 ar 
     2    1   11 ar 
     3    1   12 1  
     4    2    3 1  
     5    2    8 ar 
     6    3    4 1  
     7    4    5 ar 
     8    4    6 ar 
     9    4    7 ar 
    10    8    9 ar 
    11    9   10 ar 
    12   10   11 ar 
    13   12   13 ar 
    14   12   14 ar 
    15    3   15 1  
    16    3   16 1  
    17    8   17 1  
    18    9   18 1  
    19   10   19 1  
@<TRIPOS>SUBSTRUCTURE
     1 PMC         1

