1i43_ligand
  -I-interpret- 

 22 22  0  0  0  0  0  0  0  0999 V2000
   69.8420  -21.9140  112.3720 C   0  0  0  0  0
   69.4050  -21.7250  111.0000 C   0  0  0  0  0
   67.9270  -21.3890  110.6470 C   0  0  0  0  0
   66.6650  -22.7400  110.5440 P   0  0  0  0  0
   67.2530  -24.0590  110.9160 O   0  0  0  0  0
   65.5290  -22.4270  111.4620 O   0  0  0  0  0
   66.1340  -22.8290  109.1630 O   0  0  0  0  0
   70.3830  -21.8590  109.9720 C   0  0  0  0  0
   71.7360  -22.1650  110.2810 C   0  0  0  0  0
   72.0920  -22.3290  111.6340 C   0  0  0  0  0
   71.1510  -22.2030  112.6230 N   0  0  0  0  0
   68.9540  -21.8130  113.6160 C   0  0  0  0  0
   68.8490  -22.8870  114.3990 O   0  0  0  0  0
   68.3530  -20.7970  113.9470 O   0  0  0  0  0
   67.9748  -20.9849  109.6358 H   0  0  0  0  0
   67.5869  -20.7625  111.4716 H   0  0  0  0  0
   67.6004  -24.0126  111.8097 H   0  0  0  0  0
   65.8547  -22.3654  112.3629 H   0  0  0  0  0
   70.0883  -21.7245  108.9312 H   0  0  0  0  0
   72.4795  -22.2701  109.4909 H   0  0  0  0  0
   73.1247  -22.5581  111.8969 H   0  0  0  0  0
   69.3649  -23.6054  114.0258 H   0  0  0  0  0
  1  2  4  0  0  0
  1 11  4  0  0  0
  1 12  1  0  0  0
  2  3  1  0  0  0
  2  8  4  0  0  0
  3  4  1  0  0  0
  4  5  1  0  0  0
  4  6  1  0  0  0
  4  7  2  0  0  0
  8  9  4  0  0  0
  9 10  4  0  0  0
 10 11  4  0  0  0
 12 13  1  0  0  0
 12 14  2  0  0  0
  3 15  1  0  0  0
  3 16  1  0  0  0
  5 17  1  0  0  0
  6 18  1  0  0  0
  8 19  1  0  0  0
  9 20  1  0  0  0
 10 21  1  0  0  0
 13 22  1  0  0  0
M  END
$$$$
