6fug_ligand
  -I-interpret- 

 43 46  0  0  0  0  0  0  0  0999 V2000
    1.5830   -1.1800   -9.0950 N   0  0  0  0  0
    2.0500   -2.3520   -8.5290 N   0  0  0  0  0
    3.3160   -2.0810   -8.1290 C   0  0  0  0  0
    3.6910   -0.6970   -8.4710 C   0  0  0  0  0
    2.5090   -0.2070   -9.0740 C   0  0  0  0  0
    3.5100    1.8870   -9.3920 C   0  0  0  0  0
    5.9990   -0.2370   -7.9120 N   0  0  0  0  0
    8.2410    0.0780   -7.3280 C   0  0  0  0  0
    9.4710    0.6980   -7.4550 C   0  0  0  0  0
    8.6440    1.9130   -9.3820 C   0  0  0  0  0
    7.4130    1.2900   -9.2540 C   0  0  0  0  0
    3.9940   -4.3570   -7.5680 C   0  0  0  0  0
   10.4710    0.3650   -6.5780 O   0  0  0  0  0
    9.6740    1.6160   -8.4830 C   0  0  0  0  0
    7.1880    0.3640   -8.2020 C   0  0  0  0  0
    4.7890    0.1690   -8.3630 C   0  0  0  0  0
    4.6490    1.4440   -8.8340 N   0  0  0  0  0
    2.4380    1.0880   -9.5160 N   0  0  0  0  0
    4.1860   -3.0110   -7.6210 N   0  0  0  0  0
    3.1280   -5.0850   -8.3990 C   0  0  0  0  0
    2.9320   -6.4400   -8.1490 C   0  0  0  0  0
    3.5550   -7.0940   -7.0840 C   0  0  0  0  0
    4.4180   -6.3890   -6.2660 C   0  0  0  0  0
    4.6220   -5.0450   -6.5290 C   0  0  0  0  0
    5.1070   -7.0530   -5.0930 C   0  0  0  0  0
    6.5560   -6.9140   -5.2320 N   0  3  0  0  0
    3.4551    2.9147   -9.7509 H   0  0  0  0  0
    6.0232   -1.0579   -7.3071 H   0  0  0  0  0
    8.0896   -0.6487   -6.5298 H   0  0  0  0  0
    8.8098    2.6340  -10.1825 H   0  0  0  0  0
    6.6153    1.5116   -9.9630 H   0  0  0  0  0
   11.2597    0.8711   -6.7866 H   0  0  0  0  0
   10.6419    2.1062   -8.5876 H   0  0  0  0  0
    5.0660   -2.6582   -7.2448 H   0  0  0  0  0
    2.6164   -4.5961   -9.2281 H   0  0  0  0  0
    2.2720   -7.0081   -8.8046 H   0  0  0  0  0
    3.3625   -8.1509   -6.8994 H   0  0  0  0  0
    5.3112   -4.4939   -5.8891 H   0  0  0  0  0
    4.8452   -8.1109   -5.0708 H   0  0  0  0  0
    4.7848   -6.5769   -4.1670 H   0  0  0  0  0
    7.0169   -7.3624   -4.4402 H   0  0  0  0  0
    6.8574   -7.3589   -6.0989 H   0  0  0  0  0
    6.8009   -5.9241   -5.2535 H   0  0  0  0  0
  1  2  4  0  0  0
  5  1  4  0  0  0
  3  2  4  0  0  0
  4  3  4  0  0  0
  3 19  1  0  0  0
  4  5  4  0  0  0
 16  4  4  0  0  0
  5 18  4  0  0  0
  6 17  4  0  0  0
 18  6  4  0  0  0
 15  7  1  0  0  0
  7 16  1  0  0  0
  9  8  4  0  0  0
  8 15  4  0  0  0
  9 13  1  0  0  0
 14  9  4  0  0  0
 10 11  4  0  0  0
 10 14  4  0  0  0
 11 15  4  0  0  0
 19 12  1  0  0  0
 12 20  4  0  0  0
 12 24  4  0  0  0
 16 17  4  0  0  0
 20 21  4  0  0  0
 21 22  4  0  0  0
 22 23  4  0  0  0
 23 24  4  0  0  0
 23 25  1  0  0  0
 25 26  1  0  0  0
  6 27  1  0  0  0
  7 28  1  0  0  0
  8 29  1  0  0  0
 10 30  1  0  0  0
 11 31  1  0  0  0
 13 32  1  0  0  0
 14 33  1  0  0  0
 19 34  1  0  0  0
 20 35  1  0  0  0
 21 36  1  0  0  0
 22 37  1  0  0  0
 24 38  1  0  0  0
 25 39  1  0  0  0
 25 40  1  0  0  0
 26 41  1  0  0  0
 26 42  1  0  0  0
 26 43  1  0  0  0
M  END
$$$$
