5f4u_ligand
  -I-interpret- 

 60 62  0  0  0  0  0  0  0  0999 V2000
  -12.0250  -54.1770   17.9230 C   0  0  0  0  0
  -11.6630  -52.8440   17.7640 C   0  0  0  0  0
  -11.9580  -51.9370   18.7340 F   0  0  0  0  0
  -10.9970  -52.4380   16.6130 C   0  0  0  0  0
  -10.5470  -50.7830   16.4160 Cl  0  0  0  0  0
  -10.6940  -53.3630   15.6210 C   0  0  0  0  0
  -11.0560  -54.6950   15.7800 C   0  0  0  0  0
  -11.7210  -55.1010   16.9310 C   0  0  0  0  0
  -12.0710  -56.3880   17.0850 N   0  0  0  0  0
  -13.3390  -56.6780   17.5190 C   0  0  0  0  0
  -14.1660  -55.8050   17.8010 O   0  0  0  0  0
  -13.8480  -58.1490   17.6920 C   0  0  0  0  0
  -13.0440  -59.0330   17.4010 O   0  0  0  0  0
  -15.0850  -58.5020   18.1290 N   0  0  0  0  0
  -15.6650  -59.8400   18.3180 C   0  0  0  0  0
  -16.7460  -59.7730   19.2010 C   0  0  0  0  0
  -16.7390  -59.7240   20.5330 C   0  0  0  0  0
  -17.9260  -59.6590   21.2460 C   0  0  0  0  0
  -17.9180  -59.6080   22.6360 C   0  0  0  0  0
  -17.9040  -60.9740   23.1770 N   0  0  0  0  0
  -17.9810  -62.1290   22.2680 C   0  0  0  0  0
  -17.8210  -61.2140   24.5010 C   0  0  0  0  0
  -17.8090  -62.4660   24.9910 N   0  0  0  0  0
  -17.7490  -60.1860   25.3610 N   0  0  0  0  0
  -19.1200  -59.6500   20.5470 C   0  0  0  0  0
  -19.0740  -59.7040   19.1620 C   0  0  0  0  0
  -17.9090  -59.7620   18.5190 C   0  0  0  0  0
  -17.6660  -59.8220   17.1450 C   0  0  0  0  0
  -16.2580  -60.3280   17.0270 C   0  0  0  0  0
  -16.0600  -61.3710   16.7360 C   0  0  0  0  0
  -14.5490  -61.5230   16.1340 N   0  0  0  0  0
  -13.4030  -62.4190   16.1400 C   0  0  0  0  0
  -13.2430  -62.7900   17.2260 N   0  0  0  0  0
  -11.9580  -62.6250   15.7650 N   0  0  0  0  0
  -12.5468  -54.4968   18.8250 H   0  0  0  0  0
  -10.1726  -53.0437   14.7186 H   0  0  0  0  0
  -10.8186  -55.4211   15.0025 H   0  0  0  0  0
  -11.4068  -57.1353   16.8831 H   0  0  0  0  0
  -15.7027  -57.7239   18.3602 H   0  0  0  0  0
  -14.8702  -60.4901   18.6837 H   0  0  0  0  0
  -15.7892  -59.7352   21.0676 H   0  0  0  0  0
  -18.8102  -59.0883   22.9853 H   0  0  0  0  0
  -17.0299  -59.0743   22.9746 H   0  0  0  0  0
  -18.9096  -62.0808   21.6992 H   0  0  0  0  0
  -17.1328  -62.1084   21.5837 H   0  0  0  0  0
  -17.9574  -63.0502   22.8502 H   0  0  0  0  0
  -17.7462  -62.6192   25.9975 H   0  0  0  0  0
  -17.8627  -63.2626   24.3563 H   0  0  0  0  0
  -17.7572  -59.2276   25.0120 H   0  0  0  0  0
  -20.0739  -59.6016   21.0723 H   0  0  0  0  0
  -20.0032  -59.6989   18.5923 H   0  0  0  0  0
  -17.7893  -58.8497   16.6681 H   0  0  0  0  0
  -18.3757  -60.4737   16.6353 H   0  0  0  0  0
  -15.7730  -59.9471   16.1282 H   0  0  0  0  0
  -16.7768  -61.6660   15.9697 H   0  0  0  0  0
  -16.1553  -62.0073   17.6158 H   0  0  0  0  0
  -14.3359  -60.7107   15.5551 H   0  0  0  0  0
  -13.8647  -62.4732   17.9700 H   0  0  0  0  0
  -11.2984  -62.9849   16.4548 H   0  0  0  0  0
  -11.6396  -62.4045   14.8214 H   0  0  0  0  0
  1  2  4  0  0  0
  1  8  4  0  0  0
  2  3  1  0  0  0
  2  4  4  0  0  0
  4  5  1  0  0  0
  4  6  4  0  0  0
  6  7  4  0  0  0
  7  8  4  0  0  0
  8  9  1  0  0  0
  9 10  1  0  0  0
 10 11  2  0  0  0
 10 12  1  0  0  0
 12 13  2  0  0  0
 12 14  1  0  0  0
 14 15  1  0  0  0
 15 16  1  0  0  0
 15 29  1  0  0  0
 16 17  4  0  0  0
 16 27  4  0  0  0
 17 18  4  0  0  0
 18 19  1  0  0  0
 18 25  4  0  0  0
 19 20  1  0  0  0
 20 21  1  0  0  0
 20 22  1  0  0  0
 22 23  1  0  0  0
 22 24  2  0  0  0
 25 26  4  0  0  0
 26 27  4  0  0  0
 27 28  1  0  0  0
 28 29  1  0  0  0
 29 30  1  0  0  0
 30 31  1  0  0  0
 31 32  1  0  0  0
 32 33  2  0  0  0
 32 34  1  0  0  0
  1 35  1  0  0  0
  6 36  1  0  0  0
  7 37  1  0  0  0
  9 38  1  0  0  0
 14 39  1  0  0  0
 15 40  1  0  0  0
 17 41  1  0  0  0
 19 42  1  0  0  0
 19 43  1  0  0  0
 21 44  1  0  0  0
 21 45  1  0  0  0
 21 46  1  0  0  0
 23 47  1  0  0  0
 23 48  1  0  0  0
 24 49  1  0  0  0
 25 50  1  0  0  0
 26 51  1  0  0  0
 28 52  1  0  0  0
 28 53  1  0  0  0
 29 54  1  0  0  0
 30 55  1  0  0  0
 30 56  1  0  0  0
 31 57  1  0  0  0
 33 58  1  0  0  0
 34 59  1  0  0  0
 34 60  1  0  0  0
M  END
$$$$
