1mns_ligand
  -I-interpret- 

 22 22  0  0  0  0  0  0  0  0999 V2000
   32.4760    3.3490   15.6260 C   0  0  0  0  0
   31.2440    3.4670   16.2920 C   0  0  0  0  0
   31.0520    4.4560   17.2520 C   0  0  0  0  0
   32.1040    5.3350   17.5590 C   0  0  0  0  0
   33.3280    5.2160   16.8990 C   0  0  0  0  0
   33.5170    4.2270   15.9350 C   0  0  0  0  0
   29.7020    4.4770   18.0160 C   0  0  0  0  0
   28.6810    3.6440   17.4700 O   0  0  0  0  0
   29.1240    5.8820   18.3470 C   0  0  0  0  0
   30.1620    3.8860   19.3610 C   0  0  0  0  0
   29.8350    6.7730   18.8070 O   0  0  0  0  0
   27.9190    6.0570   18.1780 O   0  0  0  0  0
   32.6183    2.5754   14.8714 H   0  0  0  0  0
   30.4328    2.7787   16.0548 H   0  0  0  0  0
   31.9643    6.1100   18.3127 H   0  0  0  0  0
   34.1414    5.9008   17.1389 H   0  0  0  0  0
   34.4755    4.1392   15.4234 H   0  0  0  0  0
   29.0479    2.7799   17.2693 H   0  0  0  0  0
   29.3153    3.8430   20.0461 H   0  0  0  0  0
   30.5524    2.8811   19.2003 H   0  0  0  0  0
   30.9429    4.5169   19.7856 H   0  0  0  0  0
   27.5289    5.2591   17.8136 H   0  0  0  0  0
  1  2  4  0  0  0
  1  6  4  0  0  0
  2  3  4  0  0  0
  3  4  4  0  0  0
  3  7  1  0  0  0
  4  5  4  0  0  0
  5  6  4  0  0  0
  7  8  1  0  0  0
  7  9  1  0  0  0
  7 10  1  0  0  0
  9 11  2  0  0  0
  9 12  1  0  0  0
  1 13  1  0  0  0
  2 14  1  0  0  0
  4 15  1  0  0  0
  5 16  1  0  0  0
  6 17  1  0  0  0
  8 18  1  0  0  0
 10 19  1  0  0  0
 10 20  1  0  0  0
 10 21  1  0  0  0
 12 22  1  0  0  0
M  END
$$$$
