5ey4_ligand
  -I-interpret- 

 46 48  0  0  0  0  0  0  0  0999 V2000
   17.9770  -17.1990   -3.4900 P   0  0  0  0  0
   17.8170  -17.6120   -4.9140 O   0  0  0  0  0
   19.0690  -16.1690   -3.4240 O   0  0  0  0  0
   18.3720  -18.3190   -2.6220 O   0  0  0  0  0
   16.0950  -15.1150   -2.8680 P   0  0  0  0  0
   16.2980  -14.4040   -4.1570 O   0  0  0  0  0
   14.6880  -14.9800   -2.4300 O   0  0  0  0  0
   16.5700  -16.6190   -3.0020 O   0  0  0  0  0
   16.9240  -13.3810   -0.7060 P   0  0  0  0  0
   16.5060  -12.0960   -1.3480 O   0  0  0  0  0
   18.2900  -13.2360   -0.0610 O   0  0  0  0  0
   17.0640  -14.5390   -1.7610 O   0  0  0  0  0
   15.7950  -13.7120    0.4160 O   0  0  0  0  0
   15.7470  -15.0290    1.0140 C   0  0  0  0  0
   14.6070  -15.0960    2.0140 C   0  0  0  0  0
   14.7250  -14.0630    2.9970 O   0  0  0  0  0
   13.2210  -14.9150    1.3910 C   0  0  0  0  0
   12.3600  -15.7470    2.1090 O   0  0  0  0  0
   12.8490  -13.4470    1.6730 C   0  0  0  0  0
   13.5620  -13.2400    3.0270 C   0  0  0  0  0
   14.0430  -11.8820    3.3080 N   0  0  0  0  0
   15.0200  -11.2490    2.6530 C   0  0  0  0  0
   15.2550  -10.0730    3.2060 N   0  0  0  0  0
   14.4400   -9.9540    4.2490 C   0  0  0  0  0
   14.2130   -8.9720    5.2100 C   0  0  0  0  0
   14.9190   -7.8020    5.2010 N   0  0  0  0  0
   13.2820   -9.1800    6.1360 N   0  0  0  0  0
   12.5740  -10.3160    6.1210 C   0  0  0  0  0
   12.7460  -11.2960    5.2460 N   0  0  0  0  0
   13.6700  -11.1110    4.3100 C   0  0  0  0  0
   17.5598  -16.8510   -5.4397 H   0  0  0  0  0
   18.8382  -15.4233   -3.9828 H   0  0  0  0  0
   17.2130  -14.4976   -4.4321 H   0  0  0  0  0
   18.5410  -14.0689    0.3450 H   0  0  0  0  0
   16.6886  -15.2278    1.5259 H   0  0  0  0  0
   15.5879  -15.7740    0.2345 H   0  0  0  0  0
   14.6886  -16.0951    2.4420 H   0  0  0  0  0
   13.1752  -15.1451    0.3265 H   0  0  0  0  0
   11.4715  -15.6689    1.7540 H   0  0  0  0  0
   11.7768  -13.2524    1.6962 H   0  0  0  0  0
   13.1547  -12.7490    0.8936 H   0  0  0  0  0
   12.8222  -13.4717    3.7932 H   0  0  0  0  0
   15.5478  -11.6463    1.7860 H   0  0  0  0  0
   15.6246   -7.6376    4.4830 H   0  0  0  0  0
   14.7403   -7.0931    5.9122 H   0  0  0  0  0
   11.8030  -10.4436    6.8809 H   0  0  0  0  0
  1  2  1  0  0  0
  1  3  1  0  0  0
  1  4  2  0  0  0
  8  1  1  0  0  0
  5  6  1  0  0  0
  5  7  2  0  0  0
  5  8  1  0  0  0
 12  5  1  0  0  0
  9 10  2  0  0  0
  9 11  1  0  0  0
  9 12  1  0  0  0
  9 13  1  0  0  0
 13 14  1  0  0  0
 14 15  1  0  0  0
 15 16  1  0  0  0
 15 17  1  0  0  0
 16 20  1  0  0  0
 17 18  1  0  0  0
 17 19  1  0  0  0
 19 20  1  0  0  0
 20 21  1  0  0  0
 21 22  4  0  0  0
 21 30  4  0  0  0
 22 23  4  0  0  0
 23 24  4  0  0  0
 24 25  4  0  0  0
 24 30  4  0  0  0
 25 26  1  0  0  0
 25 27  4  0  0  0
 27 28  4  0  0  0
 28 29  4  0  0  0
 29 30  4  0  0  0
  2 31  1  0  0  0
  3 32  1  0  0  0
  6 33  1  0  0  0
 11 34  1  0  0  0
 14 35  1  0  0  0
 14 36  1  0  0  0
 15 37  1  0  0  0
 17 38  1  0  0  0
 18 39  1  0  0  0
 19 40  1  0  0  0
 19 41  1  0  0  0
 20 42  1  0  0  0
 22 43  1  0  0  0
 26 44  1  0  0  0
 26 45  1  0  0  0
 28 46  1  0  0  0
M  END
$$$$
