5ab9_ligand
  -I-interpret- 

 37 39  0  0  0  0  0  0  0  0999 V2000
   93.7580   92.0400  -41.5680 C   0  0  0  0  0
   91.9890   95.1010  -40.9440 N   0  0  0  0  0
   92.2620   92.1210  -41.6260 C   0  0  0  0  0
   90.7080  100.2510  -44.6660 N   0  3  0  0  0
   91.8830   93.2420  -42.5880 C   0  0  0  0  0
   91.6320   93.0080  -43.9470 C   0  0  0  0  0
   91.2990   94.0570  -44.8110 C   0  0  0  0  0
   91.2160   95.3690  -44.3570 C   0  0  0  0  0
   91.4620   95.6580  -43.0130 C   0  0  0  0  0
   91.4670   96.8260  -42.2510 C   0  0  0  0  0
   91.8000   96.4440  -40.9680 C   0  0  0  0  0
   91.7930   94.5820  -42.1680 C   0  0  0  0  0
   91.1910   98.2520  -42.6920 C   0  0  0  0  0
   92.2520   98.7030  -43.6360 C   0  0  0  0  0
   92.0360  100.1240  -44.0780 C   0  0  0  0  0
   89.6340   99.8180  -43.7800 C   0  0  0  0  0
   89.8580   98.4040  -43.3350 C   0  0  0  0  0
   94.1480   91.8282  -42.5636 H   0  0  0  0  0
   94.1586   92.9899  -41.2140 H   0  0  0  0  0
   94.0512   91.2432  -40.8844 H   0  0  0  0  0
   91.8589   92.3258  -40.6342 H   0  0  0  0  0
   91.8484   91.1739  -41.9724 H   0  0  0  0  0
   90.6813   99.6549  -45.4932 H   0  0  0  0  0
   90.5569  101.2389  -44.8700 H   0  0  0  0  0
   91.6973   91.9923  -44.3371 H   0  0  0  0  0
   91.1007   93.8416  -45.8609 H   0  0  0  0  0
   90.9592   96.1707  -45.0494 H   0  0  0  0  0
   91.8957   97.1127  -40.1125 H   0  0  0  0  0
   91.1934   98.8708  -41.7947 H   0  0  0  0  0
   92.2234   98.0614  -44.5167 H   0  0  0  0  0
   93.2133   98.6445  -43.1255 H   0  0  0  0  0
   92.1190  100.7893  -43.2186 H   0  0  0  0  0
   92.7894  100.3937  -44.8181 H   0  0  0  0  0
   88.6874   99.8743  -44.3174 H   0  0  0  0  0
   89.6149  100.4661  -42.9038 H   0  0  0  0  0
   89.0880   98.1394  -42.6103 H   0  0  0  0  0
   89.8142   97.7519  -44.2073 H   0  0  0  0  0
  3  1  1  0  0  0
 11  2  4  0  0  0
  2 12  4  0  0  0
  5  3  1  0  0  0
 15  4  1  0  0  0
  4 16  1  0  0  0
  5  6  4  0  0  0
 12  5  4  0  0  0
  7  6  4  0  0  0
  8  7  4  0  0  0
  9  8  4  0  0  0
 10  9  4  0  0  0
  9 12  4  0  0  0
 10 11  4  0  0  0
 13 10  1  0  0  0
 14 13  1  0  0  0
 13 17  1  0  0  0
 14 15  1  0  0  0
 16 17  1  0  0  0
  1 18  1  0  0  0
  1 19  1  0  0  0
  1 20  1  0  0  0
  3 21  1  0  0  0
  3 22  1  0  0  0
  4 23  1  0  0  0
  4 24  1  0  0  0
  6 25  1  0  0  0
  7 26  1  0  0  0
  8 27  1  0  0  0
 11 28  1  0  0  0
 13 29  1  0  0  0
 14 30  1  0  0  0
 14 31  1  0  0  0
 15 32  1  0  0  0
 15 33  1  0  0  0
 16 34  1  0  0  0
 16 35  1  0  0  0
 17 36  1  0  0  0
 17 37  1  0  0  0
M  END
$$$$
