4jwk_ligand
  -I-interpret- 

 29 30  0  0  0  0  0  0  0  0999 V2000
   -1.0750   12.3730   25.3260 O   0  0  0  0  0
   -0.5530   13.6980   25.5890 C   0  0  0  0  0
   -0.0030   13.7640   27.0110 C   0  0  0  0  0
    1.1770   14.5570   27.2290 O   0  0  0  0  0
    1.3810   14.5620   28.6540 C   0  0  0  0  0
    1.9470   15.7830   29.2660 N   0  0  0  0  0
    2.4740   15.6380   30.4950 C   0  0  0  0  0
    3.0270   16.7060   31.1910 C   0  0  0  0  0
    3.0350   17.9630   30.6030 C   0  0  0  0  0
    2.4990   18.1300   29.3670 N   0  0  0  0  0
    1.9550   17.0860   28.6760 C   0  0  0  0  0
    1.4840   17.3100   27.5370 O   0  0  0  0  0
    3.5790   19.0090   31.2800 N   0  0  0  0  0
   -0.0100   14.3050   29.2340 C   0  0  0  0  0
    0.0120   13.0300   29.8930 O   0  0  0  0  0
   -0.9510   14.2910   28.0440 C   0  0  0  0  0
   -2.0440   13.3870   28.1980 O   0  0  0  0  0
   -1.4193   12.3379   24.4306 H   0  0  0  0  0
   -1.3535   14.4294   25.4779 H   0  0  0  0  0
    0.2476   13.9168   24.8824 H   0  0  0  0  0
    0.2107   12.7010   27.1230 H   0  0  0  0  0
    2.1434   13.8160   28.8781 H   0  0  0  0  0
    2.4671   14.6519   30.9595 H   0  0  0  0  0
    3.4487   16.5585   32.1852 H   0  0  0  0  0
    3.5890   19.9385   30.8600 H   0  0  0  0  0
   -0.3239   15.0557   29.9593 H   0  0  0  0  0
    0.6138   13.0675   30.6400 H   0  0  0  0  0
   -1.4294   15.2499   27.8449 H   0  0  0  0  0
   -2.6005   13.4235   27.4166 H   0  0  0  0  0
  1  2  1  0  0  0
  2  3  1  0  0  0
  3  4  1  0  0  0
  3 16  1  0  0  0
  4  5  1  0  0  0
  5  6  1  0  0  0
  5 14  1  0  0  0
  6  7  1  0  0  0
  6 11  1  0  0  0
  7  8  2  0  0  0
  8  9  1  0  0  0
  9 10  4  0  0  0
  9 13  2  0  0  0
 10 11  1  0  0  0
 11 12  2  0  0  0
 14 15  1  0  0  0
 14 16  1  0  0  0
 16 17  1  0  0  0
  1 18  1  0  0  0
  2 19  1  0  0  0
  2 20  1  0  0  0
  3 21  1  0  0  0
  5 22  1  0  0  0
  7 23  1  0  0  0
  8 24  1  0  0  0
 13 25  1  0  0  0
 14 26  1  0  0  0
 15 27  1  0  0  0
 16 28  1  0  0  0
 17 29  1  0  0  0
M  END
$$$$
