4poj_ligand
  -I-interpret- 

 45 46  0  0  0  0  0  0  0  0999 V2000
   65.9450   46.3490   29.7670 C   0  0  0  0  0
   66.7690   45.2920   30.5090 C   0  0  0  0  0
   67.4350   45.8210   31.7810 C   0  0  0  0  0
   66.4700   46.6030   32.6610 C   0  0  0  0  0
   66.7260   46.6670   34.0180 C   0  0  0  0  0
   65.9010   47.3970   34.8720 C   0  0  0  0  0
   64.7940   48.0530   34.3680 C   0  0  0  0  0
   63.8750   48.8530   35.2930 C   0  0  0  0  0
   64.5150   47.9760   32.9980 C   0  0  0  0  0
   65.3380   47.2740   32.1460 C   0  0  0  0  0
   65.0740   47.1850   30.7180 C   0  0  0  0  0
   64.0150   47.9020   30.1890 C   0  0  0  0  0
   63.6760   47.9040   28.7440 C   0  0  0  0  0
   64.7380   48.3340   27.7350 C   0  0  0  0  0
   62.4210   47.5600   28.2950 C   0  0  0  0  0
   61.3210   47.1760   29.1890 C   0  0  0  0  0
   60.1290   46.6860   28.6550 C   0  0  0  0  0
   59.0150   46.3160   29.5150 C   0  0  0  0  0
   59.2570   45.5120   30.7940 C   0  0  0  0  0
   57.7230   46.7010   29.1200 C   0  0  0  0  0
   56.5050   46.4010   29.8610 C   0  0  0  0  0
   55.5530   47.2040   29.7230 O   0  0  0  0  0
   56.4690   45.4000   30.6140 O   0  0  0  0  0
   65.9733   46.4920   28.6868 H   0  0  0  0  0
   66.8710   44.2630   30.1643 H   0  0  0  0  0
   68.4835   45.6562   32.0293 H   0  0  0  0  0
   67.5869   46.1380   34.4267 H   0  0  0  0  0
   66.1288   47.4504   35.9366 H   0  0  0  0  0
   63.4591   48.1902   36.0518 H   0  0  0  0  0
   64.4474   49.6454   35.7752 H   0  0  0  0  0
   63.0659   49.2914   34.7088 H   0  0  0  0  0
   63.6336   48.4790   32.6002 H   0  0  0  0  0
   64.2998   48.9372   30.3769 H   0  0  0  0  0
   63.1451   47.4300   30.6457 H   0  0  0  0  0
   64.9154   47.5233   27.0284 H   0  0  0  0  0
   64.3907   49.2165   27.1977 H   0  0  0  0  0
   65.6635   48.5682   28.2611 H   0  0  0  0  0
   62.2342   47.5733   27.2212 H   0  0  0  0  0
   61.4358   47.2737   30.2685 H   0  0  0  0  0
   60.0304   46.5784   27.5748 H   0  0  0  0  0
   58.8941   46.0783   31.6517 H   0  0  0  0  0
   58.7240   44.5633   30.7316 H   0  0  0  0  0
   60.3247   45.3237   30.9067 H   0  0  0  0  0
   57.6247   47.2648   28.1923 H   0  0  0  0  0
   57.3051   44.9312   30.5614 H   0  0  0  0  0
  1  2  4  0  0  0
  1 11  4  0  0  0
  2  3  4  0  0  0
  3  4  4  0  0  0
  4  5  4  0  0  0
  4 10  4  0  0  0
  5  6  4  0  0  0
  6  7  4  0  0  0
  7  8  1  0  0  0
  7  9  4  0  0  0
  9 10  4  0  0  0
 10 11  4  0  0  0
 11 12  1  0  0  0
 12 13  1  0  0  0
 13 14  1  0  0  0
 13 15  2  0  0  0
 15 16  1  0  0  0
 16 17  2  0  0  0
 17 18  1  0  0  0
 18 19  1  0  0  0
 18 20  2  0  0  0
 20 21  1  0  0  0
 21 22  2  0  0  0
 21 23  1  0  0  0
  1 24  1  0  0  0
  2 25  1  0  0  0
  3 26  1  0  0  0
  5 27  1  0  0  0
  6 28  1  0  0  0
  8 29  1  0  0  0
  8 30  1  0  0  0
  8 31  1  0  0  0
  9 32  1  0  0  0
 12 33  1  0  0  0
 12 34  1  0  0  0
 14 35  1  0  0  0
 14 36  1  0  0  0
 14 37  1  0  0  0
 15 38  1  0  0  0
 16 39  1  0  0  0
 17 40  1  0  0  0
 19 41  1  0  0  0
 19 42  1  0  0  0
 19 43  1  0  0  0
 20 44  1  0  0  0
 23 45  1  0  0  0
M  END
$$$$
