4qgh_ligand
  -I-interpret- 

 70 73  0  0  0  0  0  0  0  0999 V2000
   15.9880   -2.0650    3.1700 C   0  0  0  0  0
   14.4520    0.9130    8.1210 C   0  0  0  0  0
   13.4400    1.6810    7.5640 C   0  0  0  0  0
   15.9240   -1.1540    4.2120 C   0  0  0  0  0
   16.9300   -1.8830    2.1680 C   0  0  0  0  0
   17.7050    0.1350    3.2640 C   0  0  0  0  0
   15.5810    0.6340    7.3740 C   0  0  0  0  0
   13.5180    2.1530    6.2540 C   0  0  0  0  0
   16.7820   -0.0750    4.2680 C   0  0  0  0  0
   15.6620    1.0740    6.0640 C   0  0  0  0  0
   14.6480    1.8390    5.5220 C   0  0  0  0  0
   17.7520   -0.7730    2.2230 C   0  0  0  0  0
   11.4530   -1.1250    2.1470 C   0  0  0  0  0
   11.8380   -1.8750    1.0970 C   0  0  0  0  0
   11.6200   -1.2910   -0.2490 C   0  0  0  0  0
   10.7320    0.7630    0.8240 C   0  0  0  0  0
   16.6700   -0.1790    7.9520 C   0  0  0  0  0
    9.2760    0.8880    5.4350 C   0  0  0  0  0
    9.6520    0.0570    4.2160 C   0  0  0  0  0
   10.5610    1.4200    6.0440 C   0  0  0  0  0
   11.7010    1.4900    3.9190 C   0  0  0  0  0
   10.4820    0.8870    3.2300 C   0  0  0  0  0
   12.4410   -3.2430    1.2310 C   0  0  0  0  0
   13.7670    5.7860    5.6120 C   0  0  0  0  0
   12.5230    6.2930    7.6950 C   0  0  0  0  0
   12.0180    4.1740    6.5160 C   0  0  0  0  0
   12.4480    3.0180    5.5960 C   0  0  0  0  0
   13.1070    5.1850    6.8390 C   0  0  0  0  0
   11.0880   -0.0030   -0.2680 N   0  0  0  0  0
   10.8910    0.1360    2.0440 N   0  0  0  0  0
   11.2670    2.2820    5.0730 N   0  3  0  0  0
   11.8990   -1.8990   -1.2820 O   0  0  0  0  0
   10.3320    1.9200    0.7080 O   0  0  0  0  0
   17.1640   -1.1550    7.4100 O   0  0  0  0  0
   17.0350    0.3170    9.1620 O   0  0  0  0  0
   16.7900    0.8660    5.3030 O   0  0  0  0  0
   14.8020    2.2760    4.2480 F   0  0  0  0  0
   18.8980   -0.4940    0.9790 Cl  0  0  0  0  0
   15.3061   -2.9148    3.1379 H   0  0  0  0  0
   14.3578    0.5331    9.1383 H   0  0  0  0  0
   12.5627    1.9214    8.1646 H   0  0  0  0  0
   15.1839   -1.2920    5.0002 H   0  0  0  0  0
   17.0202   -2.6013    1.3532 H   0  0  0  0  0
   18.3777    0.9923    3.2911 H   0  0  0  0  0
   11.5933   -1.5387    3.1456 H   0  0  0  0  0
    8.7370    0.2772    6.1593 H   0  0  0  0  0
    8.6232    1.7118    5.1462 H   0  0  0  0  0
    8.7396   -0.2723    3.7188 H   0  0  0  0  0
   10.2434   -0.7988    4.5415 H   0  0  0  0  0
   11.2040    0.5810    6.3099 H   0  0  0  0  0
   10.3198    2.0052    6.9314 H   0  0  0  0  0
   12.2347    2.1315    3.2178 H   0  0  0  0  0
   12.3616    0.6905    4.2544 H   0  0  0  0  0
    9.8285    1.6883    2.8850 H   0  0  0  0  0
   13.3596   -3.1782    1.8142 H   0  0  0  0  0
   11.7346   -3.9022    1.7355 H   0  0  0  0  0
   12.6652   -3.6385    0.2403 H   0  0  0  0  0
   13.0247    6.3378    5.0353 H   0  0  0  0  0
   14.5630    6.4623    5.9237 H   0  0  0  0  0
   14.1857    4.9881    4.9987 H   0  0  0  0  0
   13.3198    6.9689    8.0053 H   0  0  0  0  0
   11.7815    6.8445    7.1169 H   0  0  0  0  0
   12.0496    5.8589    8.5756 H   0  0  0  0  0
   11.7175    3.7250    7.4627 H   0  0  0  0  0
   11.2333    4.7172    5.9895 H   0  0  0  0  0
   12.9350    3.4248    4.7097 H   0  0  0  0  0
   13.8875    4.6442    7.3742 H   0  0  0  0  0
   10.9467    0.4184   -1.1861 H   0  0  0  0  0
   10.5765    2.9902    4.8237 H   0  0  0  0  0
   16.4985    1.0865    9.3662 H   0  0  0  0  0
  4  1  4  0  0  0
  1  5  4  0  0  0
  3  2  4  0  0  0
  2  7  4  0  0  0
  8  3  4  0  0  0
  9  4  4  0  0  0
 12  5  4  0  0  0
  9  6  4  0  0  0
  6 12  4  0  0  0
 10  7  4  0  0  0
  7 17  1  0  0  0
  8 11  4  0  0  0
 27  8  1  0  0  0
 36  9  1  0  0  0
 11 10  4  0  0  0
 10 36  1  0  0  0
 11 37  1  0  0  0
 12 38  1  0  0  0
 13 14  2  0  0  0
 30 13  1  0  0  0
 14 15  1  0  0  0
 14 23  1  0  0  0
 29 15  1  0  0  0
 15 32  2  0  0  0
 16 29  1  0  0  0
 30 16  1  0  0  0
 16 33  2  0  0  0
 17 34  2  0  0  0
 17 35  1  0  0  0
 18 19  1  0  0  0
 20 18  1  0  0  0
 22 19  1  0  0  0
 31 20  1  0  0  0
 21 22  1  0  0  0
 31 21  1  0  0  0
 22 30  1  0  0  0
 28 24  1  0  0  0
 28 25  1  0  0  0
 27 26  1  0  0  0
 26 28  1  0  0  0
 27 31  1  0  0  0
  1 39  1  0  0  0
  2 40  1  0  0  0
  3 41  1  0  0  0
  4 42  1  0  0  0
  5 43  1  0  0  0
  6 44  1  0  0  0
 13 45  1  0  0  0
 18 46  1  0  0  0
 18 47  1  0  0  0
 19 48  1  0  0  0
 19 49  1  0  0  0
 20 50  1  0  0  0
 20 51  1  0  0  0
 21 52  1  0  0  0
 21 53  1  0  0  0
 22 54  1  0  0  0
 23 55  1  0  0  0
 23 56  1  0  0  0
 23 57  1  0  0  0
 24 58  1  0  0  0
 24 59  1  0  0  0
 24 60  1  0  0  0
 25 61  1  0  0  0
 25 62  1  0  0  0
 25 63  1  0  0  0
 26 64  1  0  0  0
 26 65  1  0  0  0
 27 66  1  0  0  0
 28 67  1  0  0  0
 29 68  1  0  0  0
 31 69  1  0  0  0
 35 70  1  0  0  0
M  END
$$$$
