4j17_ligand
  -I-interpret- 

 42 44  0  0  0  0  0  0  0  0999 V2000
  -22.2180  -43.4590   -2.2890 C   0  0  0  0  0
  -22.3720  -42.7980   -3.5000 C   0  0  0  0  0
  -21.4260  -41.8800   -3.9410 C   0  0  0  0  0
  -20.3700  -41.5910   -3.2300 N   0  0  0  0  0
  -20.1150  -42.1780   -2.0720 C   0  0  0  0  0
  -20.4290  -40.5840   -5.7190 N   0  0  0  0  0
  -19.6440  -38.9510   -9.4610 C   0  0  0  0  0
  -21.0220  -43.1360   -1.5880 C   0  0  0  0  0
  -21.5450  -41.1990   -5.2350 C   0  0  0  0  0
  -22.5910  -41.2510   -5.8730 O   0  0  0  0  0
  -20.7760  -43.7580   -0.3250 C   0  0  0  0  0
  -20.5990  -44.2470    0.6630 N   0  0  0  0  0
  -20.2570  -39.9620   -6.9510 C   0  0  0  0  0
  -21.3330  -39.7080   -7.8650 C   0  0  0  0  0
  -20.9920  -39.2250   -9.1500 C   0  0  0  0  0
  -18.5760  -39.2170   -8.5260 C   0  0  0  0  0
  -18.9040  -39.7550   -7.2990 C   0  0  0  0  0
  -19.2520  -38.4440  -10.7010 F   0  0  0  0  0
  -17.0890  -39.0050   -8.9110 C   0  0  0  0  0
  -16.5650  -40.0530   -9.9440 C   0  0  0  0  0
  -16.4660  -41.4360   -9.3120 C   0  0  0  0  0
  -15.5440  -41.2290   -8.1740 O   0  0  0  0  0
  -15.5140  -40.1250   -7.4390 C   0  0  0  0  0
  -16.1990  -39.0650   -7.7080 N   0  0  0  0  0
  -16.8580  -37.6310   -9.4800 C   0  0  0  0  0
  -17.2550  -36.6460   -8.5870 F   0  0  0  0  0
  -15.5220  -37.4610   -9.7160 F   0  0  0  0  0
  -14.7090  -40.1780   -6.2760 N   0  0  0  0  0
  -22.9528  -44.1673   -1.9063 H   0  0  0  0  0
  -23.2486  -43.0021   -4.1148 H   0  0  0  0  0
  -19.2195  -41.9237   -1.5049 H   0  0  0  0  0
  -19.6183  -40.5794   -5.1000 H   0  0  0  0  0
  -22.3711  -39.8802   -7.5809 H   0  0  0  0  0
  -21.7688  -39.0650   -9.8977 H   0  0  0  0  0
  -18.1157  -40.0215   -6.5950 H   0  0  0  0  0
  -15.5736  -39.7490  -10.2798 H   0  0  0  0  0
  -17.2616  -40.0990  -10.7811 H   0  0  0  0  0
  -16.1049  -42.1904  -10.0110 H   0  0  0  0  0
  -17.4357  -41.8234   -8.9995 H   0  0  0  0  0
  -16.1332  -38.2551   -7.0915 H   0  0  0  0  0
  -17.4392  -37.5458  -10.3981 H   0  0  0  0  0
  -14.1971  -41.0304   -6.0485 H   0  0  0  0  0
  2  1  4  0  0  0
  1  8  4  0  0  0
  3  2  4  0  0  0
  3  4  4  0  0  0
  9  3  1  0  0  0
  4  5  4  0  0  0
  5  8  4  0  0  0
  6  9  1  0  0  0
 13  6  1  0  0  0
 15  7  4  0  0  0
  7 16  4  0  0  0
  7 18  1  0  0  0
  8 11  1  0  0  0
  9 10  2  0  0  0
 11 12  3  0  0  0
 14 13  4  0  0  0
 13 17  4  0  0  0
 14 15  4  0  0  0
 16 17  4  0  0  0
 16 19  1  0  0  0
 19 20  1  0  0  0
 19 24  1  0  0  0
 19 25  1  0  0  0
 20 21  1  0  0  0
 21 22  1  0  0  0
 22 23  1  0  0  0
 23 24  1  0  0  0
 23 28  2  0  0  0
 25 26  1  0  0  0
 25 27  1  0  0  0
  1 29  1  0  0  0
  2 30  1  0  0  0
  5 31  1  0  0  0
  6 32  1  0  0  0
 14 33  1  0  0  0
 15 34  1  0  0  0
 17 35  1  0  0  0
 20 36  1  0  0  0
 20 37  1  0  0  0
 21 38  1  0  0  0
 21 39  1  0  0  0
 24 40  1  0  0  0
 25 41  1  0  0  0
 28 42  1  0  0  0
M  END
$$$$
