3zep_ligand
  -I-interpret- 

 55 59  0  0  0  0  0  0  0  0999 V2000
   -6.4650  -10.1050   10.2560 C   0  0  0  0  0
   -7.2150  -11.0820    9.3550 C   0  0  0  0  0
   -8.0450  -10.3250    8.4150 N   0  0  0  0  0
   -7.9810  -10.4510    7.0590 C   0  0  0  0  0
   -7.2070  -11.2160    6.5090 O   0  0  0  0  0
   -8.8870   -9.6430    6.2270 C   0  0  0  0  0
   -9.0630   -9.7010    4.8730 C   0  0  0  0  0
   -9.9980   -8.7960    4.4890 N   0  0  0  0  0
  -10.4760   -8.1070    5.5810 C   0  0  0  0  0
  -11.3760   -7.1410    5.7520 N   0  0  0  0  0
  -11.6300   -6.6680    6.9670 C   0  0  0  0  0
  -10.9700   -7.1610    8.0990 C   0  0  0  0  0
  -10.0650   -8.1210    7.9270 N   0  0  0  0  0
   -9.8060   -8.6060    6.7130 C   0  0  0  0  0
  -11.2900   -6.6230    9.3180 O   0  0  0  0  0
  -10.8910   -7.0480   10.5620 C   0  0  0  0  0
  -10.8070   -6.0870   11.5720 C   0  0  0  0  0
  -10.4180   -6.4330   12.8640 C   0  0  0  0  0
  -10.2460   -5.5870   14.1110 C   0  0  0  0  0
   -9.5740   -4.3170   13.7980 N   0  0  0  0  0
  -10.1200   -3.0980   14.0280 C   0  0  0  0  0
   -9.3240   -1.8720   13.6650 C   0  0  0  0  0
  -11.2250   -2.9560   14.5130 O   0  0  0  0  0
   -9.3590   -6.4370   15.0450 C   0  0  0  0  0
   -9.7240   -7.8740   14.6180 C   0  0  0  0  0
  -10.1170   -7.7550   13.1630 C   0  0  0  0  0
  -10.2040   -8.7220   12.1690 C   0  0  0  0  0
  -10.5930   -8.3800   10.8830 C   0  0  0  0  0
   -8.1620  -11.9430   10.1930 C   0  0  0  0  0
   -8.8780  -13.0890    9.4790 C   0  0  0  0  0
   -7.7640  -13.3900   10.4820 C   0  0  0  0  0
   -7.1808   -9.4604   10.7661 H   0  0  0  0  0
   -5.8870  -10.6627   10.9928 H   0  0  0  0  0
   -5.7934   -9.4965    9.6504 H   0  0  0  0  0
   -6.4874  -11.7048    8.8347 H   0  0  0  0  0
   -8.7152   -9.6596    8.8004 H   0  0  0  0  0
   -8.5310  -10.3745    4.2011 H   0  0  0  0  0
  -12.3703   -5.8768    7.0856 H   0  0  0  0  0
  -11.0499   -5.0488   11.3454 H   0  0  0  0  0
  -11.2056   -5.3310   14.5601 H   0  0  0  0  0
   -8.6427   -4.3557   13.3837 H   0  0  0  0  0
   -9.8755   -1.2871   12.9289 H   0  0  0  0  0
   -9.1580   -1.2704   14.5586 H   0  0  0  0  0
   -8.3644   -2.1744   13.2457 H   0  0  0  0  0
   -9.5376   -6.2434   16.1027 H   0  0  0  0  0
   -8.2960   -6.2158   14.9487 H   0  0  0  0  0
  -10.5309   -8.2855   15.2244 H   0  0  0  0  0
   -8.8916   -8.5635   14.7589 H   0  0  0  0  0
   -9.9641   -9.7593   12.4025 H   0  0  0  0  0
  -10.6677   -9.1515   10.1166 H   0  0  0  0  0
   -8.4685  -11.0975   10.8089 H   0  0  0  0  0
   -9.1630  -13.3696    8.4650 H   0  0  0  0  0
   -9.8978  -13.4112    9.2687 H   0  0  0  0  0
   -7.5924  -14.0341   11.3444 H   0  0  0  0  0
   -6.8576  -13.9925   10.5407 H   0  0  0  0  0
  1  2  1  0  0  0
  2  3  1  0  0  0
  2 29  1  0  0  0
  3  4  1  0  0  0
  4  5  2  0  0  0
  4  6  1  0  0  0
  6  7  4  0  0  0
  6 14  4  0  0  0
  7  8  4  0  0  0
  8  9  4  0  0  0
  9 10  4  0  0  0
  9 14  4  0  0  0
 10 11  4  0  0  0
 11 12  4  0  0  0
 12 13  4  0  0  0
 12 15  1  0  0  0
 13 14  4  0  0  0
 15 16  1  0  0  0
 16 17  4  0  0  0
 16 28  4  0  0  0
 17 18  4  0  0  0
 18 19  1  0  0  0
 18 26  4  0  0  0
 19 20  1  0  0  0
 19 24  1  0  0  0
 20 21  1  0  0  0
 21 22  1  0  0  0
 21 23  2  0  0  0
 24 25  1  0  0  0
 25 26  1  0  0  0
 26 27  4  0  0  0
 27 28  4  0  0  0
 29 30  1  0  0  0
 29 31  1  0  0  0
 30 31  1  0  0  0
  1 32  1  0  0  0
  1 33  1  0  0  0
  1 34  1  0  0  0
  2 35  1  0  0  0
  3 36  1  0  0  0
  7 37  1  0  0  0
 11 38  1  0  0  0
 17 39  1  0  0  0
 19 40  1  0  0  0
 20 41  1  0  0  0
 22 42  1  0  0  0
 22 43  1  0  0  0
 22 44  1  0  0  0
 24 45  1  0  0  0
 24 46  1  0  0  0
 25 47  1  0  0  0
 25 48  1  0  0  0
 27 49  1  0  0  0
 28 50  1  0  0  0
 29 51  1  0  0  0
 30 52  1  0  0  0
 30 53  1  0  0  0
 31 54  1  0  0  0
 31 55  1  0  0  0
M  END
$$$$
