3owd_ligand
  -I-interpret- 

 52 56  0  0  0  0  0  0  0  0999 V2000
   -3.8920    8.1520   23.8240 C   0  0  0  0  0
   -3.8990    6.8010   24.1600 C   0  0  0  0  0
   -3.4850    7.0920   19.1550 C   0  0  0  0  0
   -3.7850    8.5440   22.5040 C   0  0  0  0  0
   -3.8080    5.8550   23.1500 C   0  0  0  0  0
   -3.5780    7.9990   20.1880 C   0  0  0  0  0
   -0.5250    5.6400   22.5430 C   0  0  0  0  0
   -0.2030    6.9560   22.8600 C   0  0  0  0  0
   -3.5000    5.7490   19.4500 C   0  0  0  0  0
    0.0160    5.9520   20.2220 C   0  0  0  0  0
   -0.6070   10.3890   23.3900 C   0  0  0  0  0
    1.7250   11.0630   24.7330 C   0  0  0  0  0
   -3.6800    7.5920   21.5070 C   0  0  0  0  0
   -3.7170    6.2440   21.8270 C   0  0  0  0  0
   -0.4490    5.1350   21.2490 C   0  0  0  0  0
    0.2400    7.7510   21.8160 C   0  0  0  0  0
    0.3620    7.2480   20.5470 C   0  0  0  0  0
    0.6140    9.9770   22.8910 C   0  0  0  0  0
    1.7750   10.3570   23.5490 C   0  0  0  0  0
    0.4930   11.4180   25.2460 C   0  0  0  0  0
   -3.6160    5.3480   20.7690 C   0  0  0  0  0
   -0.6570   11.1480   24.5360 C   0  0  0  0  0
    1.0950    9.3910   20.4980 C   0  0  0  0  0
   -0.8510    3.7170   20.9460 C   0  0  0  0  0
    0.8820    8.2690   19.7050 N   0  0  0  0  0
    0.6910    9.0770   21.7940 N   0  0  0  0  0
   -2.0360    3.2630   21.7210 N   0  0  0  0  0
    1.5110   10.4830   20.1350 O   0  0  0  0  0
   -4.5480    3.1780   21.9790 O   0  0  0  0  0
   -3.5760    3.0080   19.6750 O   0  0  0  0  0
    2.9960   10.0480   22.9820 O   0  0  0  0  0
    0.4060   12.1280   26.4350 O   0  0  0  0  0
   -3.5530    3.5770   21.0000 S   0  0  0  0  0
   -2.2050   11.6910   25.1340 Cl  0  0  0  0  0
   -3.9715    8.9053   24.6078 H   0  0  0  0  0
   -3.9749    6.4911   25.2023 H   0  0  0  0  0
   -3.4011    7.4327   18.1230 H   0  0  0  0  0
   -3.7833    9.6036   22.2484 H   0  0  0  0  0
   -3.8083    4.7945   23.4020 H   0  0  0  0  0
   -3.5711    9.0650   19.9605 H   0  0  0  0  0
   -0.8510    4.9758   23.3434 H   0  0  0  0  0
   -0.2945    7.3407   23.8757 H   0  0  0  0  0
   -3.4214    5.0088   18.6537 H   0  0  0  0  0
    0.1035    5.5823   19.2004 H   0  0  0  0  0
   -1.5282   10.1132   22.8767 H   0  0  0  0  0
    2.6422   11.3360   25.2548 H   0  0  0  0  0
   -0.0143    3.0726   21.2159 H   0  0  0  0  0
   -1.1102    3.6670   19.8885 H   0  0  0  0  0
    1.0649    8.1925   18.7045 H   0  0  0  0  0
   -1.9491    2.7952   22.6232 H   0  0  0  0  0
    2.8550    9.5585   22.1683 H   0  0  0  0  0
   -0.5171   12.2893   26.6432 H   0  0  0  0  0
  2  1  4  0  0  0
  4  1  4  0  0  0
  5  2  4  0  0  0
  3  6  4  0  0  0
  9  3  4  0  0  0
 13  4  4  0  0  0
 14  5  4  0  0  0
 13  6  4  0  0  0
  7  8  4  0  0  0
 15  7  4  0  0  0
  8 16  4  0  0  0
 21  9  4  0  0  0
 15 10  4  0  0  0
 10 17  4  0  0  0
 18 11  4  0  0  0
 11 22  4  0  0  0
 19 12  4  0  0  0
 12 20  4  0  0  0
 14 13  4  0  0  0
 21 14  4  0  0  0
 24 15  1  0  0  0
 17 16  4  0  0  0
 16 26  1  0  0  0
 17 25  1  0  0  0
 18 19  4  0  0  0
 26 18  1  0  0  0
 19 31  1  0  0  0
 22 20  4  0  0  0
 20 32  1  0  0  0
 33 21  1  0  0  0
 22 34  1  0  0  0
 25 23  1  0  0  0
 23 26  1  0  0  0
 23 28  2  0  0  0
 27 24  1  0  0  0
 27 33  1  0  0  0
 33 29  2  0  0  0
 33 30  2  0  0  0
  1 35  1  0  0  0
  2 36  1  0  0  0
  3 37  1  0  0  0
  4 38  1  0  0  0
  5 39  1  0  0  0
  6 40  1  0  0  0
  7 41  1  0  0  0
  8 42  1  0  0  0
  9 43  1  0  0  0
 10 44  1  0  0  0
 11 45  1  0  0  0
 12 46  1  0  0  0
 24 47  1  0  0  0
 24 48  1  0  0  0
 25 49  1  0  0  0
 27 50  1  0  0  0
 31 51  1  0  0  0
 32 52  1  0  0  0
M  END
$$$$
