6f90_ligand
  -I-interpret- 

 26 27  0  0  0  0  0  0  0  0999 V2000
   22.0760  125.0960   -9.4950 C   0  0  0  0  0
   21.1490  124.3490   -8.8670 N   0  0  0  0  0
   22.9560  123.1250  -10.7660 C   0  0  0  0  0
   22.1330  122.3130   -9.7610 C   0  0  0  0  0
   20.8400  122.9670   -9.2730 C   0  0  0  0  0
   20.2320  122.1880   -8.1210 C   0  0  0  0  0
   21.2240  126.3050   -7.8950 C   0  0  0  0  0
   20.6110  125.0700   -7.8730 C   0  0  0  0  0
   22.1260  126.2950   -8.9080 N   0  0  0  0  0
   24.3290  122.7420  -10.6080 O   0  0  0  0  0
   24.1970  125.2290  -10.6750 O   0  0  0  0  0
   21.7800  121.0830  -10.3990 O   0  0  0  0  0
   22.8780  124.6550  -10.6710 C   0  0  0  0  0
   21.0230  122.3170   -6.9380 O   0  0  0  0  0
   22.5224  122.8906  -11.7382 H   0  0  0  0  0
   22.7603  122.2028   -8.8764 H   0  0  0  0  0
   20.1041  122.9702  -10.0770 H   0  0  0  0  0
   20.1875  121.1346   -8.3975 H   0  0  0  0  0
   19.2365  122.5836   -7.9196 H   0  0  0  0  0
   21.0208  127.1374   -7.2213 H   0  0  0  0  0
   19.8365  124.7424   -7.1795 H   0  0  0  0  0
   24.4020  121.7864  -10.6641 H   0  0  0  0  0
   24.1290  126.1847  -10.6151 H   0  0  0  0  0
   22.5751  120.6488  -10.7166 H   0  0  0  0  0
   22.3547  125.0227  -11.5536 H   0  0  0  0  0
   20.6171  121.8160   -6.2268 H   0  0  0  0  0
  1  2  4  0  0  0
  1  9  4  0  0  0
 13  1  1  0  0  0
  2  5  1  0  0  0
  2  8  4  0  0  0
  3  4  1  0  0  0
  3 10  1  0  0  0
  3 13  1  0  0  0
  4  5  1  0  0  0
  4 12  1  0  0  0
  5  6  1  0  0  0
  6 14  1  0  0  0
  8  7  4  0  0  0
  7  9  4  0  0  0
 13 11  1  0  0  0
  3 15  1  0  0  0
  4 16  1  0  0  0
  5 17  1  0  0  0
  6 18  1  0  0  0
  6 19  1  0  0  0
  7 20  1  0  0  0
  8 21  1  0  0  0
 10 22  1  0  0  0
 11 23  1  0  0  0
 12 24  1  0  0  0
 13 25  1  0  0  0
 14 26  1  0  0  0
M  END
$$$$
