1r6n_ligand
  -I-interpret- 

 60 65  0  0  0  0  0  0  0  0999 V2000
   54.7630    3.8610    2.5120 C   0  0  0  0  0
   55.2350    3.4530    3.9070 C   0  0  0  0  0
   55.5630    4.8430    1.8900 O   0  0  0  0  0
   54.8600    5.3850    0.7940 C   0  0  0  0  0
   53.4010    4.9130    0.8810 C   0  0  0  0  0
   53.3280    4.3140    2.2830 C   0  0  0  0  0
   55.0730    6.8780    0.8480 C   0  0  0  0  0
   55.8120    7.2950   -0.3460 C   0  0  0  0  0
   54.6930    7.6050    1.7350 O   0  0  0  0  0
   55.5260    4.9840   -0.4890 C   0  0  0  0  0
   55.5990    3.8600   -0.9290 O   0  0  0  0  0
   56.2280    8.5840   -0.7190 C   0  0  0  0  0
   56.9380    8.7080   -1.9340 C   0  0  0  0  0
   57.2090    7.5780   -2.7280 C   0  0  0  0  0
   56.7760    6.2900   -2.3270 C   0  0  0  0  0
   56.0790    6.1840   -1.1300 C   0  0  0  0  0
   52.3520    5.9820    0.5590 C   0  0  0  0  0
   51.2460    6.0980    1.0650 O   0  0  0  0  0
   52.7500    6.7900   -0.3170 O   0  0  0  0  0
   52.6750    4.9780    3.4900 C   0  0  0  0  0
   51.8010    4.5150    4.1830 O   0  0  0  0  0
   53.2620    6.2280    3.6630 N   0  0  0  0  0
   52.7790    7.1330    4.6580 C   0  0  0  0  0
   52.9590    8.5110    4.5000 C   0  0  0  0  0
   52.5000    9.4070    5.4570 C   0  0  0  0  0
   51.8440    8.9530    6.6110 C   0  0  0  0  0
   51.3800    9.9250    7.6070 C   0  0  0  0  0
   51.6600    7.5650    6.7720 C   0  0  0  0  0
   52.1200    6.6700    5.8100 C   0  0  0  0  0
   50.1720   10.5690    7.4770 N   0  0  0  0  0
   50.0220   11.3840    8.5190 N   0  0  0  0  0
   51.2400   11.4140    9.6270 S   0  0  0  0  0
   52.0980   10.2730    8.7360 C   0  0  0  0  0
   56.5740    3.6450    4.3040 C   0  0  0  0  0
   57.0150    3.2700    5.5830 C   0  0  0  0  0
   56.0970    2.6830    6.5090 C   0  0  0  0  0
   54.7620    2.4910    6.1140 C   0  0  0  0  0
   54.3340    2.8680    4.8360 C   0  0  0  0  0
   57.4210   10.0920   -2.3970 C   0  0  0  0  0
   58.6500    3.5330    5.9850 Cl  0  0  0  0  0
   56.5820    2.2110    8.0870 Cl  0  0  0  0  0
   54.8545    2.8678    2.0723 H   0  0  0  0  0
   53.1436    4.1875    0.1093 H   0  0  0  0  0
   52.5355    3.5664    2.2497 H   0  0  0  0  0
   56.0119    9.4524   -0.0967 H   0  0  0  0  0
   57.7583    7.6951   -3.6622 H   0  0  0  0  0
   56.9830    5.4111   -2.9376 H   0  0  0  0  0
   53.6348    6.5455   -0.5979 H   0  0  0  0  0
   54.0470    6.5017    3.0720 H   0  0  0  0  0
   53.4672    8.8875    3.6123 H   0  0  0  0  0
   52.6514   10.4763    5.3095 H   0  0  0  0  0
   51.1519    7.1881    7.6596 H   0  0  0  0  0
   51.9677    5.6000    5.9515 H   0  0  0  0  0
   53.0732    9.8691    9.0081 H   0  0  0  0  0
   57.2801    4.0930    3.6048 H   0  0  0  0  0
   54.0525    2.0438    6.8103 H   0  0  0  0  0
   53.2942    2.7104    4.5495 H   0  0  0  0  0
   56.5626   10.7522   -2.5210 H   0  0  0  0  0
   58.0963   10.5085   -1.6496 H   0  0  0  0  0
   57.9453    9.9932   -3.3475 H   0  0  0  0  0
  1  2  1  0  0  0
  1  3  1  0  0  0
  1  6  1  0  0  0
  2 34  4  0  0  0
  2 38  4  0  0  0
  3  4  1  0  0  0
  4  5  1  0  0  0
  4  7  1  0  0  0
  4 10  1  0  0  0
  5  6  1  0  0  0
  5 17  1  0  0  0
  6 20  1  0  0  0
  7  8  1  0  0  0
  7  9  2  0  0  0
  8 12  4  0  0  0
  8 16  4  0  0  0
 10 11  2  0  0  0
 10 16  1  0  0  0
 12 13  4  0  0  0
 13 14  4  0  0  0
 13 39  1  0  0  0
 14 15  4  0  0  0
 15 16  4  0  0  0
 17 18  2  0  0  0
 17 19  1  0  0  0
 20 21  2  0  0  0
 20 22  1  0  0  0
 22 23  1  0  0  0
 23 24  4  0  0  0
 23 29  4  0  0  0
 24 25  4  0  0  0
 25 26  4  0  0  0
 26 27  1  0  0  0
 26 28  4  0  0  0
 27 30  4  0  0  0
 27 33  4  0  0  0
 28 29  4  0  0  0
 30 31  4  0  0  0
 31 32  4  0  0  0
 32 33  4  0  0  0
 34 35  4  0  0  0
 35 36  4  0  0  0
 35 40  1  0  0  0
 36 37  4  0  0  0
 36 41  1  0  0  0
 37 38  4  0  0  0
  1 42  1  0  0  0
  5 43  1  0  0  0
  6 44  1  0  0  0
 12 45  1  0  0  0
 14 46  1  0  0  0
 15 47  1  0  0  0
 19 48  1  0  0  0
 22 49  1  0  0  0
 24 50  1  0  0  0
 25 51  1  0  0  0
 28 52  1  0  0  0
 29 53  1  0  0  0
 33 54  1  0  0  0
 34 55  1  0  0  0
 37 56  1  0  0  0
 38 57  1  0  0  0
 39 58  1  0  0  0
 39 59  1  0  0  0
 39 60  1  0  0  0
M  END
$$$$
