2xpk_ligand
  -I-interpret- 

 52 54  0  0  0  0  0  0  0  0999 V2000
    5.2880   -2.0340   15.7010 C   0  0  0  0  0
    3.8310   -1.7130   16.0410 C   0  0  0  0  0
    3.5460   -0.1920   16.0920 C   0  0  0  0  0
    4.4170    0.6470   15.8430 O   0  0  0  0  0
    2.2680    0.1080   16.4010 N   0  0  0  0  0
    1.4380    1.9530   15.0470 C   0  0  0  0  0
    0.1170    1.5980   14.7110 O   0  0  0  0  0
    1.5660    3.4860   14.9230 C   0  0  0  0  0
    1.2500    3.8650   13.6020 O   0  0  0  0  0
    2.9910    3.8840   15.2540 C   0  0  0  0  0
    3.2840    5.3420   14.9220 C   0  0  0  0  0
    2.4360    6.2280   15.6960 O   0  0  0  0  0
    3.1860    3.5840   16.6990 N   0  0  0  0  0
    3.8510    4.2020   17.6690 C   0  0  0  0  0
    2.6160    2.4420   17.2780 C   0  0  0  0  0
    2.9500    2.4610   18.5570 N   0  0  0  0  0
    3.6990    3.5250   18.8160 C   0  0  0  0  0
    4.3400    3.9160   20.1960 C   0  0  0  0  0
    3.3830    3.7700   21.3970 C   0  0  0  0  0
    2.2840    4.8380   21.3610 C   0  0  0  0  0
    1.0960    4.5860   20.6430 C   0  0  0  0  0
    0.0930    5.5520   20.5850 C   0  0  0  0  0
    0.2850    6.7720   21.2420 C   0  0  0  0  0
    1.7170    1.4580   16.4760 C   0  0  0  0  0
    1.4680    7.0280   21.9550 C   0  0  0  0  0
    2.4800    6.0590   22.0220 C   0  0  0  0  0
    5.5900   -3.8240   15.4400 S   0  0  0  0  0
    5.9022   -1.7143   16.5428 H   0  0  0  0  0
    5.5322   -1.5185   14.7721 H   0  0  0  0  0
    3.6207   -2.1247   17.0281 H   0  0  0  0  0
    3.2040   -2.1435   15.2602 H   0  0  0  0  0
    1.6370   -0.6689   16.5977 H   0  0  0  0  0
    2.1714    1.4963   14.3824 H   0  0  0  0  0
    0.0149    0.6461   14.7816 H   0  0  0  0  0
    0.8834    3.9844   15.6113 H   0  0  0  0  0
    0.3464    3.6082   13.4041 H   0  0  0  0  0
    3.6961    3.3205   14.6429 H   0  0  0  0  0
    3.0892    5.5067   13.8623 H   0  0  0  0  0
    4.3257    5.5543   15.1625 H   0  0  0  0  0
    2.6375    7.1393   15.4711 H   0  0  0  0  0
    4.4304    5.1176   17.5506 H   0  0  0  0  0
    4.6233    4.9667   20.1345 H   0  0  0  0  0
    5.1777    3.2397   20.3663 H   0  0  0  0  0
    3.9563    3.8908   22.3161 H   0  0  0  0  0
    2.9149    2.7866   21.3521 H   0  0  0  0  0
    0.9621    3.6326   20.1319 H   0  0  0  0  0
   -0.8283    5.3595   20.0353 H   0  0  0  0  0
   -0.4934    7.5339   21.2001 H   0  0  0  0  0
    0.7832    1.4220   17.0371 H   0  0  0  0  0
    1.6003    7.9853   22.4592 H   0  0  0  0  0
    3.3989    6.2510   22.5759 H   0  0  0  0  0
    6.8735   -4.0178   15.1503 H   0  0  0  0  0
  2  1  1  0  0  0
  1 27  1  0  0  0
  3  2  1  0  0  0
  3  4  2  0  0  0
  5  3  1  0  0  0
 24  5  1  0  0  0
  6  7  1  0  0  0
  6  8  1  0  0  0
  6 24  1  0  0  0
  8  9  1  0  0  0
  8 10  1  0  0  0
 10 11  1  0  0  0
 10 13  1  0  0  0
 11 12  1  0  0  0
 13 14  4  0  0  0
 13 15  4  0  0  0
 14 17  4  0  0  0
 15 16  4  0  0  0
 15 24  1  0  0  0
 16 17  4  0  0  0
 17 18  1  0  0  0
 18 19  1  0  0  0
 19 20  1  0  0  0
 20 21  4  0  0  0
 20 26  4  0  0  0
 21 22  4  0  0  0
 22 23  4  0  0  0
 23 25  4  0  0  0
 25 26  4  0  0  0
  1 28  1  0  0  0
  1 29  1  0  0  0
  2 30  1  0  0  0
  2 31  1  0  0  0
  5 32  1  0  0  0
  6 33  1  0  0  0
  7 34  1  0  0  0
  8 35  1  0  0  0
  9 36  1  0  0  0
 10 37  1  0  0  0
 11 38  1  0  0  0
 11 39  1  0  0  0
 12 40  1  0  0  0
 14 41  1  0  0  0
 18 42  1  0  0  0
 18 43  1  0  0  0
 19 44  1  0  0  0
 19 45  1  0  0  0
 21 46  1  0  0  0
 22 47  1  0  0  0
 23 48  1  0  0  0
 24 49  1  0  0  0
 25 50  1  0  0  0
 26 51  1  0  0  0
 27 52  1  0  0  0
M  END
$$$$
