3eov_ligand
  -I-interpret- 

198198  0  0  0  0  0  0  0  0999 V2000
    5.2260   13.1070   19.5170 N   0  0  0  0  0
    4.6100   13.2110   18.2060 C   0  0  0  0  0
    3.1360   13.4880   18.3570 C   0  0  0  0  0
    4.8280   11.9110   17.4450 C   0  0  0  0  0
    4.8420   10.8260   18.0330 O   0  0  0  0  0
    4.9980   12.0110   16.1330 N   0  0  0  0  0
    4.9110   13.1970   15.2730 C   0  0  0  0  0
    5.2240   10.8130   15.3240 C   0  0  0  0  0
    3.9920   10.5290   14.4480 C   0  0  0  0  0
    2.7420   10.0900   15.2420 C   0  0  0  0  0
    1.6150    9.8250   14.2840 C   0  0  0  0  0
    3.0300    8.8290   16.0460 C   0  0  0  0  0
    6.4990   10.8900   14.4830 C   0  0  0  0  0
    6.4630   11.1620   13.2830 O   0  0  0  0  0
    7.6280   10.6180   15.1300 N   0  0  0  0  0
    7.7650   10.1530   16.5100 C   0  0  0  0  0
    8.9380   10.6750   14.4710 C   0  0  0  0  0
    9.8110   11.7240   15.1960 C   0  0  0  0  0
    9.3380   13.1900   15.2570 C   0  0  0  0  0
   10.3380   14.0250   16.0510 C   0  0  0  0  0
    9.1790   13.7560   13.8510 C   0  0  0  0  0
    9.7100    9.3320   14.3460 C   0  0  0  0  0
    9.5050    8.3930   15.1190 O   0  0  0  0  0
   10.5930    9.2430   13.3610 N   0  0  0  0  0
   11.0900   10.3060   12.4870 C   0  0  0  0  0
   11.3920    8.0330   13.2030 C   0  0  0  0  0
   11.1990    7.3170   11.8160 C   0  0  0  0  0
   11.7400    5.9100   11.9180 C   0  0  0  0  0
    9.7190    7.2740   11.4040 C   0  0  0  0  0
   12.8840    8.3730   13.3590 C   0  0  0  0  0
   13.6390    8.4220   12.3730 O   0  0  0  0  0
   13.3100    8.6300   14.5950 N   0  0  0  0  0
   12.6350    8.2740   15.8370 C   0  0  0  0  0
   14.7110    8.9610   14.8530 C   0  0  0  0  0
   15.5600    7.7610   15.2760 C   0  0  0  0  0
   15.0410    6.6640   15.4560 O   0  0  0  0  0
   14.8870   10.2030   15.7590 C   0  0  0  0  0
   14.5220    9.8840   17.0990 O   0  0  0  0  0
   14.0800   11.4210   15.2990 C   0  0  0  0  0
   14.3580   11.7260   13.8160 C   0  0  0  0  0
   14.3950   12.6180   16.1890 C   0  0  0  0  0
   15.8720   12.9480   16.1570 C   0  0  0  0  0
   16.3870   13.0220   17.4430 C   0  0  0  0  0
   17.6510   13.8120   17.4720 C   0  0  0  0  0
   16.8650    7.9630   15.4040 N   0  0  0  0  0
   17.7680    6.8890   15.7850 C   0  0  0  0  0
   18.5430    7.3100   17.0200 C   0  0  0  0  0
   19.6180    7.8870   16.9100 O   0  0  0  0  0
   18.7450    6.6270   14.6360 C   0  0  0  0  0
   18.1050    5.9660   13.4540 C   0  0  0  0  0
   17.9820    7.0260   18.1900 N   0  0  0  0  0
   18.6450    7.3950   19.4240 C   0  0  0  0  0
   17.7620    8.0420   20.4830 C   0  0  0  0  0
   17.5880    7.4960   21.5830 O   0  0  0  0  0
   16.7370    6.3200   18.4890 C   0  0  0  0  0
   17.2030    9.2070   20.1750 N   0  0  0  0  0
   17.6640   10.1360   19.1430 C   0  0  0  0  0
   16.3400    9.8780   21.1420 C   0  0  0  0  0
   16.3730   11.4070   20.9760 C   0  0  0  0  0
   17.0680   12.1650   22.1300 C   0  0  0  0  0
   16.2300   12.0660   23.3940 C   0  0  0  0  0
   18.4490   11.5950   22.3970 C   0  0  0  0  0
   14.8960    9.3680   21.1270 C   0  0  0  0  0
   14.4690    8.7360   22.0920 O   0  0  0  0  0
   14.1530    9.5970   20.0470 N   0  0  0  0  0
   12.7490    9.1580   19.9890 C   0  0  0  0  0
   11.9840   10.1060   20.9170 C   0  0  0  0  0
   11.9650    9.9120   22.1380 O   0  0  0  0  0
   12.5410    7.6900   20.5120 C   0  0  0  0  0
   11.0780    7.2960   20.3960 C   0  0  0  0  0
   13.3940    6.7160   19.7260 C   0  0  0  0  0
   11.3420   11.1180   20.3340 N   0  0  0  0  0
   10.9070   11.1970   18.9440 C   0  0  0  0  0
   10.6350   12.1120   21.1200 C   0  0  0  0  0
   11.1330   13.5080   20.7230 C   0  0  0  0  0
   12.6620   13.6190   20.8430 C   0  0  0  0  0
   13.1960   14.8540   20.1400 C   0  0  0  0  0
   13.0350   13.6290   22.2980 C   0  0  0  0  0
    9.1200   12.0300   21.0220 C   0  0  0  0  0
    8.5690   10.9620   20.7960 O   0  0  0  0  0
    8.4490   13.1610   21.2100 N   0  0  0  0  0
    6.9960   13.2100   21.1570 C   0  0  0  0  0
    6.5100   13.3770   19.7250 C   0  0  0  0  0
    7.2750   13.7360   18.8370 O   0  0  0  0  0
    6.4720   14.3550   22.0300 C   0  0  0  0  0
    4.6513   12.8157   20.3077 H   0  0  0  0  0
    5.0638   14.0313   17.6499 H   0  0  0  0  0
    2.6804   13.5719   17.3703 H   0  0  0  0  0
    2.6684   12.6708   18.9062 H   0  0  0  0  0
    2.9970   14.4209   18.9033 H   0  0  0  0  0
    5.8426   13.3115   14.7188 H   0  0  0  0  0
    4.0833   13.0774   14.5740 H   0  0  0  0  0
    4.7428   14.0799   15.8897 H   0  0  0  0  0
    5.3720    9.9811   16.0125 H   0  0  0  0  0
    4.2538    9.7092   13.7791 H   0  0  0  0  0
    3.7393   11.4574   13.9358 H   0  0  0  0  0
    2.4670   10.8873   15.9325 H   0  0  0  0  0
    1.3932   10.7343   13.7254 H   0  0  0  0  0
    1.9059    9.0342   13.5926 H   0  0  0  0  0
    0.7312    9.5149   14.8416 H   0  0  0  0  0
    3.3177    8.0253   15.3682 H   0  0  0  0  0
    3.8423    9.0237   16.7462 H   0  0  0  0  0
    2.1354    8.5387   16.5969 H   0  0  0  0  0
    7.3305   10.8901   17.1853 H   0  0  0  0  0
    7.2449    9.2020   16.6249 H   0  0  0  0  0
    8.8213   10.0216   16.7446 H   0  0  0  0  0
    8.7295   10.9516   13.4375 H   0  0  0  0  0
   10.7389   11.7553   14.6250 H   0  0  0  0  0
    9.8333   11.3961   16.2353 H   0  0  0  0  0
    8.3695   13.2264   15.7557 H   0  0  0  0  0
   10.4168   13.6293   17.0636 H   0  0  0  0  0
   11.3129   13.9808   15.5654 H   0  0  0  0  0
    9.9963   15.0593   16.0893 H   0  0  0  0  0
   10.1370   13.7128   13.3328 H   0  0  0  0  0
    8.4421   13.1671   13.3048 H   0  0  0  0  0
    8.8446   14.7916   13.9133 H   0  0  0  0  0
   10.2557   10.7439   11.9390 H   0  0  0  0  0
   11.5733   11.0744   13.0903 H   0  0  0  0  0
   11.8099    9.8888   11.7829 H   0  0  0  0  0
   11.0471    7.3474   13.9770 H   0  0  0  0  0
   11.7381    7.8804   11.0544 H   0  0  0  0  0
   12.7993    5.9470   12.1721 H   0  0  0  0  0
   11.1977    5.3689   12.6934 H   0  0  0  0  0
   11.6119    5.4026   10.9618 H   0  0  0  0  0
    9.1495    6.7283   12.1563 H   0  0  0  0  0
    9.3359    8.2913   11.3235 H   0  0  0  0  0
    9.6257    6.7720   10.4410 H   0  0  0  0  0
   11.6534    8.7470   15.8640 H   0  0  0  0  0
   12.5196    7.1914   15.8889 H   0  0  0  0  0
   13.2291    8.6184   16.6835 H   0  0  0  0  0
   15.1189    9.2547   13.8858 H   0  0  0  0  0
   15.9406   10.4748   15.6949 H   0  0  0  0  0
   14.6343   10.6597   17.6533 H   0  0  0  0  0
   13.0162   11.2020   15.3913 H   0  0  0  0  0
   15.4196   11.9337   13.6819 H   0  0  0  0  0
   14.0756   10.8650   13.2102 H   0  0  0  0  0
   13.7750   12.5945   13.5095 H   0  0  0  0  0
   14.1145   12.3739   17.2136 H   0  0  0  0  0
   13.8372   13.4803   15.8238 H   0  0  0  0  0
   16.0065   13.9128   15.6680 H   0  0  0  0  0
   16.3964   12.1627   15.6126 H   0  0  0  0  0
   16.5999   12.0114   17.7915 H   0  0  0  0  0
   15.6546   13.5131   18.0837 H   0  0  0  0  0
   18.3901   13.3364   16.8273 H   0  0  0  0  0
   17.4541   14.8234   17.1166 H   0  0  0  0  0
   18.0298   13.8517   18.4933 H   0  0  0  0  0
   17.2439    8.8941   15.2310 H   0  0  0  0  0
   17.2017    5.9824   15.9983 H   0  0  0  0  0
   19.5201    5.9573   15.0086 H   0  0  0  0  0
   19.1313    7.5912   14.3054 H   0  0  0  0  0
   17.6888    5.0054   13.7577 H   0  0  0  0  0
   17.3085    6.6034   13.0700 H   0  0  0  0  0
   18.8535    5.8098   12.6772 H   0  0  0  0  0
   19.3999    8.1351   19.1585 H   0  0  0  0  0
   19.0209    6.4695   19.8601 H   0  0  0  0  0
   15.9011    6.8519   18.0346 H   0  0  0  0  0
   16.7883    5.3087   18.0855 H   0  0  0  0  0
   16.5967    6.2749   19.5690 H   0  0  0  0  0
   18.6820   10.4529   19.3697 H   0  0  0  0  0
   17.6444    9.6387   18.1733 H   0  0  0  0  0
   17.0079   11.0061   19.1199 H   0  0  0  0  0
   16.7532    9.6262   22.1187 H   0  0  0  0  0
   15.3375   11.7465   20.9506 H   0  0  0  0  0
   16.9417   11.6163   20.0700 H   0  0  0  0  0
   17.1702   13.2099   21.8370 H   0  0  0  0  0
   15.2493   12.5062   23.2136 H   0  0  0  0  0
   16.1140   11.0180   23.6703 H   0  0  0  0  0
   16.7278   12.6030   24.2014 H   0  0  0  0  0
   18.3601   10.5436   22.6706 H   0  0  0  0  0
   19.0588   11.6876   21.4983 H   0  0  0  0  0
   18.9164   12.1458   23.2132 H   0  0  0  0  0
   14.5617   10.0831   19.2488 H   0  0  0  0  0
   12.4083    9.1754   18.9538 H   0  0  0  0  0
   12.8426    7.6546   21.5589 H   0  0  0  0  0
   10.4711    7.9778   20.9918 H   0  0  0  0  0
   10.7699    7.3512   19.3519 H   0  0  0  0  0
   10.9473    6.2774   20.7614 H   0  0  0  0  0
   13.1152    6.7584   18.6731 H   0  0  0  0  0
   14.4447    6.9844   19.8360 H   0  0  0  0  0
   13.2338    5.7067   20.1052 H   0  0  0  0  0
   11.7738   11.1152   18.2882 H   0  0  0  0  0
   10.2134   10.3826   18.7349 H   0  0  0  0  0
   10.4099   12.1520   18.7739 H   0  0  0  0  0
   10.8585   11.9052   22.1666 H   0  0  0  0  0
   10.6810   14.2385   21.3939 H   0  0  0  0  0
   10.8549   13.6905   19.6850 H   0  0  0  0  0
   13.1156   12.7585   20.3512 H   0  0  0  0  0
   12.9381   14.8083   19.0819 H   0  0  0  0  0
   12.7522   15.7444   20.5853 H   0  0  0  0  0
   14.2798   14.8929   20.2498 H   0  0  0  0  0
   12.5631   14.4813   22.7869 H   0  0  0  0  0
   12.6937   12.7055   22.7656 H   0  0  0  0  0
   14.1180   13.7075   22.3936 H   0  0  0  0  0
    8.9673   14.0194   21.3968 H   0  0  0  0  0
    6.6093   12.2661   21.5411 H   0  0  0  0  0
    6.7865   14.1969   23.0616 H   0  0  0  0  0
    6.8746   15.3006   21.6669 H   0  0  0  0  0
    5.3834   14.3792   21.9804 H   0  0  0  0  0
  1  2  1  0  0  0
  1 83  1  0  0  0
  2  3  1  0  0  0
  2  4  1  0  0  0
  4  5  2  0  0  0
  4  6  1  0  0  0
  6  7  1  0  0  0
  6  8  1  0  0  0
  8  9  1  0  0  0
  8 13  1  0  0  0
  9 10  1  0  0  0
 10 11  1  0  0  0
 10 12  1  0  0  0
 13 14  2  0  0  0
 13 15  1  0  0  0
 15 16  1  0  0  0
 15 17  1  0  0  0
 17 18  1  0  0  0
 17 22  1  0  0  0
 18 19  1  0  0  0
 19 20  1  0  0  0
 19 21  1  0  0  0
 22 23  2  0  0  0
 22 24  1  0  0  0
 24 25  1  0  0  0
 24 26  1  0  0  0
 26 27  1  0  0  0
 26 30  1  0  0  0
 27 28  1  0  0  0
 27 29  1  0  0  0
 30 31  2  0  0  0
 30 32  1  0  0  0
 32 33  1  0  0  0
 32 34  1  0  0  0
 34 35  1  0  0  0
 34 37  1  0  0  0
 35 36  2  0  0  0
 35 45  1  0  0  0
 37 38  1  0  0  0
 37 39  1  0  0  0
 39 40  1  0  0  0
 39 41  1  0  0  0
 41 42  1  0  0  0
 42 43  1  0  0  0
 43 44  1  0  0  0
 45 46  1  0  0  0
 46 47  1  0  0  0
 46 49  1  0  0  0
 47 48  2  0  0  0
 47 51  1  0  0  0
 49 50  1  0  0  0
 51 52  1  0  0  0
 51 55  1  0  0  0
 52 53  1  0  0  0
 53 54  2  0  0  0
 53 56  1  0  0  0
 56 57  1  0  0  0
 56 58  1  0  0  0
 58 59  1  0  0  0
 58 63  1  0  0  0
 59 60  1  0  0  0
 60 61  1  0  0  0
 60 62  1  0  0  0
 63 64  2  0  0  0
 63 65  1  0  0  0
 65 66  1  0  0  0
 66 67  1  0  0  0
 66 69  1  0  0  0
 67 68  2  0  0  0
 67 72  1  0  0  0
 69 70  1  0  0  0
 69 71  1  0  0  0
 72 73  1  0  0  0
 72 74  1  0  0  0
 74 75  1  0  0  0
 74 79  1  0  0  0
 75 76  1  0  0  0
 76 77  1  0  0  0
 76 78  1  0  0  0
 79 80  2  0  0  0
 79 81  1  0  0  0
 81 82  1  0  0  0
 82 83  1  0  0  0
 82 85  1  0  0  0
 83 84  2  0  0  0
  1 86  1  0  0  0
  2 87  1  0  0  0
  3 88  1  0  0  0
  3 89  1  0  0  0
  3 90  1  0  0  0
  7 91  1  0  0  0
  7 92  1  0  0  0
  7 93  1  0  0  0
  8 94  1  0  0  0
  9 95  1  0  0  0
  9 96  1  0  0  0
 10 97  1  0  0  0
 11 98  1  0  0  0
 11 99  1  0  0  0
 11100  1  0  0  0
 12101  1  0  0  0
 12102  1  0  0  0
 12103  1  0  0  0
 16104  1  0  0  0
 16105  1  0  0  0
 16106  1  0  0  0
 17107  1  0  0  0
 18108  1  0  0  0
 18109  1  0  0  0
 19110  1  0  0  0
 20111  1  0  0  0
 20112  1  0  0  0
 20113  1  0  0  0
 21114  1  0  0  0
 21115  1  0  0  0
 21116  1  0  0  0
 25117  1  0  0  0
 25118  1  0  0  0
 25119  1  0  0  0
 26120  1  0  0  0
 27121  1  0  0  0
 28122  1  0  0  0
 28123  1  0  0  0
 28124  1  0  0  0
 29125  1  0  0  0
 29126  1  0  0  0
 29127  1  0  0  0
 33128  1  0  0  0
 33129  1  0  0  0
 33130  1  0  0  0
 34131  1  0  0  0
 37132  1  0  0  0
 38133  1  0  0  0
 39134  1  0  0  0
 40135  1  0  0  0
 40136  1  0  0  0
 40137  1  0  0  0
 41138  1  0  0  0
 41139  1  0  0  0
 42140  1  0  0  0
 42141  1  0  0  0
 43142  1  0  0  0
 43143  1  0  0  0
 44144  1  0  0  0
 44145  1  0  0  0
 44146  1  0  0  0
 45147  1  0  0  0
 46148  1  0  0  0
 49149  1  0  0  0
 49150  1  0  0  0
 50151  1  0  0  0
 50152  1  0  0  0
 50153  1  0  0  0
 52154  1  0  0  0
 52155  1  0  0  0
 55156  1  0  0  0
 55157  1  0  0  0
 55158  1  0  0  0
 57159  1  0  0  0
 57160  1  0  0  0
 57161  1  0  0  0
 58162  1  0  0  0
 59163  1  0  0  0
 59164  1  0  0  0
 60165  1  0  0  0
 61166  1  0  0  0
 61167  1  0  0  0
 61168  1  0  0  0
 62169  1  0  0  0
 62170  1  0  0  0
 62171  1  0  0  0
 65172  1  0  0  0
 66173  1  0  0  0
 69174  1  0  0  0
 70175  1  0  0  0
 70176  1  0  0  0
 70177  1  0  0  0
 71178  1  0  0  0
 71179  1  0  0  0
 71180  1  0  0  0
 73181  1  0  0  0
 73182  1  0  0  0
 73183  1  0  0  0
 74184  1  0  0  0
 75185  1  0  0  0
 75186  1  0  0  0
 76187  1  0  0  0
 77188  1  0  0  0
 77189  1  0  0  0
 77190  1  0  0  0
 78191  1  0  0  0
 78192  1  0  0  0
 78193  1  0  0  0
 81194  1  0  0  0
 82195  1  0  0  0
 85196  1  0  0  0
 85197  1  0  0  0
 85198  1  0  0  0
M  END
$$$$
