### 
### Created by X-TOOL on Mon Sep 10 21:12:58 2018
### 

@<TRIPOS>MOLECULE
3eov_ligand
  198   198     1     0     0
SMALL
GAST_HUCK


@<TRIPOS>ATOM
      1 N           5.2260   13.1070   19.5170 N.am      1 DAL        -0.2640
      2 CA          4.6100   13.2110   18.2060 C.3       1 DAL         0.1284
      3 CB          3.1360   13.4880   18.3570 C.3       1 DAL        -0.0244
      4 C           4.8280   11.9110   17.4450 C.2       1 DAL         0.2059
      5 O           4.8420   10.8260   18.0330 O.2       1 DAL        -0.3942
      6 N           4.9980   12.0110   16.1330 N.am      1 MLE        -0.2529
      7 CN          4.9110   13.1970   15.2730 C.3       1 MLE         0.0254
      8 CA          5.2240   10.8130   15.3240 C.3       1 MLE         0.1338
      9 CB          3.9920   10.5290   14.4480 C.3       1 MLE        -0.0099
     10 CG          2.7420   10.0900   15.2420 C.3       1 MLE        -0.0425
     11 CD1         1.6150    9.8250   14.2840 C.3       1 MLE        -0.0625
     12 CD2         3.0300    8.8290   16.0460 C.3       1 MLE        -0.0625
     13 C           6.4990   10.8900   14.4830 C.2       1 MLE         0.2064
     14 O           6.4630   11.1620   13.2830 O.2       1 MLE        -0.3942
     15 N           7.6280   10.6180   15.1300 N.am      1 MLE        -0.2529
     16 CN          7.7650   10.1530   16.5100 C.3       1 MLE         0.0254
     17 CA          8.9380   10.6750   14.4710 C.3       1 MLE         0.1338
     18 CB          9.8110   11.7240   15.1960 C.3       1 MLE        -0.0099
     19 CG          9.3380   13.1900   15.2570 C.3       1 MLE        -0.0425
     20 CD1        10.3380   14.0250   16.0510 C.3       1 MLE        -0.0625
     21 CD2         9.1790   13.7560   13.8510 C.3       1 MLE        -0.0625
     22 C           9.7100    9.3320   14.3460 C.2       1 MLE         0.2064
     23 O           9.5050    8.3930   15.1190 O.2       1 MLE        -0.3942
     24 N          10.5930    9.2430   13.3610 N.am      1 MVA        -0.2526
     25 CN         11.0900   10.3060   12.4870 C.3       1 MVA         0.0254
     26 CA         11.3920    8.0330   13.2030 C.3       1 MVA         0.1359
     27 CB         11.1990    7.3170   11.8160 C.3       1 MVA        -0.0061
     28 CG1        11.7400    5.9100   11.9180 C.3       1 MVA        -0.0584
     29 CG2         9.7190    7.2740   11.4040 C.3       1 MVA        -0.0584
     30 C          12.8840    8.3730   13.3590 C.2       1 MVA         0.2067
     31 O          13.6390    8.4220   12.3730 O.2       1 MVA        -0.3942
     32 N          13.3100    8.6300   14.5950 N.am      1 BMT        -0.2503
     33 CN         12.6350    8.2740   15.8370 C.3       1 BMT         0.0255
     34 CA         14.7110    8.9610   14.8530 C.3       1 BMT         0.1592
     35 C          15.5600    7.7610   15.2760 C.2       1 BMT         0.2067
     36 O          15.0410    6.6640   15.4560 O.2       1 BMT        -0.3943
     37 CB         14.8870   10.2030   15.7590 C.3       1 BMT         0.0979
     38 OG1        14.5220    9.8840   17.0990 O.3       1 BMT        -0.3868
     39 CG2        14.0800   11.4210   15.2990 C.3       1 BMT        -0.0134
     40 CD1        14.3580   11.7260   13.8160 C.3       1 BMT        -0.0598
     41 CD2        14.3950   12.6180   16.1890 C.3       1 BMT        -0.0479
     42 CE         15.8720   12.9480   16.1570 C.3       1 BMT        -0.0530
     43 CZ         16.3870   13.0220   17.4430 C.3       1 BMT        -0.0559
     44 CH         17.6510   13.8120   17.4720 C.3       1 BMT        -0.0653
     45 N          16.8650    7.9630   15.4040 N.am      1 ABA        -0.2636
     46 CA         17.7680    6.8890   15.7850 C.3       1 ABA         0.1309
     47 C          18.5430    7.3100   17.0200 C.2       1 ABA         0.2059
     48 O          19.6180    7.8870   16.9100 O.2       1 ABA        -0.3942
     49 CB         18.7450    6.6270   14.6360 C.3       1 ABA        -0.0152
     50 CG         18.1050    5.9660   13.4540 C.3       1 ABA        -0.0610
     51 N          17.9820    7.0260   18.1900 N.am      1 SAR        -0.2556
     52 CA         18.6450    7.3950   19.4240 C.3       1 SAR         0.1227
     53 C          17.7620    8.0420   20.4830 C.2       1 SAR         0.2032
     54 O          17.5880    7.4960   21.5830 O.2       1 SAR        -0.3945
     55 CN         16.7370    6.3200   18.4890 C.3       1 SAR         0.0252
     56 N          17.2030    9.2070   20.1750 N.am      1 MLE        -0.2531
     57 CN         17.6640   10.1360   19.1430 C.3       1 MLE         0.0254
     58 CA         16.3400    9.8780   21.1420 C.3       1 MLE         0.1336
     59 CB         16.3730   11.4070   20.9760 C.3       1 MLE        -0.0099
     60 CG         17.0680   12.1650   22.1300 C.3       1 MLE        -0.0425
     61 CD1        16.2300   12.0660   23.3940 C.3       1 MLE        -0.0625
     62 CD2        18.4490   11.5950   22.3970 C.3       1 MLE        -0.0625
     63 C          14.8960    9.3680   21.1270 C.2       1 MLE         0.2041
     64 O          14.4690    8.7360   22.0920 O.2       1 MLE        -0.3944
     65 N          14.1530    9.5970   20.0470 N.am      1 VAL        -0.2635
     66 CA         12.7490    9.1580   19.9890 C.3       1 VAL         0.1334
     67 C          11.9840   10.1060   20.9170 C.2       1 VAL         0.2064
     68 O          11.9650    9.9120   22.1380 O.2       1 VAL        -0.3942
     69 CB         12.5410    7.6900   20.5120 C.3       1 VAL        -0.0062
     70 CG1        11.0780    7.2960   20.3960 C.3       1 VAL        -0.0584
     71 CG2        13.3940    6.7160   19.7260 C.3       1 VAL        -0.0584
     72 N          11.3420   11.1180   20.3340 N.am      1 MLE        -0.2529
     73 CN         10.9070   11.1970   18.9440 C.3       1 MLE         0.0254
     74 CA         10.6350   12.1120   21.1200 C.3       1 MLE         0.1336
     75 CB         11.1330   13.5080   20.7230 C.3       1 MLE        -0.0099
     76 CG         12.6620   13.6190   20.8430 C.3       1 MLE        -0.0425
     77 CD1        13.1960   14.8540   20.1400 C.3       1 MLE        -0.0625
     78 CD2        13.0350   13.6290   22.2980 C.3       1 MLE        -0.0625
     79 C           9.1200   12.0300   21.0220 C.2       1 MLE         0.2041
     80 O           8.5690   10.9620   20.7960 O.2       1 MLE        -0.3944
     81 N           8.4490   13.1610   21.2100 N.am      1 ALA        -0.2640
     82 CA          6.9960   13.2100   21.1570 C.3       1 ALA         0.1282
     83 C           6.5100   13.3770   19.7250 C.2       1 ALA         0.2036
     84 O           7.2750   13.7360   18.8370 O.2       1 ALA        -0.3944
     85 CB          6.4720   14.3550   22.0300 C.3       1 ALA        -0.0244
     86 H           4.6513   12.8157   20.3077 H         1 DAL         0.1883
     87 H           5.0638   14.0313   17.6499 H         1 DAL         0.0797
     88 H           2.6804   13.5719   17.3703 H         1 DAL         0.0277
     89 H           2.6684   12.6708   18.9062 H         1 DAL         0.0277
     90 H           2.9970   14.4209   18.9033 H         1 DAL         0.0277
     91 H           5.8426   13.3115   14.7188 H         1 MLE         0.0488
     92 H           4.0833   13.0774   14.5740 H         1 MLE         0.0488
     93 H           4.7428   14.0799   15.8897 H         1 MLE         0.0488
     94 H           5.3720    9.9811   16.0125 H         1 MLE         0.0802
     95 H           4.2538    9.7092   13.7791 H         1 MLE         0.0315
     96 H           3.7393   11.4574   13.9358 H         1 MLE         0.0315
     97 H           2.4670   10.8873   15.9325 H         1 MLE         0.0298
     98 H           1.3932   10.7343   13.7254 H         1 MLE         0.0232
     99 H           1.9059    9.0342   13.5926 H         1 MLE         0.0232
    100 H           0.7312    9.5149   14.8416 H         1 MLE         0.0232
    101 H           3.3177    8.0253   15.3682 H         1 MLE         0.0232
    102 H           3.8423    9.0237   16.7462 H         1 MLE         0.0232
    103 H           2.1354    8.5387   16.5969 H         1 MLE         0.0232
    104 H           7.3305   10.8901   17.1853 H         1 MLE         0.0488
    105 H           7.2449    9.2020   16.6249 H         1 MLE         0.0488
    106 H           8.8213   10.0216   16.7446 H         1 MLE         0.0488
    107 H           8.7295   10.9516   13.4375 H         1 MLE         0.0802
    108 H          10.7389   11.7553   14.6250 H         1 MLE         0.0315
    109 H           9.8333   11.3961   16.2353 H         1 MLE         0.0315
    110 H           8.3695   13.2264   15.7557 H         1 MLE         0.0298
    111 H          10.4168   13.6293   17.0636 H         1 MLE         0.0232
    112 H          11.3129   13.9808   15.5654 H         1 MLE         0.0232
    113 H           9.9963   15.0593   16.0893 H         1 MLE         0.0232
    114 H          10.1370   13.7128   13.3328 H         1 MLE         0.0232
    115 H           8.4421   13.1671   13.3048 H         1 MLE         0.0232
    116 H           8.8446   14.7916   13.9133 H         1 MLE         0.0232
    117 H          10.2557   10.7439   11.9390 H         1 MVA         0.0488
    118 H          11.5733   11.0744   13.0903 H         1 MVA         0.0488
    119 H          11.8099    9.8888   11.7829 H         1 MVA         0.0488
    120 H          11.0471    7.3474   13.9770 H         1 MVA         0.0804
    121 H          11.7381    7.8804   11.0544 H         1 MVA         0.0343
    122 H          12.7993    5.9470   12.1721 H         1 MVA         0.0234
    123 H          11.1977    5.3689   12.6934 H         1 MVA         0.0234
    124 H          11.6119    5.4026   10.9618 H         1 MVA         0.0234
    125 H           9.1495    6.7283   12.1563 H         1 MVA         0.0234
    126 H           9.3359    8.2913   11.3235 H         1 MVA         0.0234
    127 H           9.6257    6.7720   10.4410 H         1 MVA         0.0234
    128 H          11.6534    8.7470   15.8640 H         1 BMT         0.0488
    129 H          12.5196    7.1914   15.8889 H         1 BMT         0.0488
    130 H          13.2291    8.6184   16.6835 H         1 BMT         0.0488
    131 H          15.1189    9.2547   13.8858 H         1 BMT         0.0828
    132 H          15.9406   10.4748   15.6949 H         1 BMT         0.0645
    133 H          14.6343   10.6597   17.6533 H         1 BMT         0.2101
    134 H          13.0162   11.2020   15.3913 H         1 BMT         0.0325
    135 H          15.4196   11.9337   13.6819 H         1 BMT         0.0233
    136 H          14.0756   10.8650   13.2102 H         1 BMT         0.0233
    137 H          13.7750   12.5945   13.5095 H         1 BMT         0.0233
    138 H          14.1145   12.3739   17.2136 H         1 BMT         0.0269
    139 H          13.8372   13.4803   15.8238 H         1 BMT         0.0269
    140 H          16.0065   13.9128   15.6680 H         1 BMT         0.0265
    141 H          16.3964   12.1627   15.6126 H         1 BMT         0.0265
    142 H          16.5999   12.0114   17.7915 H         1 BMT         0.0263
    143 H          15.6546   13.5131   18.0837 H         1 BMT         0.0263
    144 H          18.3901   13.3364   16.8273 H         1 BMT         0.0230
    145 H          17.4541   14.8234   17.1166 H         1 BMT         0.0230
    146 H          18.0298   13.8517   18.4933 H         1 BMT         0.0230
    147 H          17.2439    8.8941   15.2310 H         1 ABA         0.1883
    148 H          17.2017    5.9824   15.9983 H         1 ABA         0.0800
    149 H          19.5201    5.9573   15.0086 H         1 ABA         0.0310
    150 H          19.1313    7.5912   14.3054 H         1 ABA         0.0310
    151 H          17.6888    5.0054   13.7577 H         1 ABA         0.0232
    152 H          17.3085    6.6034   13.0700 H         1 ABA         0.0232
    153 H          18.8535    5.8098   12.6772 H         1 ABA         0.0232
    154 H          19.3999    8.1351   19.1585 H         1 SAR         0.0765
    155 H          19.0209    6.4695   19.8601 H         1 SAR         0.0765
    156 H          15.9011    6.8519   18.0346 H         1 SAR         0.0488
    157 H          16.7883    5.3087   18.0855 H         1 SAR         0.0488
    158 H          16.5967    6.2749   19.5690 H         1 SAR         0.0488
    159 H          18.6820   10.4529   19.3697 H         1 MLE         0.0488
    160 H          17.6444    9.6387   18.1733 H         1 MLE         0.0488
    161 H          17.0079   11.0061   19.1199 H         1 MLE         0.0488
    162 H          16.7532    9.6262   22.1187 H         1 MLE         0.0802
    163 H          15.3375   11.7465   20.9506 H         1 MLE         0.0315
    164 H          16.9417   11.6163   20.0700 H         1 MLE         0.0315
    165 H          17.1702   13.2099   21.8370 H         1 MLE         0.0298
    166 H          15.2493   12.5062   23.2136 H         1 MLE         0.0232
    167 H          16.1140   11.0180   23.6703 H         1 MLE         0.0232
    168 H          16.7278   12.6030   24.2014 H         1 MLE         0.0232
    169 H          18.3601   10.5436   22.6706 H         1 MLE         0.0232
    170 H          19.0588   11.6876   21.4983 H         1 MLE         0.0232
    171 H          18.9164   12.1458   23.2132 H         1 MLE         0.0232
    172 H          14.5617   10.0831   19.2488 H         1 VAL         0.1883
    173 H          12.4083    9.1754   18.9538 H         1 VAL         0.0803
    174 H          12.8426    7.6546   21.5589 H         1 VAL         0.0343
    175 H          10.4711    7.9778   20.9918 H         1 VAL         0.0234
    176 H          10.7699    7.3512   19.3519 H         1 VAL         0.0234
    177 H          10.9473    6.2774   20.7614 H         1 VAL         0.0234
    178 H          13.1152    6.7584   18.6731 H         1 VAL         0.0234
    179 H          14.4447    6.9844   19.8360 H         1 VAL         0.0234
    180 H          13.2338    5.7067   20.1052 H         1 VAL         0.0234
    181 H          11.7738   11.1152   18.2882 H         1 MLE         0.0488
    182 H          10.2134   10.3826   18.7349 H         1 MLE         0.0488
    183 H          10.4099   12.1520   18.7739 H         1 MLE         0.0488
    184 H          10.8585   11.9052   22.1666 H         1 MLE         0.0802
    185 H          10.6810   14.2385   21.3939 H         1 MLE         0.0315
    186 H          10.8549   13.6905   19.6850 H         1 MLE         0.0315
    187 H          13.1156   12.7585   20.3512 H         1 MLE         0.0298
    188 H          12.9381   14.8083   19.0819 H         1 MLE         0.0232
    189 H          12.7522   15.7444   20.5853 H         1 MLE         0.0232
    190 H          14.2798   14.8929   20.2498 H         1 MLE         0.0232
    191 H          12.5631   14.4813   22.7869 H         1 MLE         0.0232
    192 H          12.6937   12.7055   22.7656 H         1 MLE         0.0232
    193 H          14.1180   13.7075   22.3936 H         1 MLE         0.0232
    194 H           8.9673   14.0194   21.3968 H         1 ALA         0.1883
    195 H           6.6093   12.2661   21.5411 H         1 ALA         0.0797
    196 H           6.7865   14.1969   23.0616 H         1 ALA         0.0277
    197 H           6.8746   15.3006   21.6669 H         1 ALA         0.0277
    198 H           5.3834   14.3792   21.9804 H         1 ALA         0.0277
@<TRIPOS>BOND
     1    1    2 1  
     2    1   83 am 
     3    2    3 1  
     4    2    4 1  
     5    4    5 2  
     6    4    6 am 
     7    6    7 1  
     8    6    8 1  
     9    8    9 1  
    10    8   13 1  
    11    9   10 1  
    12   10   11 1  
    13   10   12 1  
    14   13   14 2  
    15   13   15 am 
    16   15   16 1  
    17   15   17 1  
    18   17   18 1  
    19   17   22 1  
    20   18   19 1  
    21   19   20 1  
    22   19   21 1  
    23   22   23 2  
    24   22   24 am 
    25   24   25 1  
    26   24   26 1  
    27   26   27 1  
    28   26   30 1  
    29   27   28 1  
    30   27   29 1  
    31   30   31 2  
    32   30   32 am 
    33   32   33 1  
    34   32   34 1  
    35   34   35 1  
    36   34   37 1  
    37   35   36 2  
    38   35   45 am 
    39   37   38 1  
    40   37   39 1  
    41   39   40 1  
    42   39   41 1  
    43   41   42 1  
    44   42   43 1  
    45   43   44 1  
    46   45   46 1  
    47   46   47 1  
    48   46   49 1  
    49   47   48 2  
    50   47   51 am 
    51   49   50 1  
    52   51   52 1  
    53   51   55 1  
    54   52   53 1  
    55   53   54 2  
    56   53   56 am 
    57   56   57 1  
    58   56   58 1  
    59   58   59 1  
    60   58   63 1  
    61   59   60 1  
    62   60   61 1  
    63   60   62 1  
    64   63   64 2  
    65   63   65 am 
    66   65   66 1  
    67   66   67 1  
    68   66   69 1  
    69   67   68 2  
    70   67   72 am 
    71   69   70 1  
    72   69   71 1  
    73   72   73 1  
    74   72   74 1  
    75   74   75 1  
    76   74   79 1  
    77   75   76 1  
    78   76   77 1  
    79   76   78 1  
    80   79   80 2  
    81   79   81 am 
    82   81   82 1  
    83   82   83 1  
    84   82   85 1  
    85   83   84 2  
    86    1   86 1  
    87    2   87 1  
    88    3   88 1  
    89    3   89 1  
    90    3   90 1  
    91    7   91 1  
    92    7   92 1  
    93    7   93 1  
    94    8   94 1  
    95    9   95 1  
    96    9   96 1  
    97   10   97 1  
    98   11   98 1  
    99   11   99 1  
   100   11  100 1  
   101   12  101 1  
   102   12  102 1  
   103   12  103 1  
   104   16  104 1  
   105   16  105 1  
   106   16  106 1  
   107   17  107 1  
   108   18  108 1  
   109   18  109 1  
   110   19  110 1  
   111   20  111 1  
   112   20  112 1  
   113   20  113 1  
   114   21  114 1  
   115   21  115 1  
   116   21  116 1  
   117   25  117 1  
   118   25  118 1  
   119   25  119 1  
   120   26  120 1  
   121   27  121 1  
   122   28  122 1  
   123   28  123 1  
   124   28  124 1  
   125   29  125 1  
   126   29  126 1  
   127   29  127 1  
   128   33  128 1  
   129   33  129 1  
   130   33  130 1  
   131   34  131 1  
   132   37  132 1  
   133   38  133 1  
   134   39  134 1  
   135   40  135 1  
   136   40  136 1  
   137   40  137 1  
   138   41  138 1  
   139   41  139 1  
   140   42  140 1  
   141   42  141 1  
   142   43  142 1  
   143   43  143 1  
   144   44  144 1  
   145   44  145 1  
   146   44  146 1  
   147   45  147 1  
   148   46  148 1  
   149   49  149 1  
   150   49  150 1  
   151   50  151 1  
   152   50  152 1  
   153   50  153 1  
   154   52  154 1  
   155   52  155 1  
   156   55  156 1  
   157   55  157 1  
   158   55  158 1  
   159   57  159 1  
   160   57  160 1  
   161   57  161 1  
   162   58  162 1  
   163   59  163 1  
   164   59  164 1  
   165   60  165 1  
   166   61  166 1  
   167   61  167 1  
   168   61  168 1  
   169   62  169 1  
   170   62  170 1  
   171   62  171 1  
   172   65  172 1  
   173   66  173 1  
   174   69  174 1  
   175   70  175 1  
   176   70  176 1  
   177   70  177 1  
   178   71  178 1  
   179   71  179 1  
   180   71  180 1  
   181   73  181 1  
   182   73  182 1  
   183   73  183 1  
   184   74  184 1  
   185   75  185 1  
   186   75  186 1  
   187   76  187 1  
   188   77  188 1  
   189   77  189 1  
   190   77  190 1  
   191   78  191 1  
   192   78  192 1  
   193   78  193 1  
   194   81  194 1  
   195   82  195 1  
   196   85  196 1  
   197   85  197 1  
   198   85  198 1  
@<TRIPOS>SUBSTRUCTURE
     1 DAL         1

