3t5i_ligand
  -I-interpret- 

 40 39  0  0  0  0  0  0  0  0999 V2000
   34.1860   -9.5890   13.3900 N   0  3  0  0  0
   32.8120   -9.8620   13.7930 C   0  0  0  0  0
   32.7480  -11.0160   14.7880 C   0  0  0  0  0
   31.7930  -11.1340   15.5560 O   0  0  0  0  0
   31.9460  -10.1730   12.5710 C   0  0  0  0  0
   32.7380  -10.6290   11.4880 O   0  0  0  0  0
   33.7710  -11.8650   14.7690 N   0  0  0  0  0
   33.8330  -13.0100   15.6690 C   0  0  0  0  0
   34.4540  -12.6260   17.0070 C   0  0  0  0  0
   34.3810  -13.3820   17.9760 O   0  0  0  0  0
   34.6260  -14.1510   15.0290 C   0  0  0  0  0
   35.9710  -14.1510   15.4750 O   0  0  0  0  0
   35.0190  -11.4650   17.0660 N   0  0  0  0  0
   35.6810  -10.9550   18.2760 C   0  0  0  0  0
   35.1930   -9.5330   18.5640 C   0  0  0  0  0
   35.1170   -8.6960   17.6660 O   0  0  0  0  0
   37.2010  -10.9480   18.1080 C   0  0  0  0  0
   38.0660  -10.0630   19.4570 S   0  0  0  0  0
   34.8610   -9.2910   19.8600 O   0  0  0  0  0
   34.0660   -8.1040   19.9350 C   0  0  0  0  0
   34.7472   -9.3842   14.2167 H   0  0  0  0  0
   34.5676  -10.4055   12.9123 H   0  0  0  0  0
   34.2013   -8.7870   12.7600 H   0  0  0  0  0
   32.4250   -8.9681   14.2822 H   0  0  0  0  0
   31.4308   -9.2617   12.2673 H   0  0  0  0  0
   31.2349  -10.9551   12.8370 H   0  0  0  0  0
   32.1719  -10.8166   10.7357 H   0  0  0  0  0
   34.5321  -11.7112   14.1076 H   0  0  0  0  0
   32.8126  -13.3469   15.8515 H   0  0  0  0  0
   34.6174  -14.0176   13.9472 H   0  0  0  0  0
   34.1650  -15.0974   15.3117 H   0  0  0  0  0
   36.4448  -14.8750   15.0592 H   0  0  0  0  0
   35.0050  -10.8748   16.2342 H   0  0  0  0  0
   35.4293  -11.6114   19.1090 H   0  0  0  0  0
   37.4294  -10.4344   17.1741 H   0  0  0  0  0
   37.5410  -11.9836   18.1189 H   0  0  0  0  0
   39.3777  -10.1008   19.2402 H   0  0  0  0  0
   34.6351   -7.2616   19.5417 H   0  0  0  0  0
   33.1588   -8.2380   19.3458 H   0  0  0  0  0
   33.8005   -7.9111   20.9744 H   0  0  0  0  0
  1  2  1  0  0  0
  2  3  1  0  0  0
  2  5  1  0  0  0
  3  4  2  0  0  0
  3  7  1  0  0  0
  5  6  1  0  0  0
  7  8  1  0  0  0
  8  9  1  0  0  0
  8 11  1  0  0  0
  9 10  2  0  0  0
  9 13  1  0  0  0
 11 12  1  0  0  0
 13 14  1  0  0  0
 14 15  1  0  0  0
 14 17  1  0  0  0
 15 16  2  0  0  0
 15 19  1  0  0  0
 17 18  1  0  0  0
 19 20  1  0  0  0
  1 21  1  0  0  0
  1 22  1  0  0  0
  1 23  1  0  0  0
  2 24  1  0  0  0
  5 25  1  0  0  0
  5 26  1  0  0  0
  6 27  1  0  0  0
  7 28  1  0  0  0
  8 29  1  0  0  0
 11 30  1  0  0  0
 11 31  1  0  0  0
 12 32  1  0  0  0
 13 33  1  0  0  0
 14 34  1  0  0  0
 17 35  1  0  0  0
 17 36  1  0  0  0
 18 37  1  0  0  0
 20 38  1  0  0  0
 20 39  1  0  0  0
 20 40  1  0  0  0
M  END
$$$$
