5f60_ligand
  -I-interpret- 

 72 75  0  0  0  0  0  0  0  0999 V2000
    8.4840   36.8690   78.6060 C   0  0  0  0  0
   10.5850   38.0840   78.5840 C   0  0  0  0  0
   12.7940   39.0700   78.9470 C   0  0  0  0  0
   14.8880   40.1930   79.2100 C   0  0  0  0  0
   14.6890   38.4190   77.6770 C   0  0  0  0  0
   14.7900   36.6100   75.9840 C   0  0  0  0  0
   13.1570   34.9560   75.2340 C   0  0  0  0  0
    7.4750   35.5850   76.4720 Cl  0  0  0  0  0
    8.6570   36.5210   77.2600 C   0  0  0  0  0
    9.7870   36.9680   76.5470 C   0  0  0  0  0
    9.9510   36.6170   75.2280 N   0  0  0  0  0
   10.5370   37.6010   73.9810 S   0  0  0  0  0
    9.2060   38.7420   73.4940 C   0  0  0  0  0
    9.7700   39.6020   72.3450 C   0  0  0  0  0
    7.9930   37.9130   73.0120 C   0  0  0  0  0
    8.8090   39.6400   74.6920 C   0  0  0  0  0
   10.8740   36.6600   72.7980 O   0  0  0  0  0
   11.7530   38.4220   74.5010 O   0  0  0  0  0
   10.7270   37.7450   77.2290 C   0  0  0  0  0
    9.4430   37.6500   79.2720 C   0  0  0  0  0
   11.4850   38.8710   79.2520 N   0  0  0  0  0
   13.5410   40.0750   79.5980 C   0  0  0  0  0
   12.9440   40.9850   80.6140 C   0  0  0  0  0
   15.4170   39.3880   78.2680 N   0  0  0  0  0
   15.2680   37.6270   76.7470 N   0  0  0  0  0
   13.5280   36.0190   76.1010 C   0  0  0  0  0
   14.0540   34.4370   74.2710 C   0  0  0  0  0
   13.6890   33.4010   73.4280 N   0  0  0  0  0
   14.7000   32.4290   73.0420 C   0  0  0  0  0
   14.2070   31.2780   72.1250 C   0  0  0  0  0
   12.7900   31.4710   71.7160 N   0  3  0  0  0
   12.3290   30.4720   70.7180 C   0  0  0  0  0
   12.5820   32.8560   71.2370 C   0  0  0  0  0
   12.7130   33.8050   72.4410 C   0  0  0  0  0
   15.3240   35.0250   74.1800 C   0  0  0  0  0
   15.6890   36.0810   75.0250 C   0  0  0  0  0
   13.3980   38.2650   78.0400 N   0  0  0  0  0
    7.5970   36.5306   79.1414 H   0  0  0  0  0
   15.5156   40.9500   79.6803 H   0  0  0  0  0
   12.1568   34.5301   75.3129 H   0  0  0  0  0
    9.6925   35.6636   74.9739 H   0  0  0  0  0
   10.6446   40.1487   72.6976 H   0  0  0  0  0
   10.0544   38.9555   71.5148 H   0  0  0  0  0
    9.0083   40.3076   72.0133 H   0  0  0  0  0
    8.2880   37.3020   72.1589 H   0  0  0  0  0
    7.6506   37.2681   73.8213 H   0  0  0  0  0
    7.1883   38.5865   72.7172 H   0  0  0  0  0
    8.4614   39.0142   75.5140 H   0  0  0  0  0
    9.6755   40.2173   75.0145 H   0  0  0  0  0
    8.0118   40.3181   74.3876 H   0  0  0  0  0
   11.6038   38.1015   76.6885 H   0  0  0  0  0
    9.3000   37.9174   80.3190 H   0  0  0  0  0
   11.1323   39.3641   80.0723 H   0  0  0  0  0
   12.1292   41.5493   80.1604 H   0  0  0  0  0
   12.5601   40.3957   81.4468 H   0  0  0  0  0
   13.7072   41.6738   80.9761 H   0  0  0  0  0
   16.2542   37.8328   76.5875 H   0  0  0  0  0
   12.8284   36.3740   76.8578 H   0  0  0  0  0
   15.0495   31.9630   73.9633 H   0  0  0  0  0
   15.4543   32.9750   72.4755 H   0  0  0  0  0
   14.2809   30.3418   72.6783 H   0  0  0  0  0
   14.8253   31.2644   71.2274 H   0  0  0  0  0
   12.2137   31.3178   72.5435 H   0  0  0  0  0
   12.9445   30.5453   69.8214 H   0  0  0  0  0
   12.4175   29.4710   71.1402 H   0  0  0  0  0
   11.2879   30.6692   70.4626 H   0  0  0  0  0
   11.5932   32.9532   70.7887 H   0  0  0  0  0
   13.3248   33.1064   70.4796 H   0  0  0  0  0
   13.0386   34.7690   72.0501 H   0  0  0  0  0
   11.7443   33.8179   72.9406 H   0  0  0  0  0
   16.0363   34.6555   73.4422 H   0  0  0  0  0
   16.6893   36.5062   74.9427 H   0  0  0  0  0
  1  9  4  0  0  0
 20  1  4  0  0  0
  2 19  4  0  0  0
  2 20  4  0  0  0
  2 21  1  0  0  0
 21  3  1  0  0  0
  3 22  4  0  0  0
  3 37  4  0  0  0
 22  4  4  0  0  0
  4 24  4  0  0  0
 24  5  4  0  0  0
  5 25  1  0  0  0
  5 37  4  0  0  0
 25  6  1  0  0  0
  6 26  4  0  0  0
  6 36  4  0  0  0
 26  7  4  0  0  0
  7 27  4  0  0  0
  9  8  1  0  0  0
  9 10  4  0  0  0
 10 11  1  0  0  0
 10 19  4  0  0  0
 11 12  1  0  0  0
 12 13  1  0  0  0
 12 17  2  0  0  0
 12 18  2  0  0  0
 13 14  1  0  0  0
 13 15  1  0  0  0
 13 16  1  0  0  0
 22 23  1  0  0  0
 27 28  1  0  0  0
 27 35  4  0  0  0
 28 29  1  0  0  0
 28 34  1  0  0  0
 29 30  1  0  0  0
 30 31  1  0  0  0
 31 32  1  0  0  0
 31 33  1  0  0  0
 33 34  1  0  0  0
 35 36  4  0  0  0
  1 38  1  0  0  0
  4 39  1  0  0  0
  7 40  1  0  0  0
 11 41  1  0  0  0
 14 42  1  0  0  0
 14 43  1  0  0  0
 14 44  1  0  0  0
 15 45  1  0  0  0
 15 46  1  0  0  0
 15 47  1  0  0  0
 16 48  1  0  0  0
 16 49  1  0  0  0
 16 50  1  0  0  0
 19 51  1  0  0  0
 20 52  1  0  0  0
 21 53  1  0  0  0
 23 54  1  0  0  0
 23 55  1  0  0  0
 23 56  1  0  0  0
 25 57  1  0  0  0
 26 58  1  0  0  0
 29 59  1  0  0  0
 29 60  1  0  0  0
 30 61  1  0  0  0
 30 62  1  0  0  0
 31 63  1  0  0  0
 32 64  1  0  0  0
 32 65  1  0  0  0
 32 66  1  0  0  0
 33 67  1  0  0  0
 33 68  1  0  0  0
 34 69  1  0  0  0
 34 70  1  0  0  0
 35 71  1  0  0  0
 36 72  1  0  0  0
M  END
$$$$
