4y64_ligand
  -I-interpret- 

 41 42  0  0  0  0  0  0  0  0999 V2000
   18.1810   24.7070    6.8930 O   0  0  0  0  0
   17.5630   24.1220    7.7850 C   0  0  0  0  0
   18.0830   24.1860    9.0610 N   0  0  0  0  0
   17.4610   23.5470   10.1580 C   0  0  0  0  0
   17.9650   23.6630   11.2860 O   0  0  0  0  0
   16.3090   22.8010    9.9290 C   0  0  0  0  0
   15.7950   22.7370    8.6240 C   0  0  0  0  0
   16.4490   23.3950    7.5350 N   0  0  0  0  0
   15.9170   23.3480    6.1320 C   0  0  0  0  0
   14.5960   22.7790    6.0280 O   0  0  0  0  0
   16.8220   22.5400    5.1860 C   0  0  0  0  0
   16.8280   23.0880    3.8370 O   0  0  0  0  0
   16.1600   21.2060    5.2340 C   0  0  0  0  0
   16.4670   20.4610    4.0750 O   0  0  0  0  0
   14.6730   21.5090    5.2880 C   0  0  0  0  0
   13.8060   20.2510    5.7240 C   0  0  0  0  0
   14.5140   19.3520    6.6700 N   0  0  0  0  0
   14.9190   18.0270    6.6990 C   0  0  0  0  0
   15.5260   17.6240    7.6950 O   0  0  0  0  0
   14.6460   16.9040    5.6450 C   0  0  0  0  0
   14.8270   17.3120    4.2530 N   0  3  0  0  0
   13.2860   16.1980    5.9140 C   0  0  0  0  0
   18.9434   24.7109    9.2180 H   0  0  0  0  0
   15.8151   22.2764   10.7469 H   0  0  0  0  0
   14.8799   22.1751    8.4370 H   0  0  0  0  0
   15.8856   24.3976    5.8396 H   0  0  0  0  0
   17.8739   22.5336    5.4717 H   0  0  0  0  0
   17.4023   22.5575    3.2799 H   0  0  0  0  0
   16.4913   20.6142    6.0873 H   0  0  0  0  0
   16.0335   19.6057    4.1216 H   0  0  0  0  0
   14.1805   21.6750    4.3299 H   0  0  0  0  0
   13.5837   19.6756    4.8253 H   0  0  0  0  0
   12.9137   20.6233    6.2273 H   0  0  0  0  0
   14.7710   19.8401    7.5279 H   0  0  0  0  0
   15.4319   16.1625    5.7890 H   0  0  0  0  0
   14.6289   16.5214    3.6397 H   0  0  0  0  0
   14.1888   18.0783    4.0388 H   0  0  0  0  0
   15.7892   17.6200    4.1126 H   0  0  0  0  0
   13.3019   15.7476    6.9065 H   0  0  0  0  0
   12.4807   16.9305    5.8589 H   0  0  0  0  0
   13.1259   15.4230    5.1644 H   0  0  0  0  0
  1  2  2  0  0  0
  2  3  1  0  0  0
  2  8  1  0  0  0
  3  4  1  0  0  0
  4  5  2  0  0  0
  4  6  1  0  0  0
  6  7  2  0  0  0
  7  8  1  0  0  0
  8  9  1  0  0  0
  9 10  1  0  0  0
  9 11  1  0  0  0
 10 15  1  0  0  0
 11 12  1  0  0  0
 11 13  1  0  0  0
 13 14  1  0  0  0
 13 15  1  0  0  0
 15 16  1  0  0  0
 16 17  1  0  0  0
 17 18  1  0  0  0
 18 19  2  0  0  0
 18 20  1  0  0  0
 20 21  1  0  0  0
 20 22  1  0  0  0
  3 23  1  0  0  0
  6 24  1  0  0  0
  7 25  1  0  0  0
  9 26  1  0  0  0
 11 27  1  0  0  0
 12 28  1  0  0  0
 13 29  1  0  0  0
 14 30  1  0  0  0
 15 31  1  0  0  0
 16 32  1  0  0  0
 16 33  1  0  0  0
 17 34  1  0  0  0
 20 35  1  0  0  0
 21 36  1  0  0  0
 21 37  1  0  0  0
 21 38  1  0  0  0
 22 39  1  0  0  0
 22 40  1  0  0  0
 22 41  1  0  0  0
M  END
$$$$
