1m2q_ligand
  -I-interpret- 

 27 29  0  0  0  0  0  0  0  0999 V2000
   26.6500    3.5790   16.3840 C   0  0  0  0  0
   25.9520    4.8130   16.1720 C   0  0  0  0  0
   25.3110    5.4640   17.2850 C   0  0  0  0  0
   25.3450    4.8720   18.5720 C   0  0  0  0  0
   26.0310    3.6490   18.7750 C   0  0  0  0  0
   26.6760    3.0000   17.6840 C   0  0  0  0  0
   24.6240    6.6550   17.1080 O   0  0  0  0  0
   24.5250    7.3130   15.8720 C   0  0  0  0  0
   25.1440    6.7560   14.7020 C   0  0  0  0  0
   25.8950    5.4740   14.8390 C   0  0  0  0  0
   25.0290    7.4390   13.4480 C   0  0  0  0  0
   24.3100    8.6500   13.3670 C   0  0  0  0  0
   23.6950    9.1970   14.5190 C   0  0  0  0  0
   23.7970    8.5420   15.7720 C   0  0  0  0  0
   26.4450    4.9490   13.8560 O   0  0  0  0  0
   27.2870    2.9140   15.3340 O   0  0  0  0  0
   25.6100    6.9450   12.2810 O   0  0  0  0  0
   23.1470    9.1420   16.9200 N   0  0  0  0  0
   23.2030    8.5650   18.1600 O   0  0  0  0  0
   22.4590   10.3140   16.7690 O   0  0  0  0  0
   24.8422    5.3586   19.4078 H   0  0  0  0  0
   26.0651    3.2036   19.7693 H   0  0  0  0  0
   27.1928    2.0540   17.8454 H   0  0  0  0  0
   24.2274    9.1679   12.4114 H   0  0  0  0  0
   23.1378   10.1306   14.4417 H   0  0  0  0  0
   27.6970    2.1121   15.6664 H   0  0  0  0  0
   25.4211    7.5420   11.5533 H   0  0  0  0  0
  1  2  4  0  0  0
  1  6  4  0  0  0
  1 16  1  0  0  0
  2  3  4  0  0  0
  2 10  1  0  0  0
  3  4  4  0  0  0
  3  7  1  0  0  0
  4  5  4  0  0  0
  5  6  4  0  0  0
  7  8  1  0  0  0
  8  9  4  0  0  0
  8 14  4  0  0  0
  9 10  1  0  0  0
  9 11  4  0  0  0
 10 15  2  0  0  0
 11 12  4  0  0  0
 11 17  1  0  0  0
 12 13  4  0  0  0
 13 14  4  0  0  0
 14 18  1  0  0  0
 18 19  2  0  0  0
 18 20  2  0  0  0
  4 21  1  0  0  0
  5 22  1  0  0  0
  6 23  1  0  0  0
 12 24  1  0  0  0
 13 25  1  0  0  0
 16 26  1  0  0  0
 17 27  1  0  0  0
M  END
$$$$
