3gk4_ligand
  -I-interpret- 

 46 48  0  0  0  0  0  0  0  0999 V2000
    3.0290  -13.5260   14.8820 N   0  0  0  0  0
    3.9420  -14.5770   15.0390 N   0  0  0  0  0
    0.8250  -11.7730   14.6540 C   0  0  0  0  0
    2.2100  -11.2370   14.4580 C   0  0  0  0  0
    3.3450  -12.1950   14.5890 C   0  0  0  0  0
   -1.6310  -13.9600   13.2470 O   0  0  0  0  0
    3.1450  -15.7200   15.3080 N   0  0  0  0  0
   -4.2370  -11.6530   13.8440 O   0  0  0  0  0
   -3.2130  -11.0010   14.0030 C   0  0  0  0  0
   -3.2900   -9.5690   14.4620 C   0  0  0  0  0
   -1.8810  -11.6490   13.7080 C   0  0  0  0  0
   -1.8930  -13.1060   14.0830 C   0  0  0  0  0
   -2.1940  -13.5050   15.4560 O   0  0  0  0  0
   -3.4280  -14.1340   15.8160 C   0  0  0  0  0
   -3.9070  -13.6100   17.1520 C   0  0  0  0  0
   -0.5640  -10.7980   14.5400 S   0  0  0  0  0
    0.6780  -13.0870   14.9360 N   0  0  0  0  0
    2.4820   -9.9000   14.1710 C   0  0  0  0  0
    3.8090   -9.4830   14.0080 C   0  0  0  0  0
    4.8720  -10.3830   14.1300 C   0  0  0  0  0
    4.6530  -11.7350   14.4170 C   0  0  0  0  0
    1.8430  -15.3430   15.3130 C   0  0  0  0  0
    1.7650  -13.8930   15.0320 C   0  0  0  0  0
    0.5610  -16.0610   15.5390 C   0  0  0  0  0
   -0.3320  -15.5160   16.1530 O   0  0  0  0  0
    0.3710  -17.4240   15.0450 O   0  0  0  0  0
   -0.8910  -18.1060   15.1430 C   0  0  0  0  0
   -2.0480  -17.2560   14.6510 C   0  0  0  0  0
   -3.8614   -8.9872   13.7387 H   0  0  0  0  0
   -3.7814   -9.5263   15.4340 H   0  0  0  0  0
   -2.2828   -9.1605   14.5443 H   0  0  0  0  0
   -1.7071  -11.5785   12.6343 H   0  0  0  0  0
   -3.2735  -15.2106   15.8881 H   0  0  0  0  0
   -4.1773  -13.9140   15.0555 H   0  0  0  0  0
   -3.1587  -13.8253   17.9147 H   0  0  0  0  0
   -4.0596  -12.5328   17.0848 H   0  0  0  0  0
   -4.8466  -14.0956   17.4156 H   0  0  0  0  0
    1.6665   -9.1834   14.0740 H   0  0  0  0  0
    4.0170   -8.4372   13.7818 H   0  0  0  0  0
    5.8928  -10.0240   13.9988 H   0  0  0  0  0
    5.4944  -12.4223   14.5055 H   0  0  0  0  0
   -1.0671  -18.3400   16.1929 H   0  0  0  0  0
   -0.8406  -18.9995   14.5207 H   0  0  0  0  0
   -2.1090  -16.3466   15.2487 H   0  0  0  0  0
   -1.8863  -16.9948   13.6052 H   0  0  0  0  0
   -2.9768  -17.8183   14.7469 H   0  0  0  0  0
  1  2  4  0  0  0
  5  1  4  0  0  0
  1 23  4  0  0  0
  2  7  4  0  0  0
  3  4  4  0  0  0
 16  3  1  0  0  0
  3 17  4  0  0  0
  4  5  4  0  0  0
  4 18  4  0  0  0
  5 21  4  0  0  0
 12  6  2  0  0  0
  7 22  4  0  0  0
  9  8  2  0  0  0
  9 10  1  0  0  0
 11  9  1  0  0  0
 11 12  1  0  0  0
 11 16  1  0  0  0
 12 13  1  0  0  0
 13 14  1  0  0  0
 14 15  1  0  0  0
 17 23  4  0  0  0
 18 19  4  0  0  0
 19 20  4  0  0  0
 20 21  4  0  0  0
 22 23  4  0  0  0
 22 24  1  0  0  0
 24 25  2  0  0  0
 24 26  1  0  0  0
 26 27  1  0  0  0
 27 28  1  0  0  0
 10 29  1  0  0  0
 10 30  1  0  0  0
 10 31  1  0  0  0
 11 32  1  0  0  0
 14 33  1  0  0  0
 14 34  1  0  0  0
 15 35  1  0  0  0
 15 36  1  0  0  0
 15 37  1  0  0  0
 18 38  1  0  0  0
 19 39  1  0  0  0
 20 40  1  0  0  0
 21 41  1  0  0  0
 27 42  1  0  0  0
 27 43  1  0  0  0
 28 44  1  0  0  0
 28 45  1  0  0  0
 28 46  1  0  0  0
M  END
$$$$
