3jq7_ligand
  -I-interpret- 

 32 34  0  0  0  0  0  0  0  0999 V2000
    8.3350   -9.5310   14.8690 C   0  0  0  0  0
    7.8150  -13.0070   13.9630 C   0  0  0  0  0
    9.1360  -13.3600   13.6130 C   0  0  0  0  0
   10.8630  -10.2350   14.1350 N   0  0  0  0  0
   11.5690   -8.0470   14.6000 N   0  0  0  0  0
    9.3380   -8.6160   14.9330 N   0  0  0  0  0
    5.4890  -13.2700   14.4470 C   0  0  0  0  0
    4.2740  -14.0060   14.5020 C   0  0  0  0  0
    4.0900  -15.3630   14.1610 C   0  0  0  0  0
    5.2090  -16.0570   13.7810 C   0  0  0  0  0
    6.2580  -15.0960   13.5190 C   0  0  0  0  0
    6.7160  -13.8570   14.1690 C   0  0  0  0  0
    7.6020  -11.7350   14.4010 N   0  0  0  0  0
    8.6000  -10.8220   14.4420 C   0  0  0  0  0
    7.0750   -9.2460   15.2520 N   0  0  0  0  0
   10.5910   -8.9690   14.5560 C   0  0  0  0  0
    9.8900  -11.1620   14.0590 C   0  0  0  0  0
   10.1380  -12.4180   13.6300 N   0  0  0  0  0
    9.4630  -14.5990   13.1720 N   0  0  0  0  0
   12.5171   -8.2954   14.3176 H   0  0  0  0  0
   11.3626   -7.0993   14.9158 H   0  0  0  0  0
    5.4557  -12.1962   14.6314 H   0  0  0  0  0
    3.3914  -13.4652   14.8436 H   0  0  0  0  0
    3.1082  -15.8350   14.1980 H   0  0  0  0  0
    5.2935  -17.1401   13.6920 H   0  0  0  0  0
    5.8514  -14.6586   12.6072 H   0  0  0  0  0
    7.1159  -15.7267   13.7522 H   0  0  0  0  0
    7.4702  -14.1978   14.8783 H   0  0  0  0  0
    6.8471   -8.3165   15.6049 H   0  0  0  0  0
    6.3490   -9.9597   15.1890 H   0  0  0  0  0
    8.7424  -15.3154   13.0832 H   0  0  0  0  0
   10.4297  -14.8151   12.9288 H   0  0  0  0  0
  1  6  4  0  0  0
 14  1  4  0  0  0
  1 15  1  0  0  0
  2  3  4  0  0  0
  2 12  1  0  0  0
 13  2  4  0  0  0
  3 18  4  0  0  0
  3 19  1  0  0  0
 16  4  4  0  0  0
  4 17  4  0  0  0
 16  5  1  0  0  0
  6 16  4  0  0  0
  7  8  2  0  0  0
 12  7  1  0  0  0
  8  9  1  0  0  0
 10  9  2  0  0  0
 11 10  1  0  0  0
 12 11  1  0  0  0
 13 14  4  0  0  0
 14 17  4  0  0  0
 17 18  4  0  0  0
  5 20  1  0  0  0
  5 21  1  0  0  0
  7 22  1  0  0  0
  8 23  1  0  0  0
  9 24  1  0  0  0
 10 25  1  0  0  0
 11 26  1  0  0  0
 11 27  1  0  0  0
 12 28  1  0  0  0
 15 29  1  0  0  0
 15 30  1  0  0  0
 19 31  1  0  0  0
 19 32  1  0  0  0
M  END
$$$$
