1k6t_ligand
  -I-interpret- 

 97101  0  0  0  0  0  0  0  0999 V2000
    3.1820   -5.3320   16.3030 N   0  3  0  0  0
    4.6020   -5.1460   15.8000 C   0  0  0  0  0
    5.4030   -3.9970   16.4070 C   0  0  0  0  0
    6.7370   -4.0250   15.7400 C   0  0  0  0  0
    6.8500   -3.5830   14.5800 O   0  0  0  0  0
    7.7600   -4.5330   16.4390 N   0  0  0  0  0
    9.1730   -4.7000   16.0900 C   0  0  0  0  0
    9.9070   -5.3650   17.2820 C   0  0  0  0  0
    9.8290   -3.4800   15.8720 C   0  0  0  0  0
    9.4110   -5.5860   14.9160 C   0  0  0  0  0
    4.4900   -2.7760   16.1220 N   0  3  0  0  0
    3.0610   -2.8590   16.5660 C   0  0  0  0  0
    2.4390   -4.1420   16.0320 C   0  0  0  0  0
    5.0120   -1.4890   16.6570 C   0  0  0  0  0
    4.9970   -0.4370   15.6040 C   0  0  0  0  0
    5.1220    0.6140   16.5270 O   0  0  0  0  0
    6.1660   -0.2630   14.6360 C   0  0  0  0  0
    6.1370    0.8190   13.5370 C   0  0  0  0  0
    7.4940    0.7770   12.6920 C   0  0  0  0  0
    7.4930    1.8430   11.5870 C   0  0  0  0  0
    7.3260    3.2730   11.8930 C   0  0  0  0  0
    7.3180    4.2330   10.8230 C   0  0  0  0  0
    7.4810    3.7660    9.4410 C   0  0  0  0  0
    7.6480    2.3510    9.1530 C   0  0  0  0  0
    7.6530    1.4040   10.2200 C   0  0  0  0  0
    4.9510    0.6120   12.5330 C   0  0  0  0  0
    4.4830   -0.5370   12.1980 O   0  0  0  0  0
    4.5160    1.7590   12.0580 N   0  0  0  0  0
    3.4530    1.8920   11.0810 C   0  0  0  0  0
    3.4150    3.2820   10.4760 C   0  0  0  0  0
    3.7030    4.2740   11.4470 O   0  0  0  0  0
    2.0500    3.3980    9.8540 C   0  0  0  0  0
    1.0530    2.6850   10.7290 C   0  0  0  0  0
   -0.3210    2.7010   10.9570 C   0  0  0  0  0
   -0.8560    1.7970   11.9360 C   0  0  0  0  0
    0.0030    0.8880   12.6750 C   0  0  0  0  0
    1.3940    0.8600   12.4570 C   0  0  0  0  0
    1.9990    1.6960   11.5320 C   0  0  0  0  0
    2.4960   -6.4920   15.7040 C   0  0  0  0  0
    3.1180   -7.8800   15.8760 C   0  0  0  0  0
    3.2680   -8.5080   17.1620 C   0  0  0  0  0
    3.8580   -9.8240   17.3710 N   0  0  0  0  0
    4.2940  -10.4710   16.1490 C   0  0  0  0  0
    4.1720   -9.8990   14.8360 C   0  0  0  0  0
    3.5750   -8.5820   14.7060 C   0  0  0  0  0
    8.8850    0.7840   13.3100 C   0  0  0  0  0
    3.2357   -5.5145   17.3051 H   0  0  0  0  0
    4.5156   -4.9214   14.7369 H   0  0  0  0  0
    5.1361   -6.0574   16.0685 H   0  0  0  0  0
    5.6301   -4.0133   17.4730 H   0  0  0  0  0
    7.5135   -4.8592   17.3735 H   0  0  0  0  0
    9.4969   -6.3609   17.4497 H   0  0  0  0  0
   10.9703   -5.4421   17.0550 H   0  0  0  0  0
    9.7682   -4.7581   18.1767 H   0  0  0  0  0
   10.8975   -3.6596   15.7532 H   0  0  0  0  0
    9.4351   -3.0134   14.9691 H   0  0  0  0  0
    9.6625   -2.8219   16.7248 H   0  0  0  0  0
    9.0192   -5.1094   14.0174 H   0  0  0  0  0
   10.4816   -5.7556   14.8016 H   0  0  0  0  0
    8.9056   -6.5389   15.0732 H   0  0  0  0  0
    4.5071   -2.8029   15.1025 H   0  0  0  0  0
    2.5102   -2.0003   16.1821 H   0  0  0  0  0
    3.0178   -2.8595   17.6551 H   0  0  0  0  0
    1.4745   -4.2538   16.5272 H   0  0  0  0  0
    2.3914   -4.0409   14.9477 H   0  0  0  0  0
    6.0384   -1.6372   16.9925 H   0  0  0  0  0
    4.3789   -1.1686   17.4844 H   0  0  0  0  0
    4.1725   -0.5854   14.9066 H   0  0  0  0  0
    5.1361    1.4510   16.0571 H   0  0  0  0  0
    6.1904   -1.2010   14.0814 H   0  0  0  0  0
    6.9962    0.0346   15.2766 H   0  0  0  0  0
    6.0137    1.7756   14.0448 H   0  0  0  0  0
    7.4012   -0.2643   12.3836 H   0  0  0  0  0
    7.2090    3.6023   12.9254 H   0  0  0  0  0
    7.1924    5.2947   11.0353 H   0  0  0  0  0
    7.4768    4.4868    8.6233 H   0  0  0  0  0
    7.7692    2.0141    8.1235 H   0  0  0  0  0
    7.7782    0.3433   10.0026 H   0  0  0  0  0
    4.9565    2.6129   12.4003 H   0  0  0  0  0
    3.7330    1.0757   10.4152 H   0  0  0  0  0
    4.1825    3.4400    9.7183 H   0  0  0  0  0
    3.6718    5.1410   11.0361 H   0  0  0  0  0
    2.0578    2.9474    8.8615 H   0  0  0  0  0
    1.7749    4.4487    9.7625 H   0  0  0  0  0
   -0.9721    3.3809   10.4075 H   0  0  0  0  0
   -1.9288    1.7927   12.1286 H   0  0  0  0  0
   -0.4370    0.2156   13.4114 H   0  0  0  0  0
    2.0088    0.1649   13.0288 H   0  0  0  0  0
    2.5085   -6.3061   14.6300 H   0  0  0  0  0
    1.5336   -6.5469   16.2128 H   0  0  0  0  0
    2.9169   -7.9630   18.0382 H   0  0  0  0  0
    4.7456  -11.4596   16.2317 H   0  0  0  0  0
    4.5200  -10.4420   13.9573 H   0  0  0  0  0
    3.4729   -8.1248   13.7218 H   0  0  0  0  0
    9.0161    1.6934   13.8965 H   0  0  0  0  0
    8.9983   -0.0862   13.9565 H   0  0  0  0  0
    9.6332    0.7498   12.5181 H   0  0  0  0  0
  1 39  1  0  0  0
  1 13  1  0  0  0
  1  2  1  0  0  0
  2  3  1  0  0  0
  3 11  1  0  0  0
  3  4  1  0  0  0
  4  6  1  0  0  0
  4  5  2  0  0  0
  6  7  1  0  0  0
  7 10  1  0  0  0
  7  9  1  0  0  0
  7  8  1  0  0  0
 11 14  1  0  0  0
 11 12  1  0  0  0
 12 13  1  0  0  0
 14 15  1  0  0  0
 15 17  1  0  0  0
 15 16  1  0  0  0
 17 18  1  0  0  0
 18 26  1  0  0  0
 18 19  1  0  0  0
 19 46  1  0  0  0
 19 20  1  0  0  0
 20 25  4  0  0  0
 20 21  4  0  0  0
 21 22  4  0  0  0
 22 23  4  0  0  0
 23 24  4  0  0  0
 24 25  4  0  0  0
 26 28  1  0  0  0
 26 27  2  0  0  0
 28 29  1  0  0  0
 29 38  1  0  0  0
 29 30  1  0  0  0
 30 32  1  0  0  0
 30 31  1  0  0  0
 32 33  1  0  0  0
 33 38  4  0  0  0
 33 34  4  0  0  0
 34 35  4  0  0  0
 35 36  4  0  0  0
 36 37  4  0  0  0
 37 38  4  0  0  0
 39 40  1  0  0  0
 40 45  4  0  0  0
 40 41  4  0  0  0
 41 42  4  0  0  0
 42 43  4  0  0  0
 43 44  4  0  0  0
 44 45  4  0  0  0
  1 47  1  0  0  0
  2 48  1  0  0  0
  2 49  1  0  0  0
  3 50  1  0  0  0
  6 51  1  0  0  0
  8 52  1  0  0  0
  8 53  1  0  0  0
  8 54  1  0  0  0
  9 55  1  0  0  0
  9 56  1  0  0  0
  9 57  1  0  0  0
 10 58  1  0  0  0
 10 59  1  0  0  0
 10 60  1  0  0  0
 11 61  1  0  0  0
 12 62  1  0  0  0
 12 63  1  0  0  0
 13 64  1  0  0  0
 13 65  1  0  0  0
 14 66  1  0  0  0
 14 67  1  0  0  0
 15 68  1  0  0  0
 16 69  1  0  0  0
 17 70  1  0  0  0
 17 71  1  0  0  0
 18 72  1  0  0  0
 19 73  1  0  0  0
 21 74  1  0  0  0
 22 75  1  0  0  0
 23 76  1  0  0  0
 24 77  1  0  0  0
 25 78  1  0  0  0
 28 79  1  0  0  0
 29 80  1  0  0  0
 30 81  1  0  0  0
 31 82  1  0  0  0
 32 83  1  0  0  0
 32 84  1  0  0  0
 34 85  1  0  0  0
 35 86  1  0  0  0
 36 87  1  0  0  0
 37 88  1  0  0  0
 39 89  1  0  0  0
 39 90  1  0  0  0
 41 91  1  0  0  0
 43 92  1  0  0  0
 44 93  1  0  0  0
 45 94  1  0  0  0
 46 95  1  0  0  0
 46 96  1  0  0  0
 46 97  1  0  0  0
M  END
$$$$
