1qsc_ligand
  -I-interpret- 

109110  0  0  0  0  0  0  0  0999 V2000
   35.6410   57.2280   -1.8670 C   0  0  0  0  0
   35.0650   57.5470   -0.8230 O   0  0  0  0  0
   35.8100   58.2390   -2.9970 C   0  0  0  0  0
   36.1350   56.0100   -2.0760 N   0  0  0  0  0
   36.0320   54.9670   -1.0660 C   0  0  0  0  0
   37.1920   55.0250   -0.0810 C   0  0  0  0  0
   38.3020   55.4260   -0.4300 O   0  0  0  0  0
   35.9990   53.5740   -1.7180 C   0  0  0  0  0
   34.7340   53.2760   -2.4950 C   0  0  0  0  0
   34.7630   52.4840   -3.6450 C   0  0  0  0  0
   33.5060   53.8010   -2.0890 C   0  0  0  0  0
   33.6010   52.2320   -4.3700 C   0  0  0  0  0
   32.3420   53.5540   -2.8030 C   0  0  0  0  0
   32.3930   52.7740   -3.9410 C   0  0  0  0  0
   31.2330   52.5510   -4.6480 O   0  0  0  0  0
   36.9340   54.6320    1.1730 N   0  0  0  0  0
   37.8700   54.5810    2.2990 C   0  0  0  0  0
   38.8980   53.5020    1.9740 C   0  0  0  0  0
   38.5880   52.5580    1.2480 O   0  0  0  0  0
   36.9890   54.1380    3.4710 C   0  0  0  0  0
   35.6060   54.4110    3.0240 C   0  0  0  0  0
   35.6130   54.1300    1.5750 C   0  0  0  0  0
   40.1060   53.6320    2.5100 N   0  0  0  0  0
   41.1470   52.6290    2.2940 C   0  0  0  0  0
   41.4090   51.9130    3.6170 C   0  0  0  0  0
   41.6150   52.5560    4.6380 O   0  0  0  0  0
   42.4480   53.2820    1.7920 C   0  0  0  0  0
   42.2030   53.8820    0.4100 C   0  0  0  0  0
   43.5870   52.2590    1.7650 C   0  0  0  0  0
   43.3650   54.6660   -0.1230 C   0  0  0  0  0
   41.3950   50.5840    3.6060 N   0  0  0  0  0
   41.6150   49.8240    4.8360 C   0  0  0  0  0
   43.0280   49.9270    5.3840 C   0  0  0  0  0
   43.9860   50.1430    4.6430 O   0  0  0  0  0
   41.2870   48.3400    4.6210 C   0  0  0  0  0
   39.8630   48.0740    4.1750 C   0  0  0  0  0
   39.5170   46.6030    4.1680 C   0  0  0  0  0
   40.2430   45.7850    3.6100 O   0  0  0  0  0
   38.3930   46.2590    4.7780 N   0  0  0  0  0
   43.1430   49.7770    6.6950 N   0  0  0  0  0
   44.4390   49.7990    7.3580 C   0  0  0  0  0
   45.1400   48.5100    6.9310 C   0  0  0  0  0
   44.4920   47.5730    6.4610 O   0  0  0  0  0
   44.2520   49.8010    8.8770 C   0  0  0  0  0
   43.4130   48.6300    9.3950 C   0  0  0  0  0
   43.2000   48.6670   10.9090 C   0  0  0  0  0
   42.3050   47.9480   11.4030 O   0  0  0  0  0
   43.9260   49.4010   11.6100 O   0  0  0  0  0
   46.4550   48.4560    7.0870 N   0  0  0  0  0
   47.1990   47.2610    6.7030 C   0  0  0  0  0
   47.5240   46.4330    7.9430 C   0  0  0  0  0
   47.4380   45.1860    7.8660 O   0  0  0  0  0
   48.5080   47.6200    5.9710 C   0  0  0  0  0
   49.3570   48.3750    6.8440 O   0  0  0  0  0
   48.2120   48.4410    4.7260 C   0  0  0  0  0
   47.8705   46.9906    9.0185 O   0  0  0  0  0
   34.8286   58.5731   -3.3337 H   0  0  0  0  0
   36.3820   59.0936   -2.6357 H   0  0  0  0  0
   36.3397   57.7700   -3.8262 H   0  0  0  0  0
   36.5954   55.8031   -2.9624 H   0  0  0  0  0
   35.1013   55.1401   -0.5256 H   0  0  0  0  0
   36.0589   52.8425   -0.9122 H   0  0  0  0  0
   36.8263   53.5331   -2.4265 H   0  0  0  0  0
   35.7084   52.0571   -3.9798 H   0  0  0  0  0
   33.4604   54.4183   -1.1918 H   0  0  0  0  0
   33.6373   51.6144   -5.2674 H   0  0  0  0  0
   31.3934   53.9732   -2.4675 H   0  0  0  0  0
   30.5030   52.9962   -4.2116 H   0  0  0  0  0
   38.3937   55.5136    2.5089 H   0  0  0  0  0
   37.2332   54.6731    4.3887 H   0  0  0  0  0
   37.1372   53.0865    3.7168 H   0  0  0  0  0
   35.3073   55.4376    3.2359 H   0  0  0  0  0
   34.8802   53.7931    3.5527 H   0  0  0  0  0
   34.7900   54.6033    1.0395 H   0  0  0  0  0
   35.4611   53.0768    1.3387 H   0  0  0  0  0
   40.3118   54.4492    3.0847 H   0  0  0  0  0
   40.8116   51.9219    1.5353 H   0  0  0  0  0
   42.7463   54.0793    2.4728 H   0  0  0  0  0
   41.3605   54.5680    0.4978 H   0  0  0  0  0
   42.0260   53.0547   -0.2772 H   0  0  0  0  0
   43.7500   51.8720    2.7709 H   0  0  0  0  0
   43.3216   51.4392    1.0975 H   0  0  0  0  0
   44.4974   52.7401    1.4075 H   0  0  0  0  0
   43.5865   55.4908    0.5543 H   0  0  0  0  0
   44.2356   54.0148   -0.2015 H   0  0  0  0  0
   43.1145   55.0602   -1.1079 H   0  0  0  0  0
   41.2290   50.0886    2.7300 H   0  0  0  0  0
   40.9454   50.2727    5.5698 H   0  0  0  0  0
   41.4214   47.8397    5.5800 H   0  0  0  0  0
   41.9437   47.9778    3.8300 H   0  0  0  0  0
   39.7570   48.4468    3.1562 H   0  0  0  0  0
   39.1945   48.5709    4.8781 H   0  0  0  0  0
   38.1012   45.2818    4.7964 H   0  0  0  0  0
   37.8191   46.9712    5.2294 H   0  0  0  0  0
   42.3011   49.6425    7.2550 H   0  0  0  0  0
   45.0123   50.6868    7.0911 H   0  0  0  0  0
   43.7271   50.7195    9.1396 H   0  0  0  0  0
   45.2411   49.7177    9.3274 H   0  0  0  0  0
   43.9473   47.7099    9.1584 H   0  0  0  0  0
   42.4331   48.6900    8.9214 H   0  0  0  0  0
   41.8625   47.4632   10.7024 H   0  0  0  0  0
   46.9511   49.2565    7.4788 H   0  0  0  0  0
   46.5736   46.6840    6.0219 H   0  0  0  0  0
   49.0072   46.6966    5.6775 H   0  0  0  0  0
   50.1704   48.5964    6.3848 H   0  0  0  0  0
   47.5762   47.8640    4.0545 H   0  0  0  0  0
   47.7010   49.3604    5.0117 H   0  0  0  0  0
   49.1474   48.6851    4.2224 H   0  0  0  0  0
   47.8822   47.9425    8.8948 H   0  0  0  0  0
  1  2  2  0  0  0
  1  3  1  0  0  0
  6  5  1  0  0  0
  5  8  1  0  0  0
  5  4  1  0  0  0
  8  9  1  0  0  0
  9 11  4  0  0  0
  9 10  4  0  0  0
 10 12  4  0  0  0
 12 14  4  0  0  0
 14 15  1  0  0  0
 13 14  4  0  0  0
 11 13  4  0  0  0
  6  7  2  0  0  0
 17 16  1  0  0  0
 17 20  1  0  0  0
 18 17  1  0  0  0
 18 19  2  0  0  0
 20 21  1  0  0  0
 21 22  1  0  0  0
 16 22  1  0  0  0
 25 24  1  0  0  0
 24 27  1  0  0  0
 24 23  1  0  0  0
 27 28  1  0  0  0
 27 29  1  0  0  0
 28 30  1  0  0  0
 25 26  2  0  0  0
 33 32  1  0  0  0
 32 35  1  0  0  0
 32 31  1  0  0  0
 35 36  1  0  0  0
 36 37  1  0  0  0
 37 38  2  0  0  0
 37 39  1  0  0  0
 33 34  2  0  0  0
 42 41  1  0  0  0
 41 44  1  0  0  0
 41 40  1  0  0  0
 44 45  1  0  0  0
 45 46  1  0  0  0
 46 47  1  0  0  0
 46 48  2  0  0  0
 42 43  2  0  0  0
 50 51  1  0  0  0
 50 53  1  0  0  0
 49 50  1  0  0  0
 53 54  1  0  0  0
 53 55  1  0  0  0
 51 52  2  0  0  0
 51 56  1  0  0  0
  4  1  1  0  0  0
 16  6  1  0  0  0
 23 18  1  0  0  0
 31 25  1  0  0  0
 40 33  1  0  0  0
 42 49  1  0  0  0
  3 57  1  0  0  0
  3 58  1  0  0  0
  3 59  1  0  0  0
  4 60  1  0  0  0
  5 61  1  0  0  0
  8 62  1  0  0  0
  8 63  1  0  0  0
 10 64  1  0  0  0
 11 65  1  0  0  0
 12 66  1  0  0  0
 13 67  1  0  0  0
 15 68  1  0  0  0
 17 69  1  0  0  0
 20 70  1  0  0  0
 20 71  1  0  0  0
 21 72  1  0  0  0
 21 73  1  0  0  0
 22 74  1  0  0  0
 22 75  1  0  0  0
 23 76  1  0  0  0
 24 77  1  0  0  0
 27 78  1  0  0  0
 28 79  1  0  0  0
 28 80  1  0  0  0
 29 81  1  0  0  0
 29 82  1  0  0  0
 29 83  1  0  0  0
 30 84  1  0  0  0
 30 85  1  0  0  0
 30 86  1  0  0  0
 31 87  1  0  0  0
 32 88  1  0  0  0
 35 89  1  0  0  0
 35 90  1  0  0  0
 36 91  1  0  0  0
 36 92  1  0  0  0
 39 93  1  0  0  0
 39 94  1  0  0  0
 40 95  1  0  0  0
 41 96  1  0  0  0
 44 97  1  0  0  0
 44 98  1  0  0  0
 45 99  1  0  0  0
 45100  1  0  0  0
 47101  1  0  0  0
 49102  1  0  0  0
 50103  1  0  0  0
 53104  1  0  0  0
 54105  1  0  0  0
 55106  1  0  0  0
 55107  1  0  0  0
 55108  1  0  0  0
 56109  1  0  0  0
M  END
$$$$
