### 
### Created by X-TOOL on Mon Sep 10 21:12:47 2018
### 

@<TRIPOS>MOLECULE
1qsc_ligand
  107   108     1     0     0
SMALL
GAST_HUCK


@<TRIPOS>ATOM
      1 C          35.6410   57.2280   -1.8670 C.2       1 ACE         0.1752
      2 O          35.0650   57.5470   -0.8230 O.2       1 ACE        -0.3972
      3 CH3        35.8100   58.2390   -2.9970 C.3       1 ACE         0.0258
      4 N          36.1350   56.0100   -2.0760 N.am      1 TYR        -0.2642
      5 CA         36.0320   54.9670   -1.0660 C.3       1 TYR         0.1391
      6 C          37.1920   55.0250   -0.0810 C.2       1 TYR         0.2082
      7 O          38.3020   55.4260   -0.4300 O.2       1 TYR        -0.3940
      8 CB         35.9990   53.5740   -1.7180 C.3       1 TYR         0.0164
      9 CG         34.7340   53.2760   -2.4950 C.ar      1 TYR        -0.0493
     10 CD1        34.7630   52.4840   -3.6450 C.ar      1 TYR        -0.0685
     11 CD2        33.5060   53.8010   -2.0890 C.ar      1 TYR        -0.0685
     12 CE1        33.6010   52.2320   -4.3700 C.ar      1 TYR        -0.0398
     13 CE2        32.3420   53.5540   -2.8030 C.ar      1 TYR        -0.0398
     14 CZ         32.3930   52.7740   -3.9410 C.ar      1 TYR         0.0805
     15 OH         31.2330   52.5510   -4.6480 O.3       1 TYR        -0.3376
     16 N          36.9340   54.6320    1.1730 N.am      1 PRO        -0.2497
     17 CA         37.8700   54.5810    2.2990 C.3       1 PRO         0.1338
     18 C          38.8980   53.5020    1.9740 C.2       1 PRO         0.2041
     19 O          38.5880   52.5580    1.2480 O.2       1 PRO        -0.3944
     20 CB         36.9890   54.1380    3.4710 C.3       1 PRO        -0.0104
     21 CG         35.6060   54.4110    3.0240 C.3       1 PRO        -0.0281
     22 CD         35.6130   54.1300    1.5750 C.3       1 PRO         0.0369
     23 N          40.1060   53.6320    2.5100 N.am      1 ILE        -0.2635
     24 CA         41.1470   52.6290    2.2940 C.3       1 ILE         0.1335
     25 C          41.4090   51.9130    3.6170 C.2       1 ILE         0.2042
     26 O          41.6150   52.5560    4.6380 O.2       1 ILE        -0.3944
     27 CB         42.4480   53.2820    1.7920 C.3       1 ILE        -0.0037
     28 CG1        42.2030   53.8820    0.4100 C.3       1 ILE        -0.0491
     29 CG2        43.5870   52.2590    1.7650 C.3       1 ILE        -0.0582
     30 CD1        43.3650   54.6660   -0.1230 C.3       1 ILE        -0.0648
     31 N          41.3950   50.5840    3.6060 N.am      1 GLN        -0.2636
     32 CA         41.6150   49.8240    4.8360 C.3       1 GLN         0.1330
     33 C          43.0280   49.9270    5.3840 C.2       1 GLN         0.2040
     34 O          43.9860   50.1430    4.6430 O.2       1 GLN        -0.3944
     35 CB         41.2870   48.3400    4.6210 C.3       1 GLN         0.0045
     36 CG         39.8630   48.0740    4.1750 C.3       1 GLN         0.0412
     37 CD         39.5170   46.6030    4.1680 C.2       1 GLN         0.1737
     38 OE1        40.2430   45.7850    3.6100 O.2       1 GLN        -0.3973
     39 NE2        38.3930   46.2590    4.7780 N.am      1 GLN        -0.3009
     40 N          43.1430   49.7770    6.6950 N.am      1 GLU        -0.2636
     41 CA         44.4390   49.7990    7.3580 C.3       1 GLU         0.1324
     42 C          45.1400   48.5100    6.9310 C.2       1 GLU         0.2035
     43 O          44.4920   47.5730    6.4610 O.2       1 GLU        -0.3944
     44 CB         44.2520   49.8010    8.8770 C.3       1 GLU        -0.0008
     45 CG         43.4130   48.6300    9.3950 C.3       1 GLU         0.0044
     46 CD         43.2000   48.6670   10.9090 C.2       1 GLU         0.0350
     47 OE1        42.3050   47.9480   11.4030 O.co2     1 GLU        -0.5690
     48 OE2        43.9260   49.4010   11.6100 O.co2     1 GLU        -0.5690
     49 N          46.4550   48.4560    7.0870 N.am      1 THR        -0.2670
     50 CA         47.1990   47.2610    6.7030 C.3       1 THR         0.1198
     51 C          47.5240   46.4330    7.9430 C.2       1 THR         0.0626
     52 O          47.4380   45.1860    7.8660 O.co2     1 THR        -0.5665
     53 CB         48.5080   47.6200    5.9710 C.3       1 THR         0.0869
     54 OG1        49.3570   48.3750    6.8440 O.3       1 THR        -0.3880
     55 CG2        48.2120   48.4410    4.7260 C.3       1 THR        -0.0352
     56 O1         47.8705   46.9906    9.0185 O.co2     1 THR        -0.5665
     57 H1         36.3445   57.7669   -3.8345 H         1 ACE         0.0467
     58 H2         36.3872   59.1020   -2.6336 H         1 ACE         0.0467
     59 H3         34.8202   58.5770   -3.3377 H         1 ACE         0.0467
     60 H4         36.5863   55.8072   -2.9450 H         1 TYR         0.1884
     61 H5         35.0943   55.1185   -0.5112 H         1 TYR         0.0821
     62 H6         36.1002   52.8200   -0.9236 H         1 TYR         0.0453
     63 H7         36.8524   53.4968   -2.4077 H         1 TYR         0.0453
     64 H8         35.7032   52.0595   -3.9779 H         1 TYR         0.0530
     65 H9         33.4606   54.4149   -1.1967 H         1 TYR         0.0530
     66 H10        33.6371   51.6178   -5.2625 H         1 TYR         0.0525
     67 H11        31.3986   53.9709   -2.4693 H         1 TYR         0.0525
     68 H12        31.0600   51.6176   -4.6842 H         1 TYR         0.2458
     69 H13        38.3552   55.5493    2.4915 H         1 PRO         0.0802
     70 H14        37.2260   54.7175    4.3754 H         1 PRO         0.0313
     71 H15        37.1260   53.0660    3.6760 H         1 PRO         0.0313
     72 H16        35.3382   55.4610    3.2133 H         1 PRO         0.0287
     73 H17        34.8944   53.7518    3.5426 H         1 PRO         0.0287
     74 H18        34.8060   54.6708    1.0591 H         1 PRO         0.0524
     75 H19        35.5176   53.0523    1.3764 H         1 PRO         0.0524
     76 H20        40.3077   54.4332    3.0734 H         1 ILE         0.1883
     77 H21        40.7996   51.9018    1.5453 H         1 ILE         0.0803
     78 H22        42.7272   54.0920    2.4819 H         1 ILE         0.0345
     79 H23        41.3321   54.5511    0.4716 H         1 ILE         0.0267
     80 H24        41.9868   53.0622   -0.2909 H         1 ILE         0.0267
     81 H25        43.7351   51.8485    2.7747 H         1 ILE         0.0235
     82 H26        44.5125   52.7495    1.4292 H         1 ILE         0.0235
     83 H27        43.3316   51.4440    1.0718 H         1 ILE         0.0235
     84 H28        43.1134   55.0644   -1.1170 H         1 ILE         0.0230
     85 H29        44.2443   54.0099   -0.2028 H         1 ILE         0.0230
     86 H30        43.5895   55.4988    0.5597 H         1 ILE         0.0230
     87 H31        41.2322   50.0983    2.7471 H         1 GLN         0.1883
     88 H32        40.9295   50.2259    5.5967 H         1 GLN         0.0801
     89 H33        41.4557   47.8090    5.5694 H         1 GLN         0.0337
     90 H34        41.9680   47.9444    3.8531 H         1 GLN         0.0337
     91 H35        39.7336   48.4703    3.1571 H         1 GLN         0.0504
     92 H36        39.1771   48.5931    4.8606 H         1 GLN         0.0504
     93 H37        38.1125   45.2995    4.8056 H         1 GLN         0.1814
     94 H38        37.8248   46.9587    5.2110 H         1 GLN         0.1814
     95 H39        42.3177   49.6451    7.2440 H         1 GLU         0.1883
     96 H40        45.0194   50.6811    7.0499 H         1 GLU         0.0801
     97 H41        43.7542   50.7388    9.1645 H         1 GLU         0.0330
     98 H42        45.2443   49.7529    9.3492 H         1 GLU         0.0330
     99 H43        43.9250   47.6914    9.1365 H         1 GLU         0.0433
    100 H44        42.4298   48.6591    8.9025 H         1 GLU         0.0433
    101 H45        46.9414   49.2408    7.4711 H         1 THR         0.1876
    102 H46        46.5718   46.6612    6.0271 H         1 THR         0.0752
    103 H47        49.0214   46.6925    5.6775 H         1 THR         0.0632
    104 H48        48.9120   49.1729    7.1047 H         1 THR         0.2100
    105 H49        49.1553   48.6880    4.2169 H         1 THR         0.0256
    106 H50        47.6963   49.3693    5.0129 H         1 THR         0.0256
    107 H51        47.5704   47.8598    4.0474 H         1 THR         0.0256
@<TRIPOS>BOND
     1    1    2 2  
     2    1    3 1  
     3    6    5 1  
     4    5    8 1  
     5    5    4 1  
     6    8    9 1  
     7    9   11 ar 
     8    9   10 ar 
     9   10   12 ar 
    10   12   14 ar 
    11   14   15 1  
    12   13   14 ar 
    13   11   13 ar 
    14    6    7 2  
    15   17   16 1  
    16   17   20 1  
    17   18   17 1  
    18   18   19 2  
    19   20   21 1  
    20   21   22 1  
    21   16   22 1  
    22   25   24 1  
    23   24   27 1  
    24   24   23 1  
    25   27   28 1  
    26   27   29 1  
    27   28   30 1  
    28   25   26 2  
    29   33   32 1  
    30   32   35 1  
    31   32   31 1  
    32   35   36 1  
    33   36   37 1  
    34   37   38 2  
    35   37   39 am 
    36   33   34 2  
    37   42   41 1  
    38   41   44 1  
    39   41   40 1  
    40   44   45 1  
    41   45   46 1  
    42   46   47 ar 
    43   46   48 ar 
    44   42   43 2  
    45   50   51 1  
    46   50   53 1  
    47   49   50 1  
    48   53   54 1  
    49   53   55 1  
    50   51   52 ar 
    51   51   56 ar 
    52    3   57 1  
    53    3   58 1  
    54    3   59 1  
    55    4   60 1  
    56    5   61 1  
    57    8   62 1  
    58    8   63 1  
    59   10   64 1  
    60   11   65 1  
    61   12   66 1  
    62   13   67 1  
    63   15   68 1  
    64   17   69 1  
    65   20   70 1  
    66   20   71 1  
    67   21   72 1  
    68   21   73 1  
    69   22   74 1  
    70   22   75 1  
    71   23   76 1  
    72   24   77 1  
    73   27   78 1  
    74   28   79 1  
    75   28   80 1  
    76   29   81 1  
    77   29   82 1  
    78   29   83 1  
    79   30   84 1  
    80   30   85 1  
    81   30   86 1  
    82   31   87 1  
    83   32   88 1  
    84   35   89 1  
    85   35   90 1  
    86   36   91 1  
    87   36   92 1  
    88   39   93 1  
    89   39   94 1  
    90   40   95 1  
    91   41   96 1  
    92   44   97 1  
    93   44   98 1  
    94   45   99 1  
    95   45  100 1  
    96   49  101 1  
    97   50  102 1  
    98   53  103 1  
    99   54  104 1  
   100   55  105 1  
   101   55  106 1  
   102   55  107 1  
   103    4    1 am 
   104   16    6 am 
   105   23   18 am 
   106   31   25 am 
   107   40   33 am 
   108   42   49 am 
@<TRIPOS>SUBSTRUCTURE
     1 ACE         1

