2yix_ligand
  -I-interpret- 

 49 51  0  0  0  0  0  0  0  0999 V2000
    8.5280   17.2300   36.3980 C   0  0  0  0  0
    7.1460   16.5010   36.3100 C   0  0  0  0  0
    6.9180   16.2210   34.8940 N   0  0  0  0  0
    5.9700   15.3700   34.3970 C   0  0  0  0  0
    5.2290   14.7830   35.1330 O   0  0  0  0  0
    5.8650   15.2070   33.0480 N   0  0  0  0  0
    4.8920   14.3470   32.3640 C   0  0  0  0  0
    5.4110   13.4900   31.1850 C   0  0  0  0  0
    6.8000   13.1650   31.0270 C   0  0  0  0  0
    7.2070   12.3470   29.9600 C   0  0  0  0  0
    6.2480   11.8430   29.0460 C   0  0  0  0  0
    4.8890   12.1440   29.1880 C   0  0  0  0  0
    4.4470   12.9680   30.2620 C   0  0  0  0  0
    2.6740   13.3220   30.4940 S   0  0  0  0  0
    2.1030   11.7270   30.9540 C   0  0  0  0  0
    2.9500   10.7500   31.6200 C   0  0  0  0  0
    2.4100    9.4980   31.9660 C   0  0  0  0  0
    1.0220    9.1850   31.6420 C   0  0  0  0  0
    0.2130    8.1030   31.8050 N   0  0  0  0  0
   -0.9520    8.3870   31.3210 N   0  0  0  0  0
   -0.9800    9.6140   30.8150 C   0  0  0  0  0
   -2.1310   10.3600   30.1590 C   0  0  0  0  0
   -2.3640    9.9260   28.7240 C   0  0  0  0  0
   -3.4370   10.1460   30.8860 C   0  0  0  0  0
    0.2480   10.1580   30.9960 N   0  0  0  0  0
    0.7710   11.4140   30.6720 C   0  0  0  0  0
    9.3062   16.5804   35.9973 H   0  0  0  0  0
    8.4885   18.1521   35.8182 H   0  0  0  0  0
    8.7485   17.4634   37.4396 H   0  0  0  0  0
    6.3491   17.1217   36.7197 H   0  0  0  0  0
    7.1504   15.5814   36.8952 H   0  0  0  0  0
    7.5156   16.7001   34.2204 H   0  0  0  0  0
    6.5190   15.7275   32.4634 H   0  0  0  0  0
    4.1508   15.0216   31.9355 H   0  0  0  0  0
    4.5450   13.6375   33.1151 H   0  0  0  0  0
    7.5360   13.5513   31.7320 H   0  0  0  0  0
    8.2612   12.0996   29.8348 H   0  0  0  0  0
    6.5742   11.2112   28.2198 H   0  0  0  0  0
    4.1668   11.7468   28.4747 H   0  0  0  0  0
    3.9897   10.9849   31.8480 H   0  0  0  0  0
    3.0292    8.7606   32.4768 H   0  0  0  0  0
   -1.8327   11.4077   30.1965 H   0  0  0  0  0
   -1.4644   10.1147   28.1381 H   0  0  0  0  0
   -2.5975    8.8615   28.7011 H   0  0  0  0  0
   -3.1969   10.4911   28.3055 H   0  0  0  0  0
   -3.6795    9.0833   30.8895 H   0  0  0  0  0
   -3.3428   10.5019   31.9119 H   0  0  0  0  0
   -4.2281   10.6988   30.3795 H   0  0  0  0  0
    0.1323   12.1569   30.1942 H   0  0  0  0  0
  1  2  1  0  0  0
  2  3  1  0  0  0
  3  4  1  0  0  0
  4  5  2  0  0  0
  4  6  1  0  0  0
  6  7  1  0  0  0
  7  8  1  0  0  0
  8  9  4  0  0  0
  8 13  4  0  0  0
  9 10  4  0  0  0
 10 11  4  0  0  0
 11 12  4  0  0  0
 12 13  4  0  0  0
 13 14  1  0  0  0
 14 15  1  0  0  0
 15 16  4  0  0  0
 15 26  4  0  0  0
 16 17  4  0  0  0
 17 18  4  0  0  0
 18 19  4  0  0  0
 18 25  4  0  0  0
 19 20  4  0  0  0
 20 21  4  0  0  0
 21 22  1  0  0  0
 21 25  4  0  0  0
 22 23  1  0  0  0
 22 24  1  0  0  0
 25 26  4  0  0  0
  1 27  1  0  0  0
  1 28  1  0  0  0
  1 29  1  0  0  0
  2 30  1  0  0  0
  2 31  1  0  0  0
  3 32  1  0  0  0
  6 33  1  0  0  0
  7 34  1  0  0  0
  7 35  1  0  0  0
  9 36  1  0  0  0
 10 37  1  0  0  0
 11 38  1  0  0  0
 12 39  1  0  0  0
 16 40  1  0  0  0
 17 41  1  0  0  0
 22 42  1  0  0  0
 23 43  1  0  0  0
 23 44  1  0  0  0
 23 45  1  0  0  0
 24 46  1  0  0  0
 24 47  1  0  0  0
 24 48  1  0  0  0
 26 49  1  0  0  0
M  END
$$$$
