3o5n_ligand
  -I-interpret- 

 36 38  0  0  0  0  0  0  0  0999 V2000
   51.7950  -20.5690   89.8930 C   0  0  0  0  0
   54.1240  -21.1790   89.6590 N   0  0  0  0  0
   51.9170  -21.3220   90.8810 O   0  0  0  0  0
   53.0840  -20.2900   89.1060 C   0  0  0  0  0
   53.5030  -18.7880   89.1680 C   0  0  0  0  0
   54.8740  -18.4990   89.8280 C   0  0  0  0  0
   55.1270  -23.7560   90.2080 O   0  0  0  0  0
   59.2950  -18.0330   89.7190 O   0  0  0  0  0
   56.0180  -24.1100   88.2120 O   0  0  0  0  0
   57.2130  -16.8960   89.2460 O   0  0  0  0  0
   57.7000  -21.7260   89.0990 C   0  0  0  0  0
   58.1640  -20.4120   89.1650 C   0  0  0  0  0
   53.0480  -18.1950   91.4570 C   0  0  0  0  0
   52.5660  -17.9430   90.0280 C   0  0  0  0  0
   55.7880  -23.3920   89.2110 C   0  0  0  0  0
   56.3470  -21.9730   89.2620 C   0  0  0  0  0
   57.3110  -19.3330   89.3990 C   0  0  0  0  0
   55.4810  -20.9120   89.4960 C   0  0  0  0  0
   57.8960  -18.1170   89.4490 N   0  0  0  0  0
   54.5580  -18.4050   91.3270 C   0  0  0  0  0
   55.9350  -19.5950   89.5660 C   0  0  0  0  0
   50.7220  -20.0610   89.4940 O   0  0  0  0  0
   53.8411  -22.0122   90.1749 H   0  0  0  0  0
   52.9309  -20.4939   88.0463 H   0  0  0  0  0
   53.4996  -18.5394   88.1067 H   0  0  0  0  0
   55.3151  -17.5926   89.4134 H   0  0  0  0  0
   56.5431  -23.6158   87.5782 H   0  0  0  0  0
   58.3936  -22.5479   88.9214 H   0  0  0  0  0
   59.2287  -20.2219   89.0292 H   0  0  0  0  0
   52.5550  -19.0572   91.9061 H   0  0  0  0  0
   52.8089  -17.3629   92.1192 H   0  0  0  0  0
   51.5198  -18.2163   89.8905 H   0  0  0  0  0
   52.5997  -16.8868   89.7607 H   0  0  0  0  0
   55.1019  -17.5780   91.7834 H   0  0  0  0  0
   54.8654  -19.3149   91.8425 H   0  0  0  0  0
   50.8933  -19.5227   88.7178 H   0  0  0  0  0
  1  3  2  0  0  0
  4  1  1  0  0  0
  1 22  1  0  0  0
  2  4  1  0  0  0
 18  2  1  0  0  0
  4  5  1  0  0  0
  5  6  1  0  0  0
  5 14  1  0  0  0
  6 20  1  0  0  0
  6 21  1  0  0  0
 15  7  2  0  0  0
 19  8  2  0  0  0
 15  9  1  0  0  0
 19 10  2  0  0  0
 12 11  4  0  0  0
 11 16  4  0  0  0
 17 12  4  0  0  0
 14 13  1  0  0  0
 13 20  1  0  0  0
 16 15  1  0  0  0
 16 18  4  0  0  0
 17 19  1  0  0  0
 17 21  4  0  0  0
 18 21  4  0  0  0
  2 23  1  0  0  0
  4 24  1  0  0  0
  5 25  1  0  0  0
  6 26  1  0  0  0
  9 27  1  0  0  0
 11 28  1  0  0  0
 12 29  1  0  0  0
 13 30  1  0  0  0
 13 31  1  0  0  0
 14 32  1  0  0  0
 14 33  1  0  0  0
 20 34  1  0  0  0
 20 35  1  0  0  0
 22 36  1  0  0  0
M  END
$$$$
