5jdi_ligand
  -I-interpret- 

 30 32  0  0  0  0  0  0  0  0999 V2000
    4.0380  -15.1200   14.8610 C   0  0  0  0  0
    2.7930  -15.6600   15.2240 C   0  0  0  0  0
    1.7490  -14.7920   15.5550 O   0  0  0  0  0
    2.5840  -17.0390   15.2920 C   0  0  0  0  0
    3.6090  -17.9770   15.0030 C   0  0  0  0  0
    4.8120  -17.4730   14.6290 C   0  0  0  0  0
    5.0530  -16.0580   14.5460 C   0  0  0  0  0
    6.3110  -15.5820   14.2370 C   0  0  0  0  0
    6.6160  -14.3820   14.8970 O   0  0  0  0  0
    7.8130  -13.7320   14.7550 C   0  0  0  0  0
    7.9500  -12.5180   15.3530 C   0  0  0  0  0
    9.1620  -11.9130   15.2480 C   0  0  0  0  0
   10.2140  -12.3510   14.4840 C   0  0  0  0  0
   11.3700  -11.6060   14.4900 O   0  0  0  0  0
   10.0390  -13.5480   13.8260 C   0  0  0  0  0
    8.8800  -14.2530   14.0180 C   0  0  0  0  0
    8.5810  -15.5100   13.3550 C   0  0  0  0  0
    9.5030  -16.0490   12.6980 O   0  0  0  0  0
    7.3110  -16.0460   13.4080 C   0  0  0  0  0
    7.0260  -17.1020   12.6350 O   0  0  0  0  0
    4.2129  -14.0448   14.8238 H   0  0  0  0  0
    0.9681  -15.3034   15.7792 H   0  0  0  0  0
    1.5988  -17.4080   15.5771 H   0  0  0  0  0
    3.4381  -19.0509   15.0779 H   0  0  0  0  0
    5.6204  -18.1619   14.3840 H   0  0  0  0  0
    7.1251  -12.0518   15.8918 H   0  0  0  0  0
    9.3118  -10.9984   15.8217 H   0  0  0  0  0
   12.0199  -12.0212   13.9183 H   0  0  0  0  0
   10.8132  -13.9299   13.1605 H   0  0  0  0  0
    7.7958  -17.3284   12.1079 H   0  0  0  0  0
  1  2  4  0  0  0
  1  7  4  0  0  0
  2  3  1  0  0  0
  2  4  4  0  0  0
  4  5  4  0  0  0
  5  6  4  0  0  0
  6  7  4  0  0  0
  7  8  1  0  0  0
  8  9  1  0  0  0
  8 19  2  0  0  0
  9 10  1  0  0  0
 10 11  4  0  0  0
 10 16  4  0  0  0
 11 12  4  0  0  0
 12 13  4  0  0  0
 13 14  1  0  0  0
 13 15  4  0  0  0
 15 16  4  0  0  0
 16 17  1  0  0  0
 17 18  2  0  0  0
 17 19  1  0  0  0
 19 20  1  0  0  0
  1 21  1  0  0  0
  3 22  1  0  0  0
  4 23  1  0  0  0
  5 24  1  0  0  0
  6 25  1  0  0  0
 11 26  1  0  0  0
 12 27  1  0  0  0
 14 28  1  0  0  0
 15 29  1  0  0  0
 20 30  1  0  0  0
M  END
$$$$
