5nr8_ligand
  -I-interpret- 

 46 48  0  0  0  0  0  0  0  0999 V2000
   90.2600   38.5450   21.9140 Br  0  0  0  0  0
   91.1970   36.9630   22.2780 C   0  0  0  0  0
   92.3270   36.6410   21.5490 C   0  0  0  0  0
   93.0310   35.4830   21.8180 C   0  0  0  0  0
   92.6260   34.6330   22.8360 C   0  0  0  0  0
   91.4720   34.9480   23.5310 C   0  0  0  0  0
   90.7650   36.1060   23.2660 C   0  0  0  0  0
   93.3670   33.3440   23.1360 C   0  0  0  0  0
   94.8150   33.6190   23.5720 C   0  0  0  0  0
   95.5550   32.4100   24.0220 N   0  3  0  0  0
   95.0700   32.0160   25.3650 C   0  0  0  0  0
   95.4870   31.2660   23.0610 C   0  0  0  0  0
   96.2360   30.0230   23.5810 C   0  0  0  0  0
   96.0890   28.8750   22.5870 C   0  0  0  0  0
   96.6040   29.2930   21.2970 N   0  0  0  0  0
   95.9700   30.4880   20.7590 C   0  0  0  0  0
   96.0980   31.6600   21.7180 C   0  0  0  0  0
   96.6600   28.2680   20.3740 C   0  0  0  0  0
   96.1520   27.0510   20.5980 N   0  0  0  0  0
   96.4980   26.3090   19.4570 N   0  0  0  0  0
   97.2110   27.1560   18.6950 C   0  0  0  0  0
   97.3570   28.3720   19.2340 N   0  0  0  0  0
   97.7590   26.7850   17.5040 N   0  0  0  0  0
   92.6654   37.3067   20.7550 H   0  0  0  0  0
   93.9117   35.2356   21.2253 H   0  0  0  0  0
   91.1126   34.2687   24.3040 H   0  0  0  0  0
   89.8672   36.3405   23.8379 H   0  0  0  0  0
   93.3871   32.7372   22.2308 H   0  0  0  0  0
   92.8526   32.8295   23.9476 H   0  0  0  0  0
   94.7717   34.3039   24.4189 H   0  0  0  0  0
   95.3428   34.0153   22.7045 H   0  0  0  0  0
   96.5435   32.6575   24.0657 H   0  0  0  0  0
   95.2411   32.8331   26.0658 H   0  0  0  0  0
   94.0036   31.7961   25.3147 H   0  0  0  0  0
   95.6097   31.1299   25.6993 H   0  0  0  0  0
   94.4311   31.0205   22.9471 H   0  0  0  0  0
   95.8140   29.7241   24.5405 H   0  0  0  0  0
   97.2926   30.2632   23.6993 H   0  0  0  0  0
   95.0370   28.6060   22.4915 H   0  0  0  0  0
   96.6489   28.0097   22.9417 H   0  0  0  0  0
   94.9113   30.2797   20.6048 H   0  0  0  0  0
   96.4623   30.7504   19.8226 H   0  0  0  0  0
   97.1493   31.9152   21.8512 H   0  0  0  0  0
   95.5746   32.5266   21.3141 H   0  0  0  0  0
   97.6348   25.8328   17.1600 H   0  0  0  0  0
   98.2934   27.4595   16.9563 H   0  0  0  0  0
  1  2  1  0  0  0
  2  3  4  0  0  0
  2  7  4  0  0  0
  3  4  4  0  0  0
  4  5  4  0  0  0
  5  6  4  0  0  0
  5  8  1  0  0  0
  6  7  4  0  0  0
  8  9  1  0  0  0
  9 10  1  0  0  0
 10 11  1  0  0  0
 10 12  1  0  0  0
 12 13  1  0  0  0
 12 17  1  0  0  0
 13 14  1  0  0  0
 14 15  1  0  0  0
 15 16  1  0  0  0
 15 18  1  0  0  0
 16 17  1  0  0  0
 18 19  4  0  0  0
 18 22  4  0  0  0
 19 20  4  0  0  0
 20 21  4  0  0  0
 21 22  4  0  0  0
 21 23  1  0  0  0
  3 24  1  0  0  0
  4 25  1  0  0  0
  6 26  1  0  0  0
  7 27  1  0  0  0
  8 28  1  0  0  0
  8 29  1  0  0  0
  9 30  1  0  0  0
  9 31  1  0  0  0
 10 32  1  0  0  0
 11 33  1  0  0  0
 11 34  1  0  0  0
 11 35  1  0  0  0
 12 36  1  0  0  0
 13 37  1  0  0  0
 13 38  1  0  0  0
 14 39  1  0  0  0
 14 40  1  0  0  0
 16 41  1  0  0  0
 16 42  1  0  0  0
 17 43  1  0  0  0
 17 44  1  0  0  0
 23 45  1  0  0  0
 23 46  1  0  0  0
M  END
$$$$
