4rj4_ligand
  -I-interpret- 

 59 63  0  0  0  0  0  0  0  0999 V2000
  -50.1200   -0.4740  -16.7320 C   0  0  0  0  0
  -52.4840    0.5510  -20.7860 C   0  0  0  0  0
  -53.1290    0.7390  -22.0180 C   0  0  0  0  0
  -52.0730    0.9690  -18.5480 C   0  0  0  0  0
  -54.1520    1.6790  -22.1280 C   0  0  0  0  0
  -53.9390    2.2720  -19.8820 C   0  0  0  0  0
  -52.9090    1.3450  -19.6870 C   0  0  0  0  0
  -51.2170    0.0060  -18.9770 C   0  0  0  0  0
  -50.1590   -0.5650  -18.0950 C   0  0  0  0  0
  -49.7990   -0.5980  -22.1980 C   0  0  0  0  0
  -51.6030   -2.3430  -21.7700 C   0  0  0  0  0
  -50.7190   -1.2450  -21.1630 C   0  0  0  0  0
  -51.4540   -0.2590  -20.3340 N   0  0  0  0  0
  -54.5190    2.3980  -21.0660 N   0  0  0  0  0
  -48.9710   -1.0440  -16.3050 N   0  0  0  0  0
  -48.2550   -1.4910  -17.4220 N   0  0  0  0  0
  -48.9460   -1.1830  -18.4890 C   0  0  0  0  0
  -54.8110    1.9510  -23.3350 N   0  0  0  0  0
  -54.9280    1.1360  -24.4640 C   0  0  0  0  0
  -56.0840    1.2470  -25.2630 C   0  0  0  0  0
  -56.1980    0.4360  -26.3850 C   0  0  0  0  0
  -55.2140   -0.4160  -26.6680 N   0  0  0  0  0
  -54.1170   -0.5180  -25.8980 C   0  0  0  0  0
  -53.9810    0.2560  -24.8180 N   0  0  0  0  0
  -53.1060   -1.4270  -26.2280 N   0  0  0  0  0
  -52.8150   -1.4360  -27.6890 C   0  0  0  0  0
  -51.7210   -2.4320  -28.0650 C   0  0  0  0  0
  -50.4500   -2.1090  -27.2600 C   0  0  0  0  0
  -50.7640   -2.1980  -25.7490 C   0  0  0  0  0
  -51.9170   -1.2690  -25.3500 C   0  0  0  0  0
  -49.4670   -3.0910  -27.6150 O   0  0  0  0  0
  -48.1000   -2.7240  -27.4210 C   0  0  0  0  0
  -50.8828   -0.0206  -16.0991 H   0  0  0  0  0
  -52.8308    0.1516  -22.8864 H   0  0  0  0  0
  -52.1268    1.3844  -17.5417 H   0  0  0  0  0
  -54.2672    2.8966  -19.0512 H   0  0  0  0  0
  -49.1457   -1.3578  -22.6269 H   0  0  0  0  0
  -50.4016   -0.1477  -22.9868 H   0  0  0  0  0
  -49.1960    0.1713  -21.7157 H   0  0  0  0  0
  -52.2270   -1.9134  -22.5537 H   0  0  0  0  0
  -50.9711   -3.1235  -22.1938 H   0  0  0  0  0
  -52.2365   -2.7691  -20.9921 H   0  0  0  0  0
  -50.0706   -1.7595  -20.4538 H   0  0  0  0  0
  -48.6380   -1.3716  -19.5174 H   0  0  0  0  0
  -55.2642    2.8627  -23.3972 H   0  0  0  0  0
  -56.8722    1.9546  -25.0057 H   0  0  0  0  0
  -57.0791    0.4959  -27.0240 H   0  0  0  0  0
  -52.4714   -0.4399  -27.9682 H   0  0  0  0  0
  -53.7268   -1.7274  -28.2103 H   0  0  0  0  0
  -51.5086   -2.3589  -29.1316 H   0  0  0  0  0
  -52.0525   -3.4450  -27.8371 H   0  0  0  0  0
  -50.0875   -1.1045  -27.4781 H   0  0  0  0  0
  -49.8744   -1.8961  -25.1963 H   0  0  0  0  0
  -51.0555   -3.2230  -25.5199 H   0  0  0  0  0
  -52.2149   -1.5211  -24.3322 H   0  0  0  0  0
  -51.5668   -0.2408  -25.4403 H   0  0  0  0  0
  -47.8727   -1.8435  -28.0219 H   0  0  0  0  0
  -47.9312   -2.5001  -26.3677 H   0  0  0  0  0
  -47.4567   -3.5495  -27.7259 H   0  0  0  0  0
  9  1  4  0  0  0
  1 15  4  0  0  0
  2  3  4  0  0  0
  2  7  4  0  0  0
 13  2  4  0  0  0
  3  5  4  0  0  0
  4  7  4  0  0  0
  8  4  4  0  0  0
  5 14  4  0  0  0
  5 18  1  0  0  0
  7  6  4  0  0  0
  6 14  4  0  0  0
  8  9  1  0  0  0
 13  8  4  0  0  0
  9 17  4  0  0  0
 12 10  1  0  0  0
 12 11  1  0  0  0
 12 13  1  0  0  0
 15 16  4  0  0  0
 16 17  4  0  0  0
 18 19  1  0  0  0
 19 20  4  0  0  0
 19 24  4  0  0  0
 20 21  4  0  0  0
 21 22  4  0  0  0
 22 23  4  0  0  0
 23 24  4  0  0  0
 23 25  1  0  0  0
 25 26  1  0  0  0
 25 30  1  0  0  0
 26 27  1  0  0  0
 27 28  1  0  0  0
 28 29  1  0  0  0
 28 31  1  0  0  0
 29 30  1  0  0  0
 31 32  1  0  0  0
  1 33  1  0  0  0
  3 34  1  0  0  0
  4 35  1  0  0  0
  6 36  1  0  0  0
 10 37  1  0  0  0
 10 38  1  0  0  0
 10 39  1  0  0  0
 11 40  1  0  0  0
 11 41  1  0  0  0
 11 42  1  0  0  0
 12 43  1  0  0  0
 17 44  1  0  0  0
 18 45  1  0  0  0
 20 46  1  0  0  0
 21 47  1  0  0  0
 26 48  1  0  0  0
 26 49  1  0  0  0
 27 50  1  0  0  0
 27 51  1  0  0  0
 28 52  1  0  0  0
 29 53  1  0  0  0
 29 54  1  0  0  0
 30 55  1  0  0  0
 30 56  1  0  0  0
 32 57  1  0  0  0
 32 58  1  0  0  0
 32 59  1  0  0  0
M  END
$$$$
