3tzm_ligand
  -I-interpret- 

 44 48  0  0  0  0  0  0  0  0999 V2000
    2.9800    7.8420    4.4510 C   0  0  0  0  0
    2.5850    7.3020    3.2330 C   0  0  0  0  0
    1.3620    6.8470    2.8250 O   0  0  0  0  0
    1.4870    6.5390    1.4490 C   0  0  0  0  0
    2.8900    6.6130    1.1140 O   0  0  0  0  0
    3.5140    7.1560    2.1970 C   0  0  0  0  0
    4.8300    7.5540    2.3920 C   0  0  0  0  0
    5.2140    8.1060    3.6200 C   0  0  0  0  0
    4.2910    8.2760    4.6630 C   0  0  0  0  0
    4.6500    8.7580    5.9450 C   0  0  0  0  0
    4.1290    8.2770    7.0770 N   0  0  0  0  0
    4.6870    8.8730    8.1340 C   0  0  0  0  0
    4.3700    8.6180    9.4730 C   0  0  0  0  0
    4.8810    9.4190   10.5060 C   0  0  0  0  0
    4.5510    9.1460   11.8400 C   0  0  0  0  0
    3.5460    7.5300    9.8010 C   0  0  0  0  0
    3.2260    7.2540   11.1350 C   0  0  0  0  0
    3.7190    8.0660   12.1570 C   0  0  0  0  0
    3.3650    7.7760   13.6190 C   0  0  0  0  0
    4.1680    8.0050   14.5320 O   0  0  0  0  0
    2.1350    7.3020   13.8110 N   0  0  0  0  0
    5.5940    9.7370    7.6730 N   0  0  0  0  0
    5.6050    9.7010    6.3320 C   0  0  0  0  0
    6.4230   10.5120    5.5230 C   0  0  0  0  0
    7.7050   10.8120    5.9810 C   0  0  0  0  0
    8.5460   11.6330    5.2310 C   0  0  0  0  0
    8.0800   12.1880    4.0360 C   0  0  0  0  0
    6.7740   11.8790    3.6240 C   0  0  0  0  0
    5.9840   11.0750    4.3660 N   0  0  0  0  0
    2.2520    7.9288    5.2576 H   0  0  0  0  0
    0.9133    7.2435    0.8468 H   0  0  0  0  0
    1.0981    5.5415    1.2445 H   0  0  0  0  0
    5.5612    7.4371    1.5921 H   0  0  0  0  0
    6.2502    8.4096    3.7687 H   0  0  0  0  0
    5.5371   10.2567   10.2695 H   0  0  0  0  0
    4.9446    9.7785   12.6357 H   0  0  0  0  0
    3.1515    6.8938    9.0087 H   0  0  0  0  0
    2.5899    6.4024   11.3764 H   0  0  0  0  0
    1.8058    7.1059   14.7563 H   0  0  0  0  0
    1.5224    7.1352   13.0127 H   0  0  0  0  0
    8.0516   10.4028    6.9300 H   0  0  0  0  0
    9.5596   11.8405    5.5742 H   0  0  0  0  0
    8.7141   12.8438    3.4394 H   0  0  0  0  0
    6.3926   12.2945    2.6913 H   0  0  0  0  0
  1  2  4  0  0  0
  1  9  4  0  0  0
  2  3  1  0  0  0
  2  6  4  0  0  0
  3  4  1  0  0  0
  4  5  1  0  0  0
  5  6  1  0  0  0
  6  7  4  0  0  0
  7  8  4  0  0  0
  8  9  4  0  0  0
  9 10  1  0  0  0
 10 11  4  0  0  0
 10 23  4  0  0  0
 11 12  4  0  0  0
 12 13  1  0  0  0
 12 22  4  0  0  0
 13 14  4  0  0  0
 13 16  4  0  0  0
 14 15  4  0  0  0
 15 18  4  0  0  0
 16 17  4  0  0  0
 17 18  4  0  0  0
 18 19  1  0  0  0
 19 20  2  0  0  0
 19 21  1  0  0  0
 22 23  4  0  0  0
 23 24  1  0  0  0
 24 25  4  0  0  0
 24 29  4  0  0  0
 25 26  4  0  0  0
 26 27  4  0  0  0
 27 28  4  0  0  0
 28 29  4  0  0  0
  1 30  1  0  0  0
  4 31  1  0  0  0
  4 32  1  0  0  0
  7 33  1  0  0  0
  8 34  1  0  0  0
 14 35  1  0  0  0
 15 36  1  0  0  0
 16 37  1  0  0  0
 17 38  1  0  0  0
 21 39  1  0  0  0
 21 40  1  0  0  0
 25 41  1  0  0  0
 26 42  1  0  0  0
 27 43  1  0  0  0
 28 44  1  0  0  0
M  END
$$$$
