5tln_ligand
  -I-interpret- 

 44 44  0  0  0  0  0  0  0  0999 V2000
   52.3080   20.2090   -6.0410 O   0  0  0  0  0
   52.0920   19.3790   -4.8660 N   0  0  0  0  0
   53.1210   18.5310   -4.8890 C   0  0  0  0  0
   54.0270   18.6030   -5.9340 O   0  0  0  0  0
   53.2570   17.5800   -3.7590 C   0  0  0  0  0
   52.7250   17.9980   -2.6050 C   0  0  0  0  0
   53.4520   18.1170   -1.2700 C   0  0  0  0  0
   52.7090   17.7140   -0.2070 C   0  0  0  0  0
   54.7020   18.6320   -1.1320 C   0  0  0  0  0
   53.2590   17.7950    1.0050 C   0  0  0  0  0
   55.2460   18.7080    0.0740 C   0  0  0  0  0
   54.5320   18.2770    1.1450 C   0  0  0  0  0
   53.7830   16.2760   -3.6710 C   0  0  0  0  0
   55.0360   16.1580   -3.6120 O   0  0  0  0  0
   52.7620   15.3060   -3.6670 N   0  0  0  0  0
   53.2620   13.7940   -3.5870 C   0  0  0  0  0
   52.9030   13.1130   -2.4820 C   0  0  0  0  0
   53.0410   13.2540   -4.9910 C   0  0  0  0  0
   52.2520   14.0660   -5.6090 O   0  0  0  0  0
   53.6420   12.1120   -5.4960 N   0  0  0  0  0
   53.3610   11.8090   -6.8700 C   0  0  0  0  0
   53.9040   10.2230   -6.7880 C   0  0  0  0  0
   53.0240    9.9590   -5.7980 O   0  0  0  0  0
   51.6043   20.8587   -6.1062 H   0  0  0  0  0
   51.3336   19.4328   -4.1860 H   0  0  0  0  0
   53.8824   17.4286   -4.6388 H   0  0  0  0  0
   52.0001   17.2115   -2.3953 H   0  0  0  0  0
   52.4967   19.0401   -2.8287 H   0  0  0  0  0
   51.6953   17.3363   -0.3404 H   0  0  0  0  0
   55.2526   18.9797   -2.0061 H   0  0  0  0  0
   52.6956   17.4779    1.8826 H   0  0  0  0  0
   56.2507   19.1102    0.2039 H   0  0  0  0  0
   54.9820   18.3157    2.1370 H   0  0  0  0  0
   51.7734   15.5530   -3.7121 H   0  0  0  0  0
   54.3212   13.6664   -3.3635 H   0  0  0  0  0
   53.3058   13.6135   -1.6014 H   0  0  0  0  0
   51.8156   13.0776   -2.4158 H   0  0  0  0  0
   53.2981   12.0986   -2.5375 H   0  0  0  0  0
   54.2477   11.5223   -4.9252 H   0  0  0  0  0
   53.8172   12.4514   -7.6232 H   0  0  0  0  0
   52.3387   11.9664   -7.2139 H   0  0  0  0  0
   54.9645   10.0229   -6.6350 H   0  0  0  0  0
   53.9063    9.6062   -7.6867 H   0  0  0  0  0
   53.1149    9.0427   -5.5265 H   0  0  0  0  0
  1  2  1  0  0  0
  2  3  1  0  0  0
  3  4  2  0  0  0
  3  5  1  0  0  0
  5  6  1  0  0  0
  5 13  1  0  0  0
  6  7  1  0  0  0
  7  8  4  0  0  0
  7  9  4  0  0  0
  8 10  4  0  0  0
  9 11  4  0  0  0
 10 12  4  0  0  0
 11 12  4  0  0  0
 13 14  2  0  0  0
 13 15  1  0  0  0
 15 16  1  0  0  0
 16 17  1  0  0  0
 16 18  1  0  0  0
 18 19  2  0  0  0
 18 20  1  0  0  0
 20 21  1  0  0  0
 21 22  1  0  0  0
 22 23  1  0  0  0
  1 24  1  0  0  0
  2 25  1  0  0  0
  5 26  1  0  0  0
  6 27  1  0  0  0
  6 28  1  0  0  0
  8 29  1  0  0  0
  9 30  1  0  0  0
 10 31  1  0  0  0
 11 32  1  0  0  0
 12 33  1  0  0  0
 15 34  1  0  0  0
 16 35  1  0  0  0
 17 36  1  0  0  0
 17 37  1  0  0  0
 17 38  1  0  0  0
 20 39  1  0  0  0
 21 40  1  0  0  0
 21 41  1  0  0  0
 22 42  1  0  0  0
 22 43  1  0  0  0
 23 44  1  0  0  0
M  END
$$$$
