3buf_ligand
  -I-interpret- 

 25 25  0  0  0  0  0  0  0  0999 V2000
  -18.4800   40.2670   93.5670 C   0  0  0  0  0
  -22.1480   39.3720   94.0320 C   0  0  0  0  0
  -22.0020   41.6410   93.1150 C   0  0  0  0  0
  -17.9010   39.2740   92.5510 C   0  0  0  0  0
  -22.7490   40.5500   93.5790 C   0  0  0  0  0
  -24.1120   40.6300   93.5950 O   0  0  0  0  0
  -20.6090   41.5360   93.1120 C   0  0  0  0  0
  -20.7570   39.2880   94.0210 C   0  0  0  0  0
  -19.9870   40.3610   93.5600 C   0  0  0  0  0
  -16.4320   39.0320   92.8300 N   0  3  0  0  0
  -18.0940   39.7920   91.1230 C   0  0  0  0  0
  -18.0972   41.2530   93.3037 H   0  0  0  0  0
  -18.1863   39.9186   94.5572 H   0  0  0  0  0
  -22.7538   38.5378   94.3859 H   0  0  0  0  0
  -22.4951   42.5481   92.7655 H   0  0  0  0  0
  -18.4348   38.3288   92.6496 H   0  0  0  0  0
  -24.3851   41.4871   93.2596 H   0  0  0  0  0
  -20.0027   42.3706   92.7600 H   0  0  0  0  0
  -20.2662   38.3809   94.3737 H   0  0  0  0  0
  -16.3205   38.6878   93.7837 H   0  0  0  0  0
  -16.0719   38.3397   92.1731 H   0  0  0  0  0
  -15.9178   39.9061   92.7205 H   0  0  0  0  0
  -17.5496   40.7284   91.0008 H   0  0  0  0  0
  -17.7142   39.0545   90.4159 H   0  0  0  0  0
  -19.1551   39.9606   90.9393 H   0  0  0  0  0
  1  4  1  0  0  0
  9  1  1  0  0  0
  5  2  4  0  0  0
  2  8  4  0  0  0
  3  5  4  0  0  0
  7  3  4  0  0  0
  4 10  1  0  0  0
  4 11  1  0  0  0
  5  6  1  0  0  0
  7  9  4  0  0  0
  8  9  4  0  0  0
  1 12  1  0  0  0
  1 13  1  0  0  0
  2 14  1  0  0  0
  3 15  1  0  0  0
  4 16  1  0  0  0
  6 17  1  0  0  0
  7 18  1  0  0  0
  8 19  1  0  0  0
 10 20  1  0  0  0
 10 21  1  0  0  0
 10 22  1  0  0  0
 11 23  1  0  0  0
 11 24  1  0  0  0
 11 25  1  0  0  0
M  END
$$$$
