6gxe_ligand
  -I-interpret- 

 34 35  0  0  0  0  0  0  0  0999 V2000
   15.0280    5.2300   15.7890 C   0  0  0  0  0
   17.2050    4.2440   15.6950 C   0  0  0  0  0
   16.8400    6.4900   14.7290 C   0  0  0  0  0
   17.4270    9.0000   14.0580 C   0  0  0  0  0
   19.7930   10.2340   13.8430 C   0  0  0  0  0
   19.8820   11.3730   14.6790 C   0  0  0  0  0
   21.1020   12.0460   14.7860 C   0  0  0  0  0
   22.2640   11.6040   14.0930 C   0  0  0  0  0
   20.9660    9.8220   13.1800 C   0  0  0  0  0
   16.5050    9.7020   14.5740 O   0  0  0  0  0
   17.4510    7.5900   14.0430 N   0  0  0  0  0
   17.6620    5.3740   15.0220 C   0  0  0  0  0
   15.8620    4.1280   16.0870 C   0  0  0  0  0
   15.3270    2.7300   16.8910 S   0  0  0  0  0
   15.8970    1.4860   16.1680 N   0  0  0  0  0
   13.8780    2.7580   16.7530 O   0  0  0  0  0
   15.8410    2.8160   18.2260 O   0  0  0  0  0
   15.5010    6.3760   15.1410 C   0  0  0  0  0
   18.6980    9.3810   13.5420 N   0  0  0  0  0
   22.1770   10.4820   13.2860 C   0  0  0  0  0
   23.4220   12.3500   14.2700 O   0  0  0  0  0
   13.9771    5.1850   16.0749 H   0  0  0  0  0
   17.9012    3.4364   15.9211 H   0  0  0  0  0
   19.0097   11.7207   15.2324 H   0  0  0  0  0
   21.1654   12.9327   15.4167 H   0  0  0  0  0
   20.9165    8.9346   12.5490 H   0  0  0  0  0
   18.0971    7.2515   13.3300 H   0  0  0  0  0
   18.7044    5.4013   14.7047 H   0  0  0  0  0
   15.2675    0.8393   15.6927 H   0  0  0  0  0
   16.9022    1.3128   16.1668 H   0  0  0  0  0
   14.8143    7.2008   14.9509 H   0  0  0  0  0
   18.8820    8.8778   12.6740 H   0  0  0  0  0
   23.0509   10.1238   12.7418 H   0  0  0  0  0
   24.1341   11.9597   13.7580 H   0  0  0  0  0
  1 13  4  0  0  0
 18  1  4  0  0  0
 12  2  4  0  0  0
  2 13  4  0  0  0
 11  3  1  0  0  0
  3 12  4  0  0  0
  3 18  4  0  0  0
  4 10  2  0  0  0
  4 11  1  0  0  0
 19  4  1  0  0  0
  5  6  4  0  0  0
  5  9  4  0  0  0
  5 19  1  0  0  0
  6  7  4  0  0  0
  7  8  4  0  0  0
  8 20  4  0  0  0
  8 21  1  0  0  0
  9 20  4  0  0  0
 13 14  1  0  0  0
 14 15  1  0  0  0
 14 16  2  0  0  0
 14 17  2  0  0  0
  1 22  1  0  0  0
  2 23  1  0  0  0
  6 24  1  0  0  0
  7 25  1  0  0  0
  9 26  1  0  0  0
 11 27  1  0  0  0
 12 28  1  0  0  0
 15 29  1  0  0  0
 15 30  1  0  0  0
 18 31  1  0  0  0
 19 32  1  0  0  0
 20 33  1  0  0  0
 21 34  1  0  0  0
M  END
$$$$
