### 
### Created by X-TOOL on Mon Sep 10 21:13:30 2018
### 

@<TRIPOS>MOLECULE
5v1y_ligand
  217   223     1     0     0
SMALL
GAST_HUCK


@<TRIPOS>ATOM
      1 N         -10.2200   -9.6410   -7.4700 N.4       1 GLY         0.2357
      2 CA        -10.2310   -8.3530   -6.8010 C.3       1 GLY         0.0547
      3 C          -9.3580   -7.3270   -7.5010 C.2       1 GLY         0.2261
      4 O          -8.6100   -7.6720   -8.4140 O.2       1 GLY        -0.3908
      5 N          -9.4590   -6.0620   -7.0870 N.am      1 PRO        -0.2474
      6 CA         -8.5840   -5.0310   -7.6600 C.3       1 PRO         0.1339
      7 C          -7.1150   -5.3940   -7.5110 C.2       1 PRO         0.2041
      8 O          -6.6800   -5.8990   -6.4740 O.2       1 PRO        -0.3944
      9 CB         -8.9390   -3.7800   -6.8490 C.3       1 PRO        -0.0104
     10 CG        -10.3660   -4.0050   -6.4400 C.3       1 PRO        -0.0281
     11 CD        -10.5070   -5.4860   -6.2250 C.3       1 PRO         0.0370
     12 N          -6.3450   -5.1080   -8.5560 N.am      1 GLN        -0.2636
     13 CA         -4.9360   -5.4730   -8.5660 C.3       1 GLN         0.1330
     14 C          -4.1690   -4.7280   -7.4790 C.2       1 GLN         0.2040
     15 O          -4.3130   -3.5120   -7.3110 O.2       1 GLN        -0.3944
     16 CB         -4.3300   -5.1600   -9.9320 C.3       1 GLN         0.0045
     17 CG         -2.9230   -5.7000  -10.0890 C.3       1 GLN         0.0412
     18 CD         -2.4570   -5.7190  -11.5180 C.2       1 GLN         0.1737
     19 OE1        -3.2610   -5.6240  -12.4390 O.2       1 GLN        -0.3973
     20 NE2        -1.1480   -5.8510  -11.7140 N.am      1 GLN        -0.3009
     21 N          -3.3480   -5.4640   -6.7490 N.am      1 GLU        -0.2636
     22 CA         -2.5040   -4.8870   -5.7220 C.3       1 GLU         0.1327
     23 C          -1.2550   -4.3140   -6.3690 C.2       1 GLU         0.2065
     24 O          -0.9050   -4.6870   -7.4940 O.2       1 GLU        -0.3942
     25 CB         -2.1210   -5.9630   -4.7160 C.3       1 GLU        -0.0008
     26 CG         -3.2910   -6.4340   -3.8820 C.3       1 GLU         0.0044
     27 CD         -2.9070   -7.4860   -2.8750 C.2       1 GLU         0.0350
     28 OE1        -1.6880   -7.7010   -2.6660 O.co2     1 GLU        -0.5690
     29 OE2        -3.8380   -8.0960   -2.3020 O.co2     1 GLU        -0.5690
     30 N          -0.5760   -3.3830   -5.7000 N.am      1 PRO        -0.2498
     31 CA          0.5920   -2.7700   -6.3260 C.3       1 PRO         0.1338
     32 C           1.6920   -3.7910   -6.5420 C.2       1 PRO         0.2041
     33 O           1.7840   -4.8170   -5.8600 O.2       1 PRO        -0.3944
     34 CB          1.0270   -1.7000   -5.3180 C.3       1 PRO        -0.0104
     35 CG          0.4060   -2.0770   -4.0810 C.3       1 PRO        -0.0281
     36 CD         -0.8480   -2.7800   -4.3850 C.3       1 PRO         0.0369
     37 N           2.5460   -3.4680   -7.4930 N.am      1 GLU        -0.2636
     38 CA          3.7690   -4.1900   -7.7000 C.3       1 GLU         0.1327
     39 C           4.7470   -3.8550   -6.5790 C.2       1 GLU         0.2065
     40 O           4.6230   -2.8140   -5.9370 O.2       1 GLU        -0.3942
     41 CB          4.3780   -3.7490   -9.0320 C.3       1 GLU        -0.0008
     42 CG          3.4870   -4.0450  -10.2140 C.3       1 GLU         0.0044
     43 CD          3.2870   -5.5250  -10.4080 C.2       1 GLU         0.0350
     44 OE1         4.2380   -6.2880  -10.1400 O.co2     1 GLU        -0.5690
     45 OE2         2.1790   -5.9310  -10.8200 O.co2     1 GLU        -0.5690
     46 N           5.7420   -4.7100   -6.3450 N.am      1 PRO        -0.2498
     47 CA          6.7350   -4.4040   -5.3210 C.3       1 PRO         0.1340
     48 C           7.4900   -3.1330   -5.6610 C.2       1 PRO         0.2066
     49 O           7.7020   -2.8110   -6.8450 O.2       1 PRO        -0.3942
     50 CB          7.6620   -5.6270   -5.3500 C.3       1 PRO        -0.0104
     51 CG          6.8510   -6.7180   -5.9650 C.3       1 PRO        -0.0281
     52 CD          5.9400   -6.0450   -6.9380 C.3       1 PRO         0.0369
     53 N           7.9290   -2.3920   -4.6540 N.am      1 PRO        -0.2498
     54 CA          8.7950   -1.2420   -4.9180 C.3       1 PRO         0.1338
     55 C          10.1790   -1.6720   -5.3810 C.2       1 PRO         0.2041
     56 O          10.5990   -2.8170   -5.2300 O.2       1 PRO        -0.3944
     57 CB          8.8850   -0.5520   -3.5590 C.3       1 PRO        -0.0104
     58 CG          8.6930   -1.6550   -2.5880 C.3       1 PRO        -0.0281
     59 CD          7.7460   -2.6270   -3.2130 C.3       1 PRO         0.0369
     60 N          10.9000   -0.7210   -5.9430 N.am      1 GLU        -0.2636
     61 CA         12.2920   -0.9600   -6.2640 C.3       1 GLU         0.1327
     62 C          13.1270   -0.9620   -4.9850 C.2       1 GLU         0.2065
     63 O          12.7540   -0.3400   -3.9890 O.2       1 GLU        -0.3942
     64 CB         12.8060    0.1280   -7.1980 C.3       1 GLU        -0.0008
     65 CG         12.2090    0.0820   -8.5890 C.3       1 GLU         0.0044
     66 CD         12.6520   -1.1440   -9.3600 C.2       1 GLU         0.0350
     67 OE1        13.8040   -1.5870   -9.1670 O.co2     1 GLU        -0.5690
     68 OE2        11.8500   -1.6770  -10.1550 O.co2     1 GLU        -0.5690
     69 N          14.2590   -1.6530   -4.9830 N.am      1 PRO        -0.2498
     70 CA         15.1650   -1.5550   -3.8360 C.3       1 PRO         0.1338
     71 C          15.6320   -0.1220   -3.6570 C.2       1 PRO         0.2042
     72 O          15.6550    0.6720   -4.5980 O.2       1 PRO        -0.3944
     73 CB         16.3260   -2.4810   -4.2130 C.3       1 PRO        -0.0104
     74 CG         15.8050   -3.3290   -5.3370 C.3       1 PRO        -0.0281
     75 CD         14.8060   -2.4970   -6.0590 C.3       1 PRO         0.0369
     76 N          16.0050    0.2150   -2.4270 N.am      1 PHE        -0.2619
     77 CA         16.4330    1.5730   -2.1420 C.3       1 PHE         0.1404
     78 C          17.4910    1.5520   -1.0520 C.2       1 PHE         0.2060
     79 O          17.6750    0.5510   -0.3510 O.2       1 PHE        -0.3942
     80 CB         15.2460    2.4530   -1.7450 C.3       1 PHE         0.0214
     81 CG         14.6190    2.0720   -0.4330 C.ar      1 PHE        -0.0386
     82 CD1        13.6210    1.1160   -0.3660 C.ar      1 PHE        -0.0601
     83 CD2        15.0320    2.6790    0.7410 C.ar      1 PHE        -0.0601
     84 CE1        13.0470    0.7760    0.8480 C.ar      1 PHE        -0.0686
     85 CE2        14.4640    2.3440    1.9560 C.ar      1 PHE        -0.0686
     86 CZ         13.4700    1.3950    2.0090 C.ar      1 PHE        -0.0687
     87 N          18.1870    2.6780   -0.9230 N.am      1 GLU        -0.2635
     88 CA         19.2850    2.8180    0.0210 C.3       1 GLU         0.1325
     89 C          18.7690    3.3440    1.3480 C.2       1 GLU         0.2041
     90 O          18.0020    4.3100    1.3810 O.2       1 GLU        -0.3944
     91 CB         20.3170    3.7940   -0.5410 C.3       1 GLU        -0.0008
     92 CG         21.0390    3.2440   -1.7280 C.3       1 GLU         0.0044
     93 CD         21.7470    1.9610   -1.3770 C.2       1 GLU         0.0350
     94 OE1        22.7540    2.0370   -0.6400 O.co2     1 GLU        -0.5690
     95 OE2        21.2700    0.8830   -1.7960 O.co2     1 GLU        -0.5690
     96 N          19.2150    2.7190    2.4380 N.am      1 TYR        -0.2621
     97 CA         18.8190    3.1030    3.7900 C.3       1 TYR         0.1390
     98 C          20.0710    3.1620    4.6540 C.2       1 TYR         0.2052
     99 O          20.6680    2.1250    4.9670 O.2       1 TYR        -0.3943
    100 CB         17.8090    2.1090    4.3620 C.3       1 TYR         0.0163
    101 CG         17.2630    2.4450    5.7320 C.ar      1 TYR        -0.0493
    102 CD1        16.1470    3.2590    5.8780 C.ar      1 TYR        -0.0685
    103 CD2        17.8510    1.9290    6.8790 C.ar      1 TYR        -0.0685
    104 CE1        15.6300    3.5560    7.1380 C.ar      1 TYR        -0.0398
    105 CE2        17.3450    2.2170    8.1350 C.ar      1 TYR        -0.0398
    106 CZ         16.2340    3.0330    8.2600 C.ar      1 TYR         0.0805
    107 OH         15.7270    3.3230    9.5170 O.3       1 TYR        -0.3376
    108 N          20.4640    4.3680    5.0330 N.am      1 ILE        -0.2691
    109 CA         21.5710    4.5580    5.9610 C.3       1 ILE         0.0969
    110 C          21.1980    5.6200    6.9750 C.2       1 ILE         0.0604
    111 O          21.9520    5.8530    7.9190 O.co2     1 ILE        -0.5666
    112 CB         22.8960    4.9320    5.2490 C.3       1 ILE        -0.0092
    113 CG1        22.6580    6.0170    4.2050 C.3       1 ILE        -0.0497
    114 CG2        23.5210    3.7100    4.6170 C.3       1 ILE        -0.0588
    115 CD1        23.9410    6.6490    3.6750 C.3       1 ILE        -0.0649
    116 OXT        20.1440    6.2420    6.8470 O.co2     1 ILE        -0.5666
    117 H1        -10.8120  -10.2849   -6.9690 H         1 GLY         0.2012
    118 H2         -9.2782   -9.9994   -7.4936 H         1 GLY         0.2012
    119 H3        -10.5623   -9.5333   -8.4120 H         1 GLY         0.2012
    120 H4         -9.8634   -8.4863   -5.7729 H         1 GLY         0.1061
    121 H5        -11.2647   -7.9777   -6.7751 H         1 GLY         0.1061
    122 H6         -8.8094   -4.8797   -8.7260 H         1 PRO         0.0802
    123 H7         -8.8475   -2.8745   -7.4668 H         1 PRO         0.0313
    124 H8         -8.2891   -3.6888   -5.9663 H         1 PRO         0.0313
    125 H9        -11.0488   -3.6674   -7.2336 H         1 PRO         0.0287
    126 H10       -10.5873   -3.4611   -5.5099 H         1 PRO         0.0287
    127 H11       -10.3361   -5.7479   -5.1704 H         1 PRO         0.0524
    128 H12       -11.5040   -5.8344   -6.5325 H         1 PRO         0.0524
    129 H13        -6.7386   -4.6363   -9.3450 H         1 GLN         0.1883
    130 H14        -4.8516   -6.5535   -8.3782 H         1 GLN         0.0801
    131 H15        -4.3038   -4.0681  -10.0628 H         1 GLN         0.0337
    132 H16        -4.9666   -5.6073  -10.7096 H         1 GLN         0.0337
    133 H17        -2.8964   -6.7278   -9.6980 H         1 GLN         0.0504
    134 H18        -2.2378   -5.0678   -9.5053 H         1 GLN         0.0504
    135 H19        -0.7811   -5.8700  -12.6441 H         1 GLN         0.1814
    136 H20        -0.5308   -5.9313  -10.9313 H         1 GLN         0.1814
    137 H21        -3.3083   -6.4500   -6.9108 H         1 GLU         0.1883
    138 H22        -3.0501   -4.0836   -5.2060 H         1 GLU         0.0801
    139 H23        -1.3519   -5.5562   -4.0430 H         1 GLU         0.0330
    140 H24        -1.7109   -6.8247   -5.2631 H         1 GLU         0.0330
    141 H25        -4.0546   -6.8532   -4.5536 H         1 GLU         0.0433
    142 H26        -3.7095   -5.5701   -3.3448 H         1 GLU         0.0433
    143 H27         0.3238   -2.3129   -7.2899 H         1 PRO         0.0802
    144 H28         0.6806   -0.7058   -5.6366 H         1 PRO         0.0313
    145 H29         2.1219   -1.6906   -5.2132 H         1 PRO         0.0313
    146 H30         0.1923   -1.1783   -3.4839 H         1 PRO         0.0287
    147 H31         1.0765   -2.7415   -3.5164 H         1 PRO         0.0287
    148 H32        -1.0612   -3.5527   -3.6317 H         1 PRO         0.0524
    149 H33        -1.6926   -2.0774   -4.4388 H         1 PRO         0.0524
    150 H34         2.3346   -2.6941   -8.0900 H         1 GLU         0.1883
    151 H35         3.5698   -5.2717   -7.7147 H         1 GLU         0.0801
    152 H36         5.3333   -4.2760   -9.1724 H         1 GLU         0.0330
    153 H37         4.5596   -2.6648   -8.9927 H         1 GLU         0.0330
    154 H38         3.9479   -3.6263  -11.1208 H         1 GLU         0.0433
    155 H39         2.5076   -3.5722  -10.0487 H         1 GLU         0.0433
    156 H40         6.2615   -4.2944   -4.3342 H         1 PRO         0.0802
    157 H41         7.9691   -5.9026   -4.3303 H         1 PRO         0.0313
    158 H42         8.5547   -5.4201   -5.9585 H         1 PRO         0.0313
    159 H43         6.2681   -7.2436   -5.1944 H         1 PRO         0.0287
    160 H44         7.5038   -7.4353   -6.4839 H         1 PRO         0.0287
    161 H45         6.4085   -5.9704   -7.9304 H         1 PRO         0.0524
    162 H46         4.9852   -6.5847   -7.0228 H         1 PRO         0.0524
    163 H47         8.3457   -0.5785   -5.6716 H         1 PRO         0.0802
    164 H48         8.0954    0.2062   -3.4516 H         1 PRO         0.0313
    165 H49         9.8687   -0.0786   -3.4244 H         1 PRO         0.0313
    166 H50         8.2694   -1.2641   -1.6511 H         1 PRO         0.0287
    167 H51         9.6549   -2.1460   -2.3789 H         1 PRO         0.0287
    168 H52         8.0079   -3.6612   -2.9452 H         1 PRO         0.0524
    169 H53         6.7096   -2.4204   -2.9077 H         1 PRO         0.0524
    170 H54        10.4852    0.1656   -6.1476 H         1 GLU         0.1883
    171 H55        12.3849   -1.9374   -6.7600 H         1 GLU         0.0801
    172 H56        13.8971    0.0200   -7.2867 H         1 GLU         0.0330
    173 H57        12.5693    1.1056   -6.7528 H         1 GLU         0.0330
    174 H58        12.5243    0.9803   -9.1400 H         1 GLU         0.0433
    175 H59        11.1124    0.0701   -8.5039 H         1 GLU         0.0433
    176 H60        14.6742   -1.8993   -2.9137 H         1 PRO         0.0802
    177 H61        16.6119   -3.1093   -3.3566 H         1 PRO         0.0313
    178 H62        17.1956   -1.8942   -4.5438 H         1 PRO         0.0313
    179 H63        15.3283   -4.2372   -4.9396 H         1 PRO         0.0287
    180 H64        16.6255   -3.6113   -6.0131 H         1 PRO         0.0287
    181 H65        15.2855   -1.8867   -6.8384 H         1 PRO         0.0524
    182 H66        14.0219   -3.1211   -6.5126 H         1 PRO         0.0524
    183 H67        15.9909   -0.4677   -1.6964 H         1 PHE         0.1885
    184 H68        16.8814    1.9951   -3.0535 H         1 PHE         0.0823
    185 H69        14.4797    2.3765   -2.5305 H         1 PHE         0.0474
    186 H70        15.5948    3.4937   -1.6731 H         1 PHE         0.0474
    187 H71        13.2846    0.6277   -1.2735 H         1 PHE         0.0557
    188 H72        15.8136    3.4293    0.7068 H         1 PHE         0.0557
    189 H73        12.2665    0.0248    0.8873 H         1 PHE         0.0599
    190 H74        14.8014    2.8284    2.8652 H         1 PHE         0.0599
    191 H75        13.0193    1.1331    2.9594 H         1 PHE         0.0559
    192 H76        17.9458    3.4598   -1.4980 H         1 GLU         0.1883
    193 H77        19.7565    1.8366    0.1775 H         1 GLU         0.0801
    194 H78        21.0524    4.0209    0.2450 H         1 GLU         0.0330
    195 H79        19.8018    4.7190   -0.8392 H         1 GLU         0.0330
    196 H80        21.7788    3.9811   -2.0735 H         1 GLU         0.0433
    197 H81        20.3142    3.0475   -2.5317 H         1 GLU         0.0433
    198 H82        19.8485    1.9536    2.3246 H         1 TYR         0.1885
    199 H83        18.3537    4.0993    3.7607 H         1 TYR         0.0821
    200 H84        18.3000    1.1267    4.4253 H         1 TYR         0.0453
    201 H85        16.9602    2.0504    3.6648 H         1 TYR         0.0453
    202 H86        15.6695    3.6707    4.9962 H         1 TYR         0.0530
    203 H87        18.7216    1.2894    6.7895 H         1 TYR         0.0530
    204 H88        14.7589    4.1940    7.2341 H         1 TYR         0.0525
    205 H89        17.8179    1.8043    9.0188 H         1 TYR         0.0525
    206 H90        14.9704    3.8906    9.4288 H         1 TYR         0.2458
    207 H91        19.9882    5.1703    4.6726 H         1 ILE         0.1876
    208 H92        21.7332    3.6096    6.4941 H         1 ILE         0.0729
    209 H93        23.5938    5.3259    6.0026 H         1 ILE         0.0338
    210 H94        22.0434    6.8078    4.6597 H         1 ILE         0.0267
    211 H95        22.1149    5.5715    3.3585 H         1 ILE         0.0267
    212 H96        23.6835    2.9415    5.3871 H         1 ILE         0.0234
    213 H97        24.4849    3.9841    4.1634 H         1 ILE         0.0234
    214 H98        22.8496    3.3147    3.8405 H         1 ILE         0.0234
    215 H99        23.6901    7.4185    2.9301 H         1 ILE         0.0230
    216 H100       24.5648    5.8740    3.2057 H         1 ILE         0.0230
    217 H101       24.4933    7.1104    4.5069 H         1 ILE         0.0230
@<TRIPOS>BOND
     1    1    2 1  
     2    2    3 1  
     3    3    4 2  
     4    3    5 am 
     5    5    6 1  
     6    5   11 1  
     7    6    7 1  
     8    6    9 1  
     9    7    8 2  
    10    7   12 am 
    11    9   10 1  
    12   10   11 1  
    13   12   13 1  
    14   13   14 1  
    15   13   16 1  
    16   14   15 2  
    17   14   21 am 
    18   16   17 1  
    19   17   18 1  
    20   18   19 2  
    21   18   20 am 
    22   21   22 1  
    23   22   23 1  
    24   22   25 1  
    25   23   24 2  
    26   23   30 am 
    27   25   26 1  
    28   26   27 1  
    29   27   28 ar 
    30   27   29 ar 
    31   30   31 1  
    32   30   36 1  
    33   31   32 1  
    34   31   34 1  
    35   32   33 2  
    36   32   37 am 
    37   34   35 1  
    38   35   36 1  
    39   37   38 1  
    40   38   39 1  
    41   38   41 1  
    42   39   40 2  
    43   39   46 am 
    44   41   42 1  
    45   42   43 1  
    46   43   44 ar 
    47   43   45 ar 
    48   46   47 1  
    49   46   52 1  
    50   47   48 1  
    51   47   50 1  
    52   48   49 2  
    53   48   53 am 
    54   50   51 1  
    55   51   52 1  
    56   53   54 1  
    57   53   59 1  
    58   54   55 1  
    59   54   57 1  
    60   55   56 2  
    61   55   60 am 
    62   57   58 1  
    63   58   59 1  
    64   60   61 1  
    65   61   62 1  
    66   61   64 1  
    67   62   63 2  
    68   62   69 am 
    69   64   65 1  
    70   65   66 1  
    71   66   67 ar 
    72   66   68 ar 
    73   69   70 1  
    74   69   75 1  
    75   70   71 1  
    76   70   73 1  
    77   71   72 2  
    78   71   76 am 
    79   73   74 1  
    80   74   75 1  
    81   76   77 1  
    82   77   78 1  
    83   77   80 1  
    84   78   79 2  
    85   78   87 am 
    86   80   81 1  
    87   81   82 ar 
    88   81   83 ar 
    89   82   84 ar 
    90   83   85 ar 
    91   84   86 ar 
    92   85   86 ar 
    93   87   88 1  
    94   88   89 1  
    95   88   91 1  
    96   89   90 2  
    97   89   96 am 
    98   91   92 1  
    99   92   93 1  
   100   93   94 ar 
   101   93   95 ar 
   102   96   97 1  
   103   97   98 1  
   104   97  100 1  
   105   98   99 2  
   106   98  108 am 
   107  100  101 1  
   108  101  102 ar 
   109  101  103 ar 
   110  102  104 ar 
   111  103  105 ar 
   112  104  106 ar 
   113  105  106 ar 
   114  106  107 1  
   115  108  109 1  
   116  109  110 1  
   117  109  112 1  
   118  110  111 ar 
   119  110  116 ar 
   120  112  113 1  
   121  112  114 1  
   122  113  115 1  
   123    1  117 1  
   124    1  118 1  
   125    1  119 1  
   126    2  120 1  
   127    2  121 1  
   128    6  122 1  
   129    9  123 1  
   130    9  124 1  
   131   10  125 1  
   132   10  126 1  
   133   11  127 1  
   134   11  128 1  
   135   12  129 1  
   136   13  130 1  
   137   16  131 1  
   138   16  132 1  
   139   17  133 1  
   140   17  134 1  
   141   20  135 1  
   142   20  136 1  
   143   21  137 1  
   144   22  138 1  
   145   25  139 1  
   146   25  140 1  
   147   26  141 1  
   148   26  142 1  
   149   31  143 1  
   150   34  144 1  
   151   34  145 1  
   152   35  146 1  
   153   35  147 1  
   154   36  148 1  
   155   36  149 1  
   156   37  150 1  
   157   38  151 1  
   158   41  152 1  
   159   41  153 1  
   160   42  154 1  
   161   42  155 1  
   162   47  156 1  
   163   50  157 1  
   164   50  158 1  
   165   51  159 1  
   166   51  160 1  
   167   52  161 1  
   168   52  162 1  
   169   54  163 1  
   170   57  164 1  
   171   57  165 1  
   172   58  166 1  
   173   58  167 1  
   174   59  168 1  
   175   59  169 1  
   176   60  170 1  
   177   61  171 1  
   178   64  172 1  
   179   64  173 1  
   180   65  174 1  
   181   65  175 1  
   182   70  176 1  
   183   73  177 1  
   184   73  178 1  
   185   74  179 1  
   186   74  180 1  
   187   75  181 1  
   188   75  182 1  
   189   76  183 1  
   190   77  184 1  
   191   80  185 1  
   192   80  186 1  
   193   82  187 1  
   194   83  188 1  
   195   84  189 1  
   196   85  190 1  
   197   86  191 1  
   198   87  192 1  
   199   88  193 1  
   200   91  194 1  
   201   91  195 1  
   202   92  196 1  
   203   92  197 1  
   204   96  198 1  
   205   97  199 1  
   206  100  200 1  
   207  100  201 1  
   208  102  202 1  
   209  103  203 1  
   210  104  204 1  
   211  105  205 1  
   212  107  206 1  
   213  108  207 1  
   214  109  208 1  
   215  112  209 1  
   216  113  210 1  
   217  113  211 1  
   218  114  212 1  
   219  114  213 1  
   220  114  214 1  
   221  115  215 1  
   222  115  216 1  
   223  115  217 1  
@<TRIPOS>SUBSTRUCTURE
     1 GLY         1

