5v1y_ligand
  -I-interpret- 

222228  0  0  0  0  0  0  0  0999 V2000
  -10.2200   -9.6410   -7.4700 N   0  3  0  0  0
  -10.2310   -8.3530   -6.8010 C   0  0  0  0  0
   -9.3580   -7.3270   -7.5010 C   0  0  0  0  0
   -8.6100   -7.6720   -8.4140 O   0  0  0  0  0
   -9.4590   -6.0620   -7.0870 N   0  0  0  0  0
   -8.5840   -5.0310   -7.6600 C   0  0  0  0  0
   -7.1150   -5.3940   -7.5110 C   0  0  0  0  0
   -6.6800   -5.8990   -6.4740 O   0  0  0  0  0
   -8.9390   -3.7800   -6.8490 C   0  0  0  0  0
  -10.3660   -4.0050   -6.4400 C   0  0  0  0  0
  -10.5070   -5.4860   -6.2250 C   0  0  0  0  0
   -6.3450   -5.1080   -8.5560 N   0  0  0  0  0
   -4.9360   -5.4730   -8.5660 C   0  0  0  0  0
   -4.1690   -4.7280   -7.4790 C   0  0  0  0  0
   -4.3130   -3.5120   -7.3110 O   0  0  0  0  0
   -4.3300   -5.1600   -9.9320 C   0  0  0  0  0
   -2.9230   -5.7000  -10.0890 C   0  0  0  0  0
   -2.4570   -5.7190  -11.5180 C   0  0  0  0  0
   -3.2610   -5.6240  -12.4390 O   0  0  0  0  0
   -1.1480   -5.8510  -11.7140 N   0  0  0  0  0
   -3.3480   -5.4640   -6.7490 N   0  0  0  0  0
   -2.5040   -4.8870   -5.7220 C   0  0  0  0  0
   -1.2550   -4.3140   -6.3690 C   0  0  0  0  0
   -0.9050   -4.6870   -7.4940 O   0  0  0  0  0
   -2.1210   -5.9630   -4.7160 C   0  0  0  0  0
   -3.2910   -6.4340   -3.8820 C   0  0  0  0  0
   -2.9070   -7.4860   -2.8750 C   0  0  0  0  0
   -1.6880   -7.7010   -2.6660 O   0  0  0  0  0
   -3.8380   -8.0960   -2.3020 O   0  0  0  0  0
   -0.5760   -3.3830   -5.7000 N   0  0  0  0  0
    0.5920   -2.7700   -6.3260 C   0  0  0  0  0
    1.6920   -3.7910   -6.5420 C   0  0  0  0  0
    1.7840   -4.8170   -5.8600 O   0  0  0  0  0
    1.0270   -1.7000   -5.3180 C   0  0  0  0  0
    0.4060   -2.0770   -4.0810 C   0  0  0  0  0
   -0.8480   -2.7800   -4.3850 C   0  0  0  0  0
    2.5460   -3.4680   -7.4930 N   0  0  0  0  0
    3.7690   -4.1900   -7.7000 C   0  0  0  0  0
    4.7470   -3.8550   -6.5790 C   0  0  0  0  0
    4.6230   -2.8140   -5.9370 O   0  0  0  0  0
    4.3780   -3.7490   -9.0320 C   0  0  0  0  0
    3.4870   -4.0450  -10.2140 C   0  0  0  0  0
    3.2870   -5.5250  -10.4080 C   0  0  0  0  0
    4.2380   -6.2880  -10.1400 O   0  0  0  0  0
    2.1790   -5.9310  -10.8200 O   0  0  0  0  0
    5.7420   -4.7100   -6.3450 N   0  0  0  0  0
    6.7350   -4.4040   -5.3210 C   0  0  0  0  0
    7.4900   -3.1330   -5.6610 C   0  0  0  0  0
    7.7020   -2.8110   -6.8450 O   0  0  0  0  0
    7.6620   -5.6270   -5.3500 C   0  0  0  0  0
    6.8510   -6.7180   -5.9650 C   0  0  0  0  0
    5.9400   -6.0450   -6.9380 C   0  0  0  0  0
    7.9290   -2.3920   -4.6540 N   0  0  0  0  0
    8.7950   -1.2420   -4.9180 C   0  0  0  0  0
   10.1790   -1.6720   -5.3810 C   0  0  0  0  0
   10.5990   -2.8170   -5.2300 O   0  0  0  0  0
    8.8850   -0.5520   -3.5590 C   0  0  0  0  0
    8.6930   -1.6550   -2.5880 C   0  0  0  0  0
    7.7460   -2.6270   -3.2130 C   0  0  0  0  0
   10.9000   -0.7210   -5.9430 N   0  0  0  0  0
   12.2920   -0.9600   -6.2640 C   0  0  0  0  0
   13.1270   -0.9620   -4.9850 C   0  0  0  0  0
   12.7540   -0.3400   -3.9890 O   0  0  0  0  0
   12.8060    0.1280   -7.1980 C   0  0  0  0  0
   12.2090    0.0820   -8.5890 C   0  0  0  0  0
   12.6520   -1.1440   -9.3600 C   0  0  0  0  0
   13.8040   -1.5870   -9.1670 O   0  0  0  0  0
   11.8500   -1.6770  -10.1550 O   0  0  0  0  0
   14.2590   -1.6530   -4.9830 N   0  0  0  0  0
   15.1650   -1.5550   -3.8360 C   0  0  0  0  0
   15.6320   -0.1220   -3.6570 C   0  0  0  0  0
   15.6550    0.6720   -4.5980 O   0  0  0  0  0
   16.3260   -2.4810   -4.2130 C   0  0  0  0  0
   15.8050   -3.3290   -5.3370 C   0  0  0  0  0
   14.8060   -2.4970   -6.0590 C   0  0  0  0  0
   16.0050    0.2150   -2.4270 N   0  0  0  0  0
   16.4330    1.5730   -2.1420 C   0  0  0  0  0
   17.4910    1.5520   -1.0520 C   0  0  0  0  0
   17.6750    0.5510   -0.3510 O   0  0  0  0  0
   15.2460    2.4530   -1.7450 C   0  0  0  0  0
   14.6190    2.0720   -0.4330 C   0  0  0  0  0
   13.6210    1.1160   -0.3660 C   0  0  0  0  0
   15.0320    2.6790    0.7410 C   0  0  0  0  0
   13.0470    0.7760    0.8480 C   0  0  0  0  0
   14.4640    2.3440    1.9560 C   0  0  0  0  0
   13.4700    1.3950    2.0090 C   0  0  0  0  0
   18.1870    2.6780   -0.9230 N   0  0  0  0  0
   19.2850    2.8180    0.0210 C   0  0  0  0  0
   18.7690    3.3440    1.3480 C   0  0  0  0  0
   18.0020    4.3100    1.3810 O   0  0  0  0  0
   20.3170    3.7940   -0.5410 C   0  0  0  0  0
   21.0390    3.2440   -1.7280 C   0  0  0  0  0
   21.7470    1.9610   -1.3770 C   0  0  0  0  0
   22.7540    2.0370   -0.6400 O   0  0  0  0  0
   21.2700    0.8830   -1.7960 O   0  0  0  0  0
   19.2150    2.7190    2.4380 N   0  0  0  0  0
   18.8190    3.1030    3.7900 C   0  0  0  0  0
   20.0710    3.1620    4.6540 C   0  0  0  0  0
   20.6680    2.1250    4.9670 O   0  0  0  0  0
   17.8090    2.1090    4.3620 C   0  0  0  0  0
   17.2630    2.4450    5.7320 C   0  0  0  0  0
   16.1470    3.2590    5.8780 C   0  0  0  0  0
   17.8510    1.9290    6.8790 C   0  0  0  0  0
   15.6300    3.5560    7.1380 C   0  0  0  0  0
   17.3450    2.2170    8.1350 C   0  0  0  0  0
   16.2340    3.0330    8.2600 C   0  0  0  0  0
   15.7270    3.3230    9.5170 O   0  0  0  0  0
   20.4640    4.3680    5.0330 N   0  0  0  0  0
   21.5710    4.5580    5.9610 C   0  0  0  0  0
   21.1980    5.6200    6.9750 C   0  0  0  0  0
   21.9520    5.8530    7.9190 O   0  0  0  0  0
   22.8960    4.9320    5.2490 C   0  0  0  0  0
   22.6580    6.0170    4.2050 C   0  0  0  0  0
   23.5210    3.7100    4.6170 C   0  0  0  0  0
   23.9410    6.6490    3.6750 C   0  0  0  0  0
   20.1440    6.2420    6.8470 O   0  0  0  0  0
  -10.8193  -10.2917   -6.9622 H   0  0  0  0  0
  -10.5665   -9.5308   -8.4230 H   0  0  0  0  0
   -9.2665  -10.0026   -7.4933 H   0  0  0  0  0
   -9.8415   -8.4943   -5.7928 H   0  0  0  0  0
  -11.2556   -7.9811   -6.8042 H   0  0  0  0  0
   -8.7302   -4.8998   -8.7322 H   0  0  0  0  0
   -8.8143   -2.8641   -7.4266 H   0  0  0  0  0
   -8.2802   -3.6428   -5.9915 H   0  0  0  0  0
  -11.0565   -3.6497   -7.2049 H   0  0  0  0  0
  -10.6092   -3.4497   -5.5341 H   0  0  0  0  0
  -10.3888   -5.7688   -5.1790 H   0  0  0  0  0
  -11.5024   -5.8513   -6.4777 H   0  0  0  0  0
   -6.7464   -4.6268   -9.3608 H   0  0  0  0  0
   -4.8589   -6.5421   -8.3680 H   0  0  0  0  0
   -4.2846   -4.0759  -10.0362 H   0  0  0  0  0
   -4.9549   -5.6322  -10.6901 H   0  0  0  0  0
   -2.9192   -6.7274   -9.7249 H   0  0  0  0  0
   -2.2526   -5.0473   -9.5299 H   0  0  0  0  0
   -0.7744   -5.8767  -12.6628 H   0  0  0  0  0
   -0.5178   -5.9265  -10.9155 H   0  0  0  0  0
   -3.3075   -6.4697   -6.9140 H   0  0  0  0  0
   -3.0409   -4.0920   -5.2046 H   0  0  0  0  0
   -1.3805   -5.5368   -4.0391 H   0  0  0  0  0
   -1.7438   -6.8203   -5.2736 H   0  0  0  0  0
   -4.0262   -6.8719   -4.5571 H   0  0  0  0  0
   -3.6771   -5.5742   -3.3345 H   0  0  0  0  0
   -1.1621   -7.1165   -3.2168 H   0  0  0  0  0
    0.3736   -2.3575   -7.3110 H   0  0  0  0  0
    0.7232   -0.7019   -5.6336 H   0  0  0  0  0
    2.1120   -1.6509   -5.2256 H   0  0  0  0  0
    0.1998   -1.1898   -3.4823 H   0  0  0  0  0
    1.0706   -2.7292   -3.5143 H   0  0  0  0  0
   -1.1142   -3.5176   -3.6279 H   0  0  0  0  0
   -1.7134   -2.1174   -4.3939 H   0  0  0  0  0
    2.3304   -2.6787   -8.1020 H   0  0  0  0  0
    3.5704   -5.2617   -7.7090 H   0  0  0  0  0
    5.3081   -4.3001   -9.1708 H   0  0  0  0  0
    4.5253   -2.6699   -8.9889 H   0  0  0  0  0
    3.9615   -3.6435  -11.1094 H   0  0  0  0  0
    2.5138   -3.5891  -10.0317 H   0  0  0  0  0
    1.5972   -5.1807  -10.9621 H   0  0  0  0  0
    6.2972   -4.2286   -4.3383 H   0  0  0  0  0
    8.0051   -5.8953   -4.3508 H   0  0  0  0  0
    8.5697   -5.4302   -5.9205 H   0  0  0  0  0
    6.2896   -7.2694   -5.2108 H   0  0  0  0  0
    7.4850   -7.4548   -6.4582 H   0  0  0  0  0
    6.3574   -6.0009   -7.9439 H   0  0  0  0  0
    5.0040   -6.5850   -7.0808 H   0  0  0  0  0
    8.4049   -0.6040   -5.7110 H   0  0  0  0  0
    8.1407    0.2360   -3.4439 H   0  0  0  0  0
    9.8348   -0.0361   -3.4180 H   0  0  0  0  0
    8.2921   -1.2759   -1.6480 H   0  0  0  0  0
    9.6436   -2.1362   -2.3579 H   0  0  0  0  0
    7.9498   -3.6583   -2.9251 H   0  0  0  0  0
    6.7157   -2.4789   -2.8895 H   0  0  0  0  0
   10.4769    0.1833   -6.1517 H   0  0  0  0  0
   12.3769   -1.9289   -6.7560 H   0  0  0  0  0
   13.8809   -0.0190   -7.3035 H   0  0  0  0  0
   12.5286    1.0867   -6.7597 H   0  0  0  0  0
   12.5456    0.9649   -9.1324 H   0  0  0  0  0
   11.1239    0.0484   -8.4919 H   0  0  0  0  0
   14.2539   -1.0355   -8.5228 H   0  0  0  0  0
   14.7014   -1.8380   -2.8910 H   0  0  0  0  0
   16.6467   -3.0884   -3.3666 H   0  0  0  0  0
   17.2095   -1.9167   -4.5115 H   0  0  0  0  0
   15.3522   -4.2457   -4.9592 H   0  0  0  0  0
   16.6118   -3.6378   -6.0017 H   0  0  0  0  0
   15.2400   -1.9205   -6.8759 H   0  0  0  0  0
   14.0446   -3.0883   -6.5676 H   0  0  0  0  0
   15.9907   -0.4813   -1.6818 H   0  0  0  0  0
   16.8654    2.0052   -3.0444 H   0  0  0  0  0
   14.4835    2.3365   -2.5152 H   0  0  0  0  0
   15.6175    3.4727   -1.6433 H   0  0  0  0  0
   13.2827    0.6250   -1.2785 H   0  0  0  0  0
   15.8180    3.4334    0.7066 H   0  0  0  0  0
   12.2621    0.0207    0.8876 H   0  0  0  0  0
   14.8033    2.8310    2.8702 H   0  0  0  0  0
   13.0168    1.1316    2.9647 H   0  0  0  0  0
   17.9410    3.4754   -1.5095 H   0  0  0  0  0
   19.7449    1.8422    0.1774 H   0  0  0  0  0
   21.0530    3.9905    0.2386 H   0  0  0  0  0
   19.7907    4.6951   -0.8557 H   0  0  0  0  0
   21.7779    3.9738   -2.0590 H   0  0  0  0  0
   20.3146    3.0411   -2.5168 H   0  0  0  0  0
   20.5018    1.0651   -2.3421 H   0  0  0  0  0
   19.8612    1.9383    2.3224 H   0  0  0  0  0
   18.3357    4.0799    3.7722 H   0  0  0  0  0
   18.3337    1.1590    4.4630 H   0  0  0  0  0
   16.9573    2.1079    3.6817 H   0  0  0  0  0
   15.6669    3.6730    4.9913 H   0  0  0  0  0
   18.7264    1.2858    6.7890 H   0  0  0  0  0
   14.7541    4.1975    7.2347 H   0  0  0  0  0
   17.8205    1.8020    9.0237 H   0  0  0  0  0
   16.2592    2.8840   10.1846 H   0  0  0  0  0
   19.9787    5.1864    4.6654 H   0  0  0  0  0
   21.7482    3.6061    6.4616 H   0  0  0  0  0
   23.5879    5.3238    5.9946 H   0  0  0  0  0
   22.0782    6.8071    4.6821 H   0  0  0  0  0
   22.1508    5.5511    3.3602 H   0  0  0  0  0
   23.7302    2.9699    5.3893 H   0  0  0  0  0
   22.8320    3.2884    3.8851 H   0  0  0  0  0
   24.4500    3.9933    4.1223 H   0  0  0  0  0
   24.4873    7.1057    4.5002 H   0  0  0  0  0
   24.5582    5.8801    3.2103 H   0  0  0  0  0
   23.6911    7.4112    2.9370 H   0  0  0  0  0
   19.6848    5.9333    6.0625 H   0  0  0  0  0
  1  2  1  0  0  0
  2  3  1  0  0  0
  3  4  2  0  0  0
  3  5  1  0  0  0
  5  6  1  0  0  0
  5 11  1  0  0  0
  6  7  1  0  0  0
  6  9  1  0  0  0
  7  8  2  0  0  0
  7 12  1  0  0  0
  9 10  1  0  0  0
 10 11  1  0  0  0
 12 13  1  0  0  0
 13 14  1  0  0  0
 13 16  1  0  0  0
 14 15  2  0  0  0
 14 21  1  0  0  0
 16 17  1  0  0  0
 17 18  1  0  0  0
 18 19  2  0  0  0
 18 20  1  0  0  0
 21 22  1  0  0  0
 22 23  1  0  0  0
 22 25  1  0  0  0
 23 24  2  0  0  0
 23 30  1  0  0  0
 25 26  1  0  0  0
 26 27  1  0  0  0
 27 28  1  0  0  0
 27 29  2  0  0  0
 30 31  1  0  0  0
 30 36  1  0  0  0
 31 32  1  0  0  0
 31 34  1  0  0  0
 32 33  2  0  0  0
 32 37  1  0  0  0
 34 35  1  0  0  0
 35 36  1  0  0  0
 37 38  1  0  0  0
 38 39  1  0  0  0
 38 41  1  0  0  0
 39 40  2  0  0  0
 39 46  1  0  0  0
 41 42  1  0  0  0
 42 43  1  0  0  0
 43 44  2  0  0  0
 43 45  1  0  0  0
 46 47  1  0  0  0
 46 52  1  0  0  0
 47 48  1  0  0  0
 47 50  1  0  0  0
 48 49  2  0  0  0
 48 53  1  0  0  0
 50 51  1  0  0  0
 51 52  1  0  0  0
 53 54  1  0  0  0
 53 59  1  0  0  0
 54 55  1  0  0  0
 54 57  1  0  0  0
 55 56  2  0  0  0
 55 60  1  0  0  0
 57 58  1  0  0  0
 58 59  1  0  0  0
 60 61  1  0  0  0
 61 62  1  0  0  0
 61 64  1  0  0  0
 62 63  2  0  0  0
 62 69  1  0  0  0
 64 65  1  0  0  0
 65 66  1  0  0  0
 66 67  1  0  0  0
 66 68  2  0  0  0
 69 70  1  0  0  0
 69 75  1  0  0  0
 70 71  1  0  0  0
 70 73  1  0  0  0
 71 72  2  0  0  0
 71 76  1  0  0  0
 73 74  1  0  0  0
 74 75  1  0  0  0
 76 77  1  0  0  0
 77 78  1  0  0  0
 77 80  1  0  0  0
 78 79  2  0  0  0
 78 87  1  0  0  0
 80 81  1  0  0  0
 81 82  4  0  0  0
 81 83  4  0  0  0
 82 84  4  0  0  0
 83 85  4  0  0  0
 84 86  4  0  0  0
 85 86  4  0  0  0
 87 88  1  0  0  0
 88 89  1  0  0  0
 88 91  1  0  0  0
 89 90  2  0  0  0
 89 96  1  0  0  0
 91 92  1  0  0  0
 92 93  1  0  0  0
 93 94  2  0  0  0
 93 95  1  0  0  0
 96 97  1  0  0  0
 97 98  1  0  0  0
 97100  1  0  0  0
 98 99  2  0  0  0
 98108  1  0  0  0
100101  1  0  0  0
101102  4  0  0  0
101103  4  0  0  0
102104  4  0  0  0
103105  4  0  0  0
104106  4  0  0  0
105106  4  0  0  0
106107  1  0  0  0
108109  1  0  0  0
109110  1  0  0  0
109112  1  0  0  0
110111  2  0  0  0
110116  1  0  0  0
112113  1  0  0  0
112114  1  0  0  0
113115  1  0  0  0
  1117  1  0  0  0
  1118  1  0  0  0
  1119  1  0  0  0
  2120  1  0  0  0
  2121  1  0  0  0
  6122  1  0  0  0
  9123  1  0  0  0
  9124  1  0  0  0
 10125  1  0  0  0
 10126  1  0  0  0
 11127  1  0  0  0
 11128  1  0  0  0
 12129  1  0  0  0
 13130  1  0  0  0
 16131  1  0  0  0
 16132  1  0  0  0
 17133  1  0  0  0
 17134  1  0  0  0
 20135  1  0  0  0
 20136  1  0  0  0
 21137  1  0  0  0
 22138  1  0  0  0
 25139  1  0  0  0
 25140  1  0  0  0
 26141  1  0  0  0
 26142  1  0  0  0
 28143  1  0  0  0
 31144  1  0  0  0
 34145  1  0  0  0
 34146  1  0  0  0
 35147  1  0  0  0
 35148  1  0  0  0
 36149  1  0  0  0
 36150  1  0  0  0
 37151  1  0  0  0
 38152  1  0  0  0
 41153  1  0  0  0
 41154  1  0  0  0
 42155  1  0  0  0
 42156  1  0  0  0
 45157  1  0  0  0
 47158  1  0  0  0
 50159  1  0  0  0
 50160  1  0  0  0
 51161  1  0  0  0
 51162  1  0  0  0
 52163  1  0  0  0
 52164  1  0  0  0
 54165  1  0  0  0
 57166  1  0  0  0
 57167  1  0  0  0
 58168  1  0  0  0
 58169  1  0  0  0
 59170  1  0  0  0
 59171  1  0  0  0
 60172  1  0  0  0
 61173  1  0  0  0
 64174  1  0  0  0
 64175  1  0  0  0
 65176  1  0  0  0
 65177  1  0  0  0
 67178  1  0  0  0
 70179  1  0  0  0
 73180  1  0  0  0
 73181  1  0  0  0
 74182  1  0  0  0
 74183  1  0  0  0
 75184  1  0  0  0
 75185  1  0  0  0
 76186  1  0  0  0
 77187  1  0  0  0
 80188  1  0  0  0
 80189  1  0  0  0
 82190  1  0  0  0
 83191  1  0  0  0
 84192  1  0  0  0
 85193  1  0  0  0
 86194  1  0  0  0
 87195  1  0  0  0
 88196  1  0  0  0
 91197  1  0  0  0
 91198  1  0  0  0
 92199  1  0  0  0
 92200  1  0  0  0
 95201  1  0  0  0
 96202  1  0  0  0
 97203  1  0  0  0
100204  1  0  0  0
100205  1  0  0  0
102206  1  0  0  0
103207  1  0  0  0
104208  1  0  0  0
105209  1  0  0  0
107210  1  0  0  0
108211  1  0  0  0
109212  1  0  0  0
112213  1  0  0  0
113214  1  0  0  0
113215  1  0  0  0
114216  1  0  0  0
114217  1  0  0  0
114218  1  0  0  0
115219  1  0  0  0
115220  1  0  0  0
115221  1  0  0  0
116222  1  0  0  0
M  END
$$$$
