4eg5_ligand
  -I-interpret- 

 45 47  0  0  0  0  0  0  0  0999 V2000
   41.3830  -14.6040    7.1480 C   0  0  0  0  0
   40.6960  -15.8050    7.1610 C   0  0  0  0  0
   41.5480  -17.2920    7.1470 Cl  0  0  0  0  0
   39.3200  -15.8350    7.1700 C   0  0  0  0  0
   38.6130  -14.6460    7.1680 C   0  0  0  0  0
   36.8890  -14.7690    7.1780 Cl  0  0  0  0  0
   39.2820  -13.4210    7.1630 C   0  0  0  0  0
   40.6780  -13.4130    7.1360 C   0  0  0  0  0
   41.4680  -12.1040    7.1380 C   0  0  0  0  0
   41.4720  -11.6790    8.5330 N   0  3  0  0  0
   42.8640  -11.8240    9.0170 C   0  0  0  0  0
   42.9360  -11.1970   10.4210 C   0  0  0  0  0
   43.8160  -12.0140   11.3740 C   0  0  0  0  0
   43.0080  -13.0020   12.1080 N   0  0  0  0  0
   43.5380  -13.8750   12.9820 C   0  0  0  0  0
   44.9050  -13.9050   13.3040 C   0  0  0  0  0
   45.4030  -14.8400   14.2240 C   0  0  0  0  0
   46.6050  -14.8790   14.5010 O   0  0  0  0  0
   44.5300  -15.7530   14.8240 C   0  0  0  0  0
   45.0010  -16.7000   15.7360 C   0  0  0  0  0
   44.1120  -17.6070   16.3280 C   0  0  0  0  0
   42.7510  -17.5910   16.0250 C   0  0  0  0  0
   42.2900  -16.6430   15.1150 C   0  0  0  0  0
   43.1670  -15.7330   14.5140 C   0  0  0  0  0
   42.6750  -14.7980   13.5960 N   0  0  0  0  0
   42.4730  -14.5959    7.1472 H   0  0  0  0  0
   38.7915  -16.7882    7.1786 H   0  0  0  0  0
   38.7234  -12.4852    7.1799 H   0  0  0  0  0
   41.0185  -11.3557    6.4853 H   0  0  0  0  0
   42.4777  -12.2368    6.7495 H   0  0  0  0  0
   40.8327  -12.2476    9.0883 H   0  0  0  0  0
   41.1553  -10.7133    8.6200 H   0  0  0  0  0
   43.5560  -11.3224    8.3405 H   0  0  0  0  0
   43.1456  -12.8763    9.0555 H   0  0  0  0  0
   41.9269  -11.1673   10.8319 H   0  0  0  0  0
   43.3704  -10.2018   10.3267 H   0  0  0  0  0
   44.2829  -11.3378   12.0902 H   0  0  0  0  0
   44.5730  -12.5396   10.7920 H   0  0  0  0  0
   45.0892  -12.9405   13.7772 H   0  0  0  0  0
   45.3947  -14.1664   12.3659 H   0  0  0  0  0
   46.0611  -16.7336   15.9875 H   0  0  0  0  0
   44.4920  -18.3399   17.0398 H   0  0  0  0  0
   42.0663  -18.3015   16.4880 H   0  0  0  0  0
   41.2292  -16.6092   14.8669 H   0  0  0  0  0
   41.6803  -14.7866   13.3706 H   0  0  0  0  0
  1  2  4  0  0  0
  1  8  4  0  0  0
  2  3  1  0  0  0
  2  4  4  0  0  0
  4  5  4  0  0  0
  5  6  1  0  0  0
  5  7  4  0  0  0
  7  8  4  0  0  0
  8  9  1  0  0  0
  9 10  1  0  0  0
 10 11  1  0  0  0
 11 12  1  0  0  0
 12 13  1  0  0  0
 13 14  1  0  0  0
 14 15  2  0  0  0
 15 16  1  0  0  0
 15 25  1  0  0  0
 16 17  1  0  0  0
 17 18  2  0  0  0
 17 19  1  0  0  0
 19 20  4  0  0  0
 19 24  4  0  0  0
 20 21  4  0  0  0
 21 22  4  0  0  0
 22 23  4  0  0  0
 23 24  4  0  0  0
 24 25  1  0  0  0
  1 26  1  0  0  0
  4 27  1  0  0  0
  7 28  1  0  0  0
  9 29  1  0  0  0
  9 30  1  0  0  0
 10 31  1  0  0  0
 10 32  1  0  0  0
 11 33  1  0  0  0
 11 34  1  0  0  0
 12 35  1  0  0  0
 12 36  1  0  0  0
 13 37  1  0  0  0
 13 38  1  0  0  0
 16 39  1  0  0  0
 16 40  1  0  0  0
 20 41  1  0  0  0
 21 42  1  0  0  0
 22 43  1  0  0  0
 23 44  1  0  0  0
 25 45  1  0  0  0
M  END
$$$$
