3lik_ligand
  -I-interpret- 

 71 73  0  0  0  0  0  0  0  0999 V2000
    6.7370   31.0620    8.1530 C   0  0  0  0  0
    8.4630   29.5250    7.3940 N   0  0  0  0  0
    6.6200   28.5580    6.4770 O   0  0  0  0  0
    7.6500   29.8940    8.5330 C   0  0  0  0  0
    7.8900   27.2780    4.4360 N   0  0  0  0  0
    9.8280   26.0040    4.5010 O   0  0  0  0  0
    8.5270   30.1650    9.7660 C   0  0  0  0  0
    8.8270   31.6160   10.1530 C   0  0  0  0  0
    8.7330   31.4260    1.5830 O   0  0  0  0  0
   10.2150   31.9420   10.7150 C   0  0  0  0  0
    7.7930   28.7170    6.3940 C   0  0  0  0  0
    8.4970   28.4490    5.0590 C   0  0  0  0  0
    2.7520   22.3740    8.6150 S   0  0  0  0  0
    8.3390   29.6620    4.1290 C   0  0  0  0  0
   11.0590   32.7830    9.9790 O   0  0  0  0  0
    9.5940   30.4250    3.7290 C   0  0  0  0  0
    7.0570   31.8590    6.9870 N   0  0  0  0  0
    5.6780   31.1890    8.6720 O   0  0  0  0  0
    9.3820   31.6180    2.8020 C   0  0  0  0  0
    8.7340   26.1580    4.0480 C   0  0  0  0  0
    8.0240   25.0240    3.3070 C   0  0  0  0  0
    7.8240   23.7690    4.1440 C   0  0  0  0  0
    5.2080   24.1310    4.3600 C   0  0  0  0  0
    5.3230   22.5490    6.7990 C   0  0  0  0  0
    4.0790   23.0640    6.2870 C   0  0  0  0  0
    4.0030   23.8460    5.0940 C   0  0  0  0  0
    2.8130   22.7430    7.0870 C   0  0  0  0  0
    1.4110   22.7470    6.4930 C   0  0  0  0  0
    0.3600   22.3420    7.7320 C   0  0  0  0  0
   -1.1480   22.2940    7.5200 C   0  0  0  0  0
   -1.9130   21.3110    8.0770 C   0  0  0  0  0
   -3.3230   21.3120    7.8240 C   0  0  0  0  0
   -3.8990   22.3170    6.9700 C   0  0  0  0  0
   -3.0940   23.3160    6.3790 C   0  0  0  0  0
   -1.7270   23.3270    6.6230 C   0  0  0  0  0
    6.5000   23.6030    4.9020 C   0  0  0  0  0
    6.5490   22.8540    6.0560 C   0  0  0  0  0
    1.1030   22.1290    8.9660 C   0  0  0  0  0
    9.5890   32.7130    3.1980 O   0  0  0  0  0
   10.6920   31.2430   11.5470 O   0  0  0  0  0
    9.4372   29.8127    7.3015 H   0  0  0  0  0
    7.0011   29.0649    8.8154 H   0  0  0  0  0
    6.8835   27.2446    4.2739 H   0  0  0  0  0
    9.4970   29.7308    9.5238 H   0  0  0  0  0
    7.9653   29.7586   10.6071 H   0  0  0  0  0
    8.1287   31.8499   10.9566 H   0  0  0  0  0
    8.7516   32.1830    9.2251 H   0  0  0  0  0
    8.6458   30.4852    1.4129 H   0  0  0  0  0
    9.5585   28.2738    5.2341 H   0  0  0  0  0
    7.7321   30.3759    4.6859 H   0  0  0  0  0
    7.9352   29.2622    3.1988 H   0  0  0  0  0
   10.5378   33.2850    9.3481 H   0  0  0  0  0
   10.2208   29.7199    3.1831 H   0  0  0  0  0
   10.0173   30.8241    4.6508 H   0  0  0  0  0
    6.3745   32.5220    6.6194 H   0  0  0  0  0
    7.9649   31.7574    6.5333 H   0  0  0  0  0
    8.6501   24.7503    2.4577 H   0  0  0  0  0
    7.0352   25.3884    3.0286 H   0  0  0  0  0
    8.5923   23.8139    4.9158 H   0  0  0  0  0
    7.8528   22.9430    3.4333 H   0  0  0  0  0
    5.1808   24.7128    3.4387 H   0  0  0  0  0
    5.3517   21.9514    7.7101 H   0  0  0  0  0
    3.0424   24.2230    4.7431 H   0  0  0  0  0
    1.1432   22.9704    5.4603 H   0  0  0  0  0
   -1.4605   20.5408    8.7016 H   0  0  0  0  0
   -3.9591   20.5522    8.2780 H   0  0  0  0  0
   -4.9716   22.3072    6.7765 H   0  0  0  0  0
   -3.5427   24.0730    5.7359 H   0  0  0  0  0
   -1.0888   24.0818    6.1636 H   0  0  0  0  0
    7.5077   22.4847    6.4202 H   0  0  0  0  0
    0.6819   21.8621    9.9353 H   0  0  0  0  0
  4  1  1  0  0  0
  1 17  1  0  0  0
  1 18  2  0  0  0
  2  4  1  0  0  0
 11  2  1  0  0  0
 11  3  2  0  0  0
  4  7  1  0  0  0
  5 12  1  0  0  0
 20  5  1  0  0  0
 20  6  2  0  0  0
  7  8  1  0  0  0
  8 10  1  0  0  0
 19  9  1  0  0  0
 10 15  1  0  0  0
 10 40  2  0  0  0
 12 11  1  0  0  0
 12 14  1  0  0  0
 27 13  4  0  0  0
 13 38  4  0  0  0
 14 16  1  0  0  0
 16 19  1  0  0  0
 19 39  2  0  0  0
 21 20  1  0  0  0
 22 21  1  0  0  0
 36 22  1  0  0  0
 26 23  4  0  0  0
 23 36  4  0  0  0
 25 24  4  0  0  0
 24 37  4  0  0  0
 25 26  4  0  0  0
 25 27  1  0  0  0
 27 28  4  0  0  0
 28 29  4  0  0  0
 29 30  1  0  0  0
 29 38  4  0  0  0
 30 31  4  0  0  0
 30 35  4  0  0  0
 31 32  4  0  0  0
 32 33  4  0  0  0
 33 34  4  0  0  0
 34 35  4  0  0  0
 36 37  4  0  0  0
  2 41  1  0  0  0
  4 42  1  0  0  0
  5 43  1  0  0  0
  7 44  1  0  0  0
  7 45  1  0  0  0
  8 46  1  0  0  0
  8 47  1  0  0  0
  9 48  1  0  0  0
 12 49  1  0  0  0
 14 50  1  0  0  0
 14 51  1  0  0  0
 15 52  1  0  0  0
 16 53  1  0  0  0
 16 54  1  0  0  0
 17 55  1  0  0  0
 17 56  1  0  0  0
 21 57  1  0  0  0
 21 58  1  0  0  0
 22 59  1  0  0  0
 22 60  1  0  0  0
 23 61  1  0  0  0
 24 62  1  0  0  0
 26 63  1  0  0  0
 28 64  1  0  0  0
 31 65  1  0  0  0
 32 66  1  0  0  0
 33 67  1  0  0  0
 34 68  1  0  0  0
 35 69  1  0  0  0
 37 70  1  0  0  0
 38 71  1  0  0  0
M  END
$$$$
