5diu_ligand
  -I-interpret- 

108112  0  0  0  0  0  0  0  0999 V2000
   17.1260   -4.5210   -8.2970 C   0  0  0  0  0
   16.4500   -5.2190   -7.2540 O   0  0  0  0  0
   15.3230   -5.8740   -7.5430 C   0  0  0  0  0
   14.7320   -5.8320   -8.8300 C   0  0  0  0  0
   14.7520   -6.6390   -6.5870 C   0  0  0  0  0
   15.2870   -6.6420   -5.2560 O   0  0  0  0  0
   16.3600   -7.5410   -5.1440 C   0  0  0  0  0
   13.6070   -7.3260   -6.7990 C   0  0  0  0  0
   13.0570   -8.0660   -5.7390 O   0  0  0  0  0
   11.7240   -8.6300   -5.8350 C   0  0  0  0  0
   12.9790   -7.3300   -8.0460 C   0  0  0  0  0
   13.5480   -6.5500   -9.0430 C   0  0  0  0  0
   12.8600   -6.5210  -10.4190 C   0  0  0  0  0
   13.6910   -7.1790  -11.5460 C   0  0  0  0  0
   14.2560   -8.5030  -11.1410 C   0  0  0  0  0
   15.0130   -9.2550  -12.2550 C   0  0  0  0  0
   14.1340   -9.3200  -13.5530 C   0  0  0  0  0
   13.6650   -7.9750  -13.9790 C   0  0  0  0  0
   12.9060   -7.2750  -12.8250 C   0  0  0  0  0
   12.5540   -5.0790  -10.7650 C   0  0  0  0  0
   13.2510   -4.3940  -11.4910 O   0  0  0  0  0
   11.4480   -4.4910  -10.1660 N   0  0  0  0  0
   10.5970   -5.1700   -9.1370 C   0  0  0  0  0
    9.1470   -4.8560   -9.3150 C   0  0  0  0  0
    8.8420   -3.3490   -9.4650 C   0  0  0  0  0
    9.6950   -2.8040  -10.5920 C   0  0  0  0  0
   11.2090   -3.0680  -10.3870 C   0  0  0  0  0
   11.6690   -2.1540   -9.2110 C   0  0  0  0  0
   11.2450   -1.0370   -9.1470 O   0  0  0  0  0
   12.5600   -2.7080   -8.3720 N   0  0  0  0  0
   12.9490   -1.9590   -7.1220 C   0  0  0  0  0
   12.1870   -2.5680   -6.0230 C   0  0  0  0  0
   11.1530   -1.8570   -5.4640 C   0  0  0  0  0
   12.3190   -3.8930   -5.7220 C   0  0  0  0  0
   11.5440   -4.5830   -4.8100 C   0  0  0  0  0
   10.5260   -3.8320   -4.2140 C   0  0  0  0  0
   10.3110   -2.5050   -4.4960 C   0  0  0  0  0
    9.2820   -1.7160   -3.9790 O   0  0  0  0  0
    8.3540   -2.3180   -3.0740 C   0  0  0  0  0
    8.9970   -2.6070   -1.7100 C   0  0  0  0  0
    8.3700   -3.4320   -1.0590 O   0  0  0  0  0
   10.0680   -2.0720   -1.4200 O   0  0  0  0  0
   14.4400   -2.0050   -6.9380 C   0  0  0  0  0
   14.8710   -0.8730   -5.9400 C   0  0  0  0  0
   14.7450    0.4440   -6.4670 C   0  0  0  0  0
   15.6010    0.8690   -7.4970 C   0  0  0  0  0
   13.7390    1.3550   -6.0650 C   0  0  0  0  0
   13.5960    2.6120   -6.5760 C   0  0  0  0  0
   14.4740    3.0540   -7.6120 C   0  0  0  0  0
   14.4160    4.2950   -8.1880 O   0  0  0  0  0
   13.5130    5.2790   -7.7190 C   0  0  0  0  0
   15.4030    2.1540   -8.0110 C   0  0  0  0  0
   16.0850    2.7150   -9.1080 O   0  0  0  0  0
   17.2160    1.9740   -9.5310 C   0  0  0  0  0
   17.4091   -5.2250   -9.0795 H   0  0  0  0  0
   16.4641   -3.7611   -8.7123 H   0  0  0  0  0
   18.0199   -4.0451   -7.8939 H   0  0  0  0  0
   15.1875   -5.2551   -9.6349 H   0  0  0  0  0
   16.0160   -8.5470   -5.3842 H   0  0  0  0  0
   17.1496   -7.2504   -5.8370 H   0  0  0  0  0
   16.7443   -7.5209   -4.1242 H   0  0  0  0  0
   11.0016   -7.8280   -5.9872 H   0  0  0  0  0
   11.6833   -9.3218   -6.6763 H   0  0  0  0  0
   11.4889   -9.1624   -4.9134 H   0  0  0  0  0
   12.0809   -7.9201   -8.2286 H   0  0  0  0  0
   11.9480   -7.1135  -10.3459 H   0  0  0  0  0
   14.5424   -6.5243  -11.7319 H   0  0  0  0  0
   13.4128   -9.1310  -10.8534 H   0  0  0  0  0
   14.9761   -8.3087  -10.3462 H   0  0  0  0  0
   15.2308  -10.2687  -11.9187 H   0  0  0  0  0
   15.9407   -8.7275  -12.4767 H   0  0  0  0  0
   13.2586   -9.9336  -13.3403 H   0  0  0  0  0
   14.7426   -9.7376  -14.3551 H   0  0  0  0  0
   12.9918   -8.0874  -14.8289 H   0  0  0  0  0
   14.5286   -7.3693  -14.2537 H   0  0  0  0  0
   12.6915   -6.2569  -13.1499 H   0  0  0  0  0
   12.0172   -7.8700  -12.6149 H   0  0  0  0  0
   10.9043   -4.8162   -8.1529 H   0  0  0  0  0
   10.7282   -6.2469   -9.2426 H   0  0  0  0  0
    8.6298   -5.2023   -8.4202 H   0  0  0  0  0
    8.8217   -5.3440  -10.2338 H   0  0  0  0  0
    9.0694   -2.8261   -8.5360 H   0  0  0  0  0
    7.7856   -3.2007   -9.6889 H   0  0  0  0  0
    9.5478   -1.7246  -10.6281 H   0  0  0  0  0
    9.3916   -3.3057  -11.5109 H   0  0  0  0  0
   11.7992   -2.8192  -11.2690 H   0  0  0  0  0
   12.9669   -3.6206   -8.5770 H   0  0  0  0  0
   12.7060   -0.8975   -7.1688 H   0  0  0  0  0
   10.9744   -0.8203   -5.7494 H   0  0  0  0  0
   13.0976   -4.4507   -6.2425 H   0  0  0  0  0
   11.7132   -5.6334   -4.5729 H   0  0  0  0  0
    9.8728   -4.3224   -3.4922 H   0  0  0  0  0
    8.0195   -3.2625   -3.5030 H   0  0  0  0  0
    7.5243   -1.6274   -2.9231 H   0  0  0  0  0
   10.3216   -1.4660   -2.1200 H   0  0  0  0  0
   14.9323   -1.8532   -7.8986 H   0  0  0  0  0
   14.7296   -2.9763   -6.5371 H   0  0  0  0  0
   15.9249   -1.0293   -5.7099 H   0  0  0  0  0
   14.2129   -0.9385   -5.0736 H   0  0  0  0  0
   16.3894    0.2215   -7.8807 H   0  0  0  0  0
   13.0341    1.0320   -5.2989 H   0  0  0  0  0
   12.8175    3.2738   -6.1964 H   0  0  0  0  0
   12.4923    4.9086   -7.8143 H   0  0  0  0  0
   13.7258    5.4962   -6.6723 H   0  0  0  0  0
   13.6279    6.1873   -8.3106 H   0  0  0  0  0
   17.9309    1.9050   -8.7111 H   0  0  0  0  0
   16.9029    0.9728   -9.8270 H   0  0  0  0  0
   17.6813    2.4762  -10.3792 H   0  0  0  0  0
  1  2  1  0  0  0
  2  3  1  0  0  0
  3  4  4  0  0  0
  3  5  4  0  0  0
  4 12  4  0  0  0
  5  6  1  0  0  0
  5  8  4  0  0  0
  6  7  1  0  0  0
  8  9  1  0  0  0
  8 11  4  0  0  0
  9 10  1  0  0  0
 11 12  4  0  0  0
 12 13  1  0  0  0
 13 14  1  0  0  0
 13 20  1  0  0  0
 14 15  1  0  0  0
 14 19  1  0  0  0
 15 16  1  0  0  0
 16 17  1  0  0  0
 17 18  1  0  0  0
 18 19  1  0  0  0
 20 21  2  0  0  0
 20 22  1  0  0  0
 22 23  1  0  0  0
 22 27  1  0  0  0
 23 24  1  0  0  0
 24 25  1  0  0  0
 25 26  1  0  0  0
 26 27  1  0  0  0
 27 28  1  0  0  0
 28 29  2  0  0  0
 28 30  1  0  0  0
 30 31  1  0  0  0
 31 32  1  0  0  0
 31 43  1  0  0  0
 32 33  4  0  0  0
 32 34  4  0  0  0
 33 37  4  0  0  0
 34 35  4  0  0  0
 35 36  4  0  0  0
 36 37  4  0  0  0
 37 38  1  0  0  0
 38 39  1  0  0  0
 39 40  1  0  0  0
 40 41  2  0  0  0
 40 42  1  0  0  0
 43 44  1  0  0  0
 44 45  1  0  0  0
 45 46  4  0  0  0
 45 47  4  0  0  0
 46 52  4  0  0  0
 47 48  4  0  0  0
 48 49  4  0  0  0
 49 50  1  0  0  0
 49 52  4  0  0  0
 50 51  1  0  0  0
 52 53  1  0  0  0
 53 54  1  0  0  0
  1 55  1  0  0  0
  1 56  1  0  0  0
  1 57  1  0  0  0
  4 58  1  0  0  0
  7 59  1  0  0  0
  7 60  1  0  0  0
  7 61  1  0  0  0
 10 62  1  0  0  0
 10 63  1  0  0  0
 10 64  1  0  0  0
 11 65  1  0  0  0
 13 66  1  0  0  0
 14 67  1  0  0  0
 15 68  1  0  0  0
 15 69  1  0  0  0
 16 70  1  0  0  0
 16 71  1  0  0  0
 17 72  1  0  0  0
 17 73  1  0  0  0
 18 74  1  0  0  0
 18 75  1  0  0  0
 19 76  1  0  0  0
 19 77  1  0  0  0
 23 78  1  0  0  0
 23 79  1  0  0  0
 24 80  1  0  0  0
 24 81  1  0  0  0
 25 82  1  0  0  0
 25 83  1  0  0  0
 26 84  1  0  0  0
 26 85  1  0  0  0
 27 86  1  0  0  0
 30 87  1  0  0  0
 31 88  1  0  0  0
 33 89  1  0  0  0
 34 90  1  0  0  0
 35 91  1  0  0  0
 36 92  1  0  0  0
 39 93  1  0  0  0
 39 94  1  0  0  0
 42 95  1  0  0  0
 43 96  1  0  0  0
 43 97  1  0  0  0
 44 98  1  0  0  0
 44 99  1  0  0  0
 46100  1  0  0  0
 47101  1  0  0  0
 48102  1  0  0  0
 51103  1  0  0  0
 51104  1  0  0  0
 51105  1  0  0  0
 54106  1  0  0  0
 54107  1  0  0  0
 54108  1  0  0  0
M  END
$$$$
