### 
### Created by X-TOOL on Mon Sep 10 21:13:20 2018
### 

@<TRIPOS>MOLECULE
4n3w_ligand
  110   110     1     0     0
SMALL
GAST_HUCK


@<TRIPOS>ATOM
      1 N          22.5820   23.6250    5.9630 N.4       1 ARG         0.2379
      2 CA         22.5600   22.3120    6.6940 C.3       1 ARG         0.0651
      3 C          23.9380   21.9240    7.2050 C.2       1 ARG         0.2268
      4 O          24.9130   21.9130    6.4760 O.2       1 ARG        -0.3907
      5 CB         22.0500   21.1730    5.8280 C.3       1 ARG         0.0110
      6 CG         21.6520   19.9820    6.6940 C.3       1 ARG        -0.0125
      7 CD         22.0350   18.6440    6.1010 C.3       1 ARG         0.0629
      8 NE         21.1110   17.5950    6.5330 N.pl3     1 ARG        -0.2723
      9 CZ         20.9590   16.4260    5.9150 C.cat     1 ARG         0.2882
     10 NH1        21.6870   16.1260    4.8360 N.pl3     1 ARG        -0.2849
     11 NH2        20.0790   15.5430    6.3770 N.pl3     1 ARG        -0.2849
     12 N          24.0250   21.5890    8.4710 N.am      1 HIS        -0.2598
     13 CA         25.3380   21.4310    9.0800 C.3       1 HIS         0.1370
     14 C          25.9780   20.0950    8.7740 C.2       1 HIS         0.2054
     15 O          25.3280   19.2200    8.2210 O.2       1 HIS        -0.3942
     16 CB         25.2330   21.7560   10.5550 C.3       1 HIS         0.0145
     17 CG         25.0060   23.2120   10.7710 C.2       1 HIS        -0.0027
     18 ND1        23.7910   23.8110   10.5170 N.2       1 HIS        -0.3252
     19 CD2        25.8650   24.2090   11.0960 C.2       1 HIS         0.0291
     20 CE1        23.8980   25.1090   10.7190 C.2       1 HIS         0.0907
     21 NE2        25.1430   25.3760   11.0820 N.pl3     1 HIS        -0.2752
     22 N          27.2630   19.9810    9.0940 N.am      1 ARG        -0.2636
     23 CA         28.0310   18.7620    8.8510 C.3       1 ARG         0.1311
     24 C          28.8680   18.5420   10.0740 C.2       1 ARG         0.2039
     25 O          29.2490   19.5150   10.7300 O.2       1 ARG        -0.3944
     26 CB         28.9580   18.9240    7.6490 C.3       1 ARG        -0.0092
     27 CG         30.2960   19.5480    8.0210 C.3       1 ARG        -0.0156
     28 CD         30.9650   20.3780    6.9490 C.3       1 ARG         0.0627
     29 NE         31.9990   19.6570    6.2100 N.pl3     1 ARG        -0.2723
     30 CZ         33.1450   19.2080    6.7220 C.cat     1 ARG         0.2882
     31 NH1        33.4370   19.3590    8.0110 N.pl3     1 ARG        -0.2849
     32 NH2        34.0050   18.5780    5.9330 N.pl3     1 ARG        -0.2849
     33 OH         25.8570   11.0920   12.5620 O.2       1 ALY        -0.3974
     34 CH         26.7430   10.8800   13.3710 C.2       1 ALY         0.1729
     35 CH3        27.0280    9.5360   13.9290 C.3       1 ALY         0.0256
     36 NZ         27.5320   11.8400   13.7990 N.am      1 ALY        -0.2872
     37 CE         27.3970   13.2470   13.4110 C.3       1 ALY         0.0309
     38 CD         28.7650   13.7430   12.9500 C.3       1 ALY        -0.0325
     39 CG         28.7490   15.1320   12.3510 C.3       1 ALY        -0.0470
     40 CB         30.1360   15.5210   11.7770 C.3       1 ALY        -0.0123
     41 CA         30.0500   17.0240   11.5180 C.3       1 ALY         0.1309
     42 N          29.2640   17.2970   10.3180 N.am      1 ALY        -0.2637
     43 C          31.4310   17.6240   11.4050 C.2       1 ALY         0.2034
     44 O          32.1810   17.3230   10.5070 O.2       1 ALY        -0.3944
     45 N          31.7680   18.4400   12.3820 N.am      1 VAL        -0.2668
     46 CA         32.8660   19.3630   12.2770 C.3       1 VAL         0.1249
     47 C          33.9790   18.7810   13.1040 C.2       1 VAL         0.2152
     48 O          33.7260   18.3990   14.2390 O.co2     1 VAL        -0.4120
     49 CB         32.4520   20.7410   12.8500 C.3       1 VAL        -0.0094
     50 CG1        33.4220   21.8100   12.4040 C.3       1 VAL        -0.0589
     51 CG2        31.0210   21.1120   12.4390 C.3       1 VAL        -0.0589
     52 H          21.6527   23.8460    5.6412 H         1 ARG         0.2015
     53 H          23.2044   23.5593    5.1728 H         1 ARG         0.2015
     54 H          22.9036   24.3504    6.5847 H         1 ARG         0.2015
     55 H          21.8855   22.4223    7.5559 H         1 ARG         0.1098
     56 H          22.8431   20.8649    5.1308 H         1 ARG         0.0347
     57 H          21.1736   21.5155    5.2583 H         1 ARG         0.0347
     58 H          20.5608   20.0015    6.8310 H         1 ARG         0.0302
     59 H          22.1462   20.0828    7.6715 H         1 ARG         0.0302
     60 H          23.0526   18.3838    6.4277 H         1 ARG         0.0689
     61 H          22.0094   18.7163    5.0037 H         1 ARG         0.0689
     62 H          20.5399   17.7731    7.3715 H         1 ARG         0.2642
     63 H          21.5609   15.2183    4.3658 H         1 ARG         0.2615
     64 H          22.3744   16.8024    4.4742 H         1 ARG         0.2615
     65 H          19.5135   15.7662    7.2085 H         1 ARG         0.2615
     66 H          19.9627   14.6357    5.9035 H         1 ARG         0.2615
     67 H          23.1969   21.4436    9.0124 H         1 HIS         0.1886
     68 H          25.9956   22.1910    8.6329 H         1 HIS         0.0817
     69 H          26.1672   21.4606   11.0549 H         1 HIS         0.0420
     70 H          24.3921   21.1938   10.9873 H         1 HIS         0.0420
     71 H          26.9246   24.1041   11.3244 H         1 HIS         0.0729
     72 H          23.0975   25.8387   10.6064 H         1 HIS         0.1199
     73 H          25.5105   26.3093   11.3162 H         1 HIS         0.2361
     74 H          27.7228   20.7611    9.5183 H         1 ARG         0.1883
     75 H          27.3526   17.9122    8.6852 H         1 ARG         0.0800
     76 H          28.4633   19.5678    6.9069 H         1 ARG         0.0313
     77 H          29.1418   17.9324    7.2097 H         1 ARG         0.0313
     78 H          30.9830   18.7328    8.2922 H         1 ARG         0.0301
     79 H          30.1330   20.1961    8.8947 H         1 ARG         0.0301
     80 H          31.4264   21.2553    7.4259 H         1 ARG         0.0689
     81 H          30.1960   20.7102    6.2361 H         1 ARG         0.0689
     82 H          31.8281   19.4809    5.2097 H         1 ARG         0.2642
     83 H          34.3295   19.0030    8.3820 H         1 ARG         0.2615
     84 H          32.7706   19.8319    8.6380 H         1 ARG         0.2615
     85 H          33.7912   18.4543    4.9331 H         1 ARG         0.2615
     86 H          34.8867   18.2125    6.3202 H         1 ARG         0.2615
     87 H          27.8693    9.6028   14.6346 H         1 ALY         0.0467
     88 H          27.2887    8.8474   13.1118 H         1 ALY         0.0467
     89 H          26.1375    9.1608   14.4546 H         1 ALY         0.0467
     90 H          28.2699   11.5955   14.4281 H         1 ALY         0.1850
     91 H          27.0556   13.8405   14.2719 H         1 ALY         0.0520
     92 H          26.6704   13.3398   12.5904 H         1 ALY         0.0520
     93 H          29.1482   13.0443   12.1917 H         1 ALY         0.0285
     94 H          29.4407   13.7490   13.8179 H         1 ALY         0.0285
     95 H          28.4703   15.8546   13.1321 H         1 ALY         0.0268
     96 H          28.0057   15.1630   11.5407 H         1 ALY         0.0268
     97 H          30.3329   14.9782   10.8408 H         1 ALY         0.0312
     98 H          30.9312   15.2990   12.5039 H         1 ALY         0.0312
     99 H          29.5419   17.4917   12.3742 H         1 ALY         0.0800
    100 H          29.0269   16.5572    9.6883 H         1 ALY         0.1883
    101 H          31.2395   18.4170   13.2306 H         1 VAL         0.1876
    102 H          33.1797   19.4735   11.2285 H         1 VAL         0.0754
    103 O1         35.1463   18.6886   12.6388 O.co2     1 VAL        -0.4120
    104 H          32.4870   20.6791   13.9477 H         1 VAL         0.0336
    105 H          33.1139   22.7810   12.8191 H         1 VAL         0.0234
    106 H          33.4266   21.8657   11.3054 H         1 VAL         0.0234
    107 H          34.4317   21.5617   12.7628 H         1 VAL         0.0234
    108 H          30.3284   20.3244   12.7708 H         1 VAL         0.0234
    109 H          30.9675   21.2101   11.3447 H         1 VAL         0.0234
    110 H          30.7411   22.0673   12.9069 H         1 VAL         0.0234
@<TRIPOS>BOND
     1    2    1 1  
     2    3    2 1  
     3    2    5 1  
     4    3    4 2  
     5   12    3 am 
     6    5    6 1  
     7    6    7 1  
     8    7    8 1  
     9    8    9 ar 
    10    9   10 ar 
    11    9   11 ar 
    12   13   12 1  
    13   14   13 1  
    14   13   16 1  
    15   14   15 2  
    16   22   14 am 
    17   16   17 1  
    18   17   18 1  
    19   17   19 2  
    20   18   20 2  
    21   19   21 1  
    22   21   20 1  
    23   23   22 1  
    24   24   23 1  
    25   23   26 1  
    26   24   25 2  
    27   42   24 am 
    28   26   27 1  
    29   27   28 1  
    30   28   29 1  
    31   29   30 ar 
    32   30   31 ar 
    33   30   32 ar 
    34   34   33 2  
    35   34   35 1  
    36   36   34 am 
    37   37   36 1  
    38   38   37 1  
    39   39   38 1  
    40   40   39 1  
    41   41   40 1  
    42   41   42 1  
    43   41   43 1  
    44   43   44 2  
    45   43   45 am 
    46   45   46 1  
    47   46   47 1  
    48   46   49 1  
    49   47   48 ar 
    50   49   50 1  
    51   49   51 1  
    52    1   52 1  
    53    1   53 1  
    54    1   54 1  
    55    2   55 1  
    56    5   56 1  
    57    5   57 1  
    58    6   58 1  
    59    6   59 1  
    60    7   60 1  
    61    7   61 1  
    62    8   62 1  
    63   10   63 1  
    64   10   64 1  
    65   11   65 1  
    66   11   66 1  
    67   12   67 1  
    68   13   68 1  
    69   16   69 1  
    70   16   70 1  
    71   19   71 1  
    72   20   72 1  
    73   21   73 1  
    74   22   74 1  
    75   23   75 1  
    76   26   76 1  
    77   26   77 1  
    78   27   78 1  
    79   27   79 1  
    80   28   80 1  
    81   28   81 1  
    82   29   82 1  
    83   31   83 1  
    84   31   84 1  
    85   32   85 1  
    86   32   86 1  
    87   35   87 1  
    88   35   88 1  
    89   35   89 1  
    90   36   90 1  
    91   37   91 1  
    92   37   92 1  
    93   38   93 1  
    94   38   94 1  
    95   39   95 1  
    96   39   96 1  
    97   40   97 1  
    98   40   98 1  
    99   41   99 1  
   100   42  100 1  
   101   45  101 1  
   102   46  102 1  
   103   47  103 ar 
   104   49  104 1  
   105   50  105 1  
   106   50  106 1  
   107   50  107 1  
   108   51  108 1  
   109   51  109 1  
   110   51  110 1  
@<TRIPOS>SUBSTRUCTURE
     1 ARG         1

