4n3w_ligand
  -I-interpret- 

108108  0  0  0  0  0  0  0  0999 V2000
   22.5820   23.6250    5.9630 N   0  3  0  0  0
   22.5600   22.3120    6.6940 C   0  0  0  0  0
   23.9380   21.9240    7.2050 C   0  0  0  0  0
   24.9130   21.9130    6.4760 O   0  0  0  0  0
   22.0500   21.1730    5.8280 C   0  0  0  0  0
   21.6520   19.9820    6.6940 C   0  0  0  0  0
   22.0350   18.6440    6.1010 C   0  0  0  0  0
   21.1110   17.5950    6.5330 N   0  0  0  0  0
   20.9590   16.4260    5.9150 C   0  0  0  0  0
   21.6870   16.1260    4.8360 N   0  0  0  0  0
   20.0790   15.5430    6.3770 N   0  0  0  0  0
   24.0250   21.5890    8.4710 N   0  0  0  0  0
   25.3380   21.4310    9.0800 C   0  0  0  0  0
   25.9780   20.0950    8.7740 C   0  0  0  0  0
   25.3280   19.2200    8.2210 O   0  0  0  0  0
   25.2330   21.7560   10.5550 C   0  0  0  0  0
   25.0060   23.2120   10.7710 C   0  0  0  0  0
   23.7910   23.8110   10.5170 N   0  0  0  0  0
   25.8650   24.2090   11.0960 C   0  0  0  0  0
   23.8980   25.1090   10.7190 C   0  0  0  0  0
   25.1430   25.3760   11.0820 N   0  0  0  0  0
   27.2630   19.9810    9.0940 N   0  0  0  0  0
   28.0310   18.7620    8.8510 C   0  0  0  0  0
   28.8680   18.5420   10.0740 C   0  0  0  0  0
   29.2490   19.5150   10.7300 O   0  0  0  0  0
   28.9580   18.9240    7.6490 C   0  0  0  0  0
   30.2960   19.5480    8.0210 C   0  0  0  0  0
   30.9650   20.3780    6.9490 C   0  0  0  0  0
   31.9990   19.6570    6.2100 N   0  0  0  0  0
   33.1450   19.2080    6.7220 C   0  0  0  0  0
   33.4370   19.3590    8.0110 N   0  0  0  0  0
   34.0050   18.5780    5.9330 N   0  0  0  0  0
   25.8570   11.0920   12.5620 O   0  0  0  0  0
   26.7430   10.8800   13.3710 C   0  0  0  0  0
   27.0280    9.5360   13.9290 C   0  0  0  0  0
   27.5320   11.8400   13.7990 N   0  0  0  0  0
   27.3970   13.2470   13.4110 C   0  0  0  0  0
   28.7650   13.7430   12.9500 C   0  0  0  0  0
   28.7490   15.1320   12.3510 C   0  0  0  0  0
   30.1360   15.5210   11.7770 C   0  0  0  0  0
   30.0500   17.0240   11.5180 C   0  0  0  0  0
   29.2640   17.2970   10.3180 N   0  0  0  0  0
   31.4310   17.6240   11.4050 C   0  0  0  0  0
   32.1810   17.3230   10.5070 O   0  0  0  0  0
   31.7680   18.4400   12.3820 N   0  0  0  0  0
   32.8660   19.3630   12.2770 C   0  0  0  0  0
   33.9790   18.7810   13.1040 C   0  0  0  0  0
   33.7260   18.3990   14.2390 O   0  0  0  0  0
   32.4520   20.7410   12.8500 C   0  0  0  0  0
   33.4220   21.8100   12.4040 C   0  0  0  0  0
   31.0210   21.1120   12.4390 C   0  0  0  0  0
   35.1463   18.6886   12.6388 O   0  0  0  0  0
   22.9308   24.3537    6.5857 H   0  0  0  0  0
   23.1931   23.5498    5.1498 H   0  0  0  0  0
   21.6370   23.8594    5.6591 H   0  0  0  0  0
   21.8793   22.4649    7.5315 H   0  0  0  0  0
   22.8413   20.8656    5.1443 H   0  0  0  0  0
   21.1771   21.5141    5.2714 H   0  0  0  0  0
   20.5663   19.9972    6.7900 H   0  0  0  0  0
   22.1773   20.0798    7.6440 H   0  0  0  0  0
   23.0389   18.3864    6.4386 H   0  0  0  0  0
   21.9954   18.7190    5.0143 H   0  0  0  0  0
   20.5455   17.7714    7.3633 H   0  0  0  0  0
   21.5655   15.2252    4.3731 H   0  0  0  0  0
   22.3644   16.7977    4.4749 H   0  0  0  0  0
   19.5223   15.7621    7.2031 H   0  0  0  0  0
   23.1804   21.4407    9.0233 H   0  0  0  0  0
   26.0329   22.1411    8.6316 H   0  0  0  0  0
   26.1671   21.4737   11.0408 H   0  0  0  0  0
   24.3895   21.2066   10.9731 H   0  0  0  0  0
   26.9256   24.1040   11.3246 H   0  0  0  0  0
   23.0968   25.8394   10.6063 H   0  0  0  0  0
   27.7320   20.7767    9.5267 H   0  0  0  0  0
   27.3588   17.9288    8.6460 H   0  0  0  0  0
   28.4674   19.5842    6.9338 H   0  0  0  0  0
   29.1526   17.9327    7.2396 H   0  0  0  0  0
   30.9715   18.7186    8.2303 H   0  0  0  0  0
   30.0961   20.2258    8.8509 H   0  0  0  0  0
   31.4454   21.2229    7.4424 H   0  0  0  0  0
   30.1956   20.6693    6.2339 H   0  0  0  0  0
   31.8297   19.4826    5.2194 H   0  0  0  0  0
   34.3136   18.9922    8.3817 H   0  0  0  0  0
   32.7843   19.8416    8.6287 H   0  0  0  0  0
   33.7862   18.4416    4.9461 H   0  0  0  0  0
   26.1449    9.1654   14.4495 H   0  0  0  0  0
   27.2861    8.8547   13.1183 H   0  0  0  0  0
   27.8617    9.6035   14.6279 H   0  0  0  0  0
   28.2846   11.5906   14.4407 H   0  0  0  0  0
   27.0475   13.8389   14.2569 H   0  0  0  0  0
   26.6693   13.3472   12.6057 H   0  0  0  0  0
   29.1102   13.0608   12.1731 H   0  0  0  0  0
   29.4082   13.7785   13.8293 H   0  0  0  0  0
   28.4889   15.8427   13.1354 H   0  0  0  0  0
   28.0226   15.1487   11.5385 H   0  0  0  0  0
   30.3661   14.9670   10.8669 H   0  0  0  0  0
   30.9422   15.2760   12.4684 H   0  0  0  0  0
   29.5460   17.4895   12.3650 H   0  0  0  0  0
   29.0222   16.5424    9.6757 H   0  0  0  0  0
   31.2290   18.4166   13.2476 H   0  0  0  0  0
   33.1695   19.5082   11.2402 H   0  0  0  0  0
   32.4791   20.6715   13.9374 H   0  0  0  0  0
   34.4221   21.5628   12.7601 H   0  0  0  0  0
   33.4256   21.8642   11.3154 H   0  0  0  0  0
   33.1156   22.7715   12.8159 H   0  0  0  0  0
   30.9563   21.1555   11.3518 H   0  0  0  0  0
   30.3293   20.3585   12.8155 H   0  0  0  0  0
   30.7644   22.0847   12.8587 H   0  0  0  0  0
   35.1608   19.0334   11.7430 H   0  0  0  0  0
  2  1  1  0  0  0
  3  2  1  0  0  0
  2  5  1  0  0  0
  3  4  2  0  0  0
 12  3  1  0  0  0
  5  6  1  0  0  0
  6  7  1  0  0  0
  7  8  1  0  0  0
  8  9  1  0  0  0
  9 10  1  0  0  0
  9 11  2  0  0  0
 13 12  1  0  0  0
 14 13  1  0  0  0
 13 16  1  0  0  0
 14 15  2  0  0  0
 22 14  1  0  0  0
 16 17  1  0  0  0
 17 18  4  0  0  0
 17 19  4  0  0  0
 18 20  4  0  0  0
 19 21  4  0  0  0
 21 20  4  0  0  0
 23 22  1  0  0  0
 24 23  1  0  0  0
 23 26  1  0  0  0
 24 25  2  0  0  0
 42 24  1  0  0  0
 26 27  1  0  0  0
 27 28  1  0  0  0
 28 29  1  0  0  0
 29 30  1  0  0  0
 30 31  1  0  0  0
 30 32  2  0  0  0
 34 33  2  0  0  0
 34 35  1  0  0  0
 36 34  1  0  0  0
 37 36  1  0  0  0
 38 37  1  0  0  0
 39 38  1  0  0  0
 40 39  1  0  0  0
 41 40  1  0  0  0
 41 42  1  0  0  0
 41 43  1  0  0  0
 43 44  2  0  0  0
 43 45  1  0  0  0
 45 46  1  0  0  0
 46 47  1  0  0  0
 46 49  1  0  0  0
 47 48  2  0  0  0
 49 50  1  0  0  0
 49 51  1  0  0  0
 47 52  1  0  0  0
  1 53  1  0  0  0
  1 54  1  0  0  0
  1 55  1  0  0  0
  2 56  1  0  0  0
  5 57  1  0  0  0
  5 58  1  0  0  0
  6 59  1  0  0  0
  6 60  1  0  0  0
  7 61  1  0  0  0
  7 62  1  0  0  0
  8 63  1  0  0  0
 10 64  1  0  0  0
 10 65  1  0  0  0
 11 66  1  0  0  0
 12 67  1  0  0  0
 13 68  1  0  0  0
 16 69  1  0  0  0
 16 70  1  0  0  0
 19 71  1  0  0  0
 20 72  1  0  0  0
 22 73  1  0  0  0
 23 74  1  0  0  0
 26 75  1  0  0  0
 26 76  1  0  0  0
 27 77  1  0  0  0
 27 78  1  0  0  0
 28 79  1  0  0  0
 28 80  1  0  0  0
 29 81  1  0  0  0
 31 82  1  0  0  0
 31 83  1  0  0  0
 32 84  1  0  0  0
 35 85  1  0  0  0
 35 86  1  0  0  0
 35 87  1  0  0  0
 36 88  1  0  0  0
 37 89  1  0  0  0
 37 90  1  0  0  0
 38 91  1  0  0  0
 38 92  1  0  0  0
 39 93  1  0  0  0
 39 94  1  0  0  0
 40 95  1  0  0  0
 40 96  1  0  0  0
 41 97  1  0  0  0
 42 98  1  0  0  0
 45 99  1  0  0  0
 46100  1  0  0  0
 49101  1  0  0  0
 50102  1  0  0  0
 50103  1  0  0  0
 50104  1  0  0  0
 51105  1  0  0  0
 51106  1  0  0  0
 51107  1  0  0  0
 52108  1  0  0  0
M  END
$$$$
