5ncq_ligand
  -I-interpret- 

 45 48  0  0  0  0  0  0  0  0999 V2000
   20.3610   15.7120   14.3210 F   0  0  0  0  0
   20.4920   16.8030   15.0720 C   0  0  0  0  0
   21.7460   16.8260   15.5160 F   0  0  0  0  0
   19.6990   16.6680   16.1340 F   0  0  0  0  0
   20.2760   17.9430   14.3130 O   0  0  0  0  0
   18.9950   18.4440   14.0970 C   0  0  0  0  0
   18.3720   19.1850   15.0820 C   0  0  0  0  0
   18.3670   18.2120   12.8530 C   0  0  0  0  0
   17.0990   18.7170   12.6130 C   0  0  0  0  0
   16.4140   19.4690   13.5850 C   0  0  0  0  0
   17.0820   19.6900   14.8270 C   0  0  0  0  0
   16.2260   20.4450   15.6390 N   0  0  0  0  0
   15.0690   20.7060   14.9340 C   0  0  0  0  0
   15.1370   20.1340   13.6910 C   0  0  0  0  0
   13.9970   20.2670   12.7660 C   0  0  0  0  0
   12.7110   20.0680   13.5670 C   0  0  0  0  0
   12.5560   21.1250   14.6890 C   0  0  0  0  0
   13.8650   21.5070   15.4360 C   0  0  0  0  0
   14.0650   22.9720   15.4770 N   0  3  0  0  0
   15.4360   23.4490   15.1660 C   0  0  0  0  0
   15.5020   24.2930   13.9220 C   0  0  0  0  0
   14.5890   25.3250   13.7010 C   0  0  0  0  0
   14.6460   26.1030   12.5480 C   0  0  0  0  0
   15.6280   25.8350   11.6160 C   0  0  0  0  0
   15.7020   26.8960   10.0520 Br  0  0  0  0  0
   16.5490   24.8230   11.7940 C   0  0  0  0  0
   16.4750   24.0570   12.9510 C   0  0  0  0  0
   18.8670   19.3746   16.0344 H   0  0  0  0  0
   18.8795   17.6361   12.0824 H   0  0  0  0  0
   16.6224   18.5277   11.6512 H   0  0  0  0  0
   14.0661   19.5209   11.9744 H   0  0  0  0  0
   14.0022   21.2534   12.3022 H   0  0  0  0  0
   12.7475   19.0821   14.0305 H   0  0  0  0  0
   11.8662   20.1683   12.8855 H   0  0  0  0  0
   11.8895   20.6906   15.4341 H   0  0  0  0  0
   12.1958   22.0353   14.2096 H   0  0  0  0  0
   13.7583   21.2109   16.4796 H   0  0  0  0  0
   13.8710   23.2614   16.4357 H   0  0  0  0  0
   13.4549   23.3651   14.7603 H   0  0  0  0  0
   16.0621   22.5716   15.0035 H   0  0  0  0  0
   15.7688   24.0652   16.0013 H   0  0  0  0  0
   13.8175   25.5255   14.4444 H   0  0  0  0  0
   13.9293   26.9078   12.3845 H   0  0  0  0  0
   17.3165   24.6290   11.0447 H   0  0  0  0  0
   17.1945   23.2525   13.1034 H   0  0  0  0  0
  1  2  1  0  0  0
  2  3  1  0  0  0
  2  4  1  0  0  0
  2  5  1  0  0  0
  5  6  1  0  0  0
  6  7  4  0  0  0
  6  8  4  0  0  0
  7 11  4  0  0  0
  8  9  4  0  0  0
  9 10  4  0  0  0
 10 11  4  0  0  0
 10 14  4  0  0  0
 11 12  4  0  0  0
 12 13  4  0  0  0
 13 14  4  0  0  0
 13 18  1  0  0  0
 14 15  1  0  0  0
 15 16  1  0  0  0
 16 17  1  0  0  0
 17 18  1  0  0  0
 18 19  1  0  0  0
 19 20  1  0  0  0
 20 21  1  0  0  0
 21 22  4  0  0  0
 21 27  4  0  0  0
 22 23  4  0  0  0
 23 24  4  0  0  0
 24 25  1  0  0  0
 24 26  4  0  0  0
 26 27  4  0  0  0
  7 28  1  0  0  0
  8 29  1  0  0  0
  9 30  1  0  0  0
 15 31  1  0  0  0
 15 32  1  0  0  0
 16 33  1  0  0  0
 16 34  1  0  0  0
 17 35  1  0  0  0
 17 36  1  0  0  0
 18 37  1  0  0  0
 19 38  1  0  0  0
 19 39  1  0  0  0
 20 40  1  0  0  0
 20 41  1  0  0  0
 22 42  1  0  0  0
 23 43  1  0  0  0
 26 44  1  0  0  0
 27 45  1  0  0  0
M  END
$$$$
