5lcj_ligand
  -I-interpret- 

 76 79  0  0  0  0  0  0  0  0999 V2000
   10.9500    6.7680   44.2860 C   0  0  0  0  0
   12.1270    6.1110   44.0080 C   0  0  0  0  0
   13.0860    6.6910   43.2810 N   0  0  0  0  0
   12.8460    7.9410   42.8370 C   0  0  0  0  0
   13.8270    9.7450   41.3700 C   0  0  0  0  0
   12.6540   10.3720   40.9610 C   0  0  0  0  0
   15.0270   11.5390   40.3370 C   0  0  0  0  0
   16.2630   12.1900   39.9850 C   0  0  0  0  0
   17.2990   12.7130   39.7040 C   0  0  0  0  0
   18.5820   13.3410   39.3690 C   0  0  0  0  0
   19.7790   12.4990   39.7940 C   0  0  0  0  0
   25.0850   14.5630   40.9510 C   0  0  0  0  0
   25.3130   15.3130   42.2680 C   0  0  0  0  0
   26.3820   16.4120   42.2570 C   0  0  0  0  0
   25.8540   17.7970   42.0280 C   0  0  0  0  0
   25.2410   18.2470   40.9480 C   0  0  0  0  0
   24.8230   17.4470   39.7500 C   0  0  0  0  0
   23.6200   16.5340   39.9980 C   0  0  0  0  0
   10.7520    8.0870   43.7920 C   0  0  0  0  0
    9.6230    8.7880   44.0280 N   0  0  0  0  0
    9.8450   12.4930   43.6690 C   0  0  0  0  0
    8.7290   12.7500   42.9010 C   0  0  0  0  0
    7.9080   11.7140   42.5030 C   0  0  0  0  0
    8.1950   10.4070   42.8690 C   0  0  0  0  0
    6.7500    8.4110   43.2070 C   0  0  0  0  0
    7.0070    8.1980   44.3880 O   0  0  0  0  0
    5.7270    7.5660   42.4940 C   0  0  0  0  0
    6.0390    6.1090   42.6530 C   0  0  0  0  0
    7.3490    9.3580   42.4550 N   0  0  0  0  0
   10.1510   11.2000   44.0460 C   0  0  0  0  0
    9.3320   10.1270   43.6540 C   0  0  0  0  0
   11.7240    8.6580   43.0630 N   0  0  0  0  0
   13.8280    8.5260   42.0970 N   0  0  0  0  0
   12.7250   11.5570   40.2560 C   0  0  0  0  0
   13.8900   12.1450   39.9410 N   0  0  0  0  0
   20.8140   13.2930   40.4390 N   0  0  0  0  0
   21.8700   13.7860   39.7710 C   0  0  0  0  0
   22.0490   13.6850   38.5730 O   0  0  0  0  0
   22.7040   14.4100   40.6230 O   0  0  0  0  0
   23.9070   15.0250   40.0730 C   0  0  0  0  0
   15.0360   10.3490   41.0460 C   0  0  0  0  0
    9.7410    5.9600   45.2370 Cl  0  0  0  0  0
   12.2792    5.1005   44.3874 H   0  0  0  0  0
   11.6854    9.9305   41.1957 H   0  0  0  0  0
   18.6372   14.2919   39.8989 H   0  0  0  0  0
   18.6238   13.4589   38.2862 H   0  0  0  0  0
   20.2084   12.0472   38.8998 H   0  0  0  0  0
   19.4306   11.7538   40.5091 H   0  0  0  0  0
   24.8594   13.5341   41.2315 H   0  0  0  0  0
   25.9821   14.7315   40.3553 H   0  0  0  0  0
   25.6569   14.5662   42.9836 H   0  0  0  0  0
   24.3713   15.8119   42.4968 H   0  0  0  0  0
   27.0577   16.1893   41.4312 H   0  0  0  0  0
   26.8500   16.4094   43.2414 H   0  0  0  0  0
   25.9910   18.5097   42.8412 H   0  0  0  0  0
   25.0148   19.3130   40.9249 H   0  0  0  0  0
   25.6633   16.8075   39.4798 H   0  0  0  0  0
   24.5358   18.1555   38.9730 H   0  0  0  0  0
   22.9553   16.6726   39.1453 H   0  0  0  0  0
   23.2245   16.8147   40.9742 H   0  0  0  0  0
    8.8889    8.2959   44.5373 H   0  0  0  0  0
   10.4895   13.3151   43.9804 H   0  0  0  0  0
    8.4946   13.7732   42.6076 H   0  0  0  0  0
    7.0272   11.9246   41.8963 H   0  0  0  0  0
    5.7417    7.8156   41.4331 H   0  0  0  0  0
    4.7450    7.7648   42.9233 H   0  0  0  0  0
    7.0229    5.9014   42.2324 H   0  0  0  0  0
    6.0333    5.8510   43.7120 H   0  0  0  0  0
    5.2869    5.5185   42.1298 H   0  0  0  0  0
    7.1650    9.3081   41.4530 H   0  0  0  0  0
   11.0360   11.0098   44.6533 H   0  0  0  0  0
   14.7041    8.0051   42.0591 H   0  0  0  0  0
   11.7969   12.0348   39.9423 H   0  0  0  0  0
   20.7344   13.4827   41.4380 H   0  0  0  0  0
   24.1848   14.7323   39.0604 H   0  0  0  0  0
   15.9791    9.8922   41.3459 H   0  0  0  0  0
  2  1  4  0  0  0
 19  1  4  0  0  0
  1 42  1  0  0  0
  3  2  4  0  0  0
  4  3  4  0  0  0
  4 32  4  0  0  0
 33  4  1  0  0  0
  5  6  4  0  0  0
  5 33  1  0  0  0
 41  5  4  0  0  0
 34  6  4  0  0  0
  8  7  1  0  0  0
  7 35  4  0  0  0
  7 41  4  0  0  0
  9  8  3  0  0  0
 10  9  1  0  0  0
 11 10  1  0  0  0
 36 11  1  0  0  0
 12 13  1  0  0  0
 40 12  1  0  0  0
 13 14  1  0  0  0
 14 15  1  0  0  0
 16 15  2  0  0  0
 17 16  1  0  0  0
 18 17  1  0  0  0
 40 18  1  0  0  0
 19 20  1  0  0  0
 32 19  4  0  0  0
 20 31  1  0  0  0
 21 22  4  0  0  0
 30 21  4  0  0  0
 23 22  4  0  0  0
 24 23  4  0  0  0
 24 29  1  0  0  0
 31 24  4  0  0  0
 25 26  2  0  0  0
 25 27  1  0  0  0
 29 25  1  0  0  0
 27 28  1  0  0  0
 31 30  4  0  0  0
 35 34  4  0  0  0
 37 36  1  0  0  0
 37 38  2  0  0  0
 39 37  1  0  0  0
 39 40  1  0  0  0
  2 43  1  0  0  0
  6 44  1  0  0  0
 10 45  1  0  0  0
 10 46  1  0  0  0
 11 47  1  0  0  0
 11 48  1  0  0  0
 12 49  1  0  0  0
 12 50  1  0  0  0
 13 51  1  0  0  0
 13 52  1  0  0  0
 14 53  1  0  0  0
 14 54  1  0  0  0
 15 55  1  0  0  0
 16 56  1  0  0  0
 17 57  1  0  0  0
 17 58  1  0  0  0
 18 59  1  0  0  0
 18 60  1  0  0  0
 20 61  1  0  0  0
 21 62  1  0  0  0
 22 63  1  0  0  0
 23 64  1  0  0  0
 27 65  1  0  0  0
 27 66  1  0  0  0
 28 67  1  0  0  0
 28 68  1  0  0  0
 28 69  1  0  0  0
 29 70  1  0  0  0
 30 71  1  0  0  0
 33 72  1  0  0  0
 34 73  1  0  0  0
 36 74  1  0  0  0
 40 75  1  0  0  0
 41 76  1  0  0  0
M  END
$$$$
