4hcv_ligand
  -I-interpret- 

 71 75  0  0  0  0  0  0  0  0999 V2000
    1.4130   13.3960   15.8870 C   0  0  0  0  0
    2.6330   11.1520   14.8420 C   0  0  0  0  0
    1.2940   12.1960   16.5490 C   0  0  0  0  0
    4.3160    3.5200   24.0750 C   0  0  0  0  0
    2.1220   13.4840   14.7090 C   0  0  0  0  0
    9.1760    6.5190   23.3530 C   0  0  0  0  0
    7.6620    6.3900   23.3190 C   0  0  0  0  0
    2.8670    7.8350   19.5020 C   0  0  0  0  0
    2.1310    9.6470   18.0060 C   0  0  0  0  0
    4.9300    5.0080   22.5590 C   0  0  0  0  0
   10.2790    5.4980   20.4080 C   0  0  0  0  0
    1.4850   14.8310   12.6790 C   0  0  0  0  0
    1.0250    6.1000   18.3830 C   0  0  0  0  0
    1.8970    5.6660   19.3660 C   0  0  0  0  0
    1.0950    7.4010   17.9170 C   0  0  0  0  0
    2.7330   12.3610   14.1700 C   0  0  0  0  0
    3.6570    5.1100   22.0280 C   0  0  0  0  0
    2.8220    6.5170   19.9510 C   0  0  0  0  0
    2.0120    8.2680   18.4960 C   0  0  0  0  0
    1.9200   11.0780   16.0250 C   0  0  0  0  0
    3.7650    6.0390   20.9490 C   0  0  0  0  0
    2.6870    4.3130   22.6240 C   0  0  0  0  0
    9.8270    5.2880   22.7580 C   0  0  0  0  0
    7.9340    4.9380   21.2440 C   0  0  0  0  0
    7.1560    6.0800   21.9110 C   0  0  0  0  0
   10.8060    4.2690   18.4420 C   0  0  0  0  0
    3.3510   15.6550   14.1860 C   0  0  0  0  0
    9.8170    5.2880   19.0050 C   0  0  0  0  0
    2.1020   14.8330   14.0620 C   0  0  0  0  0
    5.3350    4.2210   23.5710 N   0  0  0  0  0
    3.0380    3.5230   23.6600 N   0  0  0  0  0
    5.0280    6.4630   20.8630 N   0  0  0  0  0
    5.7220    5.8540   21.8370 N   0  0  0  0  0
    9.3770    5.1410   21.3980 N   0  0  0  0  0
    1.3510    4.3400   22.2320 N   0  0  0  0  0
    1.7860    9.8410   16.6920 N   0  0  0  0  0
    2.5370   10.5290   18.7500 O   0  0  0  0  0
   11.4210    5.9110   20.6140 O   0  0  0  0  0
    0.9408   14.2877   16.2993 H   0  0  0  0  0
    3.1154   10.2617   14.4387 H   0  0  0  0  0
    0.7164   12.1266   17.4708 H   0  0  0  0  0
    4.5476    2.8712   24.9197 H   0  0  0  0  0
    9.4991    6.6248   24.3886 H   0  0  0  0  0
    9.4701    7.3918   22.7700 H   0  0  0  0  0
    7.2282    7.3369   23.6404 H   0  0  0  0  0
    7.3710    5.5717   23.9777 H   0  0  0  0  0
    3.5789    8.5324   19.9436 H   0  0  0  0  0
    1.2227   15.8510   12.3981 H   0  0  0  0  0
    2.2019   14.4287   11.9633 H   0  0  0  0  0
    0.5879   14.2119   12.6837 H   0  0  0  0  0
    0.2814    5.4155   17.9749 H   0  0  0  0  0
    1.8554    4.6259   19.6894 H   0  0  0  0  0
    0.4431    7.7386   17.1113 H   0  0  0  0  0
    3.2838   12.4280   13.2318 H   0  0  0  0  0
    9.5517    4.4065   23.3370 H   0  0  0  0  0
   10.9115    5.3947   22.7802 H   0  0  0  0  0
    7.6909    4.9172   20.1817 H   0  0  0  0  0
    7.6564    3.9965   21.7180 H   0  0  0  0  0
    7.3496    6.9894   21.3422 H   0  0  0  0  0
   11.8144    4.6803   18.4866 H   0  0  0  0  0
   10.7589    3.3542   19.0327 H   0  0  0  0  0
   10.5479    4.0480   17.4063 H   0  0  0  0  0
    4.1072   15.2700   13.5018 H   0  0  0  0  0
    3.1279   16.6924   13.9366 H   0  0  0  0  0
    3.7221   15.5976   15.2093 H   0  0  0  0  0
    9.8041    6.2140   18.4302 H   0  0  0  0  0
    8.7867    4.9357   18.9566 H   0  0  0  0  0
    1.4099   15.3934   14.6905 H   0  0  0  0  0
    1.0525    4.9617   21.4805 H   0  0  0  0  0
    0.6710    3.7381   22.6964 H   0  0  0  0  0
    1.4127    9.0488   16.1691 H   0  0  0  0  0
  3  1  4  0  0  0
  1  5  4  0  0  0
  2 16  4  0  0  0
 20  2  4  0  0  0
 20  3  4  0  0  0
 30  4  4  0  0  0
  4 31  4  0  0  0
 16  5  4  0  0  0
  5 29  1  0  0  0
  7  6  1  0  0  0
  6 23  1  0  0  0
 25  7  1  0  0  0
 18  8  4  0  0  0
  8 19  4  0  0  0
 19  9  1  0  0  0
  9 36  1  0  0  0
  9 37  2  0  0  0
 10 17  4  0  0  0
 10 30  4  0  0  0
 33 10  4  0  0  0
 11 28  1  0  0  0
 34 11  1  0  0  0
 11 38  2  0  0  0
 29 12  1  0  0  0
 14 13  4  0  0  0
 13 15  4  0  0  0
 18 14  4  0  0  0
 19 15  4  0  0  0
 17 21  4  0  0  0
 17 22  4  0  0  0
 21 18  1  0  0  0
 36 20  1  0  0  0
 21 32  4  0  0  0
 22 31  4  0  0  0
 22 35  1  0  0  0
 34 23  1  0  0  0
 25 24  1  0  0  0
 24 34  1  0  0  0
 25 33  1  0  0  0
 28 26  1  0  0  0
 29 27  1  0  0  0
 32 33  4  0  0  0
  1 39  1  0  0  0
  2 40  1  0  0  0
  3 41  1  0  0  0
  4 42  1  0  0  0
  6 43  1  0  0  0
  6 44  1  0  0  0
  7 45  1  0  0  0
  7 46  1  0  0  0
  8 47  1  0  0  0
 12 48  1  0  0  0
 12 49  1  0  0  0
 12 50  1  0  0  0
 13 51  1  0  0  0
 14 52  1  0  0  0
 15 53  1  0  0  0
 16 54  1  0  0  0
 23 55  1  0  0  0
 23 56  1  0  0  0
 24 57  1  0  0  0
 24 58  1  0  0  0
 25 59  1  0  0  0
 26 60  1  0  0  0
 26 61  1  0  0  0
 26 62  1  0  0  0
 27 63  1  0  0  0
 27 64  1  0  0  0
 27 65  1  0  0  0
 28 66  1  0  0  0
 28 67  1  0  0  0
 29 68  1  0  0  0
 35 69  1  0  0  0
 35 70  1  0  0  0
 36 71  1  0  0  0
M  END
$$$$
