4n4v_ligand
  -I-interpret- 

 62 66  0  0  0  0  0  0  0  0999 V2000
   -7.1940   46.2450   28.4490 C   0  0  0  0  0
   -7.6030   46.7400   29.7560 C   0  0  0  0  0
   -6.7110   46.5230   30.9000 C   0  0  0  0  0
   -5.4260   45.8300   30.7980 C   0  0  0  0  0
   -5.0070   45.3300   29.4890 C   0  0  0  0  0
   -5.9000   45.5420   28.3170 C   0  0  0  0  0
   -5.5880   45.0560   26.9480 C   0  0  0  0  0
   -4.3340   45.6840   26.2640 C   0  0  0  0  0
   -3.7490   46.9810   26.7470 C   0  0  0  0  0
   -4.0580   45.6700   24.7780 C   0  0  0  0  0
   -3.3460   44.6000   26.7270 O   0  0  0  0  0
   -4.0760   43.3540   26.8780 C   0  0  0  0  0
   -3.6480   42.2580   26.9070 O   0  0  0  0  0
   -5.3210   43.6290   26.9140 N   0  0  0  0  0
   -6.1080   42.4550   26.8860 C   0  0  0  0  0
   -6.4270   42.0410   28.3250 C   0  0  0  0  0
   -7.5850   41.1180   28.4080 C   0  0  0  0  0
   -8.6250   41.2640   27.2920 C   0  0  0  0  0
   -8.3450   41.8550   25.9100 C   0  0  0  0  0
   -7.2010   42.8230   25.8780 C   0  0  0  0  0
   -9.4110   40.0740   27.2950 C   0  0  0  0  0
  -10.6270   40.1790   28.0580 C   0  0  0  0  0
  -11.4930   39.0570   28.1880 C   0  0  0  0  0
  -10.9890   37.8920   27.4940 C   0  0  0  0  0
   -9.8070   37.8540   26.7660 N   0  0  0  0  0
   -8.9700   38.8960   26.6160 C   0  0  0  0  0
  -13.2950   40.3870   29.5850 N   0  0  0  0  0
  -14.5900   40.4870   30.1330 C   0  0  0  0  0
  -15.5460   39.4130   30.0610 C   0  0  0  0  0
  -15.0600   38.2270   29.3810 C   0  0  0  0  0
  -13.7710   38.1380   28.8390 N   0  0  0  0  0
  -12.8170   39.1980   28.8990 C   0  0  0  0  0
  -11.6350   36.7020   27.5350 N   0  0  0  0  0
   -7.8339   46.3909   27.5788 H   0  0  0  0  0
   -8.5522   47.2609   29.8816 H   0  0  0  0  0
   -7.0210   46.8969   31.8758 H   0  0  0  0  0
   -4.7963   45.6899   31.6766 H   0  0  0  0  0
   -4.0559   44.8103   29.3734 H   0  0  0  0  0
   -6.4915   45.3501   26.4139 H   0  0  0  0  0
   -3.6604   46.9560   27.8331 H   0  0  0  0  0
   -2.7630   47.1207   26.3039 H   0  0  0  0  0
   -4.4007   47.8038   26.4532 H   0  0  0  0  0
   -3.0114   45.9185   24.6018 H   0  0  0  0  0
   -4.2691   44.6775   24.3799 H   0  0  0  0  0
   -4.6951   46.4039   24.2845 H   0  0  0  0  0
   -5.6799   41.5170   26.5325 H   0  0  0  0  0
   -6.6744   42.9418   28.8867 H   0  0  0  0  0
   -5.5557   41.5238   28.7268 H   0  0  0  0  0
   -8.0978   41.3461   29.3424 H   0  0  0  0  0
   -7.1835   40.1078   28.3284 H   0  0  0  0  0
   -9.1465   42.1757   27.5833 H   0  0  0  0  0
   -9.2380   42.4013   25.6062 H   0  0  0  0  0
   -8.0843   41.0262   25.2518 H   0  0  0  0  0
   -6.7645   42.8012   24.8795 H   0  0  0  0  0
   -7.5834   43.8106   26.1360 H   0  0  0  0  0
  -10.8859   41.1224   28.5386 H   0  0  0  0  0
   -8.0487   38.8472   26.0355 H   0  0  0  0  0
  -14.8786   41.4130   30.6303 H   0  0  0  0  0
  -16.5491   39.4847   30.4814 H   0  0  0  0  0
  -15.7258   37.3690   29.2879 H   0  0  0  0  0
  -12.5013   36.6100   28.0655 H   0  0  0  0  0
  -11.2551   35.8980   27.0353 H   0  0  0  0  0
  1  2  4  0  0  0
  6  1  4  0  0  0
  2  3  4  0  0  0
  4  3  4  0  0  0
  5  4  4  0  0  0
  6  5  4  0  0  0
  7  6  1  0  0  0
  7  8  1  0  0  0
 14  7  1  0  0  0
  8  9  1  0  0  0
  8 10  1  0  0  0
 11  8  1  0  0  0
 12 11  1  0  0  0
 12 13  2  0  0  0
 14 12  1  0  0  0
 15 14  1  0  0  0
 16 15  1  0  0  0
 20 15  1  0  0  0
 17 16  1  0  0  0
 18 17  1  0  0  0
 18 19  1  0  0  0
 21 18  1  0  0  0
 19 20  1  0  0  0
 22 21  4  0  0  0
 21 26  4  0  0  0
 23 22  4  0  0  0
 23 24  4  0  0  0
 32 23  1  0  0  0
 24 25  4  0  0  0
 24 33  1  0  0  0
 25 26  4  0  0  0
 27 28  4  0  0  0
 27 32  4  0  0  0
 28 29  4  0  0  0
 29 30  4  0  0  0
 30 31  4  0  0  0
 31 32  4  0  0  0
  1 34  1  0  0  0
  2 35  1  0  0  0
  3 36  1  0  0  0
  4 37  1  0  0  0
  5 38  1  0  0  0
  7 39  1  0  0  0
  9 40  1  0  0  0
  9 41  1  0  0  0
  9 42  1  0  0  0
 10 43  1  0  0  0
 10 44  1  0  0  0
 10 45  1  0  0  0
 15 46  1  0  0  0
 16 47  1  0  0  0
 16 48  1  0  0  0
 17 49  1  0  0  0
 17 50  1  0  0  0
 18 51  1  0  0  0
 19 52  1  0  0  0
 19 53  1  0  0  0
 20 54  1  0  0  0
 20 55  1  0  0  0
 22 56  1  0  0  0
 26 57  1  0  0  0
 28 58  1  0  0  0
 29 59  1  0  0  0
 30 60  1  0  0  0
 33 61  1  0  0  0
 33 62  1  0  0  0
M  END
$$$$
