2hai_ligand
  -I-interpret- 

 53 55  0  0  0  0  0  0  0  0999 V2000
   39.1110   11.5860   60.6420 F   0  0  0  0  0
   40.2650   11.9050   60.0460 C   0  0  0  0  0
   41.4800   11.3840   60.5740 C   0  0  0  0  0
   41.4390   10.5910   61.6780 O   0  0  0  0  0
   42.0300   11.0530   62.8990 C   0  0  0  0  0
   41.2620   12.2940   63.4310 C   0  0  0  0  0
   42.0010    9.9160   63.9060 C   0  0  0  0  0
   42.7100   11.7240   59.9480 C   0  0  0  0  0
   42.7740   12.5580   58.8210 C   0  0  0  0  0
   41.5580   13.0580   58.2960 C   0  0  0  0  0
   40.3320   12.7240   58.9270 C   0  0  0  0  0
   41.5920   13.9510   57.0900 C   0  0  0  0  0
   41.1920   13.1240   55.8090 C   0  0  0  0  0
   40.9750   13.9630   54.5430 C   0  0  0  0  0
   42.1770   14.8980   54.1930 C   0  0  0  0  0
   39.7950   14.9540   54.6850 C   0  0  0  0  0
   38.4350   14.3430   55.1080 C   0  0  0  0  0
   39.4140   15.6830   53.3670 C   0  0  0  0  0
   38.1600   16.4720   53.8180 C   0  0  0  0  0
   37.4910   15.4880   54.7950 C   0  0  0  0  0
   40.6560   13.1010   53.3910 O   0  0  0  0  0
   41.6990   12.3680   52.8820 C   0  0  0  0  0
   41.5120   11.2790   52.3380 O   0  0  0  0  0
   43.0780   12.9270   53.0080 C   0  0  0  0  0
   43.3370   14.0930   53.7090 C   0  0  0  0  0
   44.6150   14.5000   53.9750 O   0  0  0  0  0
   43.0629   11.3564   62.7280 H   0  0  0  0  0
   40.2234   12.0231   63.6208 H   0  0  0  0  0
   41.7245   12.6366   64.3567 H   0  0  0  0  0
   41.3011   13.0901   62.6875 H   0  0  0  0  0
   42.4682   10.2430   64.8349 H   0  0  0  0  0
   40.9672    9.6296   64.0990 H   0  0  0  0  0
   42.5469    9.0624   63.5041 H   0  0  0  0  0
   43.6368   11.3226   60.3579 H   0  0  0  0  0
   43.7303   12.8128   58.3641 H   0  0  0  0  0
   39.4057   13.1265   58.5169 H   0  0  0  0  0
   42.5980   14.3511   56.9635 H   0  0  0  0  0
   40.8873   14.7713   57.2265 H   0  0  0  0  0
   40.2432   12.6356   56.0313 H   0  0  0  0  0
   42.0183   12.4445   55.6004 H   0  0  0  0  0
   42.4732   15.4461   55.0874 H   0  0  0  0  0
   41.8722   15.5900   53.4079 H   0  0  0  0  0
   40.2101   15.6056   55.4539 H   0  0  0  0  0
   38.4029   14.0177   56.1478 H   0  0  0  0  0
   38.1890   13.4157   54.5906 H   0  0  0  0  0
   39.2343   15.0114   52.5275 H   0  0  0  0  0
   40.2090   16.3107   52.9644 H   0  0  0  0  0
   37.5135   16.7619   52.9897 H   0  0  0  0  0
   38.3976   17.4340   54.2720 H   0  0  0  0  0
   37.2451   16.0120   55.7186 H   0  0  0  0  0
   36.5848   15.0903   54.3381 H   0  0  0  0  0
   43.9064   12.4010   52.5335 H   0  0  0  0  0
   44.5914   15.3241   54.4668 H   0  0  0  0  0
  1  2  1  0  0  0
  2  3  4  0  0  0
  2 11  4  0  0  0
  3  4  1  0  0  0
  3  8  4  0  0  0
  4  5  1  0  0  0
  5  6  1  0  0  0
  5  7  1  0  0  0
  8  9  4  0  0  0
  9 10  4  0  0  0
 10 11  4  0  0  0
 10 12  1  0  0  0
 12 13  1  0  0  0
 13 14  1  0  0  0
 14 15  1  0  0  0
 14 16  1  0  0  0
 14 21  1  0  0  0
 15 25  1  0  0  0
 16 17  1  0  0  0
 16 18  1  0  0  0
 17 20  1  0  0  0
 18 19  1  0  0  0
 19 20  1  0  0  0
 21 22  1  0  0  0
 22 23  2  0  0  0
 22 24  1  0  0  0
 24 25  2  0  0  0
 25 26  1  0  0  0
  5 27  1  0  0  0
  6 28  1  0  0  0
  6 29  1  0  0  0
  6 30  1  0  0  0
  7 31  1  0  0  0
  7 32  1  0  0  0
  7 33  1  0  0  0
  8 34  1  0  0  0
  9 35  1  0  0  0
 11 36  1  0  0  0
 12 37  1  0  0  0
 12 38  1  0  0  0
 13 39  1  0  0  0
 13 40  1  0  0  0
 15 41  1  0  0  0
 15 42  1  0  0  0
 16 43  1  0  0  0
 17 44  1  0  0  0
 17 45  1  0  0  0
 18 46  1  0  0  0
 18 47  1  0  0  0
 19 48  1  0  0  0
 19 49  1  0  0  0
 20 50  1  0  0  0
 20 51  1  0  0  0
 24 52  1  0  0  0
 26 53  1  0  0  0
M  END
$$$$
