5eds_ligand
  -I-interpret- 

 50 53  0  0  0  0  0  0  0  0999 V2000
   16.7290   22.1290   19.6290 C   0  0  0  0  0
   18.3800   21.5970   20.0450 S   0  0  0  0  0
   19.2870   21.8020   18.8610 O   0  0  0  0  0
   18.9030   22.3700   21.2230 O   0  0  0  0  0
   18.2930   19.8950   20.4560 C   0  0  0  0  0
   19.1250   18.9760   19.8180 C   0  0  0  0  0
   17.3790   19.4640   21.4200 C   0  0  0  0  0
   17.2910   18.1120   21.7440 C   0  0  0  0  0
   18.1200   17.1950   21.1010 C   0  0  0  0  0
   19.0410   17.6270   20.1450 C   0  0  0  0  0
   19.8400   16.7670   19.5250 N   0  0  0  0  0
   19.6560   16.3620   18.2830 C   0  0  0  0  0
   18.6920   16.6430   17.3190 C   0  0  0  0  0
   18.7670   16.0360   16.0660 C   0  0  0  0  0
   17.8370   16.2970   15.1250 F   0  0  0  0  0
   19.8050   15.1510   15.7840 C   0  0  0  0  0
   20.7700   14.8820   16.7500 C   0  0  0  0  0
   20.6990   15.4860   18.0030 C   0  0  0  0  0
   21.4730   15.4020   19.0860 N   0  0  0  0  0
   20.9360   16.1830   20.0170 C   0  0  0  0  0
   21.5270   16.3850   21.4240 C   0  0  0  0  0
   22.6420   17.4160   21.2640 C   0  0  0  0  0
   22.0950   15.1400   22.0150 N   0  0  0  0  0
   21.3480   14.1470   22.5280 C   0  0  0  0  0
   20.0160   14.2560   22.5140 N   0  0  0  0  0
   19.2320   13.2960   23.0020 C   0  0  0  0  0
   19.7100   12.1800   23.5270 N   0  0  0  0  0
   21.0370   11.9960   23.5720 C   0  0  0  0  0
   21.5220   10.8740   24.0880 N   0  0  0  0  0
   21.8940   12.9760   23.0740 C   0  0  0  0  0
   23.2970   12.7380   23.1370 C   0  0  0  0  0
   24.4220   12.5580   23.1840 N   0  0  0  0  0
   16.7456   23.1857   19.3620 H   0  0  0  0  0
   16.3625   21.5453   18.7846 H   0  0  0  0  0
   16.0736   21.9800   20.4871 H   0  0  0  0  0
   19.8383   19.3135   19.0661 H   0  0  0  0  0
   16.7336   20.1865   21.9196 H   0  0  0  0  0
   16.5781   17.7736   22.4959 H   0  0  0  0  0
   18.0490   16.1352   21.3457 H   0  0  0  0  0
   17.8807   17.3356   17.5430 H   0  0  0  0  0
   19.8614   14.6696   14.8077 H   0  0  0  0  0
   21.5857   14.1950   16.5248 H   0  0  0  0  0
   20.7347   16.7023   22.1019 H   0  0  0  0  0
   23.3917   17.0339   20.5711 H   0  0  0  0  0
   22.2239   18.3438   20.8736 H   0  0  0  0  0
   23.1035   17.6036   22.2335 H   0  0  0  0  0
   23.1095   15.0354   22.0311 H   0  0  0  0  0
   18.1516   13.4359   22.9672 H   0  0  0  0  0
   20.8866   10.1609   24.4459 H   0  0  0  0  0
   22.5302   10.7246   24.1268 H   0  0  0  0  0
  1  2  1  0  0  0
  2  3  2  0  0  0
  2  4  2  0  0  0
  2  5  1  0  0  0
  5  6  4  0  0  0
  5  7  4  0  0  0
  6 10  4  0  0  0
  7  8  4  0  0  0
  8  9  4  0  0  0
  9 10  4  0  0  0
 10 11  1  0  0  0
 11 12  4  0  0  0
 11 20  4  0  0  0
 12 13  4  0  0  0
 12 18  4  0  0  0
 13 14  4  0  0  0
 14 15  1  0  0  0
 14 16  4  0  0  0
 16 17  4  0  0  0
 17 18  4  0  0  0
 18 19  4  0  0  0
 19 20  4  0  0  0
 20 21  1  0  0  0
 21 22  1  0  0  0
 21 23  1  0  0  0
 23 24  1  0  0  0
 24 25  4  0  0  0
 24 30  4  0  0  0
 25 26  4  0  0  0
 26 27  4  0  0  0
 27 28  4  0  0  0
 28 29  1  0  0  0
 28 30  4  0  0  0
 30 31  1  0  0  0
 31 32  3  0  0  0
  1 33  1  0  0  0
  1 34  1  0  0  0
  1 35  1  0  0  0
  6 36  1  0  0  0
  7 37  1  0  0  0
  8 38  1  0  0  0
  9 39  1  0  0  0
 13 40  1  0  0  0
 16 41  1  0  0  0
 17 42  1  0  0  0
 21 43  1  0  0  0
 22 44  1  0  0  0
 22 45  1  0  0  0
 22 46  1  0  0  0
 23 47  1  0  0  0
 26 48  1  0  0  0
 29 49  1  0  0  0
 29 50  1  0  0  0
M  END
$$$$
