6h7z_ligand
  -I-interpret- 

 54 54  0  0  0  0  0  0  0  0999 V2000
   13.0120   46.9510   39.2630 O   0  0  0  0  0
   13.8200   47.4770   40.0940 C   0  0  0  0  0
   13.8360   48.7140   40.3610 O   0  0  0  0  0
   15.0330   46.6970   40.6550 C   0  0  0  0  0
   14.7780   45.2220   40.8720 C   0  0  0  0  0
   16.1150   44.5170   41.2080 C   0  0  0  0  0
   17.0750   44.6450   40.0360 C   0  0  0  0  0
   17.9230   45.5960   40.0580 O   0  0  0  0  0
   16.8780   43.8950   39.0220 O   0  0  0  0  0
   16.7890   45.1010   42.3430 N   0  0  0  0  0
   17.9720   44.6730   42.7370 C   0  0  0  0  0
   18.4360   43.6030   42.2430 O   0  0  0  0  0
   18.5760   45.4590   43.6060 N   0  0  0  0  0
   19.7890   45.0560   44.2410 C   0  0  0  0  0
   20.0060   45.8110   45.5630 C   0  0  0  0  0
   20.7220   45.2480   46.4030 O   0  0  0  0  0
   19.4860   46.9610   45.6460 O   0  0  0  0  0
   20.9730   45.3500   43.2550 C   0  0  0  0  0
   21.3700   46.8410   43.1930 C   0  0  0  0  0
   22.6180   47.0230   42.3180 C   0  0  0  0  0
   23.9120   47.0830   43.0830 C   0  0  0  0  0
   23.8460   47.0210   44.2980 O   0  0  0  0  0
   25.0540   47.3700   42.4080 N   0  0  0  0  0
   26.2850   47.4210   43.2080 C   0  0  0  0  0
   25.1200   47.4510   41.0520 C   0  0  0  0  0
   25.2650   48.6630   40.3780 C   0  0  0  0  0
   25.3130   48.6760   38.9960 C   0  0  0  0  0
   25.2250   47.4570   38.3210 C   0  0  0  0  0
   25.2500   47.4290   37.1050 F   0  0  0  0  0
   25.0930   46.2910   38.9520 N   0  0  0  0  0
   25.0410   46.2810   40.3210 C   0  0  0  0  0
   13.1741   46.0060   39.2151 H   0  0  0  0  0
   15.2696   47.1282   41.6278 H   0  0  0  0  0
   15.8346   46.7794   39.9210 H   0  0  0  0  0
   14.3532   44.7876   39.9670 H   0  0  0  0  0
   14.0778   45.0897   41.6968 H   0  0  0  0  0
   15.8573   43.4812   41.4291 H   0  0  0  0  0
   16.1977   43.2502   39.2296 H   0  0  0  0  0
   16.3397   45.8623   42.8519 H   0  0  0  0  0
   18.1706   46.3683   43.8278 H   0  0  0  0  0
   19.7381   43.9932   44.4775 H   0  0  0  0  0
   18.9807   47.1407   44.8498 H   0  0  0  0  0
   20.6477   45.0566   42.2569 H   0  0  0  0  0
   21.8408   44.7952   43.6117 H   0  0  0  0  0
   21.5872   47.1940   44.2011 H   0  0  0  0  0
   20.5468   47.4112   42.7624 H   0  0  0  0  0
   22.5087   47.9759   41.8002 H   0  0  0  0  0
   22.6759   46.1558   41.6602 H   0  0  0  0  0
   26.1869   48.1895   43.9747 H   0  0  0  0  0
   26.4497   46.4529   43.6810 H   0  0  0  0  0
   27.1285   47.6583   42.5597 H   0  0  0  0  0
   25.3401   49.5954   40.9375 H   0  0  0  0  0
   25.4167   49.6127   38.4484 H   0  0  0  0  0
   24.9351   45.3307   40.8443 H   0  0  0  0  0
  1  2  1  0  0  0
  2  3  2  0  0  0
  2  4  1  0  0  0
  4  5  1  0  0  0
  5  6  1  0  0  0
  6  7  1  0  0  0
  6 10  1  0  0  0
  7  8  2  0  0  0
  7  9  1  0  0  0
 10 11  1  0  0  0
 11 12  2  0  0  0
 11 13  1  0  0  0
 13 14  1  0  0  0
 14 15  1  0  0  0
 14 18  1  0  0  0
 15 16  2  0  0  0
 15 17  1  0  0  0
 18 19  1  0  0  0
 19 20  1  0  0  0
 20 21  1  0  0  0
 21 22  2  0  0  0
 21 23  1  0  0  0
 23 24  1  0  0  0
 23 25  1  0  0  0
 25 26  4  0  0  0
 25 31  4  0  0  0
 26 27  4  0  0  0
 27 28  4  0  0  0
 28 29  1  0  0  0
 28 30  4  0  0  0
 30 31  4  0  0  0
  1 32  1  0  0  0
  4 33  1  0  0  0
  4 34  1  0  0  0
  5 35  1  0  0  0
  5 36  1  0  0  0
  6 37  1  0  0  0
  9 38  1  0  0  0
 10 39  1  0  0  0
 13 40  1  0  0  0
 14 41  1  0  0  0
 17 42  1  0  0  0
 18 43  1  0  0  0
 18 44  1  0  0  0
 19 45  1  0  0  0
 19 46  1  0  0  0
 20 47  1  0  0  0
 20 48  1  0  0  0
 24 49  1  0  0  0
 24 50  1  0  0  0
 24 51  1  0  0  0
 26 52  1  0  0  0
 27 53  1  0  0  0
 31 54  1  0  0  0
M  END
$$$$
