1eed_ligand
  -I-interpret- 

100101  0  0  0  0  0  0  0  0999 V2000
    2.1180   27.1890   20.3310 O   0  0  0  0  0
    2.6590   26.4090   19.4870 C   0  0  0  0  0
    2.2040   25.0180   19.3660 O   0  0  0  0  0
    1.3620   24.3570   20.3580 C   0  0  0  0  0
    0.1070   25.1870   20.6420 C   0  0  0  0  0
    2.1620   24.1560   21.6470 C   0  0  0  0  0
    0.9730   22.9710   19.8170 C   0  0  0  0  0
    3.4060   32.1580   15.8780 C   0  0  0  0  0
    3.0450   33.1230   16.5620 O   0  0  0  0  0
    2.7790   30.7700   16.1010 C   0  0  0  0  0
    3.2570   30.1720   17.4450 C   0  0  0  0  0
    3.8500   28.7740   17.2040 C   0  0  0  0  0
    2.8660   27.9860   16.5620 O   0  0  0  0  0
    4.2950   28.0940   18.5170 C   0  0  0  0  0
    3.6650   26.7350   18.6380 N   0  0  0  0  0
    5.8330   27.9980   18.4050 C   0  0  0  0  0
    6.5580   27.5970   19.6950 C   0  0  0  0  0
    5.8880   26.8690   20.6830 C   0  0  0  0  0
    7.9030   27.9550   19.8770 C   0  0  0  0  0
    6.5620   26.4920   21.8510 C   0  0  0  0  0
    8.5770   27.5760   21.0440 C   0  0  0  0  0
    7.9060   26.8450   22.0310 C   0  0  0  0  0
    4.3240   32.2220   14.9150 N   0  0  0  0  0
    5.0780   33.4630   14.6120 C   0  0  0  0  0
    6.5750   33.2520   14.9320 C   0  0  0  0  0
    6.8280   32.5940   16.3040 C   0  0  0  0  0
    6.3260   33.5220   17.4150 C   0  0  0  0  0
    8.2110   32.3510   16.4950 C   0  0  0  0  0
    6.5210   32.8820   18.7930 C   0  0  0  0  0
    8.4670   31.6490   17.8380 C   0  0  0  0  0
    7.9890   32.5210   18.9980 C   0  0  0  0  0
    4.9610   33.8490   13.1280 C   0  0  0  0  0
    5.3820   32.7690   12.3130 O   0  0  0  0  0
    3.5150   34.2070   12.7690 C   0  0  0  0  0
    3.2000   35.6310   13.2290 C   0  0  0  0  0
    2.9290   35.8620   14.4140 O   0  0  0  0  0
    3.4250   36.6090   12.3300 N   0  0  0  0  0
    3.2460   38.0170   12.6820 C   0  0  0  0  0
    1.7700   38.2940   12.9820 C   0  0  0  0  0
    0.8940   38.0090   12.1660 O   0  0  0  0  0
    3.7010   38.8890   11.5240 C   0  0  0  0  0
    3.5780   40.3810   11.8720 C   0  0  0  0  0
    4.1390   40.7330   13.1560 C   0  0  0  0  0
    3.9130   41.3670   10.7810 C   0  0  0  0  0
    1.3890   38.8490   14.1050 O   0  0  0  0  0
   -0.4616   25.3105   19.7203 H   0  0  0  0  0
   -0.5063   24.6741   21.3829 H   0  0  0  0  0
    0.3987   26.1652   21.0243 H   0  0  0  0  0
    1.5479   23.6264   22.3754 H   0  0  0  0  0
    3.0564   23.5718   21.4306 H   0  0  0  0  0
    2.4495   25.1272   22.0499 H   0  0  0  0  0
    1.8759   22.3952   19.6137 H   0  0  0  0  0
    0.3674   22.4498   20.5585 H   0  0  0  0  0
    0.4009   23.0890   18.8967 H   0  0  0  0  0
    3.0833   30.1085   15.2899 H   0  0  0  0  0
    1.6938   30.8700   16.1229 H   0  0  0  0  0
    2.4115   30.0944   18.1286 H   0  0  0  0  0
    4.0189   30.8192   17.8794 H   0  0  0  0  0
    4.7403   28.8730   16.5829 H   0  0  0  0  0
    3.2163   27.1067   16.4017 H   0  0  0  0  0
    3.9914   28.6486   19.4049 H   0  0  0  0  0
    4.0235   25.9972   18.0318 H   0  0  0  0  0
    6.1903   28.9936   18.1419 H   0  0  0  0  0
    6.0453   27.2198   17.6720 H   0  0  0  0  0
    4.8421   26.5952   20.5441 H   0  0  0  0  0
    8.4228   28.5283   19.1094 H   0  0  0  0  0
    6.0406   25.9233   22.6210 H   0  0  0  0  0
    9.6228   27.8498   21.1837 H   0  0  0  0  0
    8.4294   26.5500   22.9405 H   0  0  0  0  0
    4.5160   31.3851   14.3645 H   0  0  0  0  0
    4.6539   34.2599   15.2229 H   0  0  0  0  0
    7.0466   34.2346   14.9494 H   0  0  0  0  0
    6.9806   32.5856   14.1708 H   0  0  0  0  0
    6.2938   31.6444   16.3366 H   0  0  0  0  0
    5.2628   33.7076   17.2624 H   0  0  0  0  0
    6.8933   34.4520   17.3774 H   0  0  0  0  0
    8.7371   33.3057   16.4937 H   0  0  0  0  0
    8.5671   31.7073   15.6907 H   0  0  0  0  0
    5.9170   31.9769   18.8566 H   0  0  0  0  0
    6.2149   33.5896   19.5635 H   0  0  0  0  0
    9.5370   31.4715   17.9462 H   0  0  0  0  0
    7.9196   30.7066   17.8547 H   0  0  0  0  0
    8.1008   31.9734   19.9338 H   0  0  0  0  0
    8.5850   33.4328   19.0362 H   0  0  0  0  0
    5.5965   34.7174   12.9547 H   0  0  0  0  0
    5.3058   33.0182   11.3890 H   0  0  0  0  0
    2.8390   33.5114   13.2663 H   0  0  0  0  0
    3.3869   34.1423   11.6885 H   0  0  0  0  0
    3.7256   36.3629   11.3869 H   0  0  0  0  0
    3.8402   38.2451   13.5669 H   0  0  0  0  0
    3.0694   38.6793   10.6607 H   0  0  0  0  0
    4.7462   38.6662   11.3097 H   0  0  0  0  0
    2.4983   40.4957   11.9675 H   0  0  0  0  0
    3.6264   40.1757   13.9401 H   0  0  0  0  0
    5.2005   40.4857   13.1674 H   0  0  0  0  0
    4.0118   41.8021   13.3258 H   0  0  0  0  0
    4.9468   41.2223   10.4672 H   0  0  0  0  0
    3.2484   41.2071    9.9320 H   0  0  0  0  0
    3.7851   42.3816   11.1582 H   0  0  0  0  0
    2.1584   39.0216   14.6525 H   0  0  0  0  0
 37 38  1  0  0  0
 38 41  1  0  0  0
 38 39  1  0  0  0
 39 40  2  0  0  0
 39 45  1  0  0  0
 41 42  1  0  0  0
 42 43  1  0  0  0
 42 44  1  0  0  0
  2  1  2  0  0  0
  2  3  1  0  0  0
  3  4  1  0  0  0
  4  5  1  0  0  0
  4  6  1  0  0  0
  4  7  1  0  0  0
  8  9  2  0  0  0
  8 10  1  0  0  0
 23  8  1  0  0  0
 10 11  1  0  0  0
 11 12  1  0  0  0
 12 13  1  0  0  0
 12 14  1  0  0  0
 14 15  1  0  0  0
 14 16  1  0  0  0
 15  2  1  0  0  0
 16 17  1  0  0  0
 17 18  4  0  0  0
 17 19  4  0  0  0
 18 20  4  0  0  0
 19 21  4  0  0  0
 20 22  4  0  0  0
 21 22  4  0  0  0
 24 23  1  0  0  0
 24 25  1  0  0  0
 32 24  1  0  0  0
 25 26  1  0  0  0
 26 27  1  0  0  0
 26 28  1  0  0  0
 27 29  1  0  0  0
 28 30  1  0  0  0
 29 31  1  0  0  0
 30 31  1  0  0  0
 32 33  1  0  0  0
 34 32  1  0  0  0
 35 34  1  0  0  0
 35 36  2  0  0  0
 35 37  1  0  0  0
  5 46  1  0  0  0
  5 47  1  0  0  0
  5 48  1  0  0  0
  6 49  1  0  0  0
  6 50  1  0  0  0
  6 51  1  0  0  0
  7 52  1  0  0  0
  7 53  1  0  0  0
  7 54  1  0  0  0
 10 55  1  0  0  0
 10 56  1  0  0  0
 11 57  1  0  0  0
 11 58  1  0  0  0
 12 59  1  0  0  0
 13 60  1  0  0  0
 14 61  1  0  0  0
 15 62  1  0  0  0
 16 63  1  0  0  0
 16 64  1  0  0  0
 18 65  1  0  0  0
 19 66  1  0  0  0
 20 67  1  0  0  0
 21 68  1  0  0  0
 22 69  1  0  0  0
 23 70  1  0  0  0
 24 71  1  0  0  0
 25 72  1  0  0  0
 25 73  1  0  0  0
 26 74  1  0  0  0
 27 75  1  0  0  0
 27 76  1  0  0  0
 28 77  1  0  0  0
 28 78  1  0  0  0
 29 79  1  0  0  0
 29 80  1  0  0  0
 30 81  1  0  0  0
 30 82  1  0  0  0
 31 83  1  0  0  0
 31 84  1  0  0  0
 32 85  1  0  0  0
 33 86  1  0  0  0
 34 87  1  0  0  0
 34 88  1  0  0  0
 37 89  1  0  0  0
 38 90  1  0  0  0
 41 91  1  0  0  0
 41 92  1  0  0  0
 42 93  1  0  0  0
 43 94  1  0  0  0
 43 95  1  0  0  0
 43 96  1  0  0  0
 44 97  1  0  0  0
 44 98  1  0  0  0
 44 99  1  0  0  0
 45100  1  0  0  0
M  END
$$$$
