3th0_ligand
  -I-interpret- 

165172  0  0  0  0  0  0  0  0999 V2000
    8.9600  -16.3730   28.8110 C   0  0  0  0  0
    8.1030  -16.8460   27.6230 C   0  0  0  0  0
    6.6170  -16.7010   27.9790 C   0  0  0  0  0
    6.2660  -17.3290   29.3380 C   0  0  0  0  0
    7.3350  -17.0720   30.4230 C   0  0  0  0  0
    7.1840  -18.0330   31.6270 C   0  0  0  0  0
    8.4130  -16.1000   26.4220 O   0  0  0  0  0
    5.8210  -17.3180   26.9760 O   0  0  0  0  0
    6.1020  -18.7270   29.1490 O   0  0  0  0  0
    8.6900  -17.2490   29.9250 O   0  0  0  0  0
    6.3450  -17.4700   32.6460 O   0  0  0  0  0
    9.7200  -14.7930   31.4080 C   0  0  0  0  0
    9.5750  -14.4170   29.9320 C   0  0  0  0  0
    9.0680  -12.9950   29.7770 C   0  0  0  0  0
    7.7150  -12.8600   30.5080 C   0  0  0  0  0
    7.8080  -13.3560   31.9650 C   0  0  0  0  0
    6.4010  -13.4970   32.5670 C   0  0  0  0  0
    8.5420  -15.0910   29.2380 O   0  0  0  0  0
    8.9240  -12.6030   28.3800 O   0  0  0  0  0
    7.3370  -11.4750   30.4810 O   0  0  0  0  0
    8.4350  -14.6670   32.0650 O   0  0  0  0  0
    6.2790  -12.5940   33.6670 O   0  0  0  0  0
   11.8970  -12.3670   35.5770 C   0  0  0  0  0
   11.0600  -13.6330   35.7140 C   0  0  0  0  0
   10.3310  -13.9080   34.3990 C   0  0  0  0  0
   11.2930  -14.0150   33.2300 C   0  0  0  0  0
   12.2500  -12.8000   33.2470 C   0  0  0  0  0
   13.3390  -13.0700   32.2000 C   0  0  0  0  0
   11.9370  -14.7220   36.0390 O   0  0  0  0  0
    9.5880  -15.1380   34.5170 O   0  0  0  0  0
   10.6340  -13.8400   31.9520 O   0  0  0  0  0
   12.8700  -12.5630   34.5480 O   0  0  0  0  0
   11.8250   -7.8560   36.5730 C   0  0  0  0  0
   11.3110   -9.2800   36.6110 C   0  0  0  0  0
   11.6370  -10.0070   35.3010 C   0  0  0  0  0
   11.0790   -9.2360   34.1050 C   0  0  0  0  0
   11.6140   -7.7910   34.1410 C   0  0  0  0  0
   10.9240   -6.9410   33.0430 C   0  0  0  0  0
   11.9670   -9.9590   37.6950 O   0  0  0  0  0
   10.9830  -11.2940   35.2810 O   0  0  0  0  0
    9.6540   -9.2290   34.1780 O   0  0  0  0  0
   11.2940   -7.1910   35.4000 O   0  0  0  0  0
   11.7210   -5.7990   32.7540 O   0  0  0  0  0
   14.0670   -5.6190   35.9980 C   0  0  0  0  0
   13.8480   -6.6930   37.0430 C   0  0  0  0  0
   15.1750   -7.1010   37.6520 C   0  0  0  0  0
   16.0940   -7.5910   36.5190 C   0  0  0  0  0
   16.2130   -6.5520   35.3830 C   0  0  0  0  0
   16.9000   -7.1640   34.1540 C   0  0  0  0  0
   13.2640   -7.8640   36.4850 O   0  0  0  0  0
   14.9290   -8.2260   38.5810 O   0  0  0  0  0
   17.4180   -7.9080   37.0490 O   0  0  0  0  0
   14.9270   -6.0970   34.9310 O   0  0  0  0  0
   17.1010   -6.1420   33.1710 O   0  0  0  0  0
   15.3820   -0.5090   36.5890 C   0  0  0  0  0
   16.3790   -1.4450   35.9390 C   0  0  0  0  0
   15.9410   -2.9170   35.6340 C   0  0  0  0  0
   14.5340   -3.2810   36.1290 C   0  0  0  0  0
   14.1170   -2.4040   37.2990 C   0  0  0  0  0
   12.6850   -2.6960   37.7220 C   0  0  0  0  0
   16.2530   -0.5640   37.7280 O   0  0  0  0  0
   17.1830   -0.7620   34.9770 O   0  0  0  0  0
   16.1830   -3.3120   34.2940 O   0  0  0  0  0
   14.7000   -4.5800   36.6920 O   0  0  0  0  0
   14.0960   -1.0370   36.8960 O   0  0  0  0  0
    9.9110  -11.6210   27.9980 C   0  0  0  0  0
    9.5180  -10.9620   26.6640 C   0  0  0  0  0
    8.2390  -10.3110   26.8170 O   0  0  0  0  0
    9.4600  -12.0240   25.5560 C   0  0  0  0  0
   10.8190  -12.7170   25.4410 C   0  0  0  0  0
   10.7670  -13.8010   24.4830 O   0  0  0  0  0
   11.1810  -13.2760   26.8240 C   0  0  0  0  0
   11.2230  -12.1860   27.8010 O   0  0  0  0  0
   12.5150  -14.0330   26.7770 C   0  0  0  0  0
   15.3840   -7.9060   39.8770 C   0  0  0  0  0
   15.3420   -9.1920   40.7160 C   0  0  0  0  0
   16.0530  -10.2300   40.0290 O   0  0  0  0  0
   13.9030   -9.6290   41.0030 C   0  0  0  0  0
   13.1100   -8.4530   41.5860 C   0  0  0  0  0
   11.7300   -8.8230   41.8040 O   0  0  0  0  0
   13.1710   -7.2630   40.6340 C   0  0  0  0  0
   14.5520   -6.8870   40.4350 O   0  0  0  0  0
   12.4200   -6.0060   41.1640 C   0  0  0  0  0
   10.0066  -16.3648   28.5066 H   0  0  0  0  0
    8.3283  -17.8938   27.4243 H   0  0  0  0  0
    6.4119  -15.6322   28.0404 H   0  0  0  0  0
    5.3486  -16.8621   29.6964 H   0  0  0  0  0
    7.1734  -16.0377   30.7268 H   0  0  0  0  0
    8.1715  -18.2121   32.0523 H   0  0  0  0  0
    6.7274  -18.9583   31.2756 H   0  0  0  0  0
    9.3448  -16.2020   26.2149 H   0  0  0  0  0
    6.0309  -16.9342   26.1215 H   0  0  0  0  0
    5.4370  -18.8817   28.4741 H   0  0  0  0  0
    6.2717  -18.0886   33.3765 H   0  0  0  0  0
   10.0699  -15.8167   31.5413 H   0  0  0  0  0
   10.5714  -14.6381   29.5494 H   0  0  0  0  0
    9.8069  -12.3258   30.2178 H   0  0  0  0  0
    6.9684  -13.4757   30.0063 H   0  0  0  0  0
    8.4081  -12.6187   32.4982 H   0  0  0  0  0
    6.2465  -14.5201   32.9098 H   0  0  0  0  0
    5.6507  -13.2630   31.8118 H   0  0  0  0  0
    6.4961  -11.3651   30.9309 H   0  0  0  0  0
    5.4025  -12.6747   34.0501 H   0  0  0  0  0
   12.4454  -12.1242   36.4872 H   0  0  0  0  0
   10.3161  -13.5157   36.5020 H   0  0  0  0  0
    9.6605  -13.0707   34.2054 H   0  0  0  0  0
   11.7636  -14.9930   33.3312 H   0  0  0  0  0
   11.6716  -11.9031   33.0253 H   0  0  0  0  0
   13.8725  -13.9843   32.4600 H   0  0  0  0  0
   12.8778  -13.1834   31.2189 H   0  0  0  0  0
   14.0374  -12.2334   32.1800 H   0  0  0  0  0
   11.4241  -15.5285   36.1289 H   0  0  0  0  0
    9.1289  -15.3135   33.6924 H   0  0  0  0  0
   11.5122   -7.3348   37.4778 H   0  0  0  0  0
   10.2294   -9.2734   36.7455 H   0  0  0  0  0
   12.7214  -10.0987   35.2399 H   0  0  0  0  0
   11.3900   -9.7114   33.1748 H   0  0  0  0  0
   12.6921   -7.8228   33.9835 H   0  0  0  0  0
    9.9441   -6.6194   33.3957 H   0  0  0  0  0
   10.8081   -7.5402   32.1399 H   0  0  0  0  0
   11.6556  -10.8661   37.7381 H   0  0  0  0  0
    9.2987   -8.7456   33.4285 H   0  0  0  0  0
   11.2919   -5.2744   32.0741 H   0  0  0  0  0
   13.1321   -5.3107   35.5301 H   0  0  0  0  0
   13.1775   -6.2715   37.7918 H   0  0  0  0  0
   15.6341   -6.2646   38.1789 H   0  0  0  0  0
   15.6455   -8.4904   36.0970 H   0  0  0  0  0
   16.7879   -5.7245   35.7988 H   0  0  0  0  0
   16.2732   -7.9533   33.7390 H   0  0  0  0  0
   17.8616   -7.5870   34.4446 H   0  0  0  0  0
   17.9828   -8.2124   36.3349 H   0  0  0  0  0
   17.5306   -6.5207   32.4005 H   0  0  0  0  0
   15.0621    0.3984   36.0766 H   0  0  0  0  0
   17.0621   -1.7300   36.7392 H   0  0  0  0  0
   16.6077   -3.5242   36.2462 H   0  0  0  0  0
   13.8071   -3.1877   35.3222 H   0  0  0  0  0
   14.8254   -2.6018   38.1035 H   0  0  0  0  0
   12.0138   -2.5029   36.8852 H   0  0  0  0  0
   12.6021   -3.7405   38.0225 H   0  0  0  0  0
   12.4169   -2.0530   38.5603 H   0  0  0  0  0
   15.8938   -0.0174   38.4308 H   0  0  0  0  0
   17.8033   -1.3800   34.5834 H   0  0  0  0  0
   15.8942   -4.2193   34.1719 H   0  0  0  0  0
    9.9434  -10.9053   28.8195 H   0  0  0  0  0
   10.2628  -10.2171   26.3839 H   0  0  0  0  0
    7.9899   -9.8984   25.9868 H   0  0  0  0  0
    9.2148  -11.5461   24.6075 H   0  0  0  0  0
    8.6957  -12.7619   25.8000 H   0  0  0  0  0
   11.5663  -12.0006   25.0998 H   0  0  0  0  0
   11.6291  -14.2197   24.4282 H   0  0  0  0  0
   10.4146  -13.9881   27.1301 H   0  0  0  0  0
   12.4365  -14.8616   26.0732 H   0  0  0  0  0
   13.3051  -13.3547   26.4549 H   0  0  0  0  0
   12.7477  -14.4186   27.7696 H   0  0  0  0  0
   16.4039   -7.5220   39.8576 H   0  0  0  0  0
   15.8192   -8.9946   41.6759 H   0  0  0  0  0
   16.0274  -11.0343   40.5525 H   0  0  0  0  0
   13.9116  -10.4492   41.7208 H   0  0  0  0  0
   13.4335   -9.9558   40.0751 H   0  0  0  0  0
   13.5558   -8.1810   42.5428 H   0  0  0  0  0
   11.2528   -8.0740   42.1685 H   0  0  0  0  0
   12.6873   -7.5835   39.7113 H   0  0  0  0  0
   11.3686   -6.2499   41.3164 H   0  0  0  0  0
   12.8622   -5.6919   42.1095 H   0  0  0  0  0
   12.5054   -5.1994   40.4358 H   0  0  0  0  0
  1  2  1  0  0  0
  1 10  1  0  0  0
 18  1  1  0  0  0
  2  3  1  0  0  0
  2  7  1  0  0  0
  3  4  1  0  0  0
  3  8  1  0  0  0
  5  4  1  0  0  0
  4  9  1  0  0  0
  5  6  1  0  0  0
 10  5  1  0  0  0
  6 11  1  0  0  0
 12 13  1  0  0  0
 12 21  1  0  0  0
 31 12  1  0  0  0
 13 14  1  0  0  0
 13 18  1  0  0  0
 14 15  1  0  0  0
 14 19  1  0  0  0
 16 15  1  0  0  0
 15 20  1  0  0  0
 16 17  1  0  0  0
 21 16  1  0  0  0
 17 22  1  0  0  0
 19 66  1  0  0  0
 23 24  1  0  0  0
 23 32  1  0  0  0
 40 23  1  0  0  0
 24 25  1  0  0  0
 24 29  1  0  0  0
 25 26  1  0  0  0
 25 30  1  0  0  0
 27 26  1  0  0  0
 26 31  1  0  0  0
 27 28  1  0  0  0
 32 27  1  0  0  0
 33 34  1  0  0  0
 33 42  1  0  0  0
 50 33  1  0  0  0
 34 35  1  0  0  0
 34 39  1  0  0  0
 35 36  1  0  0  0
 35 40  1  0  0  0
 37 36  1  0  0  0
 36 41  1  0  0  0
 37 38  1  0  0  0
 42 37  1  0  0  0
 38 43  1  0  0  0
 44 45  1  0  0  0
 44 53  1  0  0  0
 64 44  1  0  0  0
 45 46  1  0  0  0
 45 50  1  0  0  0
 46 47  1  0  0  0
 46 51  1  0  0  0
 48 47  1  0  0  0
 47 52  1  0  0  0
 48 49  1  0  0  0
 53 48  1  0  0  0
 49 54  1  0  0  0
 51 75  1  0  0  0
 56 55  1  0  0  0
 55 61  1  0  0  0
 55 65  1  0  0  0
 57 56  1  0  0  0
 56 62  1  0  0  0
 58 57  1  0  0  0
 57 63  1  0  0  0
 58 59  1  0  0  0
 58 64  1  0  0  0
 59 60  1  0  0  0
 59 65  1  0  0  0
 66 67  1  0  0  0
 66 73  1  0  0  0
 67 68  1  0  0  0
 67 69  1  0  0  0
 69 70  1  0  0  0
 70 71  1  0  0  0
 70 72  1  0  0  0
 72 73  1  0  0  0
 72 74  1  0  0  0
 75 76  1  0  0  0
 75 82  1  0  0  0
 76 77  1  0  0  0
 76 78  1  0  0  0
 78 79  1  0  0  0
 79 80  1  0  0  0
 79 81  1  0  0  0
 81 82  1  0  0  0
 81 83  1  0  0  0
  1 84  1  0  0  0
  2 85  1  0  0  0
  3 86  1  0  0  0
  4 87  1  0  0  0
  5 88  1  0  0  0
  6 89  1  0  0  0
  6 90  1  0  0  0
  7 91  1  0  0  0
  8 92  1  0  0  0
  9 93  1  0  0  0
 11 94  1  0  0  0
 12 95  1  0  0  0
 13 96  1  0  0  0
 14 97  1  0  0  0
 15 98  1  0  0  0
 16 99  1  0  0  0
 17100  1  0  0  0
 17101  1  0  0  0
 20102  1  0  0  0
 22103  1  0  0  0
 23104  1  0  0  0
 24105  1  0  0  0
 25106  1  0  0  0
 26107  1  0  0  0
 27108  1  0  0  0
 28109  1  0  0  0
 28110  1  0  0  0
 28111  1  0  0  0
 29112  1  0  0  0
 30113  1  0  0  0
 33114  1  0  0  0
 34115  1  0  0  0
 35116  1  0  0  0
 36117  1  0  0  0
 37118  1  0  0  0
 38119  1  0  0  0
 38120  1  0  0  0
 39121  1  0  0  0
 41122  1  0  0  0
 43123  1  0  0  0
 44124  1  0  0  0
 45125  1  0  0  0
 46126  1  0  0  0
 47127  1  0  0  0
 48128  1  0  0  0
 49129  1  0  0  0
 49130  1  0  0  0
 52131  1  0  0  0
 54132  1  0  0  0
 55133  1  0  0  0
 56134  1  0  0  0
 57135  1  0  0  0
 58136  1  0  0  0
 59137  1  0  0  0
 60138  1  0  0  0
 60139  1  0  0  0
 60140  1  0  0  0
 61141  1  0  0  0
 62142  1  0  0  0
 63143  1  0  0  0
 66144  1  0  0  0
 67145  1  0  0  0
 68146  1  0  0  0
 69147  1  0  0  0
 69148  1  0  0  0
 70149  1  0  0  0
 71150  1  0  0  0
 72151  1  0  0  0
 74152  1  0  0  0
 74153  1  0  0  0
 74154  1  0  0  0
 75155  1  0  0  0
 76156  1  0  0  0
 77157  1  0  0  0
 78158  1  0  0  0
 78159  1  0  0  0
 79160  1  0  0  0
 80161  1  0  0  0
 81162  1  0  0  0
 83163  1  0  0  0
 83164  1  0  0  0
 83165  1  0  0  0
M  END
$$$$
