### 
### Created by X-TOOL on Mon Sep 10 21:13:08 2018
### 

@<TRIPOS>MOLECULE
3th0_ligand
  165   172     1     0     0
SMALL
GAST_HUCK


@<TRIPOS>ATOM
      1 C1          8.9600  -16.3730   28.8110 C.3       1 GLA         0.1885
      2 C2          8.1030  -16.8460   27.6230 C.3       1 GLA         0.1341
      3 C3          6.6170  -16.7010   27.9790 C.3       1 GLA         0.1141
      4 C4          6.2660  -17.3290   29.3380 C.3       1 GLA         0.1119
      5 C5          7.3350  -17.0720   30.4230 C.3       1 GLA         0.1130
      6 C6          7.1840  -18.0330   31.6270 C.3       1 GLA         0.0730
      7 O2          8.4130  -16.1000   26.4220 O.3       1 GLA        -0.3841
      8 O3          5.8210  -17.3180   26.9760 O.3       1 GLA        -0.3864
      9 O4          6.1020  -18.7270   29.1490 O.3       1 GLA        -0.3865
     10 O5          8.6900  -17.2490   29.9250 O.3       1 GLA        -0.3405
     11 O6          6.3450  -17.4700   32.6460 O.3       1 GLA        -0.3924
     12 C1          9.7200  -14.7930   31.4080 C.3       1 MAN         0.1888
     13 C2          9.5750  -14.4170   29.9320 C.3       1 MAN         0.1410
     14 C3          9.0680  -12.9950   29.7770 C.3       1 MAN         0.1209
     15 C4          7.7150  -12.8600   30.5080 C.3       1 MAN         0.1123
     16 C5          7.8080  -13.3560   31.9650 C.3       1 MAN         0.1130
     17 C6          6.4010  -13.4970   32.5670 C.3       1 MAN         0.0730
     18 O2          8.5420  -15.0910   29.2380 O.3       1 MAN        -0.3377
     19 O3          8.9240  -12.6030   28.3800 O.3       1 MAN        -0.3401
     20 O4          7.3370  -11.4750   30.4810 O.3       1 MAN        -0.3865
     21 O5          8.4350  -14.6670   32.0650 O.3       1 MAN        -0.3405
     22 O6          6.2790  -12.5940   33.6670 O.3       1 MAN        -0.3924
     23 C1         11.8970  -12.3670   35.5770 C.3       1 RAM         0.1883
     24 C2         11.0600  -13.6330   35.7140 C.3       1 RAM         0.1341
     25 C3         10.3310  -13.9080   34.3990 C.3       1 RAM         0.1143
     26 C4         11.2930  -14.0150   33.2300 C.3       1 RAM         0.1160
     27 C5         12.2500  -12.8000   33.2470 C.3       1 RAM         0.0877
     28 C6         13.3390  -13.0700   32.2000 C.3       1 RAM        -0.0361
     29 O2         11.9370  -14.7220   36.0390 O.3       1 RAM        -0.3841
     30 O3          9.5880  -15.1380   34.5170 O.3       1 RAM        -0.3864
     31 O4         10.6340  -13.8400   31.9520 O.3       1 RAM        -0.3402
     32 O5         12.8700  -12.5630   34.5480 O.3       1 RAM        -0.3431
     33 C1         11.8250   -7.8560   36.5730 C.3       1 GLA         0.1886
     34 C2         11.3110   -9.2800   36.6110 C.3       1 GLA         0.1345
     35 C3         11.6370  -10.0070   35.3010 C.3       1 GLA         0.1206
     36 C4         11.0790   -9.2360   34.1050 C.3       1 GLA         0.1123
     37 C5         11.6140   -7.7910   34.1410 C.3       1 GLA         0.1130
     38 C6         10.9240   -6.9410   33.0430 C.3       1 GLA         0.0730
     39 O2         11.9670   -9.9590   37.6950 O.3       1 GLA        -0.3841
     40 O3         10.9830  -11.2940   35.2810 O.3       1 GLA        -0.3401
     41 O4          9.6540   -9.2290   34.1780 O.3       1 GLA        -0.3865
     42 O5         11.2940   -7.1910   35.4000 O.3       1 GLA        -0.3405
     43 O6         11.7210   -5.7990   32.7540 O.3       1 GLA        -0.3924
     44 C1         14.0670   -5.6190   35.9980 C.3       1 MAN         0.1888
     45 C2         13.8480   -6.6930   37.0430 C.3       1 MAN         0.1410
     46 C3         15.1750   -7.1010   37.6520 C.3       1 MAN         0.1209
     47 C4         16.0940   -7.5910   36.5190 C.3       1 MAN         0.1123
     48 C5         16.2130   -6.5520   35.3830 C.3       1 MAN         0.1130
     49 C6         16.9000   -7.1640   34.1540 C.3       1 MAN         0.0730
     50 O2         13.2640   -7.8640   36.4850 O.3       1 MAN        -0.3377
     51 O3         14.9290   -8.2260   38.5810 O.3       1 MAN        -0.3401
     52 O4         17.4180   -7.9080   37.0490 O.3       1 MAN        -0.3865
     53 O5         14.9270   -6.0970   34.9310 O.3       1 MAN        -0.3405
     54 O6         17.1010   -6.1420   33.1710 O.3       1 MAN        -0.3924
     55 C1         15.3820   -0.5090   36.5890 C.3       1 RAM         0.1853
     56 C2         16.3790   -1.4450   35.9390 C.3       1 RAM         0.1339
     57 C3         15.9410   -2.9170   35.6340 C.3       1 RAM         0.1143
     58 C4         14.5340   -3.2810   36.1290 C.3       1 RAM         0.1160
     59 C5         14.1170   -2.4040   37.2990 C.3       1 RAM         0.0877
     60 C6         12.6850   -2.6960   37.7220 C.3       1 RAM        -0.0361
     61 O1         16.2530   -0.5640   37.7280 O.3       1 RAM        -0.3649
     62 O2         17.1830   -0.7620   34.9770 O.3       1 RAM        -0.3841
     63 O3         16.1830   -3.3120   34.2940 O.3       1 RAM        -0.3864
     64 O4         14.7000   -4.5800   36.6920 O.3       1 RAM        -0.3402
     65 O5         14.0960   -1.0370   36.8960 O.3       1 RAM        -0.3432
     66 C1          9.9110  -11.6210   27.9980 C.3       1 PZU         0.1859
     67 C2          9.5180  -10.9620   26.6640 C.3       1 PZU         0.1084
     68 O2          8.2390  -10.3110   26.8170 O.3       1 PZU        -0.3867
     69 C3          9.4600  -12.0240   25.5560 C.3       1 PZU         0.0065
     70 C4         10.8190  -12.7170   25.4410 C.3       1 PZU         0.0837
     71 O4         10.7670  -13.8010   24.4830 O.3       1 PZU        -0.3892
     72 C5         11.1810  -13.2760   26.8240 C.3       1 PZU         0.0849
     73 O5         11.2230  -12.1860   27.8010 O.3       1 PZU        -0.3433
     74 C6         12.5150  -14.0330   26.7770 C.3       1 PZU        -0.0361
     75 C1         15.3840   -7.9060   39.8770 C.3       1 PZU         0.1859
     76 C2         15.3420   -9.1920   40.7160 C.3       1 PZU         0.1084
     77 O2         16.0530  -10.2300   40.0290 O.3       1 PZU        -0.3867
     78 C3         13.9030   -9.6290   41.0030 C.3       1 PZU         0.0065
     79 C4         13.1100   -8.4530   41.5860 C.3       1 PZU         0.0837
     80 O4         11.7300   -8.8230   41.8040 O.3       1 PZU        -0.3892
     81 C5         13.1710   -7.2630   40.6340 C.3       1 PZU         0.0849
     82 O5         14.5520   -6.8870   40.4350 O.3       1 PZU        -0.3433
     83 C6         12.4200   -6.0060   41.1640 C.3       1 PZU        -0.0361
     84 H          10.0270  -16.3735   28.5435 H         1 GLA         0.0938
     85 H           8.3192  -17.9082   27.4359 H         1 GLA         0.0671
     86 H           6.3762  -15.6284   28.0189 H         1 GLA         0.0648
     87 H           5.3155  -16.8979   29.6853 H         1 GLA         0.0647
     88 H           7.2163  -16.0362   30.7737 H         1 GLA         0.0647
     89 H           8.1786  -18.2323   32.0525 H         1 GLA         0.0584
     90 H           6.7387  -18.9763   31.2780 H         1 GLA         0.0584
     91 H           8.2174  -15.1810   26.5620 H         1 GLA         0.2101
     92 H           6.0287  -16.9382   26.1304 H         1 GLA         0.2100
     93 H           5.4440  -18.8801   28.4812 H         1 GLA         0.2100
     94 H           6.2725  -18.0821   33.3689 H         1 GLA         0.2095
     95 H          10.1051  -15.8173   31.5195 H         1 GLA         0.0938
     96 H          10.5452  -14.5632   29.4346 H         1 GLA         0.0675
     97 H           9.7941  -12.3165   30.2486 H         1 GLA         0.0651
     98 H           6.9574  -13.4570   29.9793 H         1 GLA         0.0647
     99 H           8.3913  -12.6278   32.5477 H         1 GLA         0.0647
    100 H           6.2503  -14.5288   32.9172 H         1 GLA         0.0584
    101 H           5.6464  -13.2547   31.8042 H         1 GLA         0.0584
    102 H           7.9877  -10.9612   30.9447 H         1 GLA         0.2100
    103 H           5.4116  -12.6739   34.0462 H         1 GLA         0.2095
    104 H          12.4163  -12.1527   36.5227 H         1 GLA         0.0938
    105 H          10.3212  -13.5038   36.5186 H         1 GLA         0.0671
    106 H           9.6322  -13.0810   34.2047 H         1 GLA         0.0648
    107 H          11.8348  -14.9712   33.2761 H         1 GLA         0.0650
    108 H          11.6838  -11.8998   32.9659 H         1 GLA         0.0621
    109 H          14.0446  -12.2263   32.1789 H         1 GLA         0.0255
    110 H          12.8749  -13.1846   31.2093 H         1 GLA         0.0255
    111 H          13.8782  -13.9925   32.4613 H         1 GLA         0.0255
    112 H          12.5782  -14.8284   35.3461 H         1 GLA         0.2101
    113 H           9.1008  -15.2905   33.7158 H         1 GLA         0.2100
    114 H          11.5094   -7.3226   37.4818 H         1 GLA         0.0938
    115 H          10.2226   -9.2779   36.7699 H         1 GLA         0.0671
    116 H          12.7264  -10.1259   35.2058 H         1 GLA         0.0651
    117 H          11.3965   -9.7219   33.1706 H         1 GLA         0.0647
    118 H          12.7033   -7.7960   33.9878 H         1 GLA         0.0647
    119 H           9.9347   -6.6168   33.3983 H         1 GLA         0.0584
    120 H          10.8063   -7.5456   32.1316 H         1 GLA         0.0584
    121 H          12.9057   -9.9536   37.5488 H         1 GLA         0.2101
    122 H           9.3325  -10.1227   34.1553 H         1 GLA         0.2100
    123 H          11.8221   -5.2772   33.5415 H         1 GLA         0.2095
    124 H          13.1075   -5.2838   35.5774 H         1 GLA         0.0938
    125 H          13.1869   -6.2948   37.8268 H         1 GLA         0.0675
    126 H          15.6346   -6.2546   38.1833 H         1 GLA         0.0651
    127 H          15.6581   -8.5091   36.0982 H         1 GLA         0.0647
    128 H          16.7984   -5.6961   35.7499 H         1 GLA         0.0647
    129 H          16.2651   -7.9583   33.7347 H         1 GLA         0.0584
    130 H          17.8714   -7.5880   34.4482 H         1 GLA         0.0584
    131 H          17.9588   -8.2650   36.3543 H         1 GLA         0.2100
    132 H          17.6489   -5.4568   33.5356 H         1 GLA         0.2095
    133 H          15.2802    0.4708   36.0995 H         1 GLA         0.0935
    134 H          17.0963   -1.6140   36.7557 H         1 GLA         0.0671
    135 H          16.6180   -3.5388   36.2382 H         1 GLA         0.0648
    136 H          13.7937   -3.2520   35.3159 H         1 GLA         0.0650
    137 H          14.8096   -2.5560   38.1400 H         1 GLA         0.0621
    138 H          12.4132   -2.0477   38.5681 H         1 GLA         0.0255
    139 H          12.6000   -3.7498   38.0255 H         1 GLA         0.0255
    140 H          12.0065   -2.5015   36.8783 H         1 GLA         0.0255
    141 H          15.8779   -0.0550   38.4370 H         1 GLA         0.2126
    142 H          16.7136   -0.7109   34.1527 H         1 GLA         0.2101
    143 H          17.0650   -3.0613   34.0455 H         1 GLA         0.2100
    144 H           9.9629  -10.8569   28.7876 H         1 GLA         0.0937
    145 H          10.2736  -10.2089   26.3959 H         1 GLA         0.0645
    146 H           7.9925   -9.9027   25.9954 H         1 GLA         0.2100
    147 H           9.2123  -11.5419   24.5988 H         1 GLA         0.0317
    148 H           8.6886  -12.7686   25.8020 H         1 GLA         0.0317
    149 H          11.5783  -11.9877   25.1224 H         1 GLA         0.0620
    150 H          11.6201  -14.2154   24.4287 H         1 GLA         0.2099
    151 H          10.3966  -13.9843   27.1288 H         1 GLA         0.0620
    152 H          12.7509  -14.4226   27.7783 H         1 GLA         0.0255
    153 H          13.3133  -13.3495   26.4521 H         1 GLA         0.0255
    154 H          12.4371  -14.8696   26.0670 H         1 GLA         0.0255
    155 H          16.4189   -7.5364   39.8278 H         1 GLA         0.0937
    156 H          15.8416   -8.9983   41.6767 H         1 GLA         0.0645
    157 H          15.6452  -10.3868   39.1854 H         1 GLA         0.2100
    158 H          13.9103  -10.4585   41.7254 H         1 GLA         0.0317
    159 H          13.4288   -9.9614   40.0678 H         1 GLA         0.0317
    160 H          13.5581   -8.1661   42.5488 H         1 GLA         0.0620
    161 H          11.2578   -8.0818   42.1647 H         1 GLA         0.2099
    162 H          12.7265   -7.5625   39.6734 H         1 GLA         0.0620
    163 H          12.5054   -5.1912   40.4299 H         1 GLA         0.0255
    164 H          12.8653   -5.6880   42.1182 H         1 GLA         0.0255
    165 H          11.3587   -6.2508   41.3182 H         1 GLA         0.0255
@<TRIPOS>BOND
     1    1    2 1  
     2    1   10 1  
     3   18    1 1  
     4    2    3 1  
     5    2    7 1  
     6    3    4 1  
     7    3    8 1  
     8    5    4 1  
     9    4    9 1  
    10    5    6 1  
    11   10    5 1  
    12    6   11 1  
    13   12   13 1  
    14   12   21 1  
    15   31   12 1  
    16   13   14 1  
    17   13   18 1  
    18   14   15 1  
    19   14   19 1  
    20   16   15 1  
    21   15   20 1  
    22   16   17 1  
    23   21   16 1  
    24   17   22 1  
    25   19   66 1  
    26   23   24 1  
    27   23   32 1  
    28   40   23 1  
    29   24   25 1  
    30   24   29 1  
    31   25   26 1  
    32   25   30 1  
    33   27   26 1  
    34   26   31 1  
    35   27   28 1  
    36   32   27 1  
    37   33   34 1  
    38   33   42 1  
    39   50   33 1  
    40   34   35 1  
    41   34   39 1  
    42   35   36 1  
    43   35   40 1  
    44   37   36 1  
    45   36   41 1  
    46   37   38 1  
    47   42   37 1  
    48   38   43 1  
    49   44   45 1  
    50   44   53 1  
    51   64   44 1  
    52   45   46 1  
    53   45   50 1  
    54   46   47 1  
    55   46   51 1  
    56   48   47 1  
    57   47   52 1  
    58   48   49 1  
    59   53   48 1  
    60   49   54 1  
    61   51   75 1  
    62   56   55 1  
    63   55   61 1  
    64   55   65 1  
    65   57   56 1  
    66   56   62 1  
    67   58   57 1  
    68   57   63 1  
    69   58   59 1  
    70   58   64 1  
    71   59   60 1  
    72   59   65 1  
    73   66   67 1  
    74   66   73 1  
    75   67   68 1  
    76   67   69 1  
    77   69   70 1  
    78   70   71 1  
    79   70   72 1  
    80   72   73 1  
    81   72   74 1  
    82   75   76 1  
    83   75   82 1  
    84   76   77 1  
    85   76   78 1  
    86   78   79 1  
    87   79   80 1  
    88   79   81 1  
    89   81   82 1  
    90   81   83 1  
    91    1   84 1  
    92    2   85 1  
    93    3   86 1  
    94    4   87 1  
    95    5   88 1  
    96    6   89 1  
    97    6   90 1  
    98    7   91 1  
    99    8   92 1  
   100    9   93 1  
   101   11   94 1  
   102   12   95 1  
   103   13   96 1  
   104   14   97 1  
   105   15   98 1  
   106   16   99 1  
   107   17  100 1  
   108   17  101 1  
   109   20  102 1  
   110   22  103 1  
   111   23  104 1  
   112   24  105 1  
   113   25  106 1  
   114   26  107 1  
   115   27  108 1  
   116   28  109 1  
   117   28  110 1  
   118   28  111 1  
   119   29  112 1  
   120   30  113 1  
   121   33  114 1  
   122   34  115 1  
   123   35  116 1  
   124   36  117 1  
   125   37  118 1  
   126   38  119 1  
   127   38  120 1  
   128   39  121 1  
   129   41  122 1  
   130   43  123 1  
   131   44  124 1  
   132   45  125 1  
   133   46  126 1  
   134   47  127 1  
   135   48  128 1  
   136   49  129 1  
   137   49  130 1  
   138   52  131 1  
   139   54  132 1  
   140   55  133 1  
   141   56  134 1  
   142   57  135 1  
   143   58  136 1  
   144   59  137 1  
   145   60  138 1  
   146   60  139 1  
   147   60  140 1  
   148   61  141 1  
   149   62  142 1  
   150   63  143 1  
   151   66  144 1  
   152   67  145 1  
   153   68  146 1  
   154   69  147 1  
   155   69  148 1  
   156   70  149 1  
   157   71  150 1  
   158   72  151 1  
   159   74  152 1  
   160   74  153 1  
   161   74  154 1  
   162   75  155 1  
   163   76  156 1  
   164   77  157 1  
   165   78  158 1  
   166   78  159 1  
   167   79  160 1  
   168   80  161 1  
   169   81  162 1  
   170   83  163 1  
   171   83  164 1  
   172   83  165 1  
@<TRIPOS>SUBSTRUCTURE
     1 GLA         1

