1ols_ligand
  -I-interpret- 

 45 46  0  0  0  0  0  0  0  0999 V2000
   76.9340    0.6020   11.3740 N   0  0  0  0  0
   77.1640    1.8410   11.8700 C   0  0  0  0  0
   77.2730    1.9580   13.3810 C   0  0  0  0  0
   77.2910    2.9400   11.0820 N   0  0  0  0  0
   77.1810    2.7520    9.7420 C   0  0  0  0  0
   77.3150    3.8870    8.9960 N   0  0  0  0  0
   76.9430    1.4630    9.1230 C   0  0  0  0  0
   76.8250    0.4060   10.0470 C   0  0  0  0  0
   76.8250    1.2690    7.6090 C   0  0  0  0  0
   75.5810    1.8700    7.0970 N   0  3  0  0  0
   75.5550    3.1620    6.5480 C   0  0  0  0  0
   73.9200    3.5610    6.0770 S   0  0  0  0  0
   73.3190    1.9950    6.6180 C   0  0  0  0  0
   74.2650    1.1690    7.1360 C   0  0  0  0  0
   74.0720   -0.2540    7.6840 C   0  0  0  0  0
   71.8230    1.7960    6.4420 C   0  0  0  0  0
   71.0200    2.7630    7.3870 C   0  0  0  0  0
   69.6200    2.6050    7.0980 O   0  0  0  0  0
   68.5990    3.6470    7.6560 P   0  0  0  0  0
   68.6740    4.9160    6.7000 O   0  0  0  0  0
   68.9330    4.0400    9.0280 O   0  0  0  0  0
   67.2190    3.0420    7.5680 O   0  0  0  0  0
   68.4170    5.0790    5.1170 P   0  0  0  0  0
   67.9780    6.5490    4.9480 O   0  0  0  0  0
   69.7350    4.8360    4.4960 O   0  0  0  0  0
   67.3780    4.1230    4.6640 O   0  0  0  0  0
   76.3424    1.6219   13.8382 H   0  0  0  0  0
   78.0972    1.3380   13.7336 H   0  0  0  0  0
   77.4573    2.9978   13.6513 H   0  0  0  0  0
   77.4835    4.7821    9.4551 H   0  0  0  0  0
   77.2466    3.8401    7.9794 H   0  0  0  0  0
   76.6397   -0.6019    9.6756 H   0  0  0  0  0
   76.8131    0.2008    7.3925 H   0  0  0  0  0
   77.6732    1.7545    7.1264 H   0  0  0  0  0
   76.4203    3.8149    6.4333 H   0  0  0  0  0
   74.6822   -0.9497    7.1080 H   0  0  0  0  0
   74.3753   -0.2832    8.7305 H   0  0  0  0  0
   73.0221   -0.5347    7.6007 H   0  0  0  0  0
   71.5719    0.7660    6.6954 H   0  0  0  0  0
   71.5575    2.0129    5.4073 H   0  0  0  0  0
   71.3256    3.7954    7.2171 H   0  0  0  0  0
   71.2189    2.5206    8.4309 H   0  0  0  0  0
   67.0354    2.7975    6.6580 H   0  0  0  0  0
   67.1205    6.6752    5.3607 H   0  0  0  0  0
   66.5461    4.3270    5.0976 H   0  0  0  0  0
  1  2  4  0  0  0
  1  8  4  0  0  0
  2  3  1  0  0  0
  2  4  4  0  0  0
  4  5  4  0  0  0
  5  6  1  0  0  0
  5  7  4  0  0  0
  7  8  4  0  0  0
  7  9  1  0  0  0
  9 10  1  0  0  0
 10 11  4  0  0  0
 10 14  4  0  0  0
 11 12  4  0  0  0
 12 13  4  0  0  0
 13 14  4  0  0  0
 13 16  1  0  0  0
 14 15  1  0  0  0
 16 17  1  0  0  0
 17 18  1  0  0  0
 18 19  1  0  0  0
 19 20  1  0  0  0
 19 21  2  0  0  0
 19 22  1  0  0  0
 20 23  1  0  0  0
 23 24  1  0  0  0
 23 25  2  0  0  0
 23 26  1  0  0  0
  3 27  1  0  0  0
  3 28  1  0  0  0
  3 29  1  0  0  0
  6 30  1  0  0  0
  6 31  1  0  0  0
  8 32  1  0  0  0
  9 33  1  0  0  0
  9 34  1  0  0  0
 11 35  1  0  0  0
 15 36  1  0  0  0
 15 37  1  0  0  0
 15 38  1  0  0  0
 16 39  1  0  0  0
 16 40  1  0  0  0
 17 41  1  0  0  0
 17 42  1  0  0  0
 22 43  1  0  0  0
 24 44  1  0  0  0
 26 45  1  0  0  0
M  END
$$$$
