5z95_ligand
  -I-interpret- 

 75 75  0  0  0  0  0  0  0  0999 V2000
  -26.3860   31.4180   28.6200 C   0  0  0  0  0
  -24.0140   31.6570   28.9870 C   0  0  0  0  0
  -23.0760   30.8110   28.1080 C   0  0  0  0  0
  -21.0150   31.4160   26.8340 C   0  0  0  0  0
  -20.9180   30.6530   25.5120 C   0  0  0  0  0
  -18.7120   29.7590   25.6930 C   0  0  0  0  0
  -18.0640   28.6000   26.4260 C   0  0  0  0  0
  -18.4090   26.2630   26.0170 C   0  0  0  0  0
  -18.0130   25.1790   25.0260 C   0  0  0  0  0
  -16.1750   23.8090   24.2870 C   0  0  0  0  0
  -14.9440   24.3970   23.6180 C   0  0  0  0  0
  -14.3490   26.2980   22.1580 C   0  0  0  0  0
  -13.0140   25.8790   21.9710 C   0  0  0  0  0
  -12.1220   26.6550   21.2090 C   0  0  0  0  0
  -12.5090   27.9050   20.6990 C   0  0  0  0  0
  -13.8720   28.2870   20.8760 C   0  0  0  0  0
  -14.7700   27.4970   21.5980 C   0  0  0  0  0
  -11.6230   28.7580   19.8660 C   0  0  0  0  0
  -12.3660   29.9520   19.2430 C   0  0  0  0  0
  -11.3710   27.8830   18.6170 C   0  0  0  0  0
  -10.2270   29.0760   20.5490 C   0  0  0  0  0
  -10.1070   30.1320   21.5940 C   0  0  0  0  0
  -11.0360   29.7620   22.7580 C   0  0  0  0  0
  -10.3950   31.5560   21.0540 C   0  0  0  0  0
   -8.6510   30.0140   22.1100 C   0  0  0  0  0
  -25.2170   30.9560   29.3480 O   0  0  0  0  0
  -22.3840   31.6770   27.1670 O   0  0  0  0  0
  -20.1180   29.4970   25.6880 O   0  0  0  0  0
  -17.9470   27.5110   25.5010 O   0  0  0  0  0
  -16.6720   24.7470   25.2670 O   0  0  0  0  0
  -15.2900   25.5920   22.8850 O   0  0  0  0  0
  -26.5456   32.4765   28.8255 H   0  0  0  0  0
  -26.2272   31.2740   27.5513 H   0  0  0  0  0
  -27.2593   30.8490   28.9388 H   0  0  0  0  0
  -24.2996   32.5414   28.4175 H   0  0  0  0  0
  -23.4811   31.9030   29.9055 H   0  0  0  0  0
  -23.6596   30.0711   27.5602 H   0  0  0  0  0
  -22.3467   30.3025   28.7386 H   0  0  0  0  0
  -20.4891   32.3654   26.7330 H   0  0  0  0  0
  -20.5686   30.8118   27.6238 H   0  0  0  0  0
  -20.4658   31.2947   24.7558 H   0  0  0  0  0
  -21.9166   30.3569   25.1906 H   0  0  0  0  0
  -18.3261   29.8446   24.6772 H   0  0  0  0  0
  -18.4920   30.7060   26.1859 H   0  0  0  0  0
  -18.6700   28.3065   27.2832 H   0  0  0  0  0
  -17.0813   28.8885   26.7989 H   0  0  0  0  0
  -17.9634   26.0670   26.9923 H   0  0  0  0  0
  -19.4912   26.2827   26.1459 H   0  0  0  0  0
  -18.0794   25.5815   24.0152 H   0  0  0  0  0
  -18.6855   24.3292   25.1429 H   0  0  0  0  0
  -15.9142   22.8705   24.7761 H   0  0  0  0  0
  -16.9439   23.6180   23.5384 H   0  0  0  0  0
  -14.5324   23.6630   22.9253 H   0  0  0  0  0
  -14.2114   24.6508   24.3841 H   0  0  0  0  0
  -12.6718   24.9469   22.4206 H   0  0  0  0  0
  -11.1172   26.2813   21.0117 H   0  0  0  0  0
  -14.2224   29.2207   20.4360 H   0  0  0  0  0
  -15.8029   27.8223   21.7220 H   0  0  0  0  0
  -13.1722   29.5852   18.6076 H   0  0  0  0  0
  -12.7810   30.5740   20.0361 H   0  0  0  0  0
  -11.6695   30.5400   18.6453 H   0  0  0  0  0
  -10.8931   26.9508   18.9184 H   0  0  0  0  0
  -12.3215   27.6647   18.1301 H   0  0  0  0  0
  -10.7213   28.4186   17.9248 H   0  0  0  0  0
   -9.6093   29.4434   19.7296 H   0  0  0  0  0
   -9.9733   28.1548   21.0735 H   0  0  0  0  0
  -12.0632   29.7056   22.3976 H   0  0  0  0  0
  -10.7389   28.7956   23.1652 H   0  0  0  0  0
  -10.9635   30.5229   23.5351 H   0  0  0  0  0
   -9.6857   31.7928   20.2609 H   0  0  0  0  0
  -11.4101   31.5949   20.6589 H   0  0  0  0  0
  -10.2910   32.2782   21.8638 H   0  0  0  0  0
   -8.4925   29.0173   22.5218 H   0  0  0  0  0
   -7.9595   30.1815   21.2842 H   0  0  0  0  0
   -8.4802   30.7605   22.8857 H   0  0  0  0  0
 26  1  1  0  0  0
  3  2  1  0  0  0
  2 26  1  0  0  0
 27  3  1  0  0  0
  5  4  1  0  0  0
  4 27  1  0  0  0
 28  5  1  0  0  0
  7  6  1  0  0  0
  6 28  1  0  0  0
 29  7  1  0  0  0
  9  8  1  0  0  0
  8 29  1  0  0  0
 30  9  1  0  0  0
 11 10  1  0  0  0
 10 30  1  0  0  0
 31 11  1  0  0  0
 12 13  4  0  0  0
 12 17  4  0  0  0
 12 31  1  0  0  0
 13 14  4  0  0  0
 14 15  4  0  0  0
 15 16  4  0  0  0
 15 18  1  0  0  0
 16 17  4  0  0  0
 18 19  1  0  0  0
 18 20  1  0  0  0
 18 21  1  0  0  0
 21 22  1  0  0  0
 22 23  1  0  0  0
 22 24  1  0  0  0
 22 25  1  0  0  0
  1 32  1  0  0  0
  1 33  1  0  0  0
  1 34  1  0  0  0
  2 35  1  0  0  0
  2 36  1  0  0  0
  3 37  1  0  0  0
  3 38  1  0  0  0
  4 39  1  0  0  0
  4 40  1  0  0  0
  5 41  1  0  0  0
  5 42  1  0  0  0
  6 43  1  0  0  0
  6 44  1  0  0  0
  7 45  1  0  0  0
  7 46  1  0  0  0
  8 47  1  0  0  0
  8 48  1  0  0  0
  9 49  1  0  0  0
  9 50  1  0  0  0
 10 51  1  0  0  0
 10 52  1  0  0  0
 11 53  1  0  0  0
 11 54  1  0  0  0
 13 55  1  0  0  0
 14 56  1  0  0  0
 16 57  1  0  0  0
 17 58  1  0  0  0
 19 59  1  0  0  0
 19 60  1  0  0  0
 19 61  1  0  0  0
 20 62  1  0  0  0
 20 63  1  0  0  0
 20 64  1  0  0  0
 21 65  1  0  0  0
 21 66  1  0  0  0
 23 67  1  0  0  0
 23 68  1  0  0  0
 23 69  1  0  0  0
 24 70  1  0  0  0
 24 71  1  0  0  0
 24 72  1  0  0  0
 25 73  1  0  0  0
 25 74  1  0  0  0
 25 75  1  0  0  0
M  END
$$$$
