6equ_ligand
  -I-interpret- 

 64 68  0  0  0  0  0  0  0  0999 V2000
   -1.1400    8.1570   13.2080 C   0  0  0  0  0
   -3.4850    3.4040   11.1720 C   0  0  0  0  0
   -4.6710    3.1990   10.4750 C   0  0  0  0  0
   -1.6620    4.3990    9.8370 C   0  0  0  0  0
   -5.4700    2.1000   10.7430 C   0  0  0  0  0
   -5.0980    1.1910   11.7100 C   0  0  0  0  0
   -3.9270    1.3800   12.4130 C   0  0  0  0  0
   -3.1260    2.4790   12.1470 C   0  0  0  0  0
   -0.7970    5.4450    9.5250 C   0  0  0  0  0
   -3.1040    3.5030   15.1580 C   0  0  0  0  0
   -3.6820    2.4280   15.8060 C   0  0  0  0  0
   -5.0540    2.4030   15.9970 C   0  0  0  0  0
   -5.7910    1.0220   16.8190 S   0  0  0  0  0
   -5.3250    1.0560   18.1770 O   0  0  0  0  0
   -7.2070    1.0810   16.5910 O   0  0  0  0  0
   -5.2410   -0.3240   16.1490 N   0  0  0  0  0
   -5.8410    3.4500   15.5450 C   0  0  0  0  0
   -5.2420    4.5180   14.8950 C   0  0  0  0  0
   -3.8690    4.5590   14.6890 C   0  0  0  0  0
   -3.2220    5.7170   13.9650 C   0  0  0  0  0
   -3.7500    5.8960   12.5550 C   0  0  0  0  0
   -2.6850    5.7190   11.5460 N   0  0  0  0  0
   -2.6000    4.5390   10.8460 C   0  0  0  0  0
    0.1980    5.3020    8.4310 C   0  0  0  0  0
    1.5500    5.5530    8.6530 C   0  0  0  0  0
    2.4760    5.4240    7.6300 C   0  0  0  0  0
    2.0680    5.0430    6.3700 C   0  0  0  0  0
    0.7350    4.7900    6.1300 C   0  0  0  0  0
   -0.1920    4.9190    7.1510 C   0  0  0  0  0
   -0.8930    6.6280   10.2530 C   0  0  0  0  0
   -1.8340    6.7600   11.2620 C   0  0  0  0  0
   -1.8870    8.0110   12.0430 C   0  0  0  0  0
   -1.1540    9.3470   13.9180 C   0  0  0  0  0
   -1.9150   10.4080   13.4760 C   0  0  0  0  0
   -2.6630   10.2810   12.3250 C   0  0  0  0  0
   -2.6510    9.0920   11.6130 C   0  0  0  0  0
   -0.5356    7.3240   13.5670 H   0  0  0  0  0
   -4.9753    3.9119    9.7086 H   0  0  0  0  0
   -1.6001    3.4626    9.2825 H   0  0  0  0  0
   -6.3962    1.9534   10.1873 H   0  0  0  0  0
   -5.7273    0.3257   11.9183 H   0  0  0  0  0
   -3.6308    0.6637   13.1793 H   0  0  0  0  0
   -2.2028    2.6205   12.7089 H   0  0  0  0  0
   -2.0239    3.5207   15.0128 H   0  0  0  0  0
   -3.0629    1.6056   16.1643 H   0  0  0  0  0
   -4.6680   -0.9679   16.6944 H   0  0  0  0  0
   -5.4636   -0.5376   15.1768 H   0  0  0  0  0
   -6.9200    3.4341   15.6989 H   0  0  0  0  0
   -5.8606    5.3417   14.5386 H   0  0  0  0  0
   -2.1531    5.5142   13.8983 H   0  0  0  0  0
   -3.4446    6.6264   14.5231 H   0  0  0  0  0
   -4.1462    6.9072   12.4624 H   0  0  0  0  0
   -4.5190    5.1440   12.3782 H   0  0  0  0  0
   -3.4712    5.1889   10.7644 H   0  0  0  0  0
    1.8844    5.8552    9.6454 H   0  0  0  0  0
    3.5300    5.6244    7.8225 H   0  0  0  0  0
    2.7972    4.9422    5.5661 H   0  0  0  0  0
    0.4094    4.4877    5.1347 H   0  0  0  0  0
   -1.2439    4.7173    6.9488 H   0  0  0  0  0
   -0.2225    7.4573   10.0275 H   0  0  0  0  0
   -0.5619    9.4443   14.8280 H   0  0  0  0  0
   -1.9253   11.3440   14.0345 H   0  0  0  0  0
   -3.2658   11.1184   11.9737 H   0  0  0  0  0
   -3.2473    9.0024   10.7050 H   0  0  0  0  0
 32  1  4  0  0  0
  1 33  4  0  0  0
  2  3  4  0  0  0
  2  8  4  0  0  0
 23  2  1  0  0  0
  3  5  4  0  0  0
  9  4  2  0  0  0
 23  4  1  0  0  0
  5  6  4  0  0  0
  7  6  4  0  0  0
  8  7  4  0  0  0
  9 24  1  0  0  0
 30  9  1  0  0  0
 10 11  4  0  0  0
 19 10  4  0  0  0
 11 12  4  0  0  0
 12 13  1  0  0  0
 17 12  4  0  0  0
 13 14  2  0  0  0
 13 15  2  0  0  0
 13 16  1  0  0  0
 18 17  4  0  0  0
 19 18  4  0  0  0
 20 19  1  0  0  0
 21 20  1  0  0  0
 22 21  1  0  0  0
 22 23  1  0  0  0
 31 22  1  0  0  0
 24 25  4  0  0  0
 24 29  4  0  0  0
 25 26  4  0  0  0
 26 27  4  0  0  0
 28 27  4  0  0  0
 29 28  4  0  0  0
 31 30  2  0  0  0
 31 32  1  0  0  0
 32 36  4  0  0  0
 33 34  4  0  0  0
 34 35  4  0  0  0
 35 36  4  0  0  0
  1 37  1  0  0  0
  3 38  1  0  0  0
  4 39  1  0  0  0
  5 40  1  0  0  0
  6 41  1  0  0  0
  7 42  1  0  0  0
  8 43  1  0  0  0
 10 44  1  0  0  0
 11 45  1  0  0  0
 16 46  1  0  0  0
 16 47  1  0  0  0
 17 48  1  0  0  0
 18 49  1  0  0  0
 20 50  1  0  0  0
 20 51  1  0  0  0
 21 52  1  0  0  0
 21 53  1  0  0  0
 23 54  1  0  0  0
 25 55  1  0  0  0
 26 56  1  0  0  0
 27 57  1  0  0  0
 28 58  1  0  0  0
 29 59  1  0  0  0
 30 60  1  0  0  0
 33 61  1  0  0  0
 34 62  1  0  0  0
 35 63  1  0  0  0
 36 64  1  0  0  0
M  END
$$$$
