4ouj_ligand
  -I-interpret- 

 45 46  0  0  0  0  0  0  0  0999 V2000
   57.9730   14.7360    5.6610 C   0  0  0  0  0
   58.8050   14.8060    6.9270 C   0  0  0  0  0
   60.1750   14.2730    6.7260 C   0  0  0  0  0
   60.2390   12.9210    6.0730 C   0  0  0  0  0
   59.3850   12.9280    4.8250 C   0  0  0  0  0
   59.2750   11.5860    4.1310 C   0  0  0  0  0
   56.6440   15.0530    5.9230 O   0  0  0  0  0
   58.8740   16.1680    7.3280 O   0  0  0  0  0
   60.9680   14.3710    7.9690 O   0  0  0  0  0
   59.6610   12.0200    6.9740 O   0  0  0  0  0
   58.0280   13.3620    5.1420 O   0  0  0  0  0
   60.4690   11.1320    3.6310 O   0  0  0  0  0
   53.3160   16.1740    3.8650 C   0  0  0  0  0
   53.9610   14.8690    3.4320 C   0  0  0  0  0
   54.8910   14.4150    4.4540 C   0  0  0  0  0
   55.9100   15.4350    4.7540 C   0  0  0  0  0
   55.2770   16.7710    5.1050 C   0  0  0  0  0
   56.2660   17.8910    5.4040 C   0  0  0  0  0
   52.6160   16.0060    5.0280 O   0  0  0  0  0
   52.9440   13.9080    3.2380 O   0  0  0  0  0
   55.5050   13.2810    3.9500 O   0  0  0  0  0
   54.3490   17.1920    4.0800 O   0  0  0  0  0
   55.8000   18.8930    6.2510 O   0  0  0  0  0
   58.3712   15.4485    4.9386 H   0  0  0  0  0
   58.3337   14.1905    7.6933 H   0  0  0  0  0
   60.6449   14.9204    5.9857 H   0  0  0  0  0
   61.2659   12.6590    5.8182 H   0  0  0  0  0
   59.8921   13.6154    4.1479 H   0  0  0  0  0
   58.5910   11.7056    3.2908 H   0  0  0  0  0
   58.9311   10.8615    4.8692 H   0  0  0  0  0
   57.9855   16.5079    7.4567 H   0  0  0  0  0
   60.8835   15.2556    8.3323 H   0  0  0  0  0
   60.1836   11.9944    7.7789 H   0  0  0  0  0
   60.3340   10.2821    3.2055 H   0  0  0  0  0
   52.6329   16.4924    3.0775 H   0  0  0  0  0
   54.5128   15.0144    2.5033 H   0  0  0  0  0
   54.3570   14.2151    5.3830 H   0  0  0  0  0
   56.5371   15.5193    3.8665 H   0  0  0  0  0
   54.7455   16.5865    6.0386 H   0  0  0  0  0
   56.4895   18.3699    4.4507 H   0  0  0  0  0
   57.1147   17.4288    5.9081 H   0  0  0  0  0
   52.2171   16.8410    5.2836 H   0  0  0  0  0
   53.3387   13.0770    2.9636 H   0  0  0  0  0
   56.1315   12.9443    4.5948 H   0  0  0  0  0
   56.4894   19.5488    6.3787 H   0  0  0  0  0
  1  2  1  0  0  0
  7  1  1  0  0  0
  1 11  1  0  0  0
  2  3  1  0  0  0
  2  8  1  0  0  0
  3  4  1  0  0  0
  3  9  1  0  0  0
  5  4  1  0  0  0
  4 10  1  0  0  0
  5  6  1  0  0  0
 11  5  1  0  0  0
  6 12  1  0  0  0
 16  7  1  0  0  0
 14 13  1  0  0  0
 13 19  1  0  0  0
 13 22  1  0  0  0
 15 14  1  0  0  0
 14 20  1  0  0  0
 15 16  1  0  0  0
 15 21  1  0  0  0
 16 17  1  0  0  0
 17 18  1  0  0  0
 17 22  1  0  0  0
 18 23  1  0  0  0
  1 24  1  0  0  0
  2 25  1  0  0  0
  3 26  1  0  0  0
  4 27  1  0  0  0
  5 28  1  0  0  0
  6 29  1  0  0  0
  6 30  1  0  0  0
  8 31  1  0  0  0
  9 32  1  0  0  0
 10 33  1  0  0  0
 12 34  1  0  0  0
 13 35  1  0  0  0
 14 36  1  0  0  0
 15 37  1  0  0  0
 16 38  1  0  0  0
 17 39  1  0  0  0
 18 40  1  0  0  0
 18 41  1  0  0  0
 19 42  1  0  0  0
 20 43  1  0  0  0
 21 44  1  0  0  0
 23 45  1  0  0  0
M  END
$$$$
