### 
### Created by X-TOOL on Mon Sep 10 21:13:28 2018
### 

@<TRIPOS>MOLECULE
5dgm_ligand
   37    39     1     0     0
SMALL
GAST_HUCK


@<TRIPOS>ATOM
      1 C7          2.0160   68.8220   27.9400 C.3       1 59Z         0.1014
      2 C17         3.3160   76.1660   27.9320 C.ar      1 59Z         0.0087
      3 C21         0.5330   75.6290   27.3170 C.ar      1 59Z        -0.0710
      4 C24         1.3210   73.1280   27.3690 C.2       1 59Z        -0.0408
      5 C26         2.7430   78.5630   27.9710 C.ar      1 59Z        -0.0598
      6 C28         4.0610   78.9070   28.2870 C.ar      1 59Z        -0.0653
      7 P1          1.4340   68.3180   26.2930 P.3       1 59Z         0.0809
      8 O2          1.7560   69.2530   25.1690 O.co2     1 59Z        -0.5609
      9 O3          2.0200   66.8380   26.1570 O.co2     1 59Z        -0.5609
     10 O5         -0.1400   68.0600   26.4270 O.co2     1 59Z        -0.5609
     11 N10         1.8850   70.2710   28.1190 N.am      1 59Z        -0.2703
     12 C12         2.7300   71.1500   27.5120 C.2       1 59Z         0.2258
     13 O13         3.6340   70.7860   26.7770 O.2       1 59Z        -0.3860
     14 C14         2.5220   72.6110   27.6530 C.2       1 59Z         0.1356
     15 N15         3.4190   73.5810   27.8440 N.pl3     1 59Z        -0.2388
     16 C16         2.8270   74.8190   27.7830 C.ar      1 59Z         0.0834
     17 C18         2.3630   77.2170   27.7800 C.ar      1 59Z        -0.0272
     18 C19         1.0120   76.9440   27.4540 C.ar      1 59Z        -0.0676
     19 C23         1.4710   74.6100   27.4920 C.ar      1 59Z        -0.0167
     20 C30         5.0180   77.9010   28.4230 C.ar      1 59Z        -0.0650
     21 C32         4.6430   76.5630   28.2620 C.ar      1 59Z        -0.0559
     22 C34         4.8520   73.3260   28.1030 C.3       1 59Z         0.1061
     23 C37         5.7530   73.5700   26.9010 C.2       1 59Z         0.0646
     24 O38         5.3620   73.9620   25.7980 O.co2     1 59Z        -0.5662
     25 O39         7.0450   73.3120   27.1460 O.co2     1 59Z        -0.5662
     26 H1          3.0733   68.5394   28.0507 H         1 59Z         0.0712
     27 H2          1.4170   68.3086   28.7066 H         1 59Z         0.0712
     28 H3         -0.5055   75.4185   27.0885 H         1 59Z         0.0575
     29 H4          0.4181   72.5805   27.1025 H         1 59Z         0.0403
     30 H5          1.9989   79.3449   27.8708 H         1 59Z         0.0599
     31 H6          4.3367   79.9462   28.4251 H         1 59Z         0.0599
     32 H7          1.1544   70.6242   28.7034 H         1 59Z         0.1855
     33 H8          0.3281   77.7719   27.3060 H         1 59Z         0.0514
     34 H9          6.0466   78.1548   28.6522 H         1 59Z         0.0592
     35 H10         5.3959   75.7944   28.3943 H         1 59Z         0.0611
     36 H11         4.9658   72.2767   28.4128 H         1 59Z         0.0779
     37 H12         5.1786   73.9869   28.9194 H         1 59Z         0.0779
@<TRIPOS>BOND
     1    1    7 1  
     2   11    1 1  
     3   16    2 ar 
     4    2   17 ar 
     5    2   21 ar 
     6    3   18 ar 
     7   19    3 ar 
     8   14    4 2  
     9    4   19 1  
    10    5    6 ar 
    11   17    5 ar 
    12    6   20 ar 
    13    7    8 ar 
    14    7    9 ar 
    15    7   10 ar 
    16   12   11 am 
    17   12   13 2  
    18   14   12 1  
    19   15   14 1  
    20   15   16 1  
    21   15   22 1  
    22   16   19 ar 
    23   17   18 ar 
    24   20   21 ar 
    25   22   23 1  
    26   23   24 ar 
    27   23   25 ar 
    28    1   26 1  
    29    1   27 1  
    30    3   28 1  
    31    4   29 1  
    32    5   30 1  
    33    6   31 1  
    34   11   32 1  
    35   18   33 1  
    36   20   34 1  
    37   21   35 1  
    38   22   36 1  
    39   22   37 1  
@<TRIPOS>SUBSTRUCTURE
     1 59Z         1

