5dgm_ligand
  -I-interpret- 

 40 42  0  0  0  0  0  0  0  0999 V2000
    2.0160   68.8220   27.9400 C   0  0  0  0  0
    3.3160   76.1660   27.9320 C   0  0  0  0  0
    0.5330   75.6290   27.3170 C   0  0  0  0  0
    1.3210   73.1280   27.3690 C   0  0  0  0  0
    2.7430   78.5630   27.9710 C   0  0  0  0  0
    4.0610   78.9070   28.2870 C   0  0  0  0  0
    1.4340   68.3180   26.2930 P   0  0  0  0  0
    1.7560   69.2530   25.1690 O   0  0  0  0  0
    2.0200   66.8380   26.1570 O   0  0  0  0  0
   -0.1400   68.0600   26.4270 O   0  0  0  0  0
    1.8850   70.2710   28.1190 N   0  0  0  0  0
    2.7300   71.1500   27.5120 C   0  0  0  0  0
    3.6340   70.7860   26.7770 O   0  0  0  0  0
    2.5220   72.6110   27.6530 C   0  0  0  0  0
    3.4190   73.5810   27.8440 N   0  0  0  0  0
    2.8270   74.8190   27.7830 C   0  0  0  0  0
    2.3630   77.2170   27.7800 C   0  0  0  0  0
    1.0120   76.9440   27.4540 C   0  0  0  0  0
    1.4710   74.6100   27.4920 C   0  0  0  0  0
    5.0180   77.9010   28.4230 C   0  0  0  0  0
    4.6430   76.5630   28.2620 C   0  0  0  0  0
    4.8520   73.3260   28.1030 C   0  0  0  0  0
    5.7530   73.5700   26.9010 C   0  0  0  0  0
    5.3620   73.9620   25.7980 O   0  0  0  0  0
    7.0450   73.3120   27.1460 O   0  0  0  0  0
    3.0667   68.5497   28.0395 H   0  0  0  0  0
    1.4116   68.3191   28.6949 H   0  0  0  0  0
   -0.5113   75.4174   27.0872 H   0  0  0  0  0
    0.4173   72.5800   27.1023 H   0  0  0  0  0
    1.9948   79.3492   27.8702 H   0  0  0  0  0
    4.3383   79.9520   28.4258 H   0  0  0  0  0
    1.7598   66.3204   26.9225 H   0  0  0  0  0
   -0.3034   67.4576   27.1564 H   0  0  0  0  0
    1.1398   70.6312   28.7151 H   0  0  0  0  0
    0.3243   77.7765   27.3051 H   0  0  0  0  0
    6.0523   78.1562   28.6535 H   0  0  0  0  0
    5.4001   75.7902   28.3950 H   0  0  0  0  0
    4.9493   72.2739   28.3710 H   0  0  0  0  0
    5.1659   74.0153   28.8869 H   0  0  0  0  0
    7.1451   73.0204   28.0551 H   0  0  0  0  0
  1  7  1  0  0  0
 11  1  1  0  0  0
 16  2  4  0  0  0
  2 17  4  0  0  0
  2 21  4  0  0  0
  3 18  4  0  0  0
 19  3  4  0  0  0
 14  4  4  0  0  0
  4 19  4  0  0  0
  5  6  4  0  0  0
 17  5  4  0  0  0
  6 20  4  0  0  0
  7  8  2  0  0  0
  7  9  1  0  0  0
  7 10  1  0  0  0
 12 11  1  0  0  0
 12 13  2  0  0  0
 14 12  1  0  0  0
 15 14  4  0  0  0
 15 16  4  0  0  0
 15 22  1  0  0  0
 16 19  4  0  0  0
 17 18  4  0  0  0
 20 21  4  0  0  0
 22 23  1  0  0  0
 23 24  2  0  0  0
 23 25  1  0  0  0
  1 26  1  0  0  0
  1 27  1  0  0  0
  3 28  1  0  0  0
  4 29  1  0  0  0
  5 30  1  0  0  0
  6 31  1  0  0  0
  9 32  1  0  0  0
 10 33  1  0  0  0
 11 34  1  0  0  0
 18 35  1  0  0  0
 20 36  1  0  0  0
 21 37  1  0  0  0
 22 38  1  0  0  0
 22 39  1  0  0  0
 25 40  1  0  0  0
M  END
$$$$
