1c50_ligand
  -I-interpret- 

 53 56  0  0  0  0  0  0  0  0999 V2000
   17.4960    7.6850   49.6050 Cl  0  0  0  0  0
   17.9620    8.9860   50.5590 C   0  0  0  0  0
   18.5840   10.0270   49.9050 C   0  0  0  0  0
   18.9960   11.2080   50.6350 C   0  0  0  0  0
   18.7160   11.1570   52.0920 C   0  0  0  0  0
   18.9970   12.1260   52.9520 N   0  0  0  0  0
   18.1100   10.1130   52.6960 C   0  0  0  0  0
   17.6680    8.9620   51.9940 C   0  0  0  0  0
   18.0150   10.4300   54.1040 C   0  0  0  0  0
   18.6590   11.7930   54.1700 C   0  0  0  0  0
   18.8490   12.5480   55.4360 C   0  0  0  0  0
   19.3550   13.6320   55.2530 O   0  0  0  0  0
   18.4780   12.0820   56.6830 N   0  0  0  0  0
   18.7420   12.9100   57.9080 C   0  0  0  0  0
   20.2620   13.0890   58.1330 C   0  0  0  0  0
   21.0010   11.9680   58.3170 O   0  0  0  0  0
   20.8900   14.2860   58.1740 N   0  0  0  0  0
   19.9240   15.3970   58.4740 C   0  0  0  0  0
   20.6690   16.7520   58.5520 C   0  0  0  0  0
   21.7850   16.6900   59.6430 C   0  0  0  0  0
   22.5080   17.9300   59.7510 O   0  0  0  0  0
   22.7750   15.5550   59.3100 C   0  0  0  0  0
   22.0160   14.1970   59.1750 C   0  0  0  0  0
   18.1550   12.2170   59.2290 C   0  0  0  0  0
   18.3930   13.0720   60.5040 C   0  0  0  0  0
   17.5860   14.1970   60.8740 C   0  0  0  0  0
   17.8870   14.9170   62.0450 C   0  0  0  0  0
   19.0100   14.5190   62.8470 C   0  0  0  0  0
   19.3280   15.1940   63.9460 F   0  0  0  0  0
   19.8010   13.4020   62.4760 C   0  0  0  0  0
   19.4950   12.7040   61.3270 C   0  0  0  0  0
   18.7670    9.9614   48.8325 H   0  0  0  0  0
   19.4719   12.0629   50.1547 H   0  0  0  0  0
   17.1545    8.1323   52.4799 H   0  0  0  0  0
   17.5873    9.8358   54.9115 H   0  0  0  0  0
   18.0236   11.1731   56.7717 H   0  0  0  0  0
   18.2546   13.8700   57.7378 H   0  0  0  0  0
   19.4426   15.2004   59.4320 H   0  0  0  0  0
   19.1801   15.4456   57.6788 H   0  0  0  0  0
   19.9581   17.5362   58.8121 H   0  0  0  0  0
   21.1256   16.9650   57.5854 H   0  0  0  0  0
   21.2958   16.5018   60.5987 H   0  0  0  0  0
   23.1815   17.8483   60.4302 H   0  0  0  0  0
   23.5081   15.4750   60.1127 H   0  0  0  0  0
   23.2713   15.7809   58.3662 H   0  0  0  0  0
   22.7222   13.4408   58.8322 H   0  0  0  0  0
   21.5933   13.9411   60.1465 H   0  0  0  0  0
   18.6646   11.2629   59.3635 H   0  0  0  0  0
   17.0792   12.1000   59.0981 H   0  0  0  0  0
   16.7424   14.4938   60.2508 H   0  0  0  0  0
   17.2739   15.7684   62.3405 H   0  0  0  0  0
   20.6450   13.0974   63.0949 H   0  0  0  0  0
   20.1108   11.8509   61.0422 H   0  0  0  0  0
  1  2  1  0  0  0
  2  3  4  0  0  0
  2  8  4  0  0  0
  3  4  4  0  0  0
  4  5  4  0  0  0
  5  6  4  0  0  0
  5  7  4  0  0  0
  6 10  4  0  0  0
  7  8  4  0  0  0
  7  9  4  0  0  0
  9 10  4  0  0  0
 10 11  1  0  0  0
 11 12  2  0  0  0
 11 13  1  0  0  0
 13 14  1  0  0  0
 14 15  1  0  0  0
 14 24  1  0  0  0
 15 16  2  0  0  0
 15 17  1  0  0  0
 17 18  1  0  0  0
 17 23  1  0  0  0
 18 19  1  0  0  0
 19 20  1  0  0  0
 20 21  1  0  0  0
 20 22  1  0  0  0
 22 23  1  0  0  0
 24 25  1  0  0  0
 25 26  4  0  0  0
 25 31  4  0  0  0
 26 27  4  0  0  0
 27 28  4  0  0  0
 28 29  1  0  0  0
 28 30  4  0  0  0
 30 31  4  0  0  0
  3 32  1  0  0  0
  4 33  1  0  0  0
  8 34  1  0  0  0
  9 35  1  0  0  0
 13 36  1  0  0  0
 14 37  1  0  0  0
 18 38  1  0  0  0
 18 39  1  0  0  0
 19 40  1  0  0  0
 19 41  1  0  0  0
 20 42  1  0  0  0
 21 43  1  0  0  0
 22 44  1  0  0  0
 22 45  1  0  0  0
 23 46  1  0  0  0
 23 47  1  0  0  0
 24 48  1  0  0  0
 24 49  1  0  0  0
 26 50  1  0  0  0
 27 51  1  0  0  0
 30 52  1  0  0  0
 31 53  1  0  0  0
M  END
$$$$
