5eyc_ligand
  -I-interpret- 

 44 48  0  0  0  0  0  0  0  0999 V2000
   28.2890   32.0280   60.6820 C   0  0  0  0  0
   27.0500   31.8740   59.8010 C   0  0  0  0  0
   26.2840   30.7790   59.7330 C   0  0  0  0  0
   26.6090   32.8290   58.9830 N   0  0  0  0  0
   25.4590   32.3110   58.3520 O   0  0  0  0  0
   25.2880   31.0410   58.8720 C   0  0  0  0  0
   24.2670   30.2010   58.4310 C   0  0  0  0  0
   24.1390   28.8870   58.9030 C   0  0  0  0  0
   23.1440   28.0350   58.4240 C   0  0  0  0  0
   22.9960   26.7640   58.8740 F   0  0  0  0  0
   23.3920   30.6540   57.4390 C   0  0  0  0  0
   22.4040   29.7850   56.9760 N   0  0  0  0  0
   22.2740   28.4890   57.4420 C   0  0  0  0  0
   21.2480   27.9310   56.7940 N   0  0  0  0  0
   20.7370   28.7380   55.9830 N   0  0  0  0  0
   21.4030   29.8910   56.0410 C   0  0  0  0  0
   21.1370   31.1540   55.2430 C   0  0  0  0  0
   20.2550   30.7730   54.0290 C   0  0  0  0  0
   20.4330   32.0850   56.1520 N   0  0  0  0  0
   19.1170   31.7690   56.5610 C   0  0  0  0  0
   18.4130   32.6050   57.4160 C   0  0  0  0  0
   19.0020   33.7680   57.8790 C   0  0  0  0  0
   18.3090   34.5600   58.7080 N   0  0  0  0  0
   18.8390   35.6840   59.1750 C   0  0  0  0  0
   20.1290   36.0660   58.8250 C   0  0  0  0  0
   20.8790   35.2600   57.9720 C   0  0  0  0  0
   20.3120   34.0930   57.4920 C   0  0  0  0  0
   21.0320   33.2550   56.6320 C   0  0  0  0  0
   22.1830   33.5450   56.3070 O   0  0  0  0  0
   28.0079   31.9010   61.7275 H   0  0  0  0  0
   29.0245   31.2718   60.4077 H   0  0  0  0  0
   28.7152   33.0207   60.5370 H   0  0  0  0  0
   26.4399   29.8469   60.2761 H   0  0  0  0  0
   24.8325   28.5232   59.6612 H   0  0  0  0  0
   23.4799   31.6632   57.0366 H   0  0  0  0  0
   22.0473   31.6237   54.8705 H   0  0  0  0  0
   20.7806   30.0417   53.4149 H   0  0  0  0  0
   19.3171   30.3451   54.3830 H   0  0  0  0  0
   20.0486   31.6649   53.4374 H   0  0  0  0  0
   18.6480   30.8541   56.1989 H   0  0  0  0  0
   17.3993   32.3462   57.7218 H   0  0  0  0  0
   18.2541   36.3166   59.8427 H   0  0  0  0  0
   20.5513   36.9916   59.2162 H   0  0  0  0  0
   21.8926   35.5431   57.6882 H   0  0  0  0  0
  1  2  1  0  0  0
  2  3  4  0  0  0
  2  4  4  0  0  0
  3  6  4  0  0  0
  4  5  4  0  0  0
  5  6  4  0  0  0
  6  7  1  0  0  0
  7  8  4  0  0  0
  7 11  4  0  0  0
  8  9  4  0  0  0
  9 10  1  0  0  0
  9 13  4  0  0  0
 11 12  4  0  0  0
 12 13  4  0  0  0
 12 16  4  0  0  0
 13 14  4  0  0  0
 14 15  4  0  0  0
 15 16  4  0  0  0
 16 17  1  0  0  0
 17 18  1  0  0  0
 17 19  1  0  0  0
 19 20  1  0  0  0
 19 28  1  0  0  0
 20 21  2  0  0  0
 21 22  1  0  0  0
 22 23  4  0  0  0
 22 27  4  0  0  0
 23 24  4  0  0  0
 24 25  4  0  0  0
 25 26  4  0  0  0
 26 27  4  0  0  0
 27 28  1  0  0  0
 28 29  2  0  0  0
  1 30  1  0  0  0
  1 31  1  0  0  0
  1 32  1  0  0  0
  3 33  1  0  0  0
  8 34  1  0  0  0
 11 35  1  0  0  0
 17 36  1  0  0  0
 18 37  1  0  0  0
 18 38  1  0  0  0
 18 39  1  0  0  0
 20 40  1  0  0  0
 21 41  1  0  0  0
 24 42  1  0  0  0
 25 43  1  0  0  0
 26 44  1  0  0  0
M  END
$$$$
