5t27_ligand
  -I-interpret- 

 53 57  0  0  0  0  0  0  0  0999 V2000
  -10.7910    9.9670   21.4570 C   0  0  0  0  0
  -11.1480    8.6440   21.5830 C   0  0  0  0  0
  -10.0990   10.6180   22.4550 C   0  0  0  0  0
  -10.1660    8.5460   23.6910 C   0  0  0  0  0
  -10.5640    4.7710   25.5070 C   0  0  0  0  0
   -9.6240    6.8410   25.4250 C   0  0  0  0  0
   -8.5110    6.3870   26.1160 C   0  0  0  0  0
  -11.6450    3.8850   25.1240 C   0  0  0  0  0
  -13.3500    3.2080   24.0450 C   0  0  0  0  0
  -15.0130    0.9920   21.9300 C   0  0  0  0  0
  -12.9350    2.2010   21.4650 C   0  0  0  0  0
  -14.8020    0.2770   20.6060 C   0  0  0  0  0
  -12.8760    1.4870   20.1330 C   0  0  0  0  0
  -14.5090    3.1890   23.0970 C   0  0  0  0  0
  -12.5940    4.2690   24.2130 N   0  0  0  0  0
   -9.0850    9.1930   25.5180 N   0  0  0  0  0
   -9.7050    8.1600   24.9250 N   0  0  0  0  0
   -7.4200    7.2110   26.4300 N   0  0  0  0  0
  -10.8460    7.8820   22.6940 C   0  0  0  0  0
   -9.4690    4.3170   26.2030 C   0  0  0  0  0
   -9.7950    9.8710   23.5810 C   0  0  0  0  0
  -15.7990    3.0280   23.8800 C   0  0  0  0  0
  -13.2970    0.8470   25.0540 C   0  0  0  0  0
   -8.4440    5.1150   26.5200 N   0  0  0  0  0
   -9.1300   10.2440   24.7130 N   0  0  0  0  0
  -10.6520    6.0450   25.1140 N   0  0  0  0  0
  -11.7770    2.6220   25.5390 N   0  0  0  0  0
  -12.8620    2.2180   24.8640 N   0  0  0  0  0
  -14.3270    2.2970   21.9230 N   0  3  0  0  0
  -13.4000    0.1840   20.3470 O   0  0  0  0  0
  -11.0606   10.5099   20.5511 H   0  0  0  0  0
  -11.6959    8.1748   20.7659 H   0  0  0  0  0
   -9.8067   11.6641   22.3633 H   0  0  0  0  0
  -14.6041    0.3797   22.7337 H   0  0  0  0  0
  -16.0805    1.1524   22.0812 H   0  0  0  0  0
  -12.5249    3.2046   21.3521 H   0  0  0  0  0
  -12.3544    1.6407   22.1979 H   0  0  0  0  0
  -15.2879    0.8345   19.8052 H   0  0  0  0  0
  -15.2343   -0.7224   20.6546 H   0  0  0  0  0
  -11.8521    1.4387   19.7624 H   0  0  0  0  0
  -13.4553    2.0205   19.3795 H   0  0  0  0  0
  -14.5737    4.1555   22.5972 H   0  0  0  0  0
   -7.4233    8.1912   26.1477 H   0  0  0  0  0
   -6.6234    6.8300   26.9406 H   0  0  0  0  0
  -11.1253    6.8316   22.7762 H   0  0  0  0  0
   -9.4351    3.2708   26.5069 H   0  0  0  0  0
  -15.7694    2.0922   24.4381 H   0  0  0  0  0
  -15.9086    3.8624   24.5728 H   0  0  0  0  0
  -16.6423    3.0142   23.1895 H   0  0  0  0  0
  -14.3296    0.8399   25.4030 H   0  0  0  0  0
  -13.2283    0.3109   24.1074 H   0  0  0  0  0
  -12.6587    0.3639   25.7938 H   0  0  0  0  0
  -14.8540    2.8094   21.2159 H   0  0  0  0  0
  2  1  4  0  0  0
  3  1  4  0  0  0
 19  2  4  0  0  0
 21  3  4  0  0  0
 17  4  4  0  0  0
  4 19  4  0  0  0
  4 21  4  0  0  0
  8  5  1  0  0  0
  5 20  4  0  0  0
  5 26  4  0  0  0
  6  7  4  0  0  0
  6 17  1  0  0  0
 26  6  4  0  0  0
  7 18  1  0  0  0
  7 24  4  0  0  0
 15  8  4  0  0  0
  8 27  4  0  0  0
 14  9  1  0  0  0
  9 15  4  0  0  0
  9 28  4  0  0  0
 10 12  1  0  0  0
 29 10  1  0  0  0
 11 13  1  0  0  0
 29 11  1  0  0  0
 12 30  1  0  0  0
 13 30  1  0  0  0
 14 22  1  0  0  0
 14 29  1  0  0  0
 17 16  4  0  0  0
 16 25  4  0  0  0
 20 24  4  0  0  0
 21 25  4  0  0  0
 28 23  1  0  0  0
 27 28  4  0  0  0
  1 31  1  0  0  0
  2 32  1  0  0  0
  3 33  1  0  0  0
 10 34  1  0  0  0
 10 35  1  0  0  0
 11 36  1  0  0  0
 11 37  1  0  0  0
 12 38  1  0  0  0
 12 39  1  0  0  0
 13 40  1  0  0  0
 13 41  1  0  0  0
 14 42  1  0  0  0
 18 43  1  0  0  0
 18 44  1  0  0  0
 19 45  1  0  0  0
 20 46  1  0  0  0
 22 47  1  0  0  0
 22 48  1  0  0  0
 22 49  1  0  0  0
 23 50  1  0  0  0
 23 51  1  0  0  0
 23 52  1  0  0  0
 29 53  1  0  0  0
M  END
$$$$
