2ndf_ligand
  -I-interpret- 

205205  0  0  0  0  0  0  0  0999 V2000
  -16.6800   17.0040   -3.4650 N   0  3  0  0  0
  -16.5780   16.8510   -4.9360 C   0  0  0  0  0
  -17.7430   16.0740   -5.5070 C   0  0  0  0  0
  -18.9010   16.3910   -5.2300 O   0  0  0  0  0
  -17.4400   15.0540   -6.2950 N   0  0  0  0  0
  -18.4750   14.2460   -6.9000 C   0  0  0  0  0
  -18.0280   12.8150   -7.1140 C   0  0  0  0  0
  -17.6200   12.4400   -8.2150 O   0  0  0  0  0
  -18.0850   12.0210   -6.0560 N   0  0  0  0  0
  -17.7200   10.6140   -6.1280 C   0  0  0  0  0
  -18.5320    9.8200   -5.1100 C   0  0  0  0  0
  -19.4890   10.3460   -4.5360 O   0  0  0  0  0
  -16.2170   10.4360   -5.8760 C   0  0  0  0  0
  -15.7780   10.8260   -4.4720 C   0  0  0  0  0
  -14.2650   10.7610   -4.3130 C   0  0  0  0  0
  -13.5760   11.8680   -5.0950 C   0  0  0  0  0
  -12.0970   11.8210   -4.9500 N   0  3  0  0  0
  -18.1530    8.5650   -4.8880 N   0  0  0  0  0
  -18.8330    7.7160   -3.9150 C   0  0  0  0  0
  -18.7740    8.3260   -2.5160 C   0  0  0  0  0
  -17.9380    9.1970   -2.2560 O   0  0  0  0  0
  -18.2200    6.3230   -3.9240 C   0  0  0  0  0
  -19.6690    7.9050   -1.6010 N   0  0  0  0  0
  -19.6850    8.4070   -0.2240 C   0  0  0  0  0
  -18.3270    8.2670    0.4650 C   0  0  0  0  0
  -17.4390    7.5460   -0.0040 O   0  0  0  0  0
  -20.7450    7.5470    0.4810 C   0  0  0  0  0
  -21.0120    6.4080   -0.4450 C   0  0  0  0  0
  -20.7450    6.9280   -1.8260 C   0  0  0  0  0
  -18.1720    8.9510    1.5820 N   0  0  0  0  0
  -16.8920    9.0190    2.2600 C   0  0  0  0  0
  -17.0780    9.0100    3.7730 C   0  0  0  0  0
  -17.8600    9.7910    4.3170 O   0  0  0  0  0
  -16.1740   10.3030    1.8220 C   0  0  0  0  0
  -14.9220   10.6490    2.6140 C   0  0  0  0  0
  -13.6620   10.1070    1.9670 C   0  0  0  0  0
  -12.4670   10.7250    2.5380 N   0  0  0  0  0
  -11.2710   10.7150    1.9580 C   0  0  0  0  0
  -11.0790   10.0440    0.8330 N   0  0  0  0  0
  -10.2630   11.3760    2.5090 N   0  0  0  0  0
  -17.1230    0.8180    3.5870 O   0  0  0  0  0
  -17.3060    0.7740    4.8060 C   0  0  0  0  0
  -17.5060   -0.5880    5.4790 C   0  0  0  0  0
  -17.3310    1.8720    5.5490 N   0  0  0  0  0
  -17.1530    3.2140    5.0060 C   0  0  0  0  0
  -17.0970    4.2780    6.0890 C   0  0  0  0  0
  -16.5330    5.5760    5.5390 C   0  0  0  0  0
  -16.8420    6.7500    6.4420 C   0  0  0  0  0
  -16.3420    8.0940    5.8990 C   0  0  0  0  0
  -16.3650    8.1200    4.4440 N   0  0  0  0  0
  -14.9320    8.3970    6.3950 C   0  0  0  0  0
  -14.0890    7.5030    6.5130 O   0  0  0  0  0
  -14.6870    9.6750    6.6480 N   0  0  0  0  0
  -13.3760   10.1620    7.0620 C   0  0  0  0  0
  -12.9520    9.5600    8.4000 C   0  0  0  0  0
  -13.7870    9.1840    9.2260 O   0  0  0  0  0
  -13.4030   11.6930    7.1430 C   0  0  0  0  0
  -14.3940   12.2460    8.1570 C   0  0  0  0  0
  -14.7010   13.7150    7.9330 C   0  0  0  0  0
  -14.0060   14.5950    8.4410 O   0  0  0  0  0
  -15.7540   13.9890    7.1850 N   0  0  0  0  0
  -11.6400    9.4730    8.5930 N   0  0  0  0  0
  -11.0650    8.8670    9.7870 C   0  0  0  0  0
  -11.1620    9.8240   10.9670 C   0  0  0  0  0
  -11.2390    9.4000   12.1190 O   0  0  0  0  0
   -9.5910    8.4870    9.5570 C   0  0  0  0  0
   -9.3180    7.3740    8.5300 C   0  0  0  0  0
  -10.1310    6.1310    8.8470 C   0  0  0  0  0
   -9.5910    7.8480    7.1080 C   0  0  0  0  0
  -11.1460   11.1130   10.6710 N   0  0  0  0  0
  -11.2640   12.1380   11.6930 C   0  0  0  0  0
  -12.1650   13.2590   11.2010 C   0  0  0  0  0
  -11.8430   13.9380   10.2250 O   0  0  0  0  0
   -9.8930   12.6740   12.0710 C   0  0  0  0  0
  -13.2920   13.4410   11.8740 N   0  0  0  0  0
  -14.2900   14.4110   11.4560 C   0  0  0  0  0
  -13.8140   15.8420   11.6990 C   0  0  0  0  0
  -13.7490   16.3000   12.8410 O   0  0  0  0  0
  -15.6250   14.1760   12.1910 C   0  0  0  0  0
  -16.0140   12.7990   12.0640 O   0  0  0  0  0
  -16.7250   15.0660   11.6250 C   0  0  0  0  0
  -13.4610   16.5230   10.6080 N   0  0  0  0  0
  -13.0600   17.9300   10.6480 C   0  0  0  0  0
  -11.8530   18.1480   11.5620 C   0  0  0  0  0
  -11.8090   19.1050   12.3400 O   0  0  0  0  0
  -14.2360   18.8090   11.0970 C   0  0  0  0  0
  -15.4400   18.7460   10.1650 C   0  0  0  0  0
  -15.1490   19.3770    8.8090 C   0  0  0  0  0
  -15.0020   20.8880    8.9140 C   0  0  0  0  0
  -14.7320   21.5150    7.5950 N   0  3  0  0  0
  -10.8740   17.2620   11.4630 N   0  0  0  0  0
   -9.6530   17.3850   12.2440 C   0  0  0  0  0
   -8.4390   17.4120   11.3230 C   0  0  0  0  0
   -7.6200   16.4710   11.3740 O   0  0  0  0  0
   -9.5490   16.2430   13.2440 C   0  0  0  0  0
   -8.3290   18.3630   10.5190 O   0  0  0  0  0
  -15.8772   17.5320   -3.1228 H   0  0  0  0  0
  -17.5395   17.5027   -3.2350 H   0  0  0  0  0
  -16.6932   16.0822   -3.0286 H   0  0  0  0  0
  -15.6617   16.3044   -5.1591 H   0  0  0  0  0
  -16.5796   17.8451   -5.3830 H   0  0  0  0  0
  -16.4608   14.8348   -6.4781 H   0  0  0  0  0
  -18.7173   14.6756   -7.8720 H   0  0  0  0  0
  -19.3348   14.2372   -6.2301 H   0  0  0  0  0
  -18.3940   12.4070   -5.1638 H   0  0  0  0  0
  -17.9427   10.2396   -7.1272 H   0  0  0  0  0
  -15.6914   11.0883   -6.5734 H   0  0  0  0  0
  -15.9893    9.3779   -6.0052 H   0  0  0  0  0
  -16.2266   10.1267   -3.7665 H   0  0  0  0  0
  -16.0980   11.8512   -4.2857 H   0  0  0  0  0
  -13.9181    9.8007   -4.6945 H   0  0  0  0  0
  -14.0228   10.8812   -3.2571 H   0  0  0  0  0
  -13.9246   12.8250   -4.7069 H   0  0  0  0  0
  -13.8177   11.7390   -6.1500 H   0  0  0  0  0
  -11.6794   12.5792   -5.4896 H   0  0  0  0  0
  -11.8495   11.9260   -3.9661 H   0  0  0  0  0
  -11.7510   10.9257   -5.2952 H   0  0  0  0  0
  -17.3650    8.1850   -5.4124 H   0  0  0  0  0
  -19.8832    7.6398   -4.1967 H   0  0  0  0  0
  -18.3255    5.8874   -4.9176 H   0  0  0  0  0
  -17.1632    6.3908   -3.6660 H   0  0  0  0  0
  -18.7338    5.6966   -3.1948 H   0  0  0  0  0
  -19.9092    9.4732   -0.1918 H   0  0  0  0  0
  -21.6512    8.1171    0.6856 H   0  0  0  0  0
  -20.3958    7.1988    1.4531 H   0  0  0  0  0
  -22.0377    6.0522   -0.3482 H   0  0  0  0  0
  -20.3754    5.5538   -0.2145 H   0  0  0  0  0
  -20.4666    6.1433   -2.5294 H   0  0  0  0  0
  -21.6268    7.3666   -2.2931 H   0  0  0  0  0
  -18.9720    9.4441    1.9786 H   0  0  0  0  0
  -16.2946    8.1471    1.9934 H   0  0  0  0  0
  -16.8769   11.1219    1.9752 H   0  0  0  0  0
  -15.8582   10.1480    0.7903 H   0  0  0  0  0
  -15.0135   10.2005    3.6032 H   0  0  0  0  0
  -14.8391   11.7350    2.6572 H   0  0  0  0  0
  -13.6941   10.3313    0.9008 H   0  0  0  0  0
  -13.6155    9.0322    2.1423 H   0  0  0  0  0
  -12.5565   11.1940    3.4393 H   0  0  0  0  0
  -11.8510    9.5312    0.4069 H   0  0  0  0  0
   -9.3441   11.3663    2.0663 H   0  0  0  0  0
  -10.4061   11.8944    3.3757 H   0  0  0  0  0
  -18.3818   -1.0773    5.0528 H   0  0  0  0  0
  -16.6248   -1.2073    5.3118 H   0  0  0  0  0
  -17.6532   -0.4448    6.5495 H   0  0  0  0  0
  -17.4826    1.7730    6.5528 H   0  0  0  0  0
  -18.0063    3.4326    4.3640 H   0  0  0  0  0
  -16.2068    3.2349    4.4652 H   0  0  0  0  0
  -16.4516    3.9270    6.8942 H   0  0  0  0  0
  -18.1071    4.4605    6.4556 H   0  0  0  0  0
  -16.9884    5.7626    4.5664 H   0  0  0  0  0
  -15.4501    5.4754    5.4662 H   0  0  0  0  0
  -16.3356    6.5733    7.3909 H   0  0  0  0  0
  -17.9264    6.8171    6.5296 H   0  0  0  0  0
  -17.0199    8.8619    6.2717 H   0  0  0  0  0
  -15.8162    7.4330    3.9271 H   0  0  0  0  0
  -15.4481   10.3467    6.5489 H   0  0  0  0  0
  -12.6409    9.8509    6.3197 H   0  0  0  0  0
  -13.7057   12.0619    6.1630 H   0  0  0  0  0
  -12.4097   12.0164    7.4543 H   0  0  0  0  0
  -13.9518   12.1434    9.1480 H   0  0  0  0  0
  -15.3254   11.6894    8.0532 H   0  0  0  0  0
  -16.0170   14.9589    7.0103 H   0  0  0  0  0
  -16.3044   13.2308    6.7819 H   0  0  0  0  0
  -11.0126    9.8439    7.8794 H   0  0  0  0  0
  -11.6314    7.9620   10.0067 H   0  0  0  0  0
   -9.2247    8.1112   10.5123 H   0  0  0  0  0
   -9.1071    9.3821    9.1663 H   0  0  0  0  0
   -8.2607    7.1180    8.5978 H   0  0  0  0  0
   -9.8631    5.7663    9.8387 H   0  0  0  0  0
  -11.1926    6.3770    8.8235 H   0  0  0  0  0
   -9.9187    5.3607    8.1056 H   0  0  0  0  0
  -10.6347    8.1503    7.0212 H   0  0  0  0  0
   -8.9456    8.6959    6.8788 H   0  0  0  0  0
   -9.3874    7.0357    6.4102 H   0  0  0  0  0
  -11.0479   11.3956    9.6958 H   0  0  0  0  0
  -11.7111   11.6980   12.5844 H   0  0  0  0  0
   -9.2791   11.8594   12.4552 H   0  0  0  0  0
   -9.4172   13.1049   11.1901 H   0  0  0  0  0
  -10.0029   13.4408   12.8379 H   0  0  0  0  0
  -13.4641   12.8834   12.7106 H   0  0  0  0  0
  -14.4438   14.2755   10.3854 H   0  0  0  0  0
  -15.4826   14.4254   13.2425 H   0  0  0  0  0
  -16.8453   12.6588   12.5233 H   0  0  0  0  0
  -16.4406   16.1117   11.7419 H   0  0  0  0  0
  -16.8637   14.8419   10.5674 H   0  0  0  0  0
  -17.6546   14.8787   12.1624 H   0  0  0  0  0
  -13.4709   16.0431    9.7080 H   0  0  0  0  0
  -12.7665   18.2182    9.6386 H   0  0  0  0  0
  -13.8857   19.8411   11.1070 H   0  0  0  0  0
  -14.5600   18.4460   12.0724 H   0  0  0  0  0
  -16.2578   19.2980   10.6283 H   0  0  0  0  0
  -15.6916   17.6976   10.0051 H   0  0  0  0  0
  -15.9822   19.1577    8.1413 H   0  0  0  0  0
  -14.2130   18.9654    8.4315 H   0  0  0  0  0
  -14.1600   21.1032    9.5719 H   0  0  0  0  0
  -15.9369   21.2950    9.2993 H   0  0  0  0  0
  -14.6410   22.5242    7.7119 H   0  0  0  0  0
  -13.8662   21.1366    7.2108 H   0  0  0  0  0
  -15.5040   21.3134    6.9596 H   0  0  0  0  0
  -10.9786   16.4742   10.8236 H   0  0  0  0  0
   -9.6823   18.3226   12.7991 H   0  0  0  0  0
  -10.4066   16.2711   13.9162 H   0  0  0  0  0
   -9.5360   15.2934   12.7091 H   0  0  0  0  0
   -8.6301   16.3493   13.8206 H   0  0  0  0  0
   -9.0590   18.9735   10.6454 H   0  0  0  0  0
  2  1  1  0  0  0
  3  2  1  0  0  0
  3  4  2  0  0  0
  5  3  1  0  0  0
  6  5  1  0  0  0
  7  6  1  0  0  0
  7  8  2  0  0  0
  9  7  1  0  0  0
 10  9  1  0  0  0
 11 10  1  0  0  0
 10 13  1  0  0  0
 11 12  2  0  0  0
 18 11  1  0  0  0
 13 14  1  0  0  0
 14 15  1  0  0  0
 15 16  1  0  0  0
 16 17  1  0  0  0
 19 18  1  0  0  0
 20 19  1  0  0  0
 19 22  1  0  0  0
 20 21  2  0  0  0
 23 20  1  0  0  0
 24 23  1  0  0  0
 23 29  1  0  0  0
 25 24  1  0  0  0
 24 27  1  0  0  0
 25 26  2  0  0  0
 30 25  1  0  0  0
 27 28  1  0  0  0
 28 29  1  0  0  0
 31 30  1  0  0  0
 32 31  1  0  0  0
 31 34  1  0  0  0
 32 33  2  0  0  0
 50 32  1  0  0  0
 34 35  1  0  0  0
 35 36  1  0  0  0
 36 37  1  0  0  0
 37 38  1  0  0  0
 38 39  2  0  0  0
 38 40  1  0  0  0
 42 41  2  0  0  0
 42 43  1  0  0  0
 44 42  1  0  0  0
 45 44  1  0  0  0
 46 45  1  0  0  0
 47 46  1  0  0  0
 48 47  1  0  0  0
 49 48  1  0  0  0
 49 50  1  0  0  0
 49 51  1  0  0  0
 51 52  2  0  0  0
 51 53  1  0  0  0
 53 54  1  0  0  0
 54 55  1  0  0  0
 54 57  1  0  0  0
 55 56  2  0  0  0
 55 62  1  0  0  0
 57 58  1  0  0  0
 58 59  1  0  0  0
 59 60  2  0  0  0
 59 61  1  0  0  0
 62 63  1  0  0  0
 63 64  1  0  0  0
 63 66  1  0  0  0
 64 65  2  0  0  0
 64 70  1  0  0  0
 66 67  1  0  0  0
 67 68  1  0  0  0
 67 69  1  0  0  0
 70 71  1  0  0  0
 71 72  1  0  0  0
 71 74  1  0  0  0
 72 73  2  0  0  0
 72 75  1  0  0  0
 75 76  1  0  0  0
 76 77  1  0  0  0
 76 79  1  0  0  0
 77 78  2  0  0  0
 77 82  1  0  0  0
 79 80  1  0  0  0
 79 81  1  0  0  0
 82 83  1  0  0  0
 83 84  1  0  0  0
 83 86  1  0  0  0
 84 85  2  0  0  0
 84 91  1  0  0  0
 86 87  1  0  0  0
 87 88  1  0  0  0
 88 89  1  0  0  0
 89 90  1  0  0  0
 91 92  1  0  0  0
 92 93  1  0  0  0
 92 95  1  0  0  0
 93 94  2  0  0  0
 93 96  1  0  0  0
  1 97  1  0  0  0
  1 98  1  0  0  0
  1 99  1  0  0  0
  2100  1  0  0  0
  2101  1  0  0  0
  5102  1  0  0  0
  6103  1  0  0  0
  6104  1  0  0  0
  9105  1  0  0  0
 10106  1  0  0  0
 13107  1  0  0  0
 13108  1  0  0  0
 14109  1  0  0  0
 14110  1  0  0  0
 15111  1  0  0  0
 15112  1  0  0  0
 16113  1  0  0  0
 16114  1  0  0  0
 17115  1  0  0  0
 17116  1  0  0  0
 17117  1  0  0  0
 18118  1  0  0  0
 19119  1  0  0  0
 22120  1  0  0  0
 22121  1  0  0  0
 22122  1  0  0  0
 24123  1  0  0  0
 27124  1  0  0  0
 27125  1  0  0  0
 28126  1  0  0  0
 28127  1  0  0  0
 29128  1  0  0  0
 29129  1  0  0  0
 30130  1  0  0  0
 31131  1  0  0  0
 34132  1  0  0  0
 34133  1  0  0  0
 35134  1  0  0  0
 35135  1  0  0  0
 36136  1  0  0  0
 36137  1  0  0  0
 37138  1  0  0  0
 39139  1  0  0  0
 40140  1  0  0  0
 40141  1  0  0  0
 43142  1  0  0  0
 43143  1  0  0  0
 43144  1  0  0  0
 44145  1  0  0  0
 45146  1  0  0  0
 45147  1  0  0  0
 46148  1  0  0  0
 46149  1  0  0  0
 47150  1  0  0  0
 47151  1  0  0  0
 48152  1  0  0  0
 48153  1  0  0  0
 49154  1  0  0  0
 50155  1  0  0  0
 53156  1  0  0  0
 54157  1  0  0  0
 57158  1  0  0  0
 57159  1  0  0  0
 58160  1  0  0  0
 58161  1  0  0  0
 61162  1  0  0  0
 61163  1  0  0  0
 62164  1  0  0  0
 63165  1  0  0  0
 66166  1  0  0  0
 66167  1  0  0  0
 67168  1  0  0  0
 68169  1  0  0  0
 68170  1  0  0  0
 68171  1  0  0  0
 69172  1  0  0  0
 69173  1  0  0  0
 69174  1  0  0  0
 70175  1  0  0  0
 71176  1  0  0  0
 74177  1  0  0  0
 74178  1  0  0  0
 74179  1  0  0  0
 75180  1  0  0  0
 76181  1  0  0  0
 79182  1  0  0  0
 80183  1  0  0  0
 81184  1  0  0  0
 81185  1  0  0  0
 81186  1  0  0  0
 82187  1  0  0  0
 83188  1  0  0  0
 86189  1  0  0  0
 86190  1  0  0  0
 87191  1  0  0  0
 87192  1  0  0  0
 88193  1  0  0  0
 88194  1  0  0  0
 89195  1  0  0  0
 89196  1  0  0  0
 90197  1  0  0  0
 90198  1  0  0  0
 90199  1  0  0  0
 91200  1  0  0  0
 92201  1  0  0  0
 95202  1  0  0  0
 95203  1  0  0  0
 95204  1  0  0  0
 96205  1  0  0  0
M  END
$$$$
