### 
### Created by X-TOOL on Mon Sep 10 21:13:30 2018
### 

@<TRIPOS>MOLECULE
2ndf_ligand
  205   205     1     0     0
SMALL
GAST_HUCK


@<TRIPOS>ATOM
      1 N         -16.6800   17.0040   -3.4650 N.4       1 GLY         0.2357
      2 CA        -16.5780   16.8510   -4.9360 C.3       1 GLY         0.0545
      3 C         -17.7430   16.0740   -5.5070 C.2       1 GLY         0.2234
      4 O         -18.9010   16.3910   -5.2300 O.2       1 GLY        -0.3911
      5 N         -17.4400   15.0540   -6.2950 N.am      1 GLY        -0.2639
      6 CA        -18.4750   14.2460   -6.9000 C.3       1 GLY         0.1202
      7 C         -18.0280   12.8150   -7.1140 C.2       1 GLY         0.2007
      8 O         -17.6200   12.4400   -8.2150 O.2       1 GLY        -0.3947
      9 N         -18.0850   12.0210   -6.0560 N.am      1 LYS        -0.2640
     10 CA        -17.7200   10.6140   -6.1280 C.3       1 LYS         0.1310
     11 C         -18.5320    9.8200   -5.1100 C.2       1 LYS         0.2039
     12 O         -19.4890   10.3460   -4.5360 O.2       1 LYS        -0.3944
     13 CB        -16.2170   10.4360   -5.8760 C.3       1 LYS        -0.0122
     14 CG        -15.7780   10.8260   -4.4720 C.3       1 LYS        -0.0440
     15 CD        -14.2650   10.7610   -4.3130 C.3       1 LYS        -0.0124
     16 CE        -13.5760   11.8680   -5.0950 C.3       1 LYS        -0.0354
     17 NZ        -12.0970   11.8210   -4.9500 N.4       1 LYS         0.2185
     18 N         -18.1530    8.5650   -4.8880 N.am      1 ALA        -0.2640
     19 CA        -18.8330    7.7160   -3.9150 C.3       1 ALA         0.1284
     20 C         -18.7740    8.3260   -2.5160 C.2       1 ALA         0.2061
     21 O         -17.9380    9.1970   -2.2560 O.2       1 ALA        -0.3942
     22 CB        -18.2200    6.3230   -3.9240 C.3       1 ALA        -0.0244
     23 N         -19.6690    7.9050   -1.6010 N.am      1 PRO        -0.2498
     24 CA        -19.6850    8.4070   -0.2240 C.3       1 PRO         0.1338
     25 C         -18.3270    8.2670    0.4650 C.2       1 PRO         0.2041
     26 O         -17.4390    7.5460   -0.0040 O.2       1 PRO        -0.3944
     27 CB        -20.7450    7.5470    0.4810 C.3       1 PRO        -0.0104
     28 CG        -21.0120    6.4080   -0.4450 C.3       1 PRO        -0.0281
     29 CD        -20.7450    6.9280   -1.8260 C.3       1 PRO         0.0369
     30 N         -18.1720    8.9510    1.5820 N.am      1 ARG        -0.2637
     31 CA        -16.8920    9.0190    2.2600 C.3       1 ARG         0.1311
     32 C         -17.0780    9.0100    3.7730 C.2       1 ARG         0.2039
     33 O         -17.8600    9.7910    4.3170 O.2       1 ARG        -0.3944
     34 CB        -16.1740   10.3030    1.8220 C.3       1 ARG        -0.0092
     35 CG        -14.9220   10.6490    2.6140 C.3       1 ARG        -0.0156
     36 CD        -13.6620   10.1070    1.9670 C.3       1 ARG         0.0627
     37 NE        -12.4670   10.7250    2.5380 N.pl3     1 ARG        -0.2723
     38 CZ        -11.2710   10.7150    1.9580 C.cat     1 ARG         0.2882
     39 NH1       -11.0790   10.0440    0.8330 N.pl3     1 ARG        -0.2849
     40 NH2       -10.2630   11.3760    2.5090 N.pl3     1 ARG        -0.2849
     41 OH        -17.1230    0.8180    3.5870 O.2       1 ALY        -0.3974
     42 CH        -17.3060    0.7740    4.8060 C.2       1 ALY         0.1729
     43 CH3       -17.5060   -0.5880    5.4790 C.3       1 ALY         0.0256
     44 NZ        -17.3310    1.8720    5.5490 N.am      1 ALY        -0.2872
     45 CE        -17.1530    3.2140    5.0060 C.3       1 ALY         0.0309
     46 CD        -17.0970    4.2780    6.0890 C.3       1 ALY        -0.0325
     47 CG        -16.5330    5.5760    5.5390 C.3       1 ALY        -0.0470
     48 CB        -16.8420    6.7500    6.4420 C.3       1 ALY        -0.0123
     49 CA        -16.3420    8.0940    5.8990 C.3       1 ALY         0.1310
     50 N         -16.3650    8.1200    4.4440 N.am      1 ALY        -0.2637
     51 C         -14.9320    8.3970    6.3950 C.2       1 ALY         0.2039
     52 O         -14.0890    7.5030    6.5130 O.2       1 ALY        -0.3944
     53 N         -14.6870    9.6750    6.6480 N.am      1 GLN        -0.2636
     54 CA        -13.3760   10.1620    7.0620 C.3       1 GLN         0.1330
     55 C         -12.9520    9.5600    8.4000 C.2       1 GLN         0.2040
     56 O         -13.7870    9.1840    9.2260 O.2       1 GLN        -0.3944
     57 CB        -13.4030   11.6930    7.1430 C.3       1 GLN         0.0045
     58 CG        -14.3940   12.2460    8.1570 C.3       1 GLN         0.0412
     59 CD        -14.7010   13.7150    7.9330 C.2       1 GLN         0.1737
     60 OE1       -14.0060   14.5950    8.4410 O.2       1 GLN        -0.3973
     61 NE2       -15.7540   13.9890    7.1850 N.am      1 GLN        -0.3009
     62 N         -11.6400    9.4730    8.5930 N.am      1 LEU        -0.2637
     63 CA        -11.0650    8.8670    9.7870 C.3       1 LEU         0.1312
     64 C         -11.1620    9.8240   10.9670 C.2       1 LEU         0.2039
     65 O         -11.2390    9.4000   12.1190 O.2       1 LEU        -0.3944
     66 CB         -9.5910    8.4870    9.5570 C.3       1 LEU        -0.0101
     67 CG         -9.3180    7.3740    8.5300 C.3       1 LEU        -0.0425
     68 CD1       -10.1310    6.1310    8.8470 C.3       1 LEU        -0.0625
     69 CD2        -9.5910    7.8480    7.1080 C.3       1 LEU        -0.0625
     70 N         -11.1460   11.1130   10.6710 N.am      1 ALA        -0.2640
     71 CA        -11.2640   12.1380   11.6930 C.3       1 ALA         0.1282
     72 C         -12.1650   13.2590   11.2010 C.2       1 ALA         0.2037
     73 O         -11.8430   13.9380   10.2250 O.2       1 ALA        -0.3944
     74 CB         -9.8930   12.6740   12.0710 C.3       1 ALA        -0.0244
     75 N         -13.2920   13.4410   11.8740 N.am      1 THR        -0.2613
     76 CA        -14.2900   14.4110   11.4560 C.3       1 THR         0.1565
     77 C         -13.8140   15.8420   11.6990 C.2       1 THR         0.2065
     78 O         -13.7490   16.3000   12.8410 O.2       1 THR        -0.3943
     79 CB        -15.6250   14.1760   12.1910 C.3       1 THR         0.0924
     80 OG1       -16.0140   12.7990   12.0640 O.3       1 THR        -0.3874
     81 CG2       -16.7250   15.0660   11.6250 C.3       1 THR        -0.0346
     82 N         -13.4610   16.5230   10.6080 N.am      1 LYS        -0.2637
     83 CA        -13.0600   17.9300   10.6480 C.3       1 LYS         0.1309
     84 C         -11.8530   18.1480   11.5620 C.2       1 LYS         0.2033
     85 O         -11.8090   19.1050   12.3400 O.2       1 LYS        -0.3944
     86 CB        -14.2360   18.8090   11.0970 C.3       1 LYS        -0.0122
     87 CG        -15.4400   18.7460   10.1650 C.3       1 LYS        -0.0440
     88 CD        -15.1490   19.3770    8.8090 C.3       1 LYS        -0.0124
     89 CE        -15.0020   20.8880    8.9140 C.3       1 LYS        -0.0354
     90 NZ        -14.7320   21.5150    7.5950 N.4       1 LYS         0.2185
     91 N         -10.8740   17.2620   11.4630 N.am      1 ALA        -0.2698
     92 CA         -9.6530   17.3850   12.2440 C.3       1 ALA         0.0916
     93 C          -8.4390   17.4120   11.3230 C.2       1 ALA         0.0598
     94 O          -7.6200   16.4710   11.3740 O.co2     1 ALA        -0.5666
     95 CB         -9.5490   16.2430   13.2440 C.3       1 ALA        -0.0300
     96 OXT        -8.3290   18.3630   10.5190 O.co2     1 ALA        -0.5666
     97 H1        -15.8870   17.5257   -3.1257 H         1 GLY         0.2012
     98 H2        -16.6931   16.0936   -3.0326 H         1 GLY         0.2012
     99 H3        -17.5291   17.4968   -3.2365 H         1 GLY         0.2012
    100 H4        -15.6454   16.3185   -5.1738 H         1 GLY         0.1061
    101 H5        -16.5576   17.8498   -5.3964 H         1 GLY         0.1061
    102 H6        -16.4800   14.8391   -6.4745 H         1 GLY         0.1882
    103 H7        -18.7430   14.6832   -7.8731 H         1 GLY         0.0763
    104 H8        -19.3565   14.2476   -6.2420 H         1 GLY         0.0763
    105 H9        -18.3879   12.3994   -5.1813 H         1 LYS         0.1883
    106 H10       -17.9531   10.2392   -7.1356 H         1 LYS         0.0800
    107 H11       -15.6684   11.0603   -6.5966 H         1 LYS         0.0312
    108 H12       -15.9613    9.3785   -6.0378 H         1 LYS         0.0312
    109 H13       -16.2415   10.1376   -3.7501 H         1 LYS         0.0269
    110 H14       -16.1136   11.8532   -4.2667 H         1 LYS         0.0269
    111 H15       -13.9081    9.7877   -4.6809 H         1 LYS         0.0317
    112 H16       -14.0125   10.8653   -3.2475 H         1 LYS         0.0317
    113 H17       -13.9373   12.8396   -4.7269 H         1 LYS         0.0813
    114 H18       -13.8311   11.7613   -6.1597 H         1 LYS         0.0813
    115 H19       -11.6832   12.5699   -5.4829 H         1 LYS         0.1994
    116 H20       -11.7539   10.9366   -5.2909 H         1 LYS         0.1994
    117 H21       -11.8512   11.9247   -3.9780 H         1 LYS         0.1994
    118 H22       -17.3804    8.1924   -5.4021 H         1 ALA         0.1883
    119 H23       -19.8899    7.6319   -4.2080 H         1 ALA         0.0797
    120 H24       -18.7378    5.6898   -3.1885 H         1 ALA         0.0277
    121 H25       -17.1534    6.3901   -3.6637 H         1 ALA         0.0277
    122 H26       -18.3259    5.8822   -4.9262 H         1 ALA         0.0277
    123 H27       -19.9808    9.4664   -0.2121 H         1 PRO         0.0802
    124 H28       -21.6630    8.1292    0.6494 H         1 PRO         0.0313
    125 H29       -20.3628    7.1782    1.4443 H         1 PRO         0.0313
    126 H30       -22.0580    6.0797   -0.3557 H         1 PRO         0.0287
    127 H31       -20.3425    5.5653   -0.2177 H         1 PRO         0.0287
    128 H32       -20.4144    6.1212   -2.4966 H         1 PRO         0.0524
    129 H33       -21.6385    7.4119   -2.2472 H         1 PRO         0.0524
    130 H34       -18.9563    9.4345    1.9708 H         1 ARG         0.1883
    131 H35       -16.2851    8.1479    1.9722 H         1 ARG         0.0800
    132 H36       -16.8815   11.1393    1.9220 H         1 ARG         0.0313
    133 H37       -15.8877   10.1892    0.7660 H         1 ARG         0.0313
    134 H38       -15.0129   10.2216    3.6235 H         1 ARG         0.0301
    135 H39       -14.8400   11.7436    2.6852 H         1 ARG         0.0301
    136 H40       -13.6938   10.3172    0.8878 H         1 ARG         0.0689
    137 H41       -13.6153    9.0198    2.1276 H         1 ARG         0.0689
    138 H42       -12.5574   11.1986    3.4482 H         1 ARG         0.2642
    139 H43       -10.1501   10.0398    0.3880 H         1 ARG         0.2615
    140 H44       -11.8585    9.5262    0.4028 H         1 ARG         0.2615
    141 H45       -10.4075   11.8995    3.3842 H         1 ARG         0.2615
    142 H46        -9.3351   11.3662    2.0620 H         1 ARG         0.2615
    143 H47       -17.6547   -0.4448    6.5594 H         1 ALY         0.0467
    144 H48       -16.6173   -1.2140    5.3111 H         1 ALY         0.0467
    145 H49       -18.3896   -1.0829    5.0497 H         1 ALY         0.0467
    146 H50       -17.4797    1.7749    6.5331 H         1 ALY         0.1850
    147 H51       -17.9957    3.4376    4.3353 H         1 ALY         0.0520
    148 H52       -16.2129    3.2418    4.4355 H         1 ALY         0.0520
    149 H53       -16.4550    3.9246    6.9093 H         1 ALY         0.0285
    150 H54       -18.1129    4.4588    6.4702 H         1 ALY         0.0285
    151 H55       -16.9724    5.7636    4.5482 H         1 ALY         0.0268
    152 H56       -15.4416    5.4779    5.4435 H         1 ALY         0.0268
    153 H57       -16.3673    6.5717    7.4181 H         1 ALY         0.0312
    154 H58       -17.9327    6.8116    6.5705 H         1 ALY         0.0312
    155 H59       -17.0153    8.8814    6.2688 H         1 ALY         0.0800
    156 H60       -15.8269    7.4464    3.9373 H         1 ALY         0.1883
    157 H61       -15.4332   10.3336    6.5508 H         1 GLN         0.1883
    158 H62       -12.6385    9.8639    6.3022 H         1 GLN         0.0801
    159 H63       -13.6688   12.0865    6.1508 H         1 GLN         0.0337
    160 H64       -12.3968   12.0418    7.4183 H         1 GLN         0.0337
    161 H65       -13.9711   12.1244    9.1651 H         1 GLN         0.0504
    162 H66       -15.3311   11.6749    8.0811 H         1 GLN         0.0504
    163 H67       -16.0045   14.9399    7.0033 H         1 GLN         0.1814
    164 H68       -16.3010   13.2456    6.8002 H         1 GLN         0.1814
    165 H69       -11.0249    9.8366    7.8934 H         1 LEU         0.1883
    166 H70       -11.6318    7.9543   10.0228 H         1 LEU         0.0800
    167 H71        -9.1764    8.1596   10.5218 H         1 LEU         0.0315
    168 H72        -9.0625    9.3903    9.2183 H         1 LEU         0.0315
    169 H73        -8.2527    7.1083    8.5977 H         1 LEU         0.0298
    170 H74        -9.9176    5.3528    8.0994 H         1 LEU         0.0232
    171 H75       -11.2027    6.3779    8.8235 H         1 LEU         0.0232
    172 H76        -9.8616    5.7619    9.8476 H         1 LEU         0.0232
    173 H77        -8.9930    8.7475    6.9002 H         1 LEU         0.0232
    174 H78       -10.6596    8.0850    6.9993 H         1 LEU         0.0232
    175 H79        -9.3174    7.0538    6.3978 H         1 LEU         0.0232
    176 H80       -11.0498   11.3900    9.7150 H         1 ALA         0.1883
    177 H81       -11.7205   11.6899   12.5878 H         1 ALA         0.0797
    178 H82       -10.0025   13.4480   12.8449 H         1 ALA         0.0277
    179 H83        -9.4118   13.1092   11.1828 H         1 ALA         0.0277
    180 H84        -9.2724   11.8528   12.4590 H         1 ALA         0.0277
    181 H85       -13.4607   12.8944   12.6942 H         1 THR         0.1884
    182 H86       -14.4601   14.2822   10.3769 H         1 THR         0.0826
    183 H87       -15.4887   14.4143   13.2562 H         1 THR         0.0639
    184 H88       -16.8366   12.6603   12.5185 H         1 THR         0.2101
    185 H89       -17.6638   14.8779   12.1666 H         1 THR         0.0257
    186 H90       -16.8660   14.8408   10.5576 H         1 THR         0.0257
    187 H91       -16.4392   16.1217   11.7424 H         1 THR         0.0257
    188 H92       -13.4707   16.0526    9.7256 H         1 LYS         0.1883
    189 H93       -12.7740   18.2310    9.6294 H         1 LYS         0.0800
    190 H94       -13.8903   19.8520   11.1473 H         1 LYS         0.0312
    191 H95       -14.5537   18.4793   12.0972 H         1 LYS         0.0312
    192 H96       -16.2790   19.2819   10.6328 H         1 LYS         0.0269
    193 H97       -15.7167   17.6922   10.0137 H         1 LYS         0.0269
    194 H98       -15.9769   19.1458    8.1226 H         1 LYS         0.0317
    195 H99       -14.2144   18.9543    8.4117 H         1 LYS         0.0317
    196 H100      -14.1676   21.1171    9.5932 H         1 LYS         0.0813
    197 H101      -15.9332   21.3076    9.3224 H         1 LYS         0.0813
    198 H102      -14.6419   22.5124    7.7093 H         1 LYS         0.1994
    199 H103      -15.4944   21.3164    6.9662 H         1 LYS         0.1994
    200 H104      -13.8765   21.1418    7.2143 H         1 LYS         0.1994
    201 H105      -10.9765   16.4896   10.8362 H         1 ALA         0.1875
    202 H106       -9.6880   18.3328   12.8012 H         1 ALA         0.0723
    203 H107       -8.6220   16.3491   13.8266 H         1 ALA         0.0270
    204 H108       -9.5357   15.2840   12.7054 H         1 ALA         0.0270
    205 H109      -10.4140   16.2703   13.9230 H         1 ALA         0.0270
@<TRIPOS>BOND
     1    2    1 1  
     2    3    2 1  
     3    3    4 2  
     4    5    3 am 
     5    6    5 1  
     6    7    6 1  
     7    7    8 2  
     8    9    7 am 
     9   10    9 1  
    10   11   10 1  
    11   10   13 1  
    12   11   12 2  
    13   18   11 am 
    14   13   14 1  
    15   14   15 1  
    16   15   16 1  
    17   16   17 1  
    18   19   18 1  
    19   20   19 1  
    20   19   22 1  
    21   20   21 2  
    22   23   20 am 
    23   24   23 1  
    24   23   29 1  
    25   25   24 1  
    26   24   27 1  
    27   25   26 2  
    28   30   25 am 
    29   27   28 1  
    30   28   29 1  
    31   31   30 1  
    32   32   31 1  
    33   31   34 1  
    34   32   33 2  
    35   50   32 am 
    36   34   35 1  
    37   35   36 1  
    38   36   37 1  
    39   37   38 ar 
    40   38   39 ar 
    41   38   40 ar 
    42   42   41 2  
    43   42   43 1  
    44   44   42 am 
    45   45   44 1  
    46   46   45 1  
    47   47   46 1  
    48   48   47 1  
    49   49   48 1  
    50   49   50 1  
    51   49   51 1  
    52   51   52 2  
    53   51   53 am 
    54   53   54 1  
    55   54   55 1  
    56   54   57 1  
    57   55   56 2  
    58   55   62 am 
    59   57   58 1  
    60   58   59 1  
    61   59   60 2  
    62   59   61 am 
    63   62   63 1  
    64   63   64 1  
    65   63   66 1  
    66   64   65 2  
    67   64   70 am 
    68   66   67 1  
    69   67   68 1  
    70   67   69 1  
    71   70   71 1  
    72   71   72 1  
    73   71   74 1  
    74   72   73 2  
    75   72   75 am 
    76   75   76 1  
    77   76   77 1  
    78   76   79 1  
    79   77   78 2  
    80   77   82 am 
    81   79   80 1  
    82   79   81 1  
    83   82   83 1  
    84   83   84 1  
    85   83   86 1  
    86   84   85 2  
    87   84   91 am 
    88   86   87 1  
    89   87   88 1  
    90   88   89 1  
    91   89   90 1  
    92   91   92 1  
    93   92   93 1  
    94   92   95 1  
    95   93   94 ar 
    96   93   96 ar 
    97    1   97 1  
    98    1   98 1  
    99    1   99 1  
   100    2  100 1  
   101    2  101 1  
   102    5  102 1  
   103    6  103 1  
   104    6  104 1  
   105    9  105 1  
   106   10  106 1  
   107   13  107 1  
   108   13  108 1  
   109   14  109 1  
   110   14  110 1  
   111   15  111 1  
   112   15  112 1  
   113   16  113 1  
   114   16  114 1  
   115   17  115 1  
   116   17  116 1  
   117   17  117 1  
   118   18  118 1  
   119   19  119 1  
   120   22  120 1  
   121   22  121 1  
   122   22  122 1  
   123   24  123 1  
   124   27  124 1  
   125   27  125 1  
   126   28  126 1  
   127   28  127 1  
   128   29  128 1  
   129   29  129 1  
   130   30  130 1  
   131   31  131 1  
   132   34  132 1  
   133   34  133 1  
   134   35  134 1  
   135   35  135 1  
   136   36  136 1  
   137   36  137 1  
   138   37  138 1  
   139   39  139 1  
   140   39  140 1  
   141   40  141 1  
   142   40  142 1  
   143   43  143 1  
   144   43  144 1  
   145   43  145 1  
   146   44  146 1  
   147   45  147 1  
   148   45  148 1  
   149   46  149 1  
   150   46  150 1  
   151   47  151 1  
   152   47  152 1  
   153   48  153 1  
   154   48  154 1  
   155   49  155 1  
   156   50  156 1  
   157   53  157 1  
   158   54  158 1  
   159   57  159 1  
   160   57  160 1  
   161   58  161 1  
   162   58  162 1  
   163   61  163 1  
   164   61  164 1  
   165   62  165 1  
   166   63  166 1  
   167   66  167 1  
   168   66  168 1  
   169   67  169 1  
   170   68  170 1  
   171   68  171 1  
   172   68  172 1  
   173   69  173 1  
   174   69  174 1  
   175   69  175 1  
   176   70  176 1  
   177   71  177 1  
   178   74  178 1  
   179   74  179 1  
   180   74  180 1  
   181   75  181 1  
   182   76  182 1  
   183   79  183 1  
   184   80  184 1  
   185   81  185 1  
   186   81  186 1  
   187   81  187 1  
   188   82  188 1  
   189   83  189 1  
   190   86  190 1  
   191   86  191 1  
   192   87  192 1  
   193   87  193 1  
   194   88  194 1  
   195   88  195 1  
   196   89  196 1  
   197   89  197 1  
   198   90  198 1  
   199   90  199 1  
   200   90  200 1  
   201   91  201 1  
   202   92  202 1  
   203   95  203 1  
   204   95  204 1  
   205   95  205 1  
@<TRIPOS>SUBSTRUCTURE
     1 GLY         1

