4luv_ligand
  -I-interpret- 

 22 23  0  0  0  0  0  0  0  0999 V2000
   15.6690   12.9860   20.3040 O   0  0  0  0  0
   16.7810   13.0660   19.6160 C   0  0  0  0  0
   15.6390   11.9280   21.0790 C   0  0  0  0  0
   17.5850   11.9660   19.9380 C   0  0  0  0  0
   16.8320   11.2160   20.8990 C   0  0  0  0  0
   17.0950   14.1720   18.6690 C   0  0  0  0  0
   14.4870   11.5930   21.9600 C   0  0  0  0  0
   13.4550   10.3450   23.7280 C   0  0  0  0  0
   14.5680   10.6160   22.9430 C   0  0  0  0  0
   12.2780   11.0530   23.5280 C   0  0  0  0  0
   16.3060   15.1540   18.5960 O   0  0  0  0  0
   13.3080   12.2970   21.7650 C   0  0  0  0  0
   12.2020   12.0280   22.5490 C   0  0  0  0  0
   13.5270    9.1320   24.9580 Cl  0  0  0  0  0
   18.1410   14.1320   17.9670 O   0  0  0  0  0
   11.2150   10.7980   24.2750 F   0  0  0  0  0
   18.5729   11.7304   19.5421 H   0  0  0  0  0
   17.1257   10.2868   21.3873 H   0  0  0  0  0
   15.4967   10.0667   23.0972 H   0  0  0  0  0
   15.5691   15.0162   19.1956 H   0  0  0  0  0
   13.2536   13.0637   20.9921 H   0  0  0  0  0
   11.2750   12.5808   22.3970 H   0  0  0  0  0
  1  2  4  0  0  0
  1  3  4  0  0  0
  2  4  4  0  0  0
  2  6  1  0  0  0
  3  5  4  0  0  0
  3  7  1  0  0  0
  4  5  4  0  0  0
  6 11  1  0  0  0
  6 15  2  0  0  0
  7  9  4  0  0  0
  7 12  4  0  0  0
  9  8  4  0  0  0
  8 10  4  0  0  0
  8 14  1  0  0  0
 10 13  4  0  0  0
 10 16  1  0  0  0
 12 13  4  0  0  0
  4 17  1  0  0  0
  5 18  1  0  0  0
  9 19  1  0  0  0
 11 20  1  0  0  0
 12 21  1  0  0  0
 13 22  1  0  0  0
M  END
$$$$
