4mw5_ligand
  -I-interpret- 

 47 48  0  0  0  0  0  0  0  0999 V2000
  -41.5580  -17.8760   -7.0910 C   0  0  0  0  0
  -42.0010  -16.5400   -6.9730 O   0  0  0  0  0
  -41.0690  -15.5380   -7.0230 C   0  0  0  0  0
  -41.6690  -14.2970   -6.9560 C   0  0  0  0  0
  -39.7000  -15.6690   -7.1350 C   0  0  0  0  0
  -38.9440  -14.5230   -7.1540 C   0  0  0  0  0
  -37.2230  -14.6670   -7.2090 Cl  0  0  0  0  0
  -39.5130  -13.2690   -7.0960 C   0  0  0  0  0
  -40.8970  -13.1480   -7.0060 C   0  0  0  0  0
  -41.5720  -11.7990   -6.9930 C   0  0  0  0  0
  -41.8800  -11.2900   -8.3320 N   0  3  0  0  0
  -43.0570  -11.9260   -8.9260 C   0  0  0  0  0
  -43.5110  -11.2180  -10.1820 C   0  0  0  0  0
  -44.4360  -12.0360  -11.0520 C   0  0  0  0  0
  -43.7180  -12.8690  -12.0110 N   0  0  0  0  0
  -44.3780  -13.6870  -12.8490 C   0  0  0  0  0
  -45.6060  -13.7370  -12.8700 O   0  0  0  0  0
  -43.5780  -14.4960  -13.6150 N   0  0  0  0  0
  -44.0010  -15.5480  -14.4730 C   0  0  0  0  0
  -45.3150  -15.6580  -14.9200 C   0  0  0  0  0
  -45.6870  -16.7220  -15.7280 C   0  0  0  0  0
  -44.7630  -17.6650  -16.1030 C   0  0  0  0  0
  -43.4540  -17.5530  -15.6750 C   0  0  0  0  0
  -43.0690  -16.5030  -14.8590 C   0  0  0  0  0
  -41.0564  -18.0078   -8.0497 H   0  0  0  0  0
  -40.8627  -18.0997   -6.2819 H   0  0  0  0  0
  -42.4143  -18.5479   -7.0321 H   0  0  0  0  0
  -42.7524  -14.2209   -6.8636 H   0  0  0  0  0
  -39.2333  -16.6515   -7.2062 H   0  0  0  0  0
  -38.8843  -12.3789   -7.1204 H   0  0  0  0  0
  -40.8873  -11.0933   -6.5225 H   0  0  0  0  0
  -42.5153  -11.9086   -6.4580 H   0  0  0  0  0
  -41.0807  -11.4905   -8.9331 H   0  0  0  0  0
  -42.0735  -10.2920   -8.2491 H   0  0  0  0  0
  -43.8689  -11.8854   -8.1998 H   0  0  0  0  0
  -42.7942  -12.9507   -9.1888 H   0  0  0  0  0
  -42.6194  -11.0043  -10.7715 H   0  0  0  0  0
  -44.0624  -10.3309   -9.8704 H   0  0  0  0  0
  -45.0646  -11.3452  -11.6139 H   0  0  0  0  0
  -45.0112  -12.6949  -10.4015 H   0  0  0  0  0
  -42.6993  -12.8300  -12.0461 H   0  0  0  0  0
  -42.5738  -14.3249  -13.5638 H   0  0  0  0  0
  -46.0519  -14.9072  -14.6347 H   0  0  0  0  0
  -46.7192  -16.8098  -16.0672 H   0  0  0  0  0
  -45.0610  -18.5002  -16.7369 H   0  0  0  0  0
  -42.7190  -18.2970  -15.9822 H   0  0  0  0  0
  -42.0360  -16.4258  -14.5199 H   0  0  0  0  0
  1  2  1  0  0  0
  2  3  1  0  0  0
  3  4  4  0  0  0
  3  5  4  0  0  0
  4  9  4  0  0  0
  5  6  4  0  0  0
  6  7  1  0  0  0
  6  8  4  0  0  0
  8  9  4  0  0  0
  9 10  1  0  0  0
 10 11  1  0  0  0
 11 12  1  0  0  0
 12 13  1  0  0  0
 13 14  1  0  0  0
 14 15  1  0  0  0
 15 16  1  0  0  0
 16 17  2  0  0  0
 16 18  1  0  0  0
 18 19  1  0  0  0
 19 20  4  0  0  0
 19 24  4  0  0  0
 20 21  4  0  0  0
 21 22  4  0  0  0
 22 23  4  0  0  0
 23 24  4  0  0  0
  1 25  1  0  0  0
  1 26  1  0  0  0
  1 27  1  0  0  0
  4 28  1  0  0  0
  5 29  1  0  0  0
  8 30  1  0  0  0
 10 31  1  0  0  0
 10 32  1  0  0  0
 11 33  1  0  0  0
 11 34  1  0  0  0
 12 35  1  0  0  0
 12 36  1  0  0  0
 13 37  1  0  0  0
 13 38  1  0  0  0
 14 39  1  0  0  0
 14 40  1  0  0  0
 15 41  1  0  0  0
 18 42  1  0  0  0
 20 43  1  0  0  0
 21 44  1  0  0  0
 22 45  1  0  0  0
 23 46  1  0  0  0
 24 47  1  0  0  0
M  END
$$$$
