5d3x_ligand
  -I-interpret- 

 44 44  0  0  0  0  0  0  0  0999 V2000
    4.5500    8.7320    4.8970 C   0  0  0  0  0
    3.3010    9.1490    5.4170 O   0  0  0  0  0
    4.4160    7.4330    4.1210 C   0  0  0  0  0
    4.0880    6.3630    4.9840 O   0  0  0  0  0
    5.7100    7.1440    3.3590 C   0  0  0  0  0
    5.6870    5.8300    2.8080 O   0  0  0  0  0
    7.0240    7.6750    4.0030 C   0  0  0  0  0
    8.3080    7.0360    3.8920 O   0  0  0  0  0
    6.9410    8.3920    5.3820 C   0  0  0  0  0
    7.8590    7.8850    6.3420 O   0  0  0  0  0
    5.5650    8.5370    6.0010 C   0  0  0  0  0
    5.6040    9.7030    6.8040 O   0  0  0  0  0
    2.4210   10.1740    4.5840 P   0  0  0  0  0
    1.6850    9.4490    3.4750 O   0  0  0  0  0
    3.3030   11.2480    3.9860 O   0  0  0  0  0
    1.4150   10.8100    5.5180 O   0  0  0  0  0
    5.6690    5.8100    1.2000 P   0  0  0  0  0
    4.5440    6.6400    0.6250 O   0  0  0  0  0
    5.5430    4.3640    0.8100 O   0  0  0  0  0
    7.0020    6.3600    0.7350 O   0  0  0  0  0
    8.9680    5.6350    3.5090 P   0  0  0  0  0
    8.3080    4.4890    4.2590 O   0  0  0  0  0
   10.3850    5.8310    4.0240 O   0  0  0  0  0
    9.0130    5.4570    2.0020 O   0  0  0  0  0
    9.2520    8.6310    6.4980 P   0  0  0  0  0
   10.3720    7.6540    6.2420 O   0  0  0  0  0
    9.3280    9.7600    5.4970 O   0  0  0  0  0
    9.3950    9.1390    7.9100 O   0  0  0  0  0
    4.8922    9.5203    4.2265 H   0  0  0  0  0
    3.6045    7.5381    3.4009 H   0  0  0  0  0
    3.2740    6.5673    5.4501 H   0  0  0  0  0
    5.7403    7.7956    2.4857 H   0  0  0  0  0
    7.0343    8.3670    3.1609 H   0  0  0  0  0
    7.2340    9.4046    5.1047 H   0  0  0  0  0
    5.2941    7.6587    6.5869 H   0  0  0  0  0
    4.7477    9.8340    7.2178 H   0  0  0  0  0
    2.3216    9.0446    2.8811 H   0  0  0  0  0
    3.9409   10.8434    3.3936 H   0  0  0  0  0
    4.6543    7.5554    0.8923 H   0  0  0  0  0
    7.0721    7.2832    0.9889 H   0  0  0  0  0
    8.3190    4.6759    5.2006 H   0  0  0  0  0
   10.3651    5.9444    4.9771 H   0  0  0  0  0
   10.3017    7.3159    5.3462 H   0  0  0  0  0
    9.2340    9.4062    4.6095 H   0  0  0  0  0
  1  2  1  0  0  0
  1  3  1  0  0  0
  1 11  1  0  0  0
  2 13  1  0  0  0
  3  4  1  0  0  0
  3  5  1  0  0  0
  5  6  1  0  0  0
  5  7  1  0  0  0
  6 17  1  0  0  0
  7  8  1  0  0  0
  7  9  1  0  0  0
  8 21  1  0  0  0
  9 10  1  0  0  0
  9 11  1  0  0  0
 10 25  1  0  0  0
 11 12  1  0  0  0
 13 14  1  0  0  0
 13 15  1  0  0  0
 13 16  2  0  0  0
 17 18  1  0  0  0
 17 19  2  0  0  0
 17 20  1  0  0  0
 21 22  1  0  0  0
 21 23  1  0  0  0
 21 24  2  0  0  0
 25 26  1  0  0  0
 25 27  1  0  0  0
 25 28  2  0  0  0
  1 29  1  0  0  0
  3 30  1  0  0  0
  4 31  1  0  0  0
  5 32  1  0  0  0
  7 33  1  0  0  0
  9 34  1  0  0  0
 11 35  1  0  0  0
 12 36  1  0  0  0
 14 37  1  0  0  0
 15 38  1  0  0  0
 18 39  1  0  0  0
 20 40  1  0  0  0
 22 41  1  0  0  0
 23 42  1  0  0  0
 26 43  1  0  0  0
 27 44  1  0  0  0
M  END
$$$$
