1lor_ligand
  -I-interpret- 

 35 36  0  0  0  0  0  0  0  0999 V2000
   39.3420   34.7470   35.1960 P   0  0  0  0  0
   40.5880   34.8470   34.3600 O   0  0  0  0  0
   38.1800   34.4870   34.3190 O   0  0  0  0  0
   39.3610   33.5690   36.3050 O   0  0  0  0  0
   38.9930   36.0960   35.9780 O   0  0  0  0  0
   39.9270   36.7430   36.8350 C   0  0  0  0  0
   39.2490   37.9700   37.4020 C   0  0  0  0  0
   40.1870   38.6590   38.2380 O   0  0  0  0  0
   38.6750   39.0070   36.4590 C   0  0  0  0  0
   37.5090   39.6570   36.9960 O   0  0  0  0  0
   39.8350   39.9980   36.3380 C   0  0  0  0  0
   39.4210   41.3320   35.9880 O   0  0  0  0  0
   40.5140   39.9040   37.7060 C   0  0  0  0  0
   41.9530   40.1890   37.8410 N   0  0  0  0  0
   42.8650   39.4910   37.0300 C   0  0  0  0  0
   42.4720   38.6550   36.2370 O   0  0  0  0  0
   44.1790   39.8180   37.2130 N   0  0  0  0  0
   44.6910   40.7540   38.1110 C   0  0  0  0  0
   45.8960   40.9160   38.1400 O   0  0  0  0  0
   43.6980   41.4160   38.9130 C   0  0  0  0  0
   42.3960   41.1410   38.7790 C   0  0  0  0  0
   41.5150   41.7000   39.4770 O   0  0  0  0  0
   41.3418   35.0158   34.9300 H   0  0  0  0  0
   40.1045   33.7011   36.8978 H   0  0  0  0  0
   40.8222   37.0241   36.2803 H   0  0  0  0  0
   40.2359   36.0730   37.6374 H   0  0  0  0  0
   38.3781   37.5441   37.9002 H   0  0  0  0  0
   38.3385   38.5798   35.5144 H   0  0  0  0  0
   37.1841   40.3024   36.3639 H   0  0  0  0  0
   40.5106   39.7538   35.5183 H   0  0  0  0  0
   39.0048   41.3201   35.1230 H   0  0  0  0  0
   40.1180   40.7523   38.2642 H   0  0  0  0  0
   44.8569   39.3255   36.6314 H   0  0  0  0  0
   44.0133   42.1583   39.6463 H   0  0  0  0  0
   40.6505   41.3655   39.2272 H   0  0  0  0  0
  1  5  1  0  0  0
  1  4  1  0  0  0
  1  3  2  0  0  0
  1  2  1  0  0  0
  5  6  1  0  0  0
  6  7  1  0  0  0
  7  9  1  0  0  0
  7  8  1  0  0  0
  8 13  1  0  0  0
 13 14  1  0  0  0
 13 11  1  0  0  0
 11 12  1  0  0  0
 11  9  1  0  0  0
  9 10  1  0  0  0
 14 21  1  0  0  0
 14 15  1  0  0  0
 15 17  1  0  0  0
 15 16  2  0  0  0
 17 18  1  0  0  0
 18 20  1  0  0  0
 18 19  2  0  0  0
 20 21  2  0  0  0
 21 22  1  0  0  0
  2 23  1  0  0  0
  4 24  1  0  0  0
  6 25  1  0  0  0
  6 26  1  0  0  0
  7 27  1  0  0  0
  9 28  1  0  0  0
 10 29  1  0  0  0
 11 30  1  0  0  0
 12 31  1  0  0  0
 13 32  1  0  0  0
 17 33  1  0  0  0
 20 34  1  0  0  0
 22 35  1  0  0  0
M  END
$$$$
