4elg_ligand
  -I-interpret- 

 72 75  0  0  0  0  0  0  0  0999 V2000
   15.2950  -31.4430   -6.4220 N   0  0  0  0  0
   15.7020  -31.9100   -5.0520 C   0  0  0  0  0
   15.9830  -30.9750   -4.0540 C   0  0  0  0  0
   15.8760  -29.5210   -4.3530 C   0  0  0  0  0
   16.5530  -28.6570   -3.2320 C   0  0  0  0  0
   15.8450  -27.5350   -2.6840 C   0  0  0  0  0
   16.4330  -26.7480   -1.6850 C   0  0  0  0  0
   15.7490  -25.6850   -1.1690 O   0  0  0  0  0
   14.3230  -25.6180   -1.3360 C   0  0  0  0  0
   17.7190  -27.0530   -1.2170 C   0  0  0  0  0
   18.2970  -26.2730   -0.2290 O   0  0  0  0  0
   18.4240  -26.7910    1.0960 C   0  0  0  0  0
   18.4210  -28.1520   -1.7530 C   0  0  0  0  0
   22.6790  -28.1570   -0.8110 O   0  0  0  0  0
   17.8140  -28.9600   -2.7800 C   0  0  0  0  0
   16.3700  -31.4550   -2.7470 C   0  0  0  0  0
   16.4490  -32.8000   -2.5370 N   0  0  0  0  0
   16.1700  -33.6630   -3.5300 C   0  0  0  0  0
   16.2620  -35.0790   -3.2800 N   0  0  0  0  0
   15.7970  -33.2330   -4.7880 N   0  0  0  0  0
   19.8500  -28.4900   -1.2310 C   0  0  0  0  0
   20.8800  -28.8180   -2.1310 C   0  0  0  0  0
   22.2880  -28.9090   -1.6470 C   0  0  0  0  0
   23.1740  -29.8990   -2.1840 N   0  0  0  0  0
   22.7540  -30.7600   -3.1300 N   0  3  0  0  0
   23.5440  -30.7190   -4.3280 C   0  0  0  0  0
   24.5240  -29.9840   -1.7210 C   0  0  0  0  0
   24.6470  -31.1550   -0.7480 C   0  0  0  0  0
   25.9790  -31.2800    0.0740 C   0  0  0  0  0
   26.0720  -30.3060    1.2180 C   0  0  0  0  0
   25.4770  -30.1780   -2.8510 C   0  0  0  0  0
   25.0010  -30.5310   -4.0970 C   0  0  0  0  0
   25.9030  -30.7170   -5.1780 C   0  0  0  0  0
   27.2890  -30.5420   -4.9800 C   0  0  0  0  0
   27.7630  -30.1920   -3.7400 C   0  0  0  0  0
   26.8500  -30.0050   -2.6510 C   0  0  0  0  0
   26.3490  -32.7890    0.4760 C   0  0  0  0  0
   15.2247  -30.4450   -6.6206 H   0  0  0  0  0
   15.0892  -32.1242   -7.1528 H   0  0  0  0  0
   14.8204  -29.2546   -4.4064 H   0  0  0  0  0
   16.3829  -29.3228   -5.2974 H   0  0  0  0  0
   14.8457  -27.2942   -3.0466 H   0  0  0  0  0
   14.0832  -25.6044   -2.3992 H   0  0  0  0  0
   13.8625  -26.4889   -0.8695 H   0  0  0  0  0
   13.9456  -24.7101   -0.8655 H   0  0  0  0  0
   17.4352  -27.0299    1.4877 H   0  0  0  0  0
   19.0355  -27.6930    1.0750 H   0  0  0  0  0
   18.8978  -26.0440    1.7329 H   0  0  0  0  0
   18.3543  -29.8097   -3.1972 H   0  0  0  0  0
   16.5948  -30.7541   -1.9431 H   0  0  0  0  0
   16.5363  -35.4173   -2.3577 H   0  0  0  0  0
   16.0528  -35.7431   -4.0254 H   0  0  0  0  0
   20.0529  -28.4721   -0.1602 H   0  0  0  0  0
   20.6498  -29.0053   -3.1798 H   0  0  0  0  0
   21.8002  -30.5001   -3.3812 H   0  0  0  0  0
   22.8283  -31.7013   -2.7443 H   0  0  0  0  0
   23.1993  -29.8638   -4.9093 H   0  0  0  0  0
   23.4205  -31.6809   -4.8256 H   0  0  0  0  0
   24.7752  -29.0473   -1.2234 H   0  0  0  0  0
   24.5973  -32.0534   -1.3633 H   0  0  0  0  0
   23.8598  -31.0055   -0.0090 H   0  0  0  0  0
   26.7667  -30.9773   -0.6159 H   0  0  0  0  0
   26.0203  -29.2880    0.8319 H   0  0  0  0  0
   25.2451  -30.4770    1.9072 H   0  0  0  0  0
   27.0178  -30.4502    1.7403 H   0  0  0  0  0
   25.5243  -30.9952   -6.1615 H   0  0  0  0  0
   27.9817  -30.6843   -5.8095 H   0  0  0  0  0
   28.8332  -30.0564   -3.5837 H   0  0  0  0  0
   27.2263  -29.7277   -1.6663 H   0  0  0  0  0
   25.5491  -33.2074    1.0869 H   0  0  0  0  0
   26.4674  -33.3859   -0.4283 H   0  0  0  0  0
   27.2808  -32.7949    1.0415 H   0  0  0  0  0
  2  1  1  0  0  0
  3  2  4  0  0  0
  2 20  4  0  0  0
  4  3  1  0  0  0
  3 16  4  0  0  0
  5  4  1  0  0  0
  5  6  4  0  0  0
 15  5  4  0  0  0
  7  6  4  0  0  0
  7  8  1  0  0  0
 10  7  4  0  0  0
  8  9  1  0  0  0
 10 11  1  0  0  0
 13 10  4  0  0  0
 11 12  1  0  0  0
 13 15  4  0  0  0
 21 13  1  0  0  0
 23 14  2  0  0  0
 16 17  4  0  0  0
 17 18  4  0  0  0
 18 19  1  0  0  0
 20 18  4  0  0  0
 22 21  2  0  0  0
 22 23  1  0  0  0
 23 24  1  0  0  0
 24 25  1  0  0  0
 24 27  1  0  0  0
 25 26  1  0  0  0
 26 32  1  0  0  0
 27 28  1  0  0  0
 27 31  1  0  0  0
 28 29  1  0  0  0
 29 30  1  0  0  0
 29 37  1  0  0  0
 31 32  4  0  0  0
 31 36  4  0  0  0
 32 33  4  0  0  0
 33 34  4  0  0  0
 34 35  4  0  0  0
 35 36  4  0  0  0
  1 38  1  0  0  0
  1 39  1  0  0  0
  4 40  1  0  0  0
  4 41  1  0  0  0
  6 42  1  0  0  0
  9 43  1  0  0  0
  9 44  1  0  0  0
  9 45  1  0  0  0
 12 46  1  0  0  0
 12 47  1  0  0  0
 12 48  1  0  0  0
 15 49  1  0  0  0
 16 50  1  0  0  0
 19 51  1  0  0  0
 19 52  1  0  0  0
 21 53  1  0  0  0
 22 54  1  0  0  0
 25 55  1  0  0  0
 25 56  1  0  0  0
 26 57  1  0  0  0
 26 58  1  0  0  0
 27 59  1  0  0  0
 28 60  1  0  0  0
 28 61  1  0  0  0
 29 62  1  0  0  0
 30 63  1  0  0  0
 30 64  1  0  0  0
 30 65  1  0  0  0
 33 66  1  0  0  0
 34 67  1  0  0  0
 35 68  1  0  0  0
 36 69  1  0  0  0
 37 70  1  0  0  0
 37 71  1  0  0  0
 37 72  1  0  0  0
M  END
$$$$
