2ow2_ligand
  -I-interpret- 

 31 31  0  0  0  0  0  0  0  0999 V2000
   25.7750    4.4590   52.5070 C   0  0  0  0  0
   26.3920    4.8050   51.2640 O   0  0  0  0  0
   26.4000    6.1580   51.1150 C   0  0  0  0  0
   27.5090    6.8990   51.5110 C   0  0  0  0  0
   27.5270    8.2790   51.3340 C   0  0  0  0  0
   25.3070    6.8000   50.5450 C   0  0  0  0  0
   25.3260    8.1790   50.3660 C   0  0  0  0  0
   26.4350    8.9210   50.7570 C   0  0  0  0  0
   26.4490   10.6540   50.4910 S   0  0  0  0  0
   27.8570   11.1390   50.2960 O   0  0  0  0  0
   25.8560   11.3510   51.6790 O   0  0  0  0  0
   25.4640   10.9980   48.9870 C   0  0  0  0  0
   24.4720   12.1440   49.2060 C   0  0  0  0  0
   23.5560   11.8150   50.1940 F   0  0  0  0  0
   23.7800   12.4110   48.0340 F   0  0  0  0  0
   26.3570   11.2690   47.7740 C   0  0  0  0  0
   27.1300   10.0120   47.3680 C   0  0  0  0  0
   28.3020   10.1680   46.9670 O   0  0  0  0  0
   26.5280    8.9210   47.4660 O   0  0  0  0  0
   26.3346    4.9095   53.3268 H   0  0  0  0  0
   24.7501    4.8298   52.5180 H   0  0  0  0  0
   25.7717    3.3749   52.6202 H   0  0  0  0  0
   28.3657    6.3973   51.9609 H   0  0  0  0  0
   28.3962    8.8573   51.6472 H   0  0  0  0  0
   24.4349    6.2226   50.2383 H   0  0  0  0  0
   24.4682    8.6801   49.9175 H   0  0  0  0  0
   24.8858   10.0982   48.7770 H   0  0  0  0  0
   25.0392   13.0232   49.5116 H   0  0  0  0  0
   27.0719   12.0496   48.0343 H   0  0  0  0  0
   25.7276   11.5767   46.9390 H   0  0  0  0  0
   25.6408    9.0751   47.7986 H   0  0  0  0  0
  1  2  1  0  0  0
  2  3  1  0  0  0
  3  4  4  0  0  0
  3  6  4  0  0  0
  4  5  4  0  0  0
  5  8  4  0  0  0
  6  7  4  0  0  0
  7  8  4  0  0  0
  8  9  1  0  0  0
  9 10  2  0  0  0
  9 11  2  0  0  0
  9 12  1  0  0  0
 12 13  1  0  0  0
 12 16  1  0  0  0
 13 14  1  0  0  0
 13 15  1  0  0  0
 16 17  1  0  0  0
 17 18  2  0  0  0
 17 19  1  0  0  0
  1 20  1  0  0  0
  1 21  1  0  0  0
  1 22  1  0  0  0
  4 23  1  0  0  0
  5 24  1  0  0  0
  6 25  1  0  0  0
  7 26  1  0  0  0
 12 27  1  0  0  0
 13 28  1  0  0  0
 16 29  1  0  0  0
 16 30  1  0  0  0
 19 31  1  0  0  0
M  END
$$$$
