3l4x_ligand
  -I-interpret- 

 51 51  0  0  0  0  0  0  0  0999 V2000
    3.8520  -25.9490   20.8560 O   0  0  0  0  0
    3.7070  -14.0180   18.5140 O   0  0  0  0  0
    5.3250  -22.7480   21.4240 O   0  0  0  0  0
   -0.9850  -14.5900   20.7570 O   0  0  0  0  0
    2.2010  -18.7470   22.6660 O   0  0  0  0  0
    1.7340  -23.4440   21.9790 O   0  0  0  0  0
    0.0640  -14.6200   18.0800 O   0  0  0  0  0
    4.2710  -20.9270   22.7360 O   0  0  0  0  0
    1.5370  -20.4540   18.1660 O   0  0  0  0  0
    3.3830  -21.9840   17.7250 O   0  0  0  0  0
    1.5710  -22.5760   19.1850 O   0  0  0  0  0
    4.4240  -25.0100   21.8050 C   0  0  0  0  0
    3.2050  -15.2750   18.0170 C   0  0  0  0  0
    1.1560  -15.7830   21.4640 C   0  0  0  0  0
    2.2670  -18.2260   20.2920 C   0  0  0  0  0
    3.1310  -20.9840   19.9040 O   0  0  0  0  0
    4.1110  -23.5460   21.4060 C   0  0  0  0  0
    0.1450  -15.4450   20.3480 C   0  0  0  0  0
    2.7790  -19.1290   21.4140 C   0  0  0  0  0
    3.0270  -22.9430   22.3280 C   0  0  0  0  0
    0.9430  -14.7780   19.2030 C   0  0  0  0  0
    2.9740  -21.4090   22.3840 C   0  0  0  0  0
    2.0400  -15.8190   18.8590 C   0  0  0  0  0
    2.4720  -20.6200   21.1350 C   0  0  0  0  0
    2.5670  -16.4600   20.4860 S   0  0  0  0  0
    2.4010  -21.5030   18.7600 S   0  0  0  0  0
    4.0617  -26.8453   21.1285 H   0  0  0  0  0
    4.4303  -13.7209   17.9571 H   0  0  0  0  0
    5.1165  -21.8446   21.1752 H   0  0  0  0  0
   -1.5569  -14.4345   20.0018 H   0  0  0  0  0
    2.5322  -19.3228   23.3590 H   0  0  0  0  0
    1.0750  -23.0590   22.5613 H   0  0  0  0  0
    0.5415  -14.2067   17.3570 H   0  0  0  0  0
    4.2549  -19.9679   22.7754 H   0  0  0  0  0
    3.9430  -22.6631   18.1081 H   0  0  0  0  0
    5.5058  -25.1431   21.8159 H   0  0  0  0  0
    3.9917  -25.2022   22.7870 H   0  0  0  0  0
    4.0170  -16.0010   18.0583 H   0  0  0  0  0
    2.8397  -15.1135   17.0028 H   0  0  0  0  0
    0.7681  -16.4770   22.2096 H   0  0  0  0  0
    1.4245  -14.9278   22.0842 H   0  0  0  0  0
    1.1841  -18.3491   20.2744 H   0  0  0  0  0
    2.8033  -18.5273   19.3922 H   0  0  0  0  0
    3.7167  -23.5395   20.3898 H   0  0  0  0  0
   -0.3312  -16.3765   20.0419 H   0  0  0  0  0
    3.8612  -19.0070   21.4594 H   0  0  0  0  0
    3.3219  -23.2638   23.3271 H   0  0  0  0  0
    1.3566  -13.8035   19.4625 H   0  0  0  0  0
    2.1966  -21.2144   23.1229 H   0  0  0  0  0
    1.6477  -16.5986   18.2059 H   0  0  0  0  0
    1.4140  -20.8426   20.9967 H   0  0  0  0  0
 12  1  1  0  0  0
 13  2  1  0  0  0
 17  3  1  0  0  0
 18  4  1  0  0  0
 19  5  1  0  0  0
 20  6  1  0  0  0
 21  7  1  0  0  0
 22  8  1  0  0  0
 26  9  2  0  0  0
 26 10  1  0  0  0
 26 11  2  0  0  0
 17 12  1  0  0  0
 23 13  1  0  0  0
 14 18  1  0  0  0
 25 14  1  0  0  0
 19 15  1  0  0  0
 15 25  1  0  0  0
 24 16  1  0  0  0
 16 26  1  0  0  0
 20 17  1  0  0  0
 18 21  1  0  0  0
 24 19  1  0  0  0
 22 20  1  0  0  0
 21 23  1  0  0  0
 22 24  1  0  0  0
 23 25  1  0  0  0
  1 27  1  0  0  0
  2 28  1  0  0  0
  3 29  1  0  0  0
  4 30  1  0  0  0
  5 31  1  0  0  0
  6 32  1  0  0  0
  7 33  1  0  0  0
  8 34  1  0  0  0
 10 35  1  0  0  0
 12 36  1  0  0  0
 12 37  1  0  0  0
 13 38  1  0  0  0
 13 39  1  0  0  0
 14 40  1  0  0  0
 14 41  1  0  0  0
 15 42  1  0  0  0
 15 43  1  0  0  0
 17 44  1  0  0  0
 18 45  1  0  0  0
 19 46  1  0  0  0
 20 47  1  0  0  0
 21 48  1  0  0  0
 22 49  1  0  0  0
 23 50  1  0  0  0
 24 51  1  0  0  0
M  END
$$$$
