2xa4_ligand
  -I-interpret- 

 37 39  0  0  0  0  0  0  0  0999 V2000
    1.8180    1.9460   25.4890 C   0  0  0  0  0
    2.3420    5.1100   22.8470 C   0  0  0  0  0
    0.8220    6.6900   23.6600 C   0  0  0  0  0
   -3.0780    3.5620   27.1820 C   0  0  0  0  0
    2.1150    6.3800   23.3160 C   0  0  0  0  0
   -1.9200    2.8850   27.7000 C   0  0  0  0  0
    3.1070    1.4660   25.3920 C   0  0  0  0  0
    1.4420    1.7330   26.8460 C   0  0  0  0  0
   -0.8670    2.6630   26.9040 C   0  0  0  0  0
    0.1550    4.6260   23.0760 C   0  0  0  0  0
   -1.9870    3.6020   25.1610 C   0  0  0  0  0
    4.0530    1.3900   24.2700 C   0  0  0  0  0
   -1.4570    3.7420   21.5140 C   0  0  0  0  0
   -0.9420    3.6290   22.9240 C   0  0  0  0  0
    1.3730    4.2070   22.7160 N   0  0  0  0  0
   -0.1920    5.8300   23.5450 N   0  0  0  0  0
   -3.0410    3.8610   25.8620 N   0  0  0  0  0
   -0.8680    3.0000   25.6910 N   0  0  0  0  0
    2.4450    1.1580   27.5200 N   0  0  0  0  0
    3.4310    1.0080   26.6340 N   0  0  0  0  0
    0.2450    2.0460   27.4200 N   0  0  0  0  0
   -2.0300    3.9130   23.8290 N   0  0  0  0  0
    3.1100    7.2710   23.4400 F   0  0  0  0  0
   -1.9790    2.4380   29.3600 Cl  0  0  0  0  0
    1.2163    2.3924   24.6973 H   0  0  0  0  0
    3.3583    4.8293   22.5703 H   0  0  0  0  0
    0.6137    7.6878   24.0461 H   0  0  0  0  0
   -3.9304    3.8179   27.8113 H   0  0  0  0  0
    3.6217    0.7840   23.4732 H   0  0  0  0  0
    4.2532    2.3943   23.8966 H   0  0  0  0  0
    4.9833    0.9356   24.6109 H   0  0  0  0  0
   -1.8308    4.7519   21.3449 H   0  0  0  0  0
   -0.6477    3.5309   20.8150 H   0  0  0  0  0
   -2.2641    3.0247   21.3648 H   0  0  0  0  0
   -0.5608    2.6318   23.1441 H   0  0  0  0  0
    0.1622    1.7753   28.3999 H   0  0  0  0  0
   -2.8667    4.3648   23.4599 H   0  0  0  0  0
  1  7  4  0  0  0
  8  1  4  0  0  0
  2  5  4  0  0  0
 15  2  4  0  0  0
  3  5  4  0  0  0
 16  3  4  0  0  0
  4  6  4  0  0  0
 17  4  4  0  0  0
  5 23  1  0  0  0
  9  6  4  0  0  0
  6 24  1  0  0  0
  7 12  1  0  0  0
  7 20  4  0  0  0
  8 19  4  0  0  0
 21  8  1  0  0  0
 18  9  4  0  0  0
  9 21  1  0  0  0
 14 10  1  0  0  0
 10 15  4  0  0  0
 10 16  4  0  0  0
 11 17  4  0  0  0
 11 18  4  0  0  0
 22 11  1  0  0  0
 14 13  1  0  0  0
 14 22  1  0  0  0
 19 20  4  0  0  0
  1 25  1  0  0  0
  2 26  1  0  0  0
  3 27  1  0  0  0
  4 28  1  0  0  0
 12 29  1  0  0  0
 12 30  1  0  0  0
 12 31  1  0  0  0
 13 32  1  0  0  0
 13 33  1  0  0  0
 13 34  1  0  0  0
 14 35  1  0  0  0
 21 36  1  0  0  0
 22 37  1  0  0  0
M  END
$$$$
