3nik_ligand
  -I-interpret- 

 63 62  0  0  0  0  0  0  0  0999 V2000
  -39.8440   12.8100   -4.7970 N   0  3  0  0  0
  -40.7610   13.0040   -5.9630 C   0  0  0  0  0
  -41.1250   11.6810   -6.6190 C   0  0  0  0  0
  -40.4720   10.6650   -6.4060 O   0  0  0  0  0
  -40.1210   13.9130   -7.0200 C   0  0  0  0  0
  -39.6460   15.2520   -6.5200 C   0  0  0  0  0
  -40.7960   16.1910   -6.1360 C   0  0  0  0  0
  -40.3220   17.5750   -6.0820 N   0  0  0  0  0
  -39.5240   18.0620   -5.1350 C   0  0  0  0  0
  -39.1440   19.3330   -5.1800 N   0  0  0  0  0
  -39.1090   17.2890   -4.1340 N   0  0  0  0  0
  -42.1840   11.7010   -7.4190 N   0  0  0  0  0
  -42.5140   10.5730   -8.2690 C   0  0  0  0  0
  -43.1450   11.1080   -9.5360 C   0  0  0  0  0
  -44.1390   11.8430   -9.4930 O   0  0  0  0  0
  -43.4690    9.5950   -7.5780 C   0  0  0  0  0
  -43.4940    8.1960   -8.2220 C   0  0  0  0  0
  -44.3970    8.0940   -9.4530 C   0  0  0  0  0
  -45.4740    8.7210   -9.4620 O   0  0  0  0  0
  -44.0380    7.3680  -10.4080 O   0  0  0  0  0
  -42.5590   10.7340  -10.6620 N   0  0  0  0  0
  -43.1050   11.1090  -11.9550 C   0  0  0  0  0
  -43.0680    9.8990  -12.8640 C   0  0  0  0  0
  -42.0270    9.5950  -13.4480 O   0  0  0  0  0
  -42.3070   12.2730  -12.5520 C   0  0  0  0  0
  -44.1990    9.1990  -12.9520 N   0  0  0  0  0
  -44.3430    8.0190  -13.8100 C   0  0  0  0  0
  -44.0730    8.3400  -15.2780 C   0  0  0  0  0
  -44.4680    9.3860  -15.7960 O   0  0  0  0  0
  -45.7350    7.4100  -13.6530 C   0  0  0  0  0
  -43.4460    7.5530  -15.9840 O   0  0  0  0  0
  -40.2925   12.2033   -4.1106 H   0  0  0  0  0
  -38.9758   12.3803   -5.1165 H   0  0  0  0  0
  -39.6407   13.7145   -4.3717 H   0  0  0  0  0
  -41.6660   13.4697   -5.5728 H   0  0  0  0  0
  -40.8914   14.1146   -7.7643 H   0  0  0  0  0
  -39.2396   13.3883   -7.3886 H   0  0  0  0  0
  -39.0845   15.7267   -7.3247 H   0  0  0  0  0
  -39.0463   15.0789   -5.6264 H   0  0  0  0  0
  -41.1772   15.9059   -5.1554 H   0  0  0  0  0
  -41.5852   16.1130   -6.8838 H   0  0  0  0  0
  -40.6242   18.2097   -6.8211 H   0  0  0  0  0
  -39.4636   19.9343   -5.9394 H   0  0  0  0  0
  -38.5037   17.6744   -3.4091 H   0  0  0  0  0
  -39.3963   16.3112   -4.0918 H   0  0  0  0  0
  -42.7796   12.5289   -7.4364 H   0  0  0  0  0
  -41.6018   10.0201   -8.4932 H   0  0  0  0  0
  -44.4741   10.0090   -7.6581 H   0  0  0  0  0
  -43.1258    9.4750   -6.5504 H   0  0  0  0  0
  -43.8844    7.5035   -7.4762 H   0  0  0  0  0
  -42.4780    7.9711   -8.5466 H   0  0  0  0  0
  -43.1850    6.9759  -10.2074 H   0  0  0  0  0
  -41.7086   10.1723  -10.6214 H   0  0  0  0  0
  -44.1366   11.4426  -11.8429 H   0  0  0  0  0
  -42.3597   13.1301  -11.8807 H   0  0  0  0  0
  -41.2670   11.9720  -12.6780 H   0  0  0  0  0
  -42.7286   12.5420  -13.5205 H   0  0  0  0  0
  -45.0009    9.4980  -12.3970 H   0  0  0  0  0
  -43.5950    7.2943  -13.4885 H   0  0  0  0  0
  -44.9394    9.9074  -15.1422 H   0  0  0  0  0
  -45.8858    7.1142  -12.6148 H   0  0  0  0  0
  -46.4867    8.1473  -13.9349 H   0  0  0  0  0
  -45.8224    6.5355  -14.2977 H   0  0  0  0  0
  1  2  1  0  0  0
  2  3  1  0  0  0
  2  5  1  0  0  0
  3  4  2  0  0  0
  3 12  1  0  0  0
  5  6  1  0  0  0
  6  7  1  0  0  0
  7  8  1  0  0  0
  8  9  1  0  0  0
  9 10  2  0  0  0
  9 11  1  0  0  0
 12 13  1  0  0  0
 13 14  1  0  0  0
 13 16  1  0  0  0
 14 15  2  0  0  0
 14 21  1  0  0  0
 16 17  1  0  0  0
 17 18  1  0  0  0
 18 19  2  0  0  0
 18 20  1  0  0  0
 21 22  1  0  0  0
 22 23  1  0  0  0
 22 25  1  0  0  0
 23 24  2  0  0  0
 23 26  1  0  0  0
 26 27  1  0  0  0
 27 28  1  0  0  0
 27 30  1  0  0  0
 28 29  1  0  0  0
 28 31  2  0  0  0
  1 32  1  0  0  0
  1 33  1  0  0  0
  1 34  1  0  0  0
  2 35  1  0  0  0
  5 36  1  0  0  0
  5 37  1  0  0  0
  6 38  1  0  0  0
  6 39  1  0  0  0
  7 40  1  0  0  0
  7 41  1  0  0  0
  8 42  1  0  0  0
 10 43  1  0  0  0
 11 44  1  0  0  0
 11 45  1  0  0  0
 12 46  1  0  0  0
 13 47  1  0  0  0
 16 48  1  0  0  0
 16 49  1  0  0  0
 17 50  1  0  0  0
 17 51  1  0  0  0
 20 52  1  0  0  0
 21 53  1  0  0  0
 22 54  1  0  0  0
 25 55  1  0  0  0
 25 56  1  0  0  0
 25 57  1  0  0  0
 26 58  1  0  0  0
 27 59  1  0  0  0
 29 60  1  0  0  0
 30 61  1  0  0  0
 30 62  1  0  0  0
 30 63  1  0  0  0
M  END
$$$$
