5y3n_ligand
  -I-interpret- 

 31 34  0  0  0  0  0  0  0  0999 V2000
    6.1170    7.1410   21.9850 C   0  0  0  0  0
    5.4960    3.5520   20.9120 C   0  0  0  0  0
    7.8630    3.8930   21.1280 C   0  0  0  0  0
    7.5410    8.3160   26.5360 C   0  0  0  0  0
    8.6170    9.0330   26.1210 N   0  0  0  0  0
    8.9040    9.1840   24.8090 C   0  0  0  0  0
    8.1500    8.6080   23.8610 N   0  0  0  0  0
    7.0440    7.8670   24.1830 C   0  0  0  0  0
    6.6940    7.6960   25.5340 C   0  0  0  0  0
    6.0990    7.1930   23.4360 N   0  0  0  0  0
    5.2150    6.6340   24.2080 N   0  0  0  0  0
    5.4800    6.8760   25.5030 C   0  0  0  0  0
    6.3310    5.7110   21.5750 C   0  0  0  0  0
    5.2570    4.8680   21.2800 C   0  0  0  0  0
    6.8150    3.0700   20.8390 C   0  0  0  0  0
    7.6240    5.2330   21.5020 C   0  0  0  0  0
    7.3250    1.8020   20.4920 O   0  0  0  0  0
    8.7100    1.9690   20.3110 C   0  0  0  0  0
    9.0660    3.1500   20.9680 O   0  0  0  0  0
    7.1380    8.1250   28.2080 Cl  0  0  0  0  0
   10.0290    9.9250   24.3790 N   0  0  0  0  0
    3.4350    5.4910   21.3730 Br  0  0  0  0  0
    6.9183    7.7688   21.5953 H   0  0  0  0  0
    5.1740    7.5113   21.5829 H   0  0  0  0  0
    4.6609    2.8912   20.6793 H   0  0  0  0  0
    4.9048    6.5302   26.3618 H   0  0  0  0  0
    8.4615    5.8911   21.7335 H   0  0  0  0  0
    8.9572    2.0267   19.2510 H   0  0  0  0  0
    9.2583    1.1196   20.7184 H   0  0  0  0  0
   10.6456   10.3603   25.0651 H   0  0  0  0  0
   10.2239   10.0242   23.3827 H   0  0  0  0  0
  1 10  1  0  0  0
 13  1  1  0  0  0
 14  2  4  0  0  0
  2 15  4  0  0  0
 15  3  4  0  0  0
  3 16  4  0  0  0
  3 19  1  0  0  0
  4  5  4  0  0  0
  9  4  4  0  0  0
  4 20  1  0  0  0
  6  5  4  0  0  0
  7  6  4  0  0  0
  6 21  1  0  0  0
  8  7  4  0  0  0
  8  9  4  0  0  0
 10  8  4  0  0  0
 12  9  4  0  0  0
 10 11  4  0  0  0
 11 12  4  0  0  0
 13 14  4  0  0  0
 13 16  4  0  0  0
 14 22  1  0  0  0
 15 17  1  0  0  0
 17 18  1  0  0  0
 18 19  1  0  0  0
  1 23  1  0  0  0
  1 24  1  0  0  0
  2 25  1  0  0  0
 12 26  1  0  0  0
 16 27  1  0  0  0
 18 28  1  0  0  0
 18 29  1  0  0  0
 21 30  1  0  0  0
 21 31  1  0  0  0
M  END
$$$$
