4qvy_ligand
  -I-interpret- 

 53 54  0  0  0  0  0  0  0  0999 V2000
   62.2600 -133.2010   35.8990 N   0  0  0  0  0
   61.8960 -134.4670   36.1690 C   0  0  0  0  0
   62.1240 -135.4720   35.2290 C   0  0  0  0  0
   62.7240 -135.1600   34.0000 N   0  0  0  0  0
   63.0960 -133.8380   33.7240 C   0  0  0  0  0
   62.8610 -132.8550   34.6780 C   0  0  0  0  0
   61.3150 -134.7330   37.4060 C   0  0  0  0  0
   60.5610 -133.9120   37.9260 O   0  0  0  0  0
   61.6770 -135.8920   37.9830 N   0  0  0  0  0
   61.2250 -136.2710   39.3270 C   0  0  0  0  0
   60.5270 -137.6100   39.3260 C   0  0  0  0  0
   59.3170 -137.4240   38.6420 C   0  0  0  0  0
   59.1170 -137.9810   37.3750 C   0  0  0  0  0
   57.9080 -137.7920   36.7050 C   0  0  0  0  0
   56.8920 -137.0470   37.2970 C   0  0  0  0  0
   57.0860 -136.4920   38.5590 C   0  0  0  0  0
   58.2910 -136.6830   39.2290 C   0  0  0  0  0
   62.5010 -136.3850   40.1470 C   0  0  0  0  0
   63.5670 -136.6390   39.5860 O   0  0  0  0  0
   62.3830 -136.1500   41.4640 N   0  0  0  0  0
   63.5680 -136.2600   42.3370 C   0  0  0  0  0
   64.1190 -134.9330   42.8460 C   0  0  0  0  0
   63.5200 -133.7020   42.1180 C   0  0  0  0  0
   62.5540 -132.9420   43.0510 C   0  0  0  0  0
   64.6540 -132.7570   41.6750 C   0  0  0  0  0
   63.2480 -137.1440   43.5520 B   0  0  0  0  0
   62.0340 -136.7000   44.1830 O   0  0  0  0  0
   63.1190 -138.5110   43.1460 O   0  0  0  0  0
   61.8359 -136.4999   35.4494 H   0  0  0  0  0
   63.5639 -133.5835   32.7730 H   0  0  0  0  0
   63.1418 -131.8207   34.4794 H   0  0  0  0  0
   62.2860 -136.5292   37.4697 H   0  0  0  0  0
   60.5154 -135.5418   39.7180 H   0  0  0  0  0
   60.3519 -137.9611   40.3430 H   0  0  0  0  0
   61.1387 -138.3701   38.8400 H   0  0  0  0  0
   59.9098 -138.5658   36.9085 H   0  0  0  0  0
   57.7588 -138.2280   35.7172 H   0  0  0  0  0
   55.9473 -136.8986   36.7740 H   0  0  0  0  0
   56.2925 -135.9066   39.0234 H   0  0  0  0  0
   58.4340 -136.2506   40.2193 H   0  0  0  0  0
   61.4777 -135.8964   41.8595 H   0  0  0  0  0
   64.3392 -136.6988   41.7039 H   0  0  0  0  0
   65.1941 -134.9316   42.6664 H   0  0  0  0  0
   63.8590 -134.8509   43.9013 H   0  0  0  0  0
   62.9687 -134.0484   41.2438 H   0  0  0  0  0
   61.7437 -133.6061   43.3518 H   0  0  0  0  0
   63.0952 -132.6037   43.9346 H   0  0  0  0  0
   62.1432 -132.0812   42.5233 H   0  0  0  0  0
   65.2105 -132.4237   42.5510 H   0  0  0  0  0
   65.3234 -133.2874   40.9977 H   0  0  0  0  0
   64.2272 -131.8939   41.1641 H   0  0  0  0  0
   61.8449 -137.2595   44.9398 H   0  0  0  0  0
   62.9193 -139.0537   43.9123 H   0  0  0  0  0
  1  2  4  0  0  0
  1  6  4  0  0  0
  2  3  4  0  0  0
  2  7  1  0  0  0
  3  4  4  0  0  0
  4  5  4  0  0  0
  5  6  4  0  0  0
  7  8  2  0  0  0
  7  9  1  0  0  0
  9 10  1  0  0  0
 10 11  1  0  0  0
 10 18  1  0  0  0
 11 12  1  0  0  0
 12 13  4  0  0  0
 12 17  4  0  0  0
 13 14  4  0  0  0
 14 15  4  0  0  0
 15 16  4  0  0  0
 16 17  4  0  0  0
 18 19  2  0  0  0
 18 20  1  0  0  0
 20 21  1  0  0  0
 21 22  1  0  0  0
 21 26  1  0  0  0
 22 23  1  0  0  0
 23 24  1  0  0  0
 23 25  1  0  0  0
 26 27  1  0  0  0
 26 28  1  0  0  0
  3 29  1  0  0  0
  5 30  1  0  0  0
  6 31  1  0  0  0
  9 32  1  0  0  0
 10 33  1  0  0  0
 11 34  1  0  0  0
 11 35  1  0  0  0
 13 36  1  0  0  0
 14 37  1  0  0  0
 15 38  1  0  0  0
 16 39  1  0  0  0
 17 40  1  0  0  0
 20 41  1  0  0  0
 21 42  1  0  0  0
 22 43  1  0  0  0
 22 44  1  0  0  0
 23 45  1  0  0  0
 24 46  1  0  0  0
 24 47  1  0  0  0
 24 48  1  0  0  0
 25 49  1  0  0  0
 25 50  1  0  0  0
 25 51  1  0  0  0
 27 52  1  0  0  0
 28 53  1  0  0  0
M  END
$$$$
