### 
### Created by X-TOOL on Mon Sep 10 21:13:24 2018
### 

@<TRIPOS>MOLECULE
4qvy_ligand
   53    54     1     0     0
SMALL
GAST_HUCK


@<TRIPOS>ATOM
      1 N1         62.2600 -133.2010   35.8990 N.ar      1 BO2        -0.2509
      2 C2         61.8960 -134.4670   36.1690 C.ar      1 BO2         0.1532
      3 C3         62.1240 -135.4720   35.2290 C.ar      1 BO2         0.0620
      4 N4         62.7240 -135.1600   34.0000 N.ar      1 BO2        -0.2653
      5 C5         63.0960 -133.8380   33.7240 C.ar      1 BO2         0.0462
      6 C6         62.8610 -132.8550   34.6780 C.ar      1 BO2         0.0475
      7 C7         61.3150 -134.7330   37.4060 C.2       1 BO2         0.2349
      8 O8         60.5610 -133.9120   37.9260 O.2       1 BO2        -0.3755
      9 N9         61.6770 -135.8920   37.9830 N.am      1 BO2        -0.2600
     10 C10        61.2250 -136.2710   39.3270 C.3       1 BO2         0.1378
     11 C11        60.5270 -137.6100   39.3260 C.3       1 BO2         0.0213
     12 C12        59.3170 -137.4240   38.6420 C.ar      1 BO2        -0.0385
     13 C13        59.1170 -137.9810   37.3750 C.ar      1 BO2        -0.0601
     14 C14        57.9080 -137.7920   36.7050 C.ar      1 BO2        -0.0686
     15 C15        56.8920 -137.0470   37.2970 C.ar      1 BO2        -0.0687
     16 C16        57.0860 -136.4920   38.5590 C.ar      1 BO2        -0.0686
     17 C17        58.2910 -136.6830   39.2290 C.ar      1 BO2        -0.0601
     18 C18        62.5010 -136.3850   40.1470 C.2       1 BO2         0.1755
     19 O19        63.5670 -136.6390   39.5860 O.2       1 BO2        -0.3969
     20 N20        62.3830 -136.1500   41.4640 N.am      1 BO2        -0.4361
     21 C21        63.5680 -136.2600   42.3370 C.3       1 BO2        -0.2261
     22 C22        64.1190 -134.9330   42.8460 C.3       1 BO2        -0.1585
     23 C23        63.5200 -133.7020   42.1180 C.3       1 BO2        -0.0721
     24 C24        62.5540 -132.9420   43.0510 C.3       1 BO2        -0.0649
     25 C25        64.6540 -132.7570   41.6750 C.3       1 BO2        -0.0649
     26 B26        63.2480 -137.1440   43.5520 B         1 BO2         3.0000
     27 O27        62.0340 -136.7000   44.1830 O.3       1 BO2        -0.8710
     28 O28        63.1190 -138.5110   43.1460 O.3       1 BO2        -0.8710
     29 H          61.8375 -136.4942   35.4482 H         1 BO2         0.0978
     30 H          63.5613 -133.5849   32.7782 H         1 BO2         0.0958
     31 H          63.1403 -131.8264   34.4805 H         1 BO2         0.0941
     32 H          62.2741 -136.5167   37.4798 H         1 BO2         0.1883
     33 H          60.5549 -135.5026   39.7399 H         1 BO2         0.0823
     34 H          60.3343 -137.9396   40.3576 H         1 BO2         0.0474
     35 H          61.1441 -138.3606   38.8105 H         1 BO2         0.0474
     36 H          59.9054 -138.5626   36.9111 H         1 BO2         0.0557
     37 H          57.7597 -138.2256   35.7226 H         1 BO2         0.0599
     38 H          55.9524 -136.8994   36.7769 H         1 BO2         0.0559
     39 H          56.2968 -135.9098   39.0209 H         1 BO2         0.0599
     40 H          58.4332 -136.2530   40.2138 H         1 BO2         0.0557
     41 H          61.4954 -135.9014   41.8518 H         1 BO2         0.1459
     42 H          64.3639 -136.7648   41.7699 H         1 BO2        -0.1822
     43 H          65.2093 -134.9285   42.7005 H         1 BO2        -0.0063
     44 H          63.8919 -134.8489   43.9190 H         1 BO2        -0.0063
     45 H          62.9673 -134.0446   41.2308 H         1 BO2         0.0272
     46 H          62.1387 -132.0730   42.5196 H         1 BO2         0.0232
     47 H          63.0990 -132.6000   43.9432 H         1 BO2         0.0232
     48 H          61.7357 -133.6111   43.3552 H         1 BO2         0.0232
     49 H          65.3432 -133.2979   41.0098 H         1 BO2         0.0232
     50 H          65.2020 -132.4016   42.5601 H         1 BO2         0.0232
     51 H          64.2263 -131.8970   41.1388 H         1 BO2         0.0232
     52 H          61.8603 -137.2378   44.9466 H         1 BO2        -0.1290
     53 H          62.9470 -139.0516   43.9080 H         1 BO2        -0.1290
@<TRIPOS>BOND
     1    1    2 ar 
     2    1    6 ar 
     3    2    3 ar 
     4    2    7 1  
     5    3    4 ar 
     6    4    5 ar 
     7    5    6 ar 
     8    7    8 2  
     9    7    9 am 
    10    9   10 1  
    11   10   11 1  
    12   10   18 1  
    13   11   12 1  
    14   12   13 ar 
    15   12   17 ar 
    16   13   14 ar 
    17   14   15 ar 
    18   15   16 ar 
    19   16   17 ar 
    20   18   19 2  
    21   18   20 am 
    22   20   21 1  
    23   21   22 1  
    24   21   26 1  
    25   22   23 1  
    26   23   24 1  
    27   23   25 1  
    28   26   27 1  
    29   26   28 1  
    30    3   29 1  
    31    5   30 1  
    32    6   31 1  
    33    9   32 1  
    34   10   33 1  
    35   11   34 1  
    36   11   35 1  
    37   13   36 1  
    38   14   37 1  
    39   15   38 1  
    40   16   39 1  
    41   17   40 1  
    42   20   41 1  
    43   21   42 1  
    44   22   43 1  
    45   22   44 1  
    46   23   45 1  
    47   24   46 1  
    48   24   47 1  
    49   24   48 1  
    50   25   49 1  
    51   25   50 1  
    52   25   51 1  
    53   27   52 1  
    54   28   53 1  
@<TRIPOS>SUBSTRUCTURE
     1 BO2         1

