4zup_ligand
  -I-interpret- 

 22 21  0  0  0  0  0  0  0  0999 V2000
    0.8130   23.5570   31.0290 O   0  0  0  0  0
    1.4700   24.2680   30.0280 N   0  0  0  0  0
    2.6970   24.5940   30.3360 C   0  0  0  0  0
    3.1750   24.2610   31.4250 O   0  0  0  0  0
    3.4510   25.3190   29.2680 C   0  0  0  0  0
    3.1640   26.8000   29.1900 C   0  0  0  0  0
    3.8350   27.3010   27.9140 C   0  0  0  0  0
    3.8850   28.8110   27.8720 C   0  0  0  0  0
    4.8090   29.1950   26.8220 N   0  3  0  0  0
   -0.0788   23.3499   30.7402 H   0  0  0  0  0
    1.0344   24.5113   29.1384 H   0  0  0  0  0
    3.1479   24.8857   28.3148 H   0  0  0  0  0
    4.5109   25.2122   29.4987 H   0  0  0  0  0
    3.5507   27.3205   30.0661 H   0  0  0  0  0
    2.0910   26.9904   29.1689 H   0  0  0  0  0
    3.2571   26.9504   27.0589 H   0  0  0  0  0
    4.8561   26.9205   27.8881 H   0  0  0  0  0
    4.2180   29.2054   28.8320 H   0  0  0  0  0
    2.8936   29.2170   27.6708 H   0  0  0  0  0
    4.8615   30.2124   26.7723 H   0  0  0  0  0
    5.7330   28.8154   27.0283 H   0  0  0  0  0
    4.4800   28.8263   25.9297 H   0  0  0  0  0
  1  2  1  0  0  0
  2  3  1  0  0  0
  3  4  2  0  0  0
  3  5  1  0  0  0
  5  6  1  0  0  0
  6  7  1  0  0  0
  7  8  1  0  0  0
  8  9  1  0  0  0
  1 10  1  0  0  0
  2 11  1  0  0  0
  5 12  1  0  0  0
  5 13  1  0  0  0
  6 14  1  0  0  0
  6 15  1  0  0  0
  7 16  1  0  0  0
  7 17  1  0  0  0
  8 18  1  0  0  0
  8 19  1  0  0  0
  9 20  1  0  0  0
  9 21  1  0  0  0
  9 22  1  0  0  0
M  END
$$$$
