### 
### Created by X-TOOL on Mon Sep 10 21:12:49 2018
### 

@<TRIPOS>MOLECULE
1jm4_ligand
  214   214     1     0     0
SMALL
GAST_HUCK


@<TRIPOS>ATOM
      1 N         -20.4530    3.5100   -9.0650 N.4       1 SER         0.2396
      2 CA        -19.8910    4.8830   -9.1900 C.3       1 SER         0.0885
      3 C         -18.5690    4.9890   -8.4270 C.2       1 SER         0.2291
      4 O         -18.5460    5.0430   -7.2130 O.2       1 SER        -0.3906
      5 CB        -20.9430    5.7970   -8.5580 C.3       1 SER         0.1041
      6 OG        -21.2300    6.8700   -9.4420 O.3       1 SER        -0.3870
      7 N         -17.4680    5.0220   -9.1270 N.am      1 TYR        -0.2594
      8 CA        -16.1500    5.1280   -8.4380 C.3       1 TYR         0.1391
      9 C         -16.0150    4.0370   -7.3730 C.2       1 TYR         0.2055
     10 O         -16.8390    3.1490   -7.2730 O.2       1 TYR        -0.3942
     11 CB        -16.1620    6.5110   -7.7840 C.3       1 TYR         0.0164
     12 CG        -15.4110    7.4900   -8.6540 C.ar      1 TYR        -0.0493
     13 CD1       -14.0390    7.3190   -8.8780 C.ar      1 TYR        -0.0685
     14 CD2       -16.0840    8.5740   -9.2320 C.ar      1 TYR        -0.0685
     15 CE1       -13.3410    8.2280   -9.6820 C.ar      1 TYR        -0.0398
     16 CE2       -15.3860    9.4830  -10.0370 C.ar      1 TYR        -0.0398
     17 CZ        -14.0150    9.3110  -10.2620 C.ar      1 TYR         0.0805
     18 OH        -13.3270   10.2070  -11.0550 O.3       1 TYR        -0.3376
     19 N         -14.9790    4.0930   -6.5790 N.am      1 GLY        -0.2663
     20 CA        -14.7890    3.0600   -5.5190 C.3       1 GLY         0.1201
     21 C         -16.0420    2.9840   -4.6470 C.2       1 GLY         0.2007
     22 O         -17.0320    3.6390   -4.9060 O.2       1 GLY        -0.3947
     23 N         -16.0110    2.1860   -3.6150 N.am      1 ARG        -0.2640
     24 CA        -17.2000    2.0810   -2.7230 C.3       1 ARG         0.1311
     25 C         -16.7540    1.9890   -1.2650 C.2       1 ARG         0.2039
     26 O         -17.0440    2.8530   -0.4610 O.2       1 ARG        -0.3944
     27 CB        -17.9080    0.7930   -3.1470 C.3       1 ARG        -0.0092
     28 CG        -19.3180    0.7740   -2.5520 C.3       1 ARG        -0.0156
     29 CD        -20.1190    1.9550   -3.1050 C.3       1 ARG         0.0627
     30 NE        -21.3720    1.3470   -3.6460 N.pl3     1 ARG        -0.2723
     31 CZ        -22.4180    2.0920   -3.9220 C.cat     1 ARG         0.2882
     32 NH1       -22.3920    3.3890   -3.7330 N.pl3     1 ARG        -0.2849
     33 NH2       -23.4990    1.5330   -4.3930 N.pl3     1 ARG        -0.2849
     34 OH        -10.3000   -1.7090    2.2530 O.2       1 ALY        -0.3974
     35 CH        -10.2050   -0.9330    1.3230 C.2       1 ALY         0.1729
     36 CH3        -8.8560   -0.3230    0.9350 C.3       1 ALY         0.0256
     37 NZ        -11.2600   -0.5290    0.6690 N.am      1 ALY        -0.2872
     38 CE        -12.1480    0.5040    1.2660 C.3       1 ALY         0.0309
     39 CD        -12.1020    1.6700    0.2760 C.3       1 ALY        -0.0325
     40 CG        -13.4720    1.8530   -0.3920 C.3       1 ALY        -0.0470
     41 CB        -14.5730    1.9660    0.6700 C.3       1 ALY        -0.0123
     42 CA        -15.5650    0.8140    0.4870 C.3       1 ALY         0.1310
     43 N         -16.0410    0.9520   -0.9180 N.am      1 ALY        -0.2637
     44 C         -16.7390    0.9440    1.4600 C.2       1 ALY         0.2039
     45 O         -16.7850    1.8390    2.2800 O.2       1 ALY        -0.3944
     46 N         -17.6940    0.0580    1.3640 N.am      1 LYS        -0.2637
     47 CA        -18.8740    0.1240    2.2710 C.3       1 LYS         0.1310
     48 C         -19.1560   -1.2530    2.8760 C.2       1 LYS         0.2039
     49 O         -18.2830   -2.0940    2.9600 O.2       1 LYS        -0.3944
     50 CB        -20.0330    0.5600    1.3680 C.3       1 LYS        -0.0122
     51 CG        -20.2780   -0.5040    0.2940 C.3       1 LYS        -0.0440
     52 CD        -21.3860   -0.0320   -0.6510 C.3       1 LYS        -0.0124
     53 CE        -22.7430   -0.1650    0.0430 C.3       1 LYS        -0.0354
     54 NZ        -23.1880    1.2370    0.2830 N.4       1 LYS         0.2185
     55 N         -20.3690   -1.4950    3.2910 N.am      1 ARG        -0.2637
     56 CA        -20.7020   -2.8230    3.8780 C.3       1 ARG         0.1311
     57 C         -20.7710   -3.8820    2.7750 C.2       1 ARG         0.2039
     58 O         -20.5930   -3.5880    1.6090 O.2       1 ARG        -0.3944
     59 CB        -22.0760   -2.6360    4.5250 C.3       1 ARG        -0.0092
     60 CG        -21.9440   -1.7260    5.7500 C.3       1 ARG        -0.0156
     61 CD        -21.0680   -2.4090    6.8030 C.3       1 ARG         0.0627
     62 NE        -21.5670   -1.8900    8.1120 N.pl3     1 ARG        -0.2723
     63 CZ        -22.7550   -2.2230    8.5600 C.cat     1 ARG         0.2882
     64 NH1       -23.5390   -3.0180    7.8740 N.pl3     1 ARG        -0.2849
     65 NH2       -23.1630   -1.7550    9.7080 N.pl3     1 ARG        -0.2849
     66 N         -21.0240   -5.1110    3.1310 N.am      1 ARG        -0.2637
     67 CA        -21.1000   -6.1820    2.0980 C.3       1 ARG         0.1311
     68 C         -22.4640   -6.1580    1.4060 C.2       1 ARG         0.2039
     69 O         -23.4930   -6.3100    2.0350 O.2       1 ARG        -0.3944
     70 CB        -20.9170   -7.4890    2.8690 C.3       1 ARG        -0.0092
     71 CG        -19.6850   -8.2250    2.3370 C.3       1 ARG        -0.0156
     72 CD        -19.9350   -9.7330    2.3790 C.3       1 ARG         0.0627
     73 NE        -18.6850  -10.3430    1.8370 N.pl3     1 ARG        -0.2723
     74 CZ        -18.6360  -11.6190    1.5300 C.cat     1 ARG         0.2882
     75 NH1       -19.6810  -12.3930    1.6890 N.pl3     1 ARG        -0.2849
     76 NH2       -17.5290  -12.1240    1.0580 N.pl3     1 ARG        -0.2849
     77 N         -22.4800   -5.9690    0.1160 N.am      1 GLN        -0.2636
     78 CA        -23.7760   -5.9350   -0.6180 C.3       1 GLN         0.1330
     79 C         -24.5060   -7.2720   -0.4700 C.2       1 GLN         0.2040
     80 O         -24.1520   -8.2560   -1.0880 O.2       1 GLN        -0.3944
     81 CB        -23.3870   -5.6970   -2.0780 C.3       1 GLN         0.0045
     82 CG        -24.6330   -5.7750   -2.9650 C.3       1 GLN         0.0412
     83 CD        -24.7800   -4.4730   -3.7540 C.2       1 GLN         0.1737
     84 OE1       -25.7000   -3.7120   -3.5280 O.2       1 GLN        -0.3973
     85 NE2       -23.9060   -4.1820   -4.6780 N.am      1 GLN        -0.3009
     86 N         -25.5280   -7.3120    0.3390 N.am      1 ARG        -0.2637
     87 CA        -26.2830   -8.5830    0.5230 C.3       1 ARG         0.1310
     88 C         -27.2020   -8.8340   -0.6740 C.2       1 ARG         0.2034
     89 O         -28.1920   -8.1550   -0.8610 O.2       1 ARG        -0.3944
     90 CB        -27.1080   -8.3650    1.7920 C.3       1 ARG        -0.0092
     91 CG        -27.5180   -9.7200    2.3710 C.3       1 ARG        -0.0156
     92 CD        -28.5320  -10.3870    1.4390 C.3       1 ARG         0.0627
     93 NE        -29.5360  -11.0110    2.3500 N.pl3     1 ARG        -0.2723
     94 CZ        -29.2640  -12.1240    2.9920 C.cat     1 ARG         0.2882
     95 NH1       -28.1050  -12.7190    2.8520 N.pl3     1 ARG        -0.2849
     96 NH2       -30.1630  -12.6450    3.7810 N.pl3     1 ARG        -0.2849
     97 N         -26.8830   -9.8040   -1.4860 N.am      1 CYS        -0.2687
     98 CA        -27.7410  -10.0960   -2.6690 C.3       1 CYS         0.1030
     99 C         -28.6650  -11.2800   -2.3770 C.2       1 CYS         0.0609
    100 O         -28.7470  -12.1630   -3.2150 O.co2     1 CYS        -0.5666
    101 CB        -26.7590  -10.4500   -3.7890 C.3       1 CYS         0.0256
    102 SG        -26.1780   -8.9310   -4.5840 S.3       1 CYS        -0.1742
    103 OXT       -29.3220  -11.2530   -1.3490 O.co2     1 CYS        -0.5666
    104 H1        -21.3225    3.4554   -9.5720 H         1 SER         0.2016
    105 H2        -20.6174    3.3014   -8.0926 H         1 SER         0.2016
    106 H3        -19.7997    2.8435   -9.4458 H         1 SER         0.2016
    107 H4        -19.7311    5.1442  -10.2465 H         1 SER         0.1122
    108 H5        -20.5582    6.1972   -7.6084 H         1 SER         0.0640
    109 H6        -21.8617    5.2225   -8.3684 H         1 SER         0.0640
    110 H7        -21.8831    7.4368   -9.0487 H         1 SER         0.2099
    111 H8        -17.5083    4.9762  -10.1251 H         1 TYR         0.1886
    112 H9        -15.3244    5.0447   -9.1601 H         1 TYR         0.0821
    113 H10       -15.6794    6.4534   -6.7972 H         1 TYR         0.0453
    114 H11       -17.2015    6.8503   -7.6645 H         1 TYR         0.0453
    115 H12       -13.5171    6.4820   -8.4284 H         1 TYR         0.0530
    116 H13       -17.1451    8.7093   -9.0562 H         1 TYR         0.0530
    117 H14       -12.2794    8.0941   -9.8558 H         1 TYR         0.0525
    118 H15       -15.9077   10.3203  -10.4862 H         1 TYR         0.0525
    119 H16       -12.4143    9.9482  -11.1048 H         1 TYR         0.2458
    120 H17       -14.3113    4.8303   -6.6819 H         1 GLY         0.1881
    121 H18       -13.9245    3.3305   -4.8949 H         1 GLY         0.0763
    122 H19       -14.6102    2.0817   -5.9890 H         1 GLY         0.0763
    123 H20       -15.1913    1.6462   -3.4232 H         1 ARG         0.1883
    124 H21       -17.8628    2.9491   -2.8539 H         1 ARG         0.0800
    125 H22       -17.3421   -0.0758   -2.7798 H         1 ARG         0.0313
    126 H23       -17.9713    0.7522   -4.2444 H         1 ARG         0.0313
    127 H24       -19.2553    0.8539   -1.4567 H         1 ARG         0.0301
    128 H25       -19.8180   -0.1675   -2.8230 H         1 ARG         0.0301
    129 H26       -19.5587    2.4630   -3.9037 H         1 ARG         0.0689
    130 H27       -20.3511    2.6740   -2.3055 H         1 ARG         0.0689
    131 H28       -21.4161    0.3302   -3.8046 H         1 ARG         0.2642
    132 H29       -23.2211    3.9585   -3.9547 H         1 ARG         0.2615
    133 H30       -21.5424    3.8386   -3.3628 H         1 ARG         0.2615
    134 H31       -23.5280    0.5146   -4.5445 H         1 ARG         0.2615
    135 H32       -24.3232    2.1102   -4.6132 H         1 ARG         0.2615
    136 H33        -8.9910    0.3473    0.0733 H         1 ALY         0.0467
    137 H34        -8.1535   -1.1263    0.6682 H         1 ALY         0.0467
    138 H35        -8.4540    0.2485    1.7846 H         1 ALY         0.0467
    139 H36       -11.4704   -0.9127   -0.2302 H         1 ALY         0.1850
    140 H37       -11.7727    0.8163    2.2517 H         1 ALY         0.0520
    141 H38       -13.1743    0.1218    1.3686 H         1 ALY         0.0520
    142 H39       -11.3465    1.4617   -0.4958 H         1 ALY         0.0285
    143 H40       -11.8335    2.5919    0.8127 H         1 ALY         0.0285
    144 H41       -13.6790    0.9871   -1.0381 H         1 ALY         0.0268
    145 H42       -13.4594    2.7695   -1.0001 H         1 ALY         0.0268
    146 H43       -15.0980    2.9259    0.5558 H         1 ALY         0.0312
    147 H44       -14.1247    1.9103    1.6729 H         1 ALY         0.0312
    148 H45       -15.0674   -0.1553    0.6380 H         1 ALY         0.0800
    149 H46       -15.8146    0.2511   -1.5944 H         1 ALY         0.1883
    150 H47       -17.6328   -0.6677    0.6787 H         1 LYS         0.1883
    151 H48       -18.7089    0.8557    3.0756 H         1 LYS         0.0800
    152 H49       -19.7811    1.5157    0.8852 H         1 LYS         0.0312
    153 H50       -20.9424    0.6839    1.9742 H         1 LYS         0.0312
    154 H51       -20.5825   -1.4458    0.7740 H         1 LYS         0.0269
    155 H52       -19.3529   -0.6665   -0.2785 H         1 LYS         0.0269
    156 H53       -21.3784   -0.6492   -1.5615 H         1 LYS         0.0317
    157 H54       -21.2140    1.0206   -0.9201 H         1 LYS         0.0317
    158 H55       -22.6399   -0.7069    0.9947 H         1 LYS         0.0813
    159 H56       -23.4588   -0.6931   -0.6040 H         1 LYS         0.0813
    160 H57       -24.0851    1.2307    0.7425 H         1 LYS         0.1994
    161 H58       -23.2652    1.7205   -0.5981 H         1 LYS         0.1994
    162 H59       -22.5147    1.7080    0.8669 H         1 LYS         0.1994
    163 H60       -21.0742   -0.7900    3.2151 H         1 ARG         0.1883
    164 H61       -19.9543   -3.1171    4.6293 H         1 ARG         0.0800
    165 H62       -22.4711   -3.6144    4.8360 H         1 ARG         0.0313
    166 H63       -22.7635   -2.1767    3.7995 H         1 ARG         0.0313
    167 H64       -22.9412   -1.5331    6.1723 H         1 ARG         0.0301
    168 H65       -21.4819   -0.7736    5.4509 H         1 ARG         0.0301
    169 H66       -20.0105   -2.1428    6.6587 H         1 ARG         0.0689
    170 H67       -21.1814   -3.5019    6.7513 H         1 ARG         0.0689
    171 H68       -20.9709   -1.2625    8.6704 H         1 ARG         0.2642
    172 H69       -24.4680   -3.2682    8.2418 H         1 ARG         0.2615
    173 H70       -23.2262   -3.3927    6.9670 H         1 ARG         0.2615
    174 H71       -22.5543   -1.1294   10.2548 H         1 ARG         0.2615
    175 H72       -24.0937   -2.0112   10.0672 H         1 ARG         0.2615
    176 H73       -21.1667   -5.3340    4.0953 H         1 ARG         0.1883
    177 H74       -20.3036   -6.0575    1.3495 H         1 ARG         0.0800
    178 H75       -21.8075   -8.1210    2.7366 H         1 ARG         0.0313
    179 H76       -20.7795   -7.2684    3.9378 H         1 ARG         0.0313
    180 H77       -18.8134   -7.9803    2.9618 H         1 ARG         0.0301
    181 H78       -19.4916   -7.9141    1.2997 H         1 ARG         0.0301
    182 H79       -20.7992   -9.9999    1.7530 H         1 ARG         0.0689
    183 H80       -20.1130  -10.0675    3.4117 H         1 ARG         0.0689
    184 H81       -17.8499   -9.7554    1.7020 H         1 ARG         0.2642
    185 H82       -19.6245  -13.3916    1.4429 H         1 ARG         0.2615
    186 H83       -20.5591  -12.0029    2.0601 H         1 ARG         0.2615
    187 H84       -16.7024  -11.5230    0.9297 H         1 ARG         0.2615
    188 H85       -17.4819  -13.1235    0.8138 H         1 ARG         0.2615
    189 H86       -21.6211   -5.8467   -0.3814 H         1 GLN         0.1883
    190 H87       -24.4152   -5.1207   -0.2461 H         1 GLN         0.0801
    191 H88       -22.6652   -6.4647   -2.3936 H         1 GLN         0.0337
    192 H89       -22.9300   -4.7013   -2.1767 H         1 GLN         0.0337
    193 H90       -25.5225   -5.9244   -2.3353 H         1 GLN         0.0504
    194 H91       -24.5329   -6.6181   -3.6644 H         1 GLN         0.0504
    195 H92       -23.9934   -3.3331   -5.1994 H         1 GLN         0.1814
    196 H93       -23.1487   -4.8078   -4.8648 H         1 GLN         0.1814
    197 H94       -25.8049   -6.4895    0.8359 H         1 ARG         0.1883
    198 H95       -25.5946   -9.4321    0.6459 H         1 ARG         0.0800
    199 H96       -28.0087   -7.7824    1.5485 H         1 ARG         0.0313
    200 H97       -26.5057   -7.8171    2.5316 H         1 ARG         0.0313
    201 H98       -27.9722   -9.5731    3.3620 H         1 ARG         0.0301
    202 H99       -26.6299  -10.3620    2.4662 H         1 ARG         0.0301
    203 H100      -28.0429  -11.1528    0.8191 H         1 ARG         0.0689
    204 H101      -29.0106   -9.6397    0.7890 H         1 ARG         0.0689
    205 H102      -30.4546  -10.5627    2.4770 H         1 ARG         0.2642
    206 H103      -27.9088  -13.5913    3.3633 H         1 ARG         0.2615
    207 H104      -27.3901  -12.3144    2.2306 H         1 ARG         0.2615
    208 H105      -31.0765  -12.1834    3.8965 H         1 ARG         0.2615
    209 H106      -29.9592  -13.5179    4.2884 H         1 ARG         0.2615
    210 H107      -26.0636  -10.3510   -1.3148 H         1 CYS         0.1876
    211 H108      -28.3420   -9.2159   -2.9414 H         1 CYS         0.0734
    212 H109      -27.2642  -11.0832   -4.5332 H         1 CYS         0.0415
    213 H110      -25.9013  -10.9939   -3.3664 H         1 CYS         0.0415
    214 H111      -25.5316   -9.1651   -5.3212 H         1 CYS         0.1018
@<TRIPOS>BOND
     1    2    1 1  
     2    3    2 1  
     3    2    5 1  
     4    3    4 2  
     5    7    3 am 
     6    5    6 1  
     7    8    7 1  
     8    9    8 1  
     9    8   11 1  
    10    9   10 2  
    11   19    9 am 
    12   11   12 1  
    13   12   13 ar 
    14   12   14 ar 
    15   13   15 ar 
    16   14   16 ar 
    17   15   17 ar 
    18   16   17 ar 
    19   17   18 1  
    20   20   19 1  
    21   21   20 1  
    22   21   22 2  
    23   23   21 am 
    24   24   23 1  
    25   25   24 1  
    26   24   27 1  
    27   25   26 2  
    28   43   25 am 
    29   27   28 1  
    30   28   29 1  
    31   29   30 1  
    32   30   31 ar 
    33   31   32 ar 
    34   31   33 ar 
    35   35   34 2  
    36   35   36 1  
    37   37   35 am 
    38   38   37 1  
    39   39   38 1  
    40   40   39 1  
    41   41   40 1  
    42   42   41 1  
    43   42   43 1  
    44   42   44 1  
    45   44   45 2  
    46   44   46 am 
    47   46   47 1  
    48   47   48 1  
    49   47   50 1  
    50   48   49 2  
    51   48   55 am 
    52   50   51 1  
    53   51   52 1  
    54   52   53 1  
    55   53   54 1  
    56   55   56 1  
    57   56   57 1  
    58   56   59 1  
    59   57   58 2  
    60   57   66 am 
    61   59   60 1  
    62   60   61 1  
    63   61   62 1  
    64   62   63 ar 
    65   63   64 ar 
    66   63   65 ar 
    67   66   67 1  
    68   67   68 1  
    69   67   70 1  
    70   68   69 2  
    71   68   77 am 
    72   70   71 1  
    73   71   72 1  
    74   72   73 1  
    75   73   74 ar 
    76   74   75 ar 
    77   74   76 ar 
    78   77   78 1  
    79   78   79 1  
    80   78   81 1  
    81   79   80 2  
    82   79   86 am 
    83   81   82 1  
    84   82   83 1  
    85   83   84 2  
    86   83   85 am 
    87   86   87 1  
    88   87   88 1  
    89   87   90 1  
    90   88   89 2  
    91   88   97 am 
    92   90   91 1  
    93   91   92 1  
    94   92   93 1  
    95   93   94 ar 
    96   94   95 ar 
    97   94   96 ar 
    98   97   98 1  
    99   98   99 1  
   100   98  101 1  
   101   99  100 ar 
   102   99  103 ar 
   103  101  102 1  
   104    1  104 1  
   105    1  105 1  
   106    1  106 1  
   107    2  107 1  
   108    5  108 1  
   109    5  109 1  
   110    6  110 1  
   111    7  111 1  
   112    8  112 1  
   113   11  113 1  
   114   11  114 1  
   115   13  115 1  
   116   14  116 1  
   117   15  117 1  
   118   16  118 1  
   119   18  119 1  
   120   19  120 1  
   121   20  121 1  
   122   20  122 1  
   123   23  123 1  
   124   24  124 1  
   125   27  125 1  
   126   27  126 1  
   127   28  127 1  
   128   28  128 1  
   129   29  129 1  
   130   29  130 1  
   131   30  131 1  
   132   32  132 1  
   133   32  133 1  
   134   33  134 1  
   135   33  135 1  
   136   36  136 1  
   137   36  137 1  
   138   36  138 1  
   139   37  139 1  
   140   38  140 1  
   141   38  141 1  
   142   39  142 1  
   143   39  143 1  
   144   40  144 1  
   145   40  145 1  
   146   41  146 1  
   147   41  147 1  
   148   42  148 1  
   149   43  149 1  
   150   46  150 1  
   151   47  151 1  
   152   50  152 1  
   153   50  153 1  
   154   51  154 1  
   155   51  155 1  
   156   52  156 1  
   157   52  157 1  
   158   53  158 1  
   159   53  159 1  
   160   54  160 1  
   161   54  161 1  
   162   54  162 1  
   163   55  163 1  
   164   56  164 1  
   165   59  165 1  
   166   59  166 1  
   167   60  167 1  
   168   60  168 1  
   169   61  169 1  
   170   61  170 1  
   171   62  171 1  
   172   64  172 1  
   173   64  173 1  
   174   65  174 1  
   175   65  175 1  
   176   66  176 1  
   177   67  177 1  
   178   70  178 1  
   179   70  179 1  
   180   71  180 1  
   181   71  181 1  
   182   72  182 1  
   183   72  183 1  
   184   73  184 1  
   185   75  185 1  
   186   75  186 1  
   187   76  187 1  
   188   76  188 1  
   189   77  189 1  
   190   78  190 1  
   191   81  191 1  
   192   81  192 1  
   193   82  193 1  
   194   82  194 1  
   195   85  195 1  
   196   85  196 1  
   197   86  197 1  
   198   87  198 1  
   199   90  199 1  
   200   90  200 1  
   201   91  201 1  
   202   91  202 1  
   203   92  203 1  
   204   92  204 1  
   205   93  205 1  
   206   95  206 1  
   207   95  207 1  
   208   96  208 1  
   209   96  209 1  
   210   97  210 1  
   211   98  211 1  
   212  101  212 1  
   213  101  213 1  
   214  102  214 1  
@<TRIPOS>SUBSTRUCTURE
     1 SER         1

