1jm4_ligand
  -I-interpret- 

211211  0  0  0  0  0  0  0  0999 V2000
  -20.4530    3.5100   -9.0650 N   0  3  0  0  0
  -19.8910    4.8830   -9.1900 C   0  0  0  0  0
  -18.5690    4.9890   -8.4270 C   0  0  0  0  0
  -18.5460    5.0430   -7.2130 O   0  0  0  0  0
  -20.9430    5.7970   -8.5580 C   0  0  0  0  0
  -21.2300    6.8700   -9.4420 O   0  0  0  0  0
  -17.4680    5.0220   -9.1270 N   0  0  0  0  0
  -16.1500    5.1280   -8.4380 C   0  0  0  0  0
  -16.0150    4.0370   -7.3730 C   0  0  0  0  0
  -16.8390    3.1490   -7.2730 O   0  0  0  0  0
  -16.1620    6.5110   -7.7840 C   0  0  0  0  0
  -15.4110    7.4900   -8.6540 C   0  0  0  0  0
  -14.0390    7.3190   -8.8780 C   0  0  0  0  0
  -16.0840    8.5740   -9.2320 C   0  0  0  0  0
  -13.3410    8.2280   -9.6820 C   0  0  0  0  0
  -15.3860    9.4830  -10.0370 C   0  0  0  0  0
  -14.0150    9.3110  -10.2620 C   0  0  0  0  0
  -13.3270   10.2070  -11.0550 O   0  0  0  0  0
  -14.9790    4.0930   -6.5790 N   0  0  0  0  0
  -14.7890    3.0600   -5.5190 C   0  0  0  0  0
  -16.0420    2.9840   -4.6470 C   0  0  0  0  0
  -17.0320    3.6390   -4.9060 O   0  0  0  0  0
  -16.0110    2.1860   -3.6150 N   0  0  0  0  0
  -17.2000    2.0810   -2.7230 C   0  0  0  0  0
  -16.7540    1.9890   -1.2650 C   0  0  0  0  0
  -17.0440    2.8530   -0.4610 O   0  0  0  0  0
  -17.9080    0.7930   -3.1470 C   0  0  0  0  0
  -19.3180    0.7740   -2.5520 C   0  0  0  0  0
  -20.1190    1.9550   -3.1050 C   0  0  0  0  0
  -21.3720    1.3470   -3.6460 N   0  0  0  0  0
  -22.4180    2.0920   -3.9220 C   0  0  0  0  0
  -22.3920    3.3890   -3.7330 N   0  0  0  0  0
  -23.4990    1.5330   -4.3930 N   0  0  0  0  0
  -10.3000   -1.7090    2.2530 O   0  0  0  0  0
  -10.2050   -0.9330    1.3230 C   0  0  0  0  0
   -8.8560   -0.3230    0.9350 C   0  0  0  0  0
  -11.2600   -0.5290    0.6690 N   0  0  0  0  0
  -12.1480    0.5040    1.2660 C   0  0  0  0  0
  -12.1020    1.6700    0.2760 C   0  0  0  0  0
  -13.4720    1.8530   -0.3920 C   0  0  0  0  0
  -14.5730    1.9660    0.6700 C   0  0  0  0  0
  -15.5650    0.8140    0.4870 C   0  0  0  0  0
  -16.0410    0.9520   -0.9180 N   0  0  0  0  0
  -16.7390    0.9440    1.4600 C   0  0  0  0  0
  -16.7850    1.8390    2.2800 O   0  0  0  0  0
  -17.6940    0.0580    1.3640 N   0  0  0  0  0
  -18.8740    0.1240    2.2710 C   0  0  0  0  0
  -19.1560   -1.2530    2.8760 C   0  0  0  0  0
  -18.2830   -2.0940    2.9600 O   0  0  0  0  0
  -20.0330    0.5600    1.3680 C   0  0  0  0  0
  -20.2780   -0.5040    0.2940 C   0  0  0  0  0
  -21.3860   -0.0320   -0.6510 C   0  0  0  0  0
  -22.7430   -0.1650    0.0430 C   0  0  0  0  0
  -23.1880    1.2370    0.2830 N   0  3  0  0  0
  -20.3690   -1.4950    3.2910 N   0  0  0  0  0
  -20.7020   -2.8230    3.8780 C   0  0  0  0  0
  -20.7710   -3.8820    2.7750 C   0  0  0  0  0
  -20.5930   -3.5880    1.6090 O   0  0  0  0  0
  -22.0760   -2.6360    4.5250 C   0  0  0  0  0
  -21.9440   -1.7260    5.7500 C   0  0  0  0  0
  -21.0680   -2.4090    6.8030 C   0  0  0  0  0
  -21.5670   -1.8900    8.1120 N   0  0  0  0  0
  -22.7550   -2.2230    8.5600 C   0  0  0  0  0
  -23.5390   -3.0180    7.8740 N   0  0  0  0  0
  -23.1630   -1.7550    9.7080 N   0  0  0  0  0
  -21.0240   -5.1110    3.1310 N   0  0  0  0  0
  -21.1000   -6.1820    2.0980 C   0  0  0  0  0
  -22.4640   -6.1580    1.4060 C   0  0  0  0  0
  -23.4930   -6.3100    2.0350 O   0  0  0  0  0
  -20.9170   -7.4890    2.8690 C   0  0  0  0  0
  -19.6850   -8.2250    2.3370 C   0  0  0  0  0
  -19.9350   -9.7330    2.3790 C   0  0  0  0  0
  -18.6850  -10.3430    1.8370 N   0  0  0  0  0
  -18.6360  -11.6190    1.5300 C   0  0  0  0  0
  -19.6810  -12.3930    1.6890 N   0  0  0  0  0
  -17.5290  -12.1240    1.0580 N   0  0  0  0  0
  -22.4800   -5.9690    0.1160 N   0  0  0  0  0
  -23.7760   -5.9350   -0.6180 C   0  0  0  0  0
  -24.5060   -7.2720   -0.4700 C   0  0  0  0  0
  -24.1520   -8.2560   -1.0880 O   0  0  0  0  0
  -23.3870   -5.6970   -2.0780 C   0  0  0  0  0
  -24.6330   -5.7750   -2.9650 C   0  0  0  0  0
  -24.7800   -4.4730   -3.7540 C   0  0  0  0  0
  -25.7000   -3.7120   -3.5280 O   0  0  0  0  0
  -23.9060   -4.1820   -4.6780 N   0  0  0  0  0
  -25.5280   -7.3120    0.3390 N   0  0  0  0  0
  -26.2830   -8.5830    0.5230 C   0  0  0  0  0
  -27.2020   -8.8340   -0.6740 C   0  0  0  0  0
  -28.1920   -8.1550   -0.8610 O   0  0  0  0  0
  -27.1080   -8.3650    1.7920 C   0  0  0  0  0
  -27.5180   -9.7200    2.3710 C   0  0  0  0  0
  -28.5320  -10.3870    1.4390 C   0  0  0  0  0
  -29.5360  -11.0110    2.3500 N   0  0  0  0  0
  -29.2640  -12.1240    2.9920 C   0  0  0  0  0
  -28.1050  -12.7190    2.8520 N   0  0  0  0  0
  -30.1630  -12.6450    3.7810 N   0  0  0  0  0
  -26.8830   -9.8040   -1.4860 N   0  0  0  0  0
  -27.7410  -10.0960   -2.6690 C   0  0  0  0  0
  -28.6650  -11.2800   -2.3770 C   0  0  0  0  0
  -28.7470  -12.1630   -3.2150 O   0  0  0  0  0
  -26.7590  -10.4500   -3.7890 C   0  0  0  0  0
  -26.1780   -8.9310   -4.5840 S   0  0  0  0  0
  -29.3220  -11.2530   -1.3490 O   0  0  0  0  0
  -19.8001    2.8386   -9.4691 H   0  0  0  0  0
  -20.5997    3.2924   -8.0793 H   0  0  0  0  0
  -21.3429    3.4617   -9.5612 H   0  0  0  0  0
  -19.6819    5.1490  -10.2261 H   0  0  0  0  0
  -20.5617    6.1935   -7.6170 H   0  0  0  0  0
  -21.8533    5.2276   -8.3700 H   0  0  0  0  0
  -21.8900    7.4427   -9.0446 H   0  0  0  0  0
  -17.5092    4.9753  -10.1451 H   0  0  0  0  0
  -15.3138    5.0030   -9.1260 H   0  0  0  0  0
  -15.6825    6.4534   -6.8068 H   0  0  0  0  0
  -17.1923    6.8471   -7.6671 H   0  0  0  0  0
  -13.5142    6.4774   -8.4259 H   0  0  0  0  0
  -17.1509    8.7101   -9.0553 H   0  0  0  0  0
  -12.2736    8.0934   -9.8568 H   0  0  0  0  0
  -15.9106   10.3250  -10.4886 H   0  0  0  0  0
  -13.9313   10.8828  -11.3707 H   0  0  0  0  0
  -14.2980    4.8451   -6.6840 H   0  0  0  0  0
  -13.9329    3.3290   -4.9003 H   0  0  0  0  0
  -14.6128    2.0906   -5.9853 H   0  0  0  0  0
  -15.1749    1.6355   -3.4194 H   0  0  0  0  0
  -17.8543    2.9489   -2.8051 H   0  0  0  0  0
  -17.3469   -0.0687   -2.7854 H   0  0  0  0  0
  -17.9694    0.7505   -4.2344 H   0  0  0  0  0
  -19.2561    0.8525   -1.4666 H   0  0  0  0  0
  -19.8135   -0.1592   -2.8198 H   0  0  0  0  0
  -19.5662    2.4959   -3.8730 H   0  0  0  0  0
  -20.3282    2.6988   -2.3361 H   0  0  0  0  0
  -21.4157    0.3401   -3.8031 H   0  0  0  0  0
  -23.2126    3.9531   -3.9537 H   0  0  0  0  0
  -21.5511    3.8340   -3.3652 H   0  0  0  0  0
  -23.5273    0.5247   -4.5442 H   0  0  0  0  0
   -8.4588    0.2429    1.7776 H   0  0  0  0  0
   -8.1608   -1.1199    0.6709 H   0  0  0  0  0
   -8.9910    0.3409    0.0811 H   0  0  0  0  0
  -11.4746   -0.9204   -0.2482 H   0  0  0  0  0
  -11.8170    0.8006    2.2613 H   0  0  0  0  0
  -13.1626    0.1339    1.4134 H   0  0  0  0  0
  -11.3568    1.4578   -0.4907 H   0  0  0  0  0
  -11.8416    2.5828    0.8118 H   0  0  0  0  0
  -13.6766    0.9898   -1.0254 H   0  0  0  0  0
  -13.4578    2.7658   -0.9876 H   0  0  0  0  0
  -15.0922    2.9181    0.5603 H   0  0  0  0  0
  -14.1301    1.9142    1.6646 H   0  0  0  0  0
  -15.1074   -0.1557    0.6828 H   0  0  0  0  0
  -15.8101    0.2371   -1.6079 H   0  0  0  0  0
  -17.6316   -0.6822    0.6650 H   0  0  0  0  0
  -18.7198    0.8091    3.1046 H   0  0  0  0  0
  -19.7819    1.5063    0.8889 H   0  0  0  0  0
  -20.9341    0.6811    1.9693 H   0  0  0  0  0
  -20.5802   -1.4369    0.7699 H   0  0  0  0  0
  -19.3613   -0.6644   -0.2734 H   0  0  0  0  0
  -21.3786   -0.6445   -1.5526 H   0  0  0  0  0
  -21.2156    1.0113   -0.9167 H   0  0  0  0  0
  -22.6698   -0.7317    0.9712 H   0  0  0  0  0
  -23.4575   -0.7185   -0.5663 H   0  0  0  0  0
  -24.0958    1.2294    0.7480 H   0  0  0  0  0
  -22.5060    1.7125    0.8739 H   0  0  0  0  0
  -23.2657    1.7252   -0.6092 H   0  0  0  0  0
  -21.0883   -0.7759    3.2136 H   0  0  0  0  0
  -19.9542   -3.1575    4.5971 H   0  0  0  0  0
  -22.4675   -3.6055    4.8331 H   0  0  0  0  0
  -22.7572   -2.1809    3.8060 H   0  0  0  0  0
  -22.9323   -1.5354    6.1685 H   0  0  0  0  0
  -21.4857   -0.7826    5.4534 H   0  0  0  0  0
  -20.0109   -2.1878    6.6559 H   0  0  0  0  0
  -21.1372   -3.4952    6.7449 H   0  0  0  0  0
  -20.9767   -1.2686    8.6650 H   0  0  0  0  0
  -24.4589   -3.2658    8.2383 H   0  0  0  0  0
  -23.2293   -3.3890    6.9757 H   0  0  0  0  0
  -22.5601   -1.1356   10.2496 H   0  0  0  0  0
  -21.1695   -5.3385    4.1146 H   0  0  0  0  0
  -20.3473   -6.0561    1.3198 H   0  0  0  0  0
  -21.7996   -8.1152    2.7384 H   0  0  0  0  0
  -20.7813   -7.2707    3.9283 H   0  0  0  0  0
  -18.8212   -7.9824    2.9560 H   0  0  0  0  0
  -19.4932   -7.9169    1.3092 H   0  0  0  0  0
  -20.8105  -10.0153    1.7942 H   0  0  0  0  0
  -20.1505  -10.0802    3.3895 H   0  0  0  0  0
  -17.8580   -9.7611    1.7033 H   0  0  0  0  0
  -19.6253  -13.3817    1.4445 H   0  0  0  0  0
  -20.5503  -12.0069    2.0573 H   0  0  0  0  0
  -16.7107  -11.5287    0.9301 H   0  0  0  0  0
  -21.6040   -5.8442   -0.3913 H   0  0  0  0  0
  -24.4484   -5.1655   -0.2387 H   0  0  0  0  0
  -22.6736   -6.4596   -2.3902 H   0  0  0  0  0
  -22.9364   -4.7092   -2.1749 H   0  0  0  0  0
  -25.5144   -5.9230   -2.3410 H   0  0  0  0  0
  -24.5337   -6.6104   -3.6581 H   0  0  0  0  0
  -23.9953   -3.3163   -5.2100 H   0  0  0  0  0
  -23.1334   -4.8202   -4.8684 H   0  0  0  0  0
  -25.8104   -6.4731    0.8458 H   0  0  0  0  0
  -25.6243   -9.4478    0.6022 H   0  0  0  0  0
  -28.0004   -7.7873    1.5510 H   0  0  0  0  0
  -26.5115   -7.8217    2.5249 H   0  0  0  0  0
  -27.9680   -9.5744    3.3530 H   0  0  0  0  0
  -26.6379  -10.3561    2.4654 H   0  0  0  0  0
  -28.0611  -11.1243    0.7888 H   0  0  0  0  0
  -28.9919   -9.6690    0.7599 H   0  0  0  0  0
  -30.4457  -10.5671    2.4757 H   0  0  0  0  0
  -27.9109  -13.5831    3.3580 H   0  0  0  0  0
  -27.3969  -12.3180    2.2370 H   0  0  0  0  0
  -31.0678  -12.1882    3.8950 H   0  0  0  0  0
  -26.0472  -10.3620   -1.3113 H   0  0  0  0  0
  -28.3798   -9.2531   -2.9327 H   0  0  0  0  0
  -27.2595  -11.0776   -4.5263 H   0  0  0  0  0
  -25.9092  -10.9891   -3.3703 H   0  0  0  0  0
  -25.3251   -9.2398   -5.5567 H   0  0  0  0  0
  -29.0922  -10.4695   -0.8442 H   0  0  0  0  0
  2  1  1  0  0  0
  3  2  1  0  0  0
  2  5  1  0  0  0
  3  4  2  0  0  0
  7  3  1  0  0  0
  5  6  1  0  0  0
  8  7  1  0  0  0
  9  8  1  0  0  0
  8 11  1  0  0  0
  9 10  2  0  0  0
 19  9  1  0  0  0
 11 12  1  0  0  0
 12 13  4  0  0  0
 12 14  4  0  0  0
 13 15  4  0  0  0
 14 16  4  0  0  0
 15 17  4  0  0  0
 16 17  4  0  0  0
 17 18  1  0  0  0
 20 19  1  0  0  0
 21 20  1  0  0  0
 21 22  2  0  0  0
 23 21  1  0  0  0
 24 23  1  0  0  0
 25 24  1  0  0  0
 24 27  1  0  0  0
 25 26  2  0  0  0
 43 25  1  0  0  0
 27 28  1  0  0  0
 28 29  1  0  0  0
 29 30  1  0  0  0
 30 31  1  0  0  0
 31 32  1  0  0  0
 31 33  2  0  0  0
 35 34  2  0  0  0
 35 36  1  0  0  0
 37 35  1  0  0  0
 38 37  1  0  0  0
 39 38  1  0  0  0
 40 39  1  0  0  0
 41 40  1  0  0  0
 42 41  1  0  0  0
 42 43  1  0  0  0
 42 44  1  0  0  0
 44 45  2  0  0  0
 44 46  1  0  0  0
 46 47  1  0  0  0
 47 48  1  0  0  0
 47 50  1  0  0  0
 48 49  2  0  0  0
 48 55  1  0  0  0
 50 51  1  0  0  0
 51 52  1  0  0  0
 52 53  1  0  0  0
 53 54  1  0  0  0
 55 56  1  0  0  0
 56 57  1  0  0  0
 56 59  1  0  0  0
 57 58  2  0  0  0
 57 66  1  0  0  0
 59 60  1  0  0  0
 60 61  1  0  0  0
 61 62  1  0  0  0
 62 63  1  0  0  0
 63 64  1  0  0  0
 63 65  2  0  0  0
 66 67  1  0  0  0
 67 68  1  0  0  0
 67 70  1  0  0  0
 68 69  2  0  0  0
 68 77  1  0  0  0
 70 71  1  0  0  0
 71 72  1  0  0  0
 72 73  1  0  0  0
 73 74  1  0  0  0
 74 75  1  0  0  0
 74 76  2  0  0  0
 77 78  1  0  0  0
 78 79  1  0  0  0
 78 81  1  0  0  0
 79 80  2  0  0  0
 79 86  1  0  0  0
 81 82  1  0  0  0
 82 83  1  0  0  0
 83 84  2  0  0  0
 83 85  1  0  0  0
 86 87  1  0  0  0
 87 88  1  0  0  0
 87 90  1  0  0  0
 88 89  2  0  0  0
 88 97  1  0  0  0
 90 91  1  0  0  0
 91 92  1  0  0  0
 92 93  1  0  0  0
 93 94  1  0  0  0
 94 95  1  0  0  0
 94 96  2  0  0  0
 97 98  1  0  0  0
 98 99  1  0  0  0
 98101  1  0  0  0
 99100  2  0  0  0
 99103  1  0  0  0
101102  1  0  0  0
  1104  1  0  0  0
  1105  1  0  0  0
  1106  1  0  0  0
  2107  1  0  0  0
  5108  1  0  0  0
  5109  1  0  0  0
  6110  1  0  0  0
  7111  1  0  0  0
  8112  1  0  0  0
 11113  1  0  0  0
 11114  1  0  0  0
 13115  1  0  0  0
 14116  1  0  0  0
 15117  1  0  0  0
 16118  1  0  0  0
 18119  1  0  0  0
 19120  1  0  0  0
 20121  1  0  0  0
 20122  1  0  0  0
 23123  1  0  0  0
 24124  1  0  0  0
 27125  1  0  0  0
 27126  1  0  0  0
 28127  1  0  0  0
 28128  1  0  0  0
 29129  1  0  0  0
 29130  1  0  0  0
 30131  1  0  0  0
 32132  1  0  0  0
 32133  1  0  0  0
 33134  1  0  0  0
 36135  1  0  0  0
 36136  1  0  0  0
 36137  1  0  0  0
 37138  1  0  0  0
 38139  1  0  0  0
 38140  1  0  0  0
 39141  1  0  0  0
 39142  1  0  0  0
 40143  1  0  0  0
 40144  1  0  0  0
 41145  1  0  0  0
 41146  1  0  0  0
 42147  1  0  0  0
 43148  1  0  0  0
 46149  1  0  0  0
 47150  1  0  0  0
 50151  1  0  0  0
 50152  1  0  0  0
 51153  1  0  0  0
 51154  1  0  0  0
 52155  1  0  0  0
 52156  1  0  0  0
 53157  1  0  0  0
 53158  1  0  0  0
 54159  1  0  0  0
 54160  1  0  0  0
 54161  1  0  0  0
 55162  1  0  0  0
 56163  1  0  0  0
 59164  1  0  0  0
 59165  1  0  0  0
 60166  1  0  0  0
 60167  1  0  0  0
 61168  1  0  0  0
 61169  1  0  0  0
 62170  1  0  0  0
 64171  1  0  0  0
 64172  1  0  0  0
 65173  1  0  0  0
 66174  1  0  0  0
 67175  1  0  0  0
 70176  1  0  0  0
 70177  1  0  0  0
 71178  1  0  0  0
 71179  1  0  0  0
 72180  1  0  0  0
 72181  1  0  0  0
 73182  1  0  0  0
 75183  1  0  0  0
 75184  1  0  0  0
 76185  1  0  0  0
 77186  1  0  0  0
 78187  1  0  0  0
 81188  1  0  0  0
 81189  1  0  0  0
 82190  1  0  0  0
 82191  1  0  0  0
 85192  1  0  0  0
 85193  1  0  0  0
 86194  1  0  0  0
 87195  1  0  0  0
 90196  1  0  0  0
 90197  1  0  0  0
 91198  1  0  0  0
 91199  1  0  0  0
 92200  1  0  0  0
 92201  1  0  0  0
 93202  1  0  0  0
 95203  1  0  0  0
 95204  1  0  0  0
 96205  1  0  0  0
 97206  1  0  0  0
 98207  1  0  0  0
101208  1  0  0  0
101209  1  0  0  0
102210  1  0  0  0
103211  1  0  0  0
M  END
$$$$
