5fut_ligand
  -I-interpret- 

 82 86  0  0  0  0  0  0  0  0999 V2000
    9.3710  -18.6110    4.7420 C   0  0  0  0  0
    9.3030  -18.2550    6.1770 N   0  0  0  0  0
    8.6420  -19.0500    7.1300 C   0  0  0  0  0
    8.6070  -18.6560    8.4670 C   0  0  0  0  0
    9.2010  -17.4600    8.8680 C   0  0  0  0  0
    9.8530  -16.6720    7.9210 C   0  0  0  0  0
    9.9030  -17.0590    6.5870 C   0  0  0  0  0
    9.1840  -17.0680   10.1470 N   0  0  0  0  0
   16.3960  -23.6340    2.6260 N   0  0  0  0  0
   16.2530  -22.2610    2.9390 C   0  0  0  0  0
   15.7260  -21.8830    4.1710 C   0  0  0  0  0
   15.3150  -22.8510    5.0850 C   0  0  0  0  0
   15.4290  -24.1980    4.7950 C   0  0  0  0  0
   15.9550  -24.5780    3.5780 C   0  0  0  0  0
   14.8250  -22.5230    6.2670 N   0  0  0  0  0
   14.5500  -21.2980    6.9470 C   0  0  0  0  0
   14.5800  -21.6160    8.4900 C   0  0  0  0  0
    8.5780  -17.9360   11.1740 C   0  0  0  0  0
    9.8300  -15.7980   10.4970 C   0  0  0  0  0
   14.4410  -23.4000    7.3220 C   0  0  0  0  0
   13.4890  -22.6070    8.2680 C   0  0  0  0  0
   16.9110  -24.1190    1.2940 C   0  0  0  0  0
   15.6740  -24.4040    0.8080 C   0  0  0  0  0
   14.9400  -23.3270    0.3370 C   0  0  0  0  0
   13.6500  -23.5110   -0.0870 C   0  0  0  0  0
   13.1270  -24.7870    0.0060 C   0  0  0  0  0
   13.8340  -25.8660    0.5200 C   0  0  0  0  0
   15.1340  -25.6810    0.9250 C   0  0  0  0  0
   11.8470  -25.0510   -0.3330 C   0  0  0  0  0
   11.1560  -25.0470    1.0670 C   0  0  0  0  0
   11.1240  -23.6930    1.7920 C   0  0  0  0  0
   10.4980  -23.8170    3.1850 C   0  0  0  0  0
   10.3600  -22.5230    3.6650 C   0  0  0  0  0
   11.2730  -21.8170    4.4530 C   0  0  0  0  0
   10.9570  -20.5030    4.8320 C   0  0  0  0  0
    9.7490  -19.9190    4.4290 C   0  0  0  0  0
    8.8690  -20.6350    3.6380 C   0  0  0  0  0
    9.1780  -21.9270    3.2640 C   0  0  0  0  0
   10.1399  -17.9687    4.3127 H   0  0  0  0  0
    8.3572  -18.4949    4.3587 H   0  0  0  0  0
    8.1560  -19.9761    6.8229 H   0  0  0  0  0
    8.1116  -19.2877    9.2043 H   0  0  0  0  0
   10.3292  -15.7415    8.2302 H   0  0  0  0  0
    9.3481  -16.2833    6.0593 H   0  0  0  0  0
   10.9644  -17.2067    6.3878 H   0  0  0  0  0
   16.5546  -21.5017    2.2175 H   0  0  0  0  0
   15.6346  -20.8261    4.4214 H   0  0  0  0  0
   15.1080  -24.9484    5.5174 H   0  0  0  0  0
   16.8651  -25.1135    3.8483 H   0  0  0  0  0
   15.1200  -25.0719    3.0811 H   0  0  0  0  0
   13.5785  -20.9012    6.6523 H   0  0  0  0  0
   15.2908  -20.5397    6.6935 H   0  0  0  0  0
   14.4709  -20.8203    9.2269 H   0  0  0  0  0
   15.5077  -21.9070    8.9828 H   0  0  0  0  0
    9.3419  -18.2358   11.8914 H   0  0  0  0  0
    7.7881  -17.3898   11.6895 H   0  0  0  0  0
    8.1577  -18.8216   10.6974 H   0  0  0  0  0
    9.1038  -15.1429   10.9782 H   0  0  0  0  0
   10.6577  -15.9890   11.1801 H   0  0  0  0  0
   10.2068  -15.3219    9.5918 H   0  0  0  0  0
   15.3185  -23.7466    7.8678 H   0  0  0  0  0
   13.9353  -24.2788    6.9219 H   0  0  0  0  0
   12.5070  -22.2834    7.9231 H   0  0  0  0  0
   13.0075  -23.1008    9.1121 H   0  0  0  0  0
   17.6493  -24.9209    1.2990 H   0  0  0  0  0
   17.5369  -23.4391    0.7160 H   0  0  0  0  0
   15.3885  -22.3341    0.3038 H   0  0  0  0  0
   13.0598  -22.6840   -0.4819 H   0  0  0  0  0
   13.3642  -26.8462    0.6011 H   0  0  0  0  0
   15.7225  -26.5070    1.3245 H   0  0  0  0  0
   11.7215  -25.9841   -0.8822 H   0  0  0  0  0
   11.4216  -24.3338   -1.0349 H   0  0  0  0  0
   11.7351  -25.7209    1.6983 H   0  0  0  0  0
   10.1172  -25.3310    0.8987 H   0  0  0  0  0
   10.5225  -23.0002    1.2035 H   0  0  0  0  0
   12.1481  -23.3369    1.9040 H   0  0  0  0  0
   11.1253  -24.4158    3.8453 H   0  0  0  0  0
    9.5338  -24.3233    3.1384 H   0  0  0  0  0
   12.2102  -22.2768    4.7665 H   0  0  0  0  0
   11.6562  -19.9331    5.4440 H   0  0  0  0  0
    7.9340  -20.1801    3.3109 H   0  0  0  0  0
    8.4792  -22.4869    2.6425 H   0  0  0  0  0
  1  2  1  0  0  0
 36  1  1  0  0  0
  2  3  1  0  0  0
  2  7  1  0  0  0
  3  4  2  0  0  0
  4  5  1  0  0  0
  6  5  2  0  0  0
  5  8  1  0  0  0
  7  6  1  0  0  0
  8 18  1  0  0  0
  8 19  1  0  0  0
  9 10  1  0  0  0
  9 14  1  0  0  0
 22  9  1  0  0  0
 10 11  2  0  0  0
 11 12  1  0  0  0
 13 12  2  0  0  0
 12 15  1  0  0  0
 14 13  1  0  0  0
 15 16  1  0  0  0
 15 20  1  0  0  0
 16 17  1  0  0  0
 21 17  1  0  0  0
 20 21  1  0  0  0
 23 22  1  0  0  0
 24 23  4  0  0  0
 28 23  4  0  0  0
 25 24  4  0  0  0
 26 25  4  0  0  0
 26 27  4  0  0  0
 29 26  1  0  0  0
 27 28  4  0  0  0
 30 29  1  0  0  0
 31 30  1  0  0  0
 32 31  1  0  0  0
 33 32  1  0  0  0
 34 33  4  0  0  0
 33 38  4  0  0  0
 35 34  4  0  0  0
 35 36  4  0  0  0
 36 37  4  0  0  0
 37 38  4  0  0  0
  1 39  1  0  0  0
  1 40  1  0  0  0
  3 41  1  0  0  0
  4 42  1  0  0  0
  6 43  1  0  0  0
  7 44  1  0  0  0
  7 45  1  0  0  0
 10 46  1  0  0  0
 11 47  1  0  0  0
 13 48  1  0  0  0
 14 49  1  0  0  0
 14 50  1  0  0  0
 16 51  1  0  0  0
 16 52  1  0  0  0
 17 53  1  0  0  0
 17 54  1  0  0  0
 18 55  1  0  0  0
 18 56  1  0  0  0
 18 57  1  0  0  0
 19 58  1  0  0  0
 19 59  1  0  0  0
 19 60  1  0  0  0
 20 61  1  0  0  0
 20 62  1  0  0  0
 21 63  1  0  0  0
 21 64  1  0  0  0
 22 65  1  0  0  0
 22 66  1  0  0  0
 24 67  1  0  0  0
 25 68  1  0  0  0
 27 69  1  0  0  0
 28 70  1  0  0  0
 29 71  1  0  0  0
 29 72  1  0  0  0
 30 73  1  0  0  0
 30 74  1  0  0  0
 31 75  1  0  0  0
 31 76  1  0  0  0
 32 77  1  0  0  0
 32 78  1  0  0  0
 34 79  1  0  0  0
 35 80  1  0  0  0
 37 81  1  0  0  0
 38 82  1  0  0  0
M  END
$$$$
