### 
### Created by X-TOOL on Mon Sep 10 21:13:11 2018
### 

@<TRIPOS>MOLECULE
4ay6_ligand
   64    66     1     0     0
SMALL
GAST_HUCK


@<TRIPOS>ATOM
      1 N1        137.5090  -22.9200   29.8180 N.am      1 12V        -0.1592
      2 C2        138.2490  -22.7280   28.6950 C.2       1 12V         0.3328
      3 O2        139.1520  -23.4800   28.3410 O.2       1 12V        -0.3815
      4 N3        138.0170  -21.6270   27.8940 N.am      1 12V        -0.1865
      5 C4        137.0050  -20.7190   28.2300 C.2       1 12V         0.1822
      6 O4        136.8170  -19.7650   27.4890 O.2       1 12V        -0.4124
      7 C5        136.2270  -20.8880   29.3650 C.2       1 12V         0.0062
      8 C6        136.4740  -21.9990   30.1580 C.2       1 12V         0.0591
      9 PA        133.4920  -26.4350   34.1260 P.3       1 12V         0.2972
     10 PB        134.1170  -25.6700   36.8450 P.3       1 12V         0.2982
     11 C1'       134.0650  -28.2120   37.3610 C.3       1 12V         0.1659
     12 O1'       134.6280  -26.9020   37.6800 O.3       1 12V        -0.2337
     13 O1A       132.9710  -27.7950   34.3150 O.co2     1 12V        -0.6127
     14 C1B       137.7390  -24.1390   30.6670 C.3       1 12V         0.2059
     15 O1B       134.8560  -24.4560   37.2570 O.co2     1 12V        -0.6127
     16 C2'       133.3600  -28.8890   38.5470 C.3       1 12V         0.1108
     17 N2'       132.2810  -27.9860   38.9710 N.am      1 12V        -0.2778
     18 O2'       139.4080  -23.6710   32.2930 O.3       1 12V        -0.3836
     19 O2A       132.5150  -25.3080   34.0500 O.co2     1 12V        -0.6127
     20 C2B       138.0360  -23.9710   32.1330 C.3       1 12V         0.1387
     21 O2B       132.6210  -25.7000   36.9200 O.co2     1 12V        -0.6127
     22 C3'       134.3600  -29.1890   39.6790 C.3       1 12V         0.1085
     23 O3'       133.6590  -29.5710   40.8850 O.3       1 12V        -0.3868
     24 O3A       134.5830  -26.1150   35.3550 O.3       1 12V        -0.1319
     25 C3B       137.7830  -25.3860   32.5910 C.3       1 12V         0.1149
     26 O3B       138.7860  -26.2890   32.0340 O.3       1 12V        -0.3864
     27 C4'       135.3930  -30.2790   39.2950 C.3       1 12V         0.0973
     28 O4'       136.3270  -30.4040   40.3810 O.3       1 12V        -0.3880
     29 C4B       136.4900  -25.6560   31.9000 C.3       1 12V         0.1189
     30 O4B       136.4580  -24.7550   30.7610 O.3       1 12V        -0.3363
     31 C5'       136.2030  -29.9060   38.0600 C.3       1 12V         0.0595
     32 S5'       135.3510  -29.2340   36.6730 S.3       1 12V        -0.1135
     33 C5B       135.3200  -25.3010   32.7830 C.3       1 12V         0.1128
     34 O5B       134.4580  -26.4210   32.8820 O.3       1 12V        -0.2476
     35 C6'       136.6210  -31.1440   37.2740 C.3       1 12V         0.0586
     36 O6'       136.8770  -32.2480   38.1380 O.3       1 12V        -0.3938
     37 C7'       131.0250  -28.1890   38.5720 C.2       1 12V         0.1733
     38 O7'       130.6710  -29.1490   37.8910 O.2       1 12V        -0.3974
     39 C8'       130.0110  -27.1630   39.0590 C.3       1 12V         0.0257
     40 H         138.5822  -21.4753   27.0585 H         1 12V         0.2259
     41 H         135.4475  -20.1720   29.6254 H         1 12V         0.0258
     42 H         135.8712  -22.1700   31.0499 H         1 12V         0.1178
     43 H         133.2740  -28.0684   36.6249 H         1 12V         0.0799
     44 H         138.5908  -24.6273   30.1936 H         1 12V         0.0997
     45 H         132.9404  -29.8545   38.2642 H         1 12V         0.0621
     46 H         132.4954  -27.1946   39.5777 H         1 12V         0.1856
     47 H         139.6040  -23.5626   33.2265 H         1 12V         0.2101
     48 H         137.4737  -23.1936   32.6503 H         1 12V         0.0676
     49 H         134.9169  -28.2690   39.8564 H         1 12V         0.0644
     50 H         133.0821  -28.8542   41.1592 H         1 12V         0.2100
     51 H         137.7950  -25.5163   33.6731 H         1 12V         0.0648
     52 H         139.6585  -26.0164   32.3273 H         1 12V         0.2100
     53 H         134.8436  -31.1978   39.0898 H         1 12V         0.0632
     54 H         135.8566  -30.6572   41.1786 H         1 12V         0.2099
     55 H         136.4193  -26.7098   31.6307 H         1 12V         0.0651
     56 H         136.9264  -29.2472   38.5404 H         1 12V         0.0462
     57 H         134.7786  -24.4582   32.3534 H         1 12V         0.0648
     58 H         135.6790  -25.0256   33.7746 H         1 12V         0.0648
     59 H         137.5353  -30.9138   36.7270 H         1 12V         0.0569
     60 H         135.8097  -31.4147   36.5983 H         1 12V         0.0569
     61 H         137.1371  -33.0093   37.6141 H         1 12V         0.2094
     62 H         129.5216  -26.7021   38.2010 H         1 12V         0.0467
     63 H         129.2656  -27.6579   39.6815 H         1 12V         0.0467
     64 H         130.5224  -26.3970   39.6420 H         1 12V         0.0467
@<TRIPOS>BOND
     1    1    2 am 
     2    1    8 1  
     3   14    1 1  
     4    2    3 2  
     5    2    4 am 
     6    4    5 am 
     7    5    6 2  
     8    7    5 1  
     9    8    7 2  
    10    9   13 ar 
    11    9   19 ar 
    12    9   24 1  
    13   34    9 1  
    14   10   12 1  
    15   10   15 ar 
    16   10   21 ar 
    17   24   10 1  
    18   12   11 1  
    19   11   16 1  
    20   11   32 1  
    21   14   20 1  
    22   30   14 1  
    23   16   17 1  
    24   16   22 1  
    25   17   37 am 
    26   20   18 1  
    27   25   20 1  
    28   22   23 1  
    29   22   27 1  
    30   25   26 1  
    31   29   25 1  
    32   27   28 1  
    33   31   27 1  
    34   29   30 1  
    35   33   29 1  
    36   32   31 1  
    37   31   35 1  
    38   33   34 1  
    39   35   36 1  
    40   37   38 2  
    41   37   39 1  
    42    4   40 1  
    43    7   41 1  
    44    8   42 1  
    45   11   43 1  
    46   14   44 1  
    47   16   45 1  
    48   17   46 1  
    49   18   47 1  
    50   20   48 1  
    51   22   49 1  
    52   23   50 1  
    53   25   51 1  
    54   26   52 1  
    55   27   53 1  
    56   28   54 1  
    57   29   55 1  
    58   31   56 1  
    59   33   57 1  
    60   33   58 1  
    61   35   59 1  
    62   35   60 1  
    63   36   61 1  
    64   39   62 1  
    65   39   63 1  
    66   39   64 1  
@<TRIPOS>SUBSTRUCTURE
     1 12V         1

