4ay6_ligand
  -I-interpret- 

 66 68  0  0  0  0  0  0  0  0999 V2000
  137.5090  -22.9200   29.8180 N   0  0  0  0  0
  138.2490  -22.7280   28.6950 C   0  0  0  0  0
  139.1520  -23.4800   28.3410 O   0  0  0  0  0
  138.0170  -21.6270   27.8940 N   0  0  0  0  0
  137.0050  -20.7190   28.2300 C   0  0  0  0  0
  136.8170  -19.7650   27.4890 O   0  0  0  0  0
  136.2270  -20.8880   29.3650 C   0  0  0  0  0
  136.4740  -21.9990   30.1580 C   0  0  0  0  0
  133.4920  -26.4350   34.1260 P   0  0  0  0  0
  134.1170  -25.6700   36.8450 P   0  0  0  0  0
  134.0650  -28.2120   37.3610 C   0  0  0  0  0
  134.6280  -26.9020   37.6800 O   0  0  0  0  0
  132.9710  -27.7950   34.3150 O   0  0  0  0  0
  137.7390  -24.1390   30.6670 C   0  0  0  0  0
  134.8560  -24.4560   37.2570 O   0  0  0  0  0
  133.3600  -28.8890   38.5470 C   0  0  0  0  0
  132.2810  -27.9860   38.9710 N   0  0  0  0  0
  139.4080  -23.6710   32.2930 O   0  0  0  0  0
  132.5150  -25.3080   34.0500 O   0  0  0  0  0
  138.0360  -23.9710   32.1330 C   0  0  0  0  0
  132.6210  -25.7000   36.9200 O   0  0  0  0  0
  134.3600  -29.1890   39.6790 C   0  0  0  0  0
  133.6590  -29.5710   40.8850 O   0  0  0  0  0
  134.5830  -26.1150   35.3550 O   0  0  0  0  0
  137.7830  -25.3860   32.5910 C   0  0  0  0  0
  138.7860  -26.2890   32.0340 O   0  0  0  0  0
  135.3930  -30.2790   39.2950 C   0  0  0  0  0
  136.3270  -30.4040   40.3810 O   0  0  0  0  0
  136.4900  -25.6560   31.9000 C   0  0  0  0  0
  136.4580  -24.7550   30.7610 O   0  0  0  0  0
  136.2030  -29.9060   38.0600 C   0  0  0  0  0
  135.3510  -29.2340   36.6730 S   0  0  0  0  0
  135.3200  -25.3010   32.7830 C   0  0  0  0  0
  134.4580  -26.4210   32.8820 O   0  0  0  0  0
  136.6210  -31.1440   37.2740 C   0  0  0  0  0
  136.8770  -32.2480   38.1380 O   0  0  0  0  0
  131.0250  -28.1890   38.5720 C   0  0  0  0  0
  130.6710  -29.1490   37.8910 O   0  0  0  0  0
  130.0110  -27.1630   39.0590 C   0  0  0  0  0
  138.5822  -21.4753   27.0585 H   0  0  0  0  0
  135.4475  -20.1720   29.6254 H   0  0  0  0  0
  135.8712  -22.1700   31.0499 H   0  0  0  0  0
  133.2740  -28.0684   36.6249 H   0  0  0  0  0
  138.5908  -24.6273   30.1936 H   0  0  0  0  0
  132.9404  -29.8545   38.2642 H   0  0  0  0  0
  132.4954  -27.1946   39.5777 H   0  0  0  0  0
  139.6039  -23.5626   33.2265 H   0  0  0  0  0
  132.9893  -24.4826   33.9262 H   0  0  0  0  0
  137.4737  -23.1936   32.6503 H   0  0  0  0  0
  132.3037  -26.5544   36.6184 H   0  0  0  0  0
  134.9169  -28.2690   39.8564 H   0  0  0  0  0
  134.2959  -29.7542   41.5796 H   0  0  0  0  0
  137.7950  -25.5163   33.6731 H   0  0  0  0  0
  138.6113  -27.1839   32.3344 H   0  0  0  0  0
  134.8436  -31.1978   39.0898 H   0  0  0  0  0
  136.9785  -31.0754   40.1656 H   0  0  0  0  0
  136.4193  -26.7098   31.6307 H   0  0  0  0  0
  136.9264  -29.2472   38.5404 H   0  0  0  0  0
  134.7786  -24.4582   32.3534 H   0  0  0  0  0
  135.6790  -25.0256   33.7746 H   0  0  0  0  0
  137.5353  -30.9138   36.7270 H   0  0  0  0  0
  135.8097  -31.4147   36.5983 H   0  0  0  0  0
  137.1371  -33.0093   37.6141 H   0  0  0  0  0
  129.5216  -26.7021   38.2010 H   0  0  0  0  0
  129.2656  -27.6579   39.6815 H   0  0  0  0  0
  130.5224  -26.3970   39.6420 H   0  0  0  0  0
  1  2  1  0  0  0
  1  8  1  0  0  0
 14  1  1  0  0  0
  2  3  2  0  0  0
  2  4  1  0  0  0
  4  5  1  0  0  0
  5  6  2  0  0  0
  7  5  1  0  0  0
  8  7  2  0  0  0
  9 13  2  0  0  0
  9 19  1  0  0  0
  9 24  1  0  0  0
 34  9  1  0  0  0
 10 12  1  0  0  0
 10 15  2  0  0  0
 10 21  1  0  0  0
 24 10  1  0  0  0
 12 11  1  0  0  0
 11 16  1  0  0  0
 11 32  1  0  0  0
 14 20  1  0  0  0
 30 14  1  0  0  0
 16 17  1  0  0  0
 16 22  1  0  0  0
 17 37  1  0  0  0
 20 18  1  0  0  0
 25 20  1  0  0  0
 22 23  1  0  0  0
 22 27  1  0  0  0
 25 26  1  0  0  0
 29 25  1  0  0  0
 27 28  1  0  0  0
 31 27  1  0  0  0
 29 30  1  0  0  0
 33 29  1  0  0  0
 32 31  1  0  0  0
 31 35  1  0  0  0
 33 34  1  0  0  0
 35 36  1  0  0  0
 37 38  2  0  0  0
 37 39  1  0  0  0
  4 40  1  0  0  0
  7 41  1  0  0  0
  8 42  1  0  0  0
 11 43  1  0  0  0
 14 44  1  0  0  0
 16 45  1  0  0  0
 17 46  1  0  0  0
 18 47  1  0  0  0
 19 48  1  0  0  0
 20 49  1  0  0  0
 21 50  1  0  0  0
 22 51  1  0  0  0
 23 52  1  0  0  0
 25 53  1  0  0  0
 26 54  1  0  0  0
 27 55  1  0  0  0
 28 56  1  0  0  0
 29 57  1  0  0  0
 31 58  1  0  0  0
 33 59  1  0  0  0
 33 60  1  0  0  0
 35 61  1  0  0  0
 35 62  1  0  0  0
 36 63  1  0  0  0
 39 64  1  0  0  0
 39 65  1  0  0  0
 39 66  1  0  0  0
M  END
$$$$
