1eas_ligand
  -I-interpret- 

 58 59  0  0  0  0  0  0  0  0999 V2000
   -8.3400   22.4230   36.7220 C   0  0  0  0  0
   -8.8880   23.5270   37.6530 C   0  0  0  0  0
  -10.4230   23.4460   37.8420 C   0  0  0  0  0
  -11.1980   24.6910   38.3120 C   0  0  0  0  0
  -12.6810   24.6170   38.0350 C   0  0  0  0  0
  -10.9280   25.0600   39.7590 C   0  0  0  0  0
  -11.3620   21.2110   38.3310 C   0  0  0  0  0
  -11.3880   20.0850   39.3690 C   0  0  0  0  0
  -13.8070   19.5320   39.3490 C   0  0  0  0  0
  -14.8280   18.4950   39.3560 C   0  0  0  0  0
  -14.5020   17.2190   39.0310 C   0  0  0  0  0
  -13.1670   16.9040   38.6660 C   0  0  0  0  0
  -12.1500   17.8120   38.6680 C   0  0  0  0  0
  -10.7510   17.4390   38.2980 C   0  0  0  0  0
  -10.0880   18.1000   37.2530 C   0  0  0  0  0
   -8.8160   17.7100   36.8920 C   0  0  0  0  0
   -8.2390   16.6210   37.4780 C   0  0  0  0  0
   -8.9130   15.9020   38.4540 C   0  0  0  0  0
  -10.1490   16.3270   38.8940 C   0  0  0  0  0
  -17.4200   17.8550   42.8080 C   0  0  0  0  0
  -10.6950   22.2880   38.7240 N   0  0  0  0  0
  -12.4850   19.1310   39.1000 N   0  0  0  0  0
  -16.1160   18.9320   39.7660 N   0  0  0  0  0
  -16.9550   17.3180   41.5230 N   0  0  0  0  0
   -8.5290   24.7280   37.0890 O   0  0  0  0  0
  -11.9670   21.1210   37.2790 O   0  0  0  0  0
  -14.0950   20.7020   39.6150 O   0  0  0  0  0
  -18.4840   18.8030   40.3310 O   0  0  0  0  0
  -17.4370   16.9860   39.0870 O   0  0  0  0  0
   -8.6140   21.2120   37.1680 F   0  0  0  0  0
   -7.0230   22.4560   36.5790 F   0  0  0  0  0
   -8.8530   22.5120   35.4990 F   0  0  0  0  0
  -17.3840   17.9740   40.0930 S   0  0  0  0  0
   -8.4675   23.4074   38.6515 H   0  0  0  0  0
  -10.8179   23.3438   36.8312 H   0  0  0  0  0
  -10.8017   25.5007   37.6992 H   0  0  0  0  0
  -13.1320   23.8607   38.6774 H   0  0  0  0  0
  -13.1361   25.5864   38.2381 H   0  0  0  0  0
  -12.8413   24.3507   36.9903 H   0  0  0  0  0
  -11.3715   26.0323   39.9735 H   0  0  0  0  0
  -11.3674   24.3066   40.4128 H   0  0  0  0  0
   -9.8519   25.1051   39.9264 H   0  0  0  0  0
  -11.5446   20.5248   40.3539 H   0  0  0  0  0
  -10.4411   19.5472   39.3211 H   0  0  0  0  0
  -15.2625   16.4384   39.0501 H   0  0  0  0  0
  -12.9426   15.8799   38.3677 H   0  0  0  0  0
  -10.5776   18.9201   36.7278 H   0  0  0  0  0
   -8.2692   18.2734   36.1359 H   0  0  0  0  0
   -7.2380   16.3130   37.1759 H   0  0  0  0  0
   -8.4657   15.0008   38.8733 H   0  0  0  0  0
  -10.6540   15.7984   39.7025 H   0  0  0  0  0
  -17.0885   18.8884   42.9098 H   0  0  0  0  0
  -18.5087   17.8161   42.8440 H   0  0  0  0  0
  -17.0068   17.2578   43.6208 H   0  0  0  0  0
  -10.3515   22.3203   39.6839 H   0  0  0  0  0
  -16.2562   19.9376   39.8635 H   0  0  0  0  0
  -16.3405   16.5039   41.5248 H   0  0  0  0  0
   -7.5756   24.7572   36.9809 H   0  0  0  0  0
  2  1  1  0  0  0
  1 30  1  0  0  0
  1 31  1  0  0  0
  1 32  1  0  0  0
  3  2  1  0  0  0
  2 25  1  0  0  0
  3  4  1  0  0  0
 21  3  1  0  0  0
  4  5  1  0  0  0
  4  6  1  0  0  0
  8  7  1  0  0  0
  7 21  1  0  0  0
  7 26  2  0  0  0
 22  8  1  0  0  0
 10  9  1  0  0  0
  9 22  1  0  0  0
  9 27  2  0  0  0
 10 11  2  0  0  0
 23 10  1  0  0  0
 11 12  1  0  0  0
 12 13  2  0  0  0
 13 14  1  0  0  0
 22 13  1  0  0  0
 14 15  4  0  0  0
 14 19  4  0  0  0
 15 16  4  0  0  0
 16 17  4  0  0  0
 18 17  4  0  0  0
 19 18  4  0  0  0
 24 20  1  0  0  0
 33 23  1  0  0  0
 24 33  1  0  0  0
 33 28  2  0  0  0
 33 29  2  0  0  0
  2 34  1  0  0  0
  3 35  1  0  0  0
  4 36  1  0  0  0
  5 37  1  0  0  0
  5 38  1  0  0  0
  5 39  1  0  0  0
  6 40  1  0  0  0
  6 41  1  0  0  0
  6 42  1  0  0  0
  8 43  1  0  0  0
  8 44  1  0  0  0
 11 45  1  0  0  0
 12 46  1  0  0  0
 15 47  1  0  0  0
 16 48  1  0  0  0
 17 49  1  0  0  0
 18 50  1  0  0  0
 19 51  1  0  0  0
 20 52  1  0  0  0
 20 53  1  0  0  0
 20 54  1  0  0  0
 21 55  1  0  0  0
 23 56  1  0  0  0
 24 57  1  0  0  0
 25 58  1  0  0  0
M  END
$$$$
