5aml_ligand
  -I-interpret- 

 33 33  0  0  0  0  0  0  0  0999 V2000
   -6.2510    5.9320   14.9740 O   0  0  0  0  0
   -5.6280    5.5060   13.7570 S   0  0  0  0  0
   -6.3120    5.7830   12.5660 O   0  0  0  0  0
   -4.2310    6.3380   13.6400 N   0  0  0  0  0
   -3.3990    6.3880   14.8350 C   0  0  0  0  0
   -2.4740    7.5090   14.7990 C   0  0  0  0  0
   -1.7400    8.4230   14.7690 C   0  0  0  0  0
   -0.8400    9.5600   14.7250 C   0  0  0  0  0
   -5.2670    3.8860   13.8640 C   0  0  0  0  0
   -4.5170    3.1520   12.8300 C   0  0  0  0  0
   -4.3040    1.8020   13.0520 C   0  0  0  0  0
   -4.1150    3.7680   11.5380 C   0  0  0  0  0
   -4.5970    3.3040   10.4770 O   0  0  0  0  0
   -3.3490    4.7410   11.5530 O   0  0  0  0  0
   -5.6790    3.1550   15.0090 C   0  0  0  0  0
   -5.3640    1.7980   15.2430 C   0  0  0  0  0
   -4.6860    1.1370   14.1970 C   0  0  0  0  0
   -5.9180    0.9820   16.6330 S   0  0  0  0  0
   -7.3430    1.3090   16.7330 O   0  0  0  0  0
   -5.0780    1.3780   17.7110 O   0  0  0  0  0
   -5.7290   -0.5660   16.4200 N   0  0  0  0  0
   -3.9534    6.8001   12.7741 H   0  0  0  0  0
   -2.8198    5.4662   14.8893 H   0  0  0  0  0
   -4.0492    6.5067   15.7017 H   0  0  0  0  0
   -0.5782    9.7747   13.6889 H   0  0  0  0  0
   -1.3316   10.4281   15.1642 H   0  0  0  0  0
    0.0636    9.3285   15.2889 H   0  0  0  0  0
   -3.8026    1.2291   12.2720 H   0  0  0  0  0
   -5.1618    2.5558   10.6838 H   0  0  0  0  0
   -6.2778    3.6750   15.7568 H   0  0  0  0  0
   -4.4591    0.0756   14.2969 H   0  0  0  0  0
   -6.5440   -1.1774   16.3712 H   0  0  0  0  0
   -4.7915   -0.9578   16.3308 H   0  0  0  0  0
  1  2  2  0  0  0
  2  3  2  0  0  0
  2  4  1  0  0  0
  2  9  1  0  0  0
  4  5  1  0  0  0
  5  6  1  0  0  0
  6  7  3  0  0  0
  7  8  1  0  0  0
  9 10  4  0  0  0
  9 15  4  0  0  0
 10 11  4  0  0  0
 10 12  1  0  0  0
 11 17  4  0  0  0
 12 13  1  0  0  0
 12 14  2  0  0  0
 15 16  4  0  0  0
 16 17  4  0  0  0
 16 18  1  0  0  0
 18 19  2  0  0  0
 18 20  2  0  0  0
 18 21  1  0  0  0
  4 22  1  0  0  0
  5 23  1  0  0  0
  5 24  1  0  0  0
  8 25  1  0  0  0
  8 26  1  0  0  0
  8 27  1  0  0  0
 11 28  1  0  0  0
 13 29  1  0  0  0
 15 30  1  0  0  0
 17 31  1  0  0  0
 21 32  1  0  0  0
 21 33  1  0  0  0
M  END
$$$$
