6ea1_ligand
  -I-interpret- 

 40 41  0  0  0  0  0  0  0  0999 V2000
  -16.5960    9.0250   -9.0150 F   0  0  0  0  0
  -17.5150    8.3890   -9.7770 C   0  0  0  0  0
  -18.5430    9.1040   -9.8280 F   0  0  0  0  0
  -17.8480    7.2070   -9.1620 F   0  0  0  0  0
  -16.9830    8.1440  -11.2300 C   0  0  0  0  0
  -15.8990    7.3290  -11.2110 F   0  0  0  0  0
  -16.5350    9.4890  -11.8140 C   0  0  0  0  0
  -17.3670   10.3460  -12.0780 O   0  0  0  0  0
  -15.2130    9.6370  -11.9830 N   0  0  0  0  0
  -14.6280   10.9500  -12.3460 C   0  0  0  0  0
  -13.6720   11.2990  -11.2070 C   0  0  0  0  0
  -12.7810   10.5130  -10.8680 O   0  0  0  0  0
  -14.0000   12.4140  -10.5730 N   0  0  0  0  0
  -13.1830   12.8000   -9.4900 O   0  0  0  0  0
  -14.1230   11.1100  -13.6690 C   0  0  0  0  0
  -14.0080   10.0550  -14.5630 C   0  0  0  0  0
  -13.5630   10.2810  -15.8740 C   0  0  0  0  0
  -13.8040   12.3950  -14.0970 C   0  0  0  0  0
  -13.3740   12.6400  -15.4170 C   0  0  0  0  0
  -13.2240   11.5690  -16.2990 C   0  0  0  0  0
  -12.8660   11.7960  -17.6360 C   0  0  0  0  0
  -11.7700   11.2640  -18.2890 C   0  0  0  0  0
  -11.5690   11.5680  -19.6360 C   0  0  0  0  0
  -10.5150   11.0800  -20.2530 F   0  0  0  0  0
  -12.4500   12.3830  -20.3330 C   0  0  0  0  0
  -12.2660   12.6920  -21.6940 F   0  0  0  0  0
  -13.5480   12.9080  -19.6940 C   0  0  0  0  0
  -14.4260   13.7060  -20.4230 F   0  0  0  0  0
  -13.7560   12.6260  -18.3480 C   0  0  0  0  0
  -17.7764    7.6873  -11.8216 H   0  0  0  0  0
  -14.5990    8.8319  -11.8596 H   0  0  0  0  0
  -15.4236   11.6902  -12.4305 H   0  0  0  0  0
  -14.8077   12.9693  -10.8552 H   0  0  0  0  0
  -13.5179   13.6170   -9.1132 H   0  0  0  0  0
  -14.2650    9.0447  -14.2447 H   0  0  0  0  0
  -13.4808    9.4444  -16.5679 H   0  0  0  0  0
  -13.8882   13.2277  -13.3987 H   0  0  0  0  0
  -13.1606   13.6571  -15.7458 H   0  0  0  0  0
  -11.0722   10.6158  -17.7589 H   0  0  0  0  0
  -14.6189   13.0525  -17.8366 H   0  0  0  0  0
  1  2  1  0  0  0
  2  3  1  0  0  0
  2  4  1  0  0  0
  2  5  1  0  0  0
  5  6  1  0  0  0
  5  7  1  0  0  0
  7  8  2  0  0  0
  7  9  1  0  0  0
  9 10  1  0  0  0
 10 11  1  0  0  0
 10 15  1  0  0  0
 11 12  2  0  0  0
 11 13  1  0  0  0
 13 14  1  0  0  0
 15 16  4  0  0  0
 15 18  4  0  0  0
 16 17  4  0  0  0
 17 20  4  0  0  0
 18 19  4  0  0  0
 19 20  4  0  0  0
 20 21  1  0  0  0
 21 22  4  0  0  0
 21 29  4  0  0  0
 22 23  4  0  0  0
 23 24  1  0  0  0
 23 25  4  0  0  0
 25 26  1  0  0  0
 25 27  4  0  0  0
 27 28  1  0  0  0
 27 29  4  0  0  0
  5 30  1  0  0  0
  9 31  1  0  0  0
 10 32  1  0  0  0
 13 33  1  0  0  0
 14 34  1  0  0  0
 16 35  1  0  0  0
 17 36  1  0  0  0
 18 37  1  0  0  0
 19 38  1  0  0  0
 22 39  1  0  0  0
 29 40  1  0  0  0
M  END
$$$$
