5n8e_ligand
  -I-interpret- 

159163  0  0  0  0  0  0  0  0999 V2000
  -15.3290   14.1000   39.6430 N   0  3  0  0  0
  -14.8960   14.0880   41.0780 C   0  0  0  0  0
  -13.5520   13.3770   41.2550 C   0  0  0  0  0
  -13.2710   12.3890   40.5730 O   0  0  0  0  0
  -15.9560   13.4090   41.9550 C   0  0  0  0  0
  -15.7140   13.5080   43.4600 C   0  0  0  0  0
  -16.5440   12.5110   44.2560 C   0  0  0  0  0
  -17.7110   13.1210   44.8950 N   0  0  0  0  0
  -17.6980   13.8100   46.0410 C   0  0  0  0  0
  -18.8400   14.2990   46.5180 N   0  0  0  0  0
  -16.5690   14.0270   46.7160 N   0  0  0  0  0
  -12.7560   13.8760   42.1980 N   0  0  0  0  0
  -11.4270   13.3460   42.5020 C   0  0  0  0  0
  -11.3100   12.9170   43.9730 C   0  0  0  0  0
  -11.9430   13.5040   44.8390 O   0  0  0  0  0
  -10.3720   14.4060   42.1920 C   0  0  0  0  0
  -10.2950   14.7590   40.7140 C   0  0  0  0  0
  -10.4910   13.8720   39.8530 O   0  0  0  0  0
  -10.0110   15.9380   40.4130 O   0  0  0  0  0
  -10.4640   11.9120   44.2610 N   0  0  0  0  0
  -10.2810   11.4400   45.6410 C   0  0  0  0  0
   -9.3610   12.3130   46.4920 C   0  0  0  0  0
   -9.3020   12.1340   47.7090 O   0  0  0  0  0
   -9.6770   10.0460   45.4530 C   0  0  0  0  0
   -8.9480   10.1410   44.1530 C   0  0  0  0  0
   -9.7870   11.0350   43.2850 C   0  0  0  0  0
   -8.6470   13.2280   45.8410 N   0  0  0  0  0
   -7.7710   14.2020   46.4770 C   0  0  0  0  0
   -7.4850   15.2550   45.4010 C   0  0  0  0  0
   -7.8470   15.0510   44.2420 O   0  0  0  0  0
   -6.4850   13.5370   46.9430 C   0  0  0  0  0
   -6.8400   16.3730   45.7580 N   0  0  0  0  0
   -6.5820   17.4070   44.7440 C   0  0  0  0  0
   -5.6550   16.9240   43.6230 C   0  0  0  0  0
   -4.5500   16.4370   43.8960 O   0  0  0  0  0
   -5.9520   18.5380   45.5590 C   0  0  0  0  0
   -6.5050   18.3520   46.9400 C   0  0  0  0  0
   -6.5560   16.8630   47.1200 C   0  0  0  0  0
   -6.1080   17.0460   42.3740 N   0  0  0  0  0
   -5.3580   16.5150   41.2420 C   0  0  0  0  0
   -3.9960   17.1860   41.0880 C   0  0  0  0  0
   -3.0040   16.5090   40.8030 O   0  0  0  0  0
   -6.1640   16.6510   39.9680 C   0  0  0  0  0
   -3.9540   18.5070   41.3050 N   0  0  0  0  0
   -2.7130   19.2830   41.1640 C   0  0  0  0  0
   -1.5750   18.7090   42.0090 C   0  0  0  0  0
   -0.4080   18.7870   41.6360 O   0  0  0  0  0
   -2.9260   20.7860   41.4910 C   0  0  0  0  0
   -3.4950   21.0650   42.8750 C   0  0  0  0  0
   -4.7990   21.3700   43.1850 C   0  0  0  0  0
   -2.7860   21.0640   44.1200 C   0  0  0  0  0
   -4.9380   21.5480   44.5370 N   0  0  0  0  0
   -3.7260   21.3570   45.1400 C   0  0  0  0  0
   -1.4500   20.8490   44.4810 C   0  0  0  0  0
   -3.3740   21.4170   46.4860 C   0  0  0  0  0
   -1.1020   20.9180   45.8310 C   0  0  0  0  0
   -2.0640   21.1930   46.8150 C   0  0  0  0  0
   -1.9270   18.1330   43.1560 N   0  0  0  0  0
   -0.9360   17.6230   44.0840 C   0  0  0  0  0
   -0.2490   16.3570   43.6030 C   0  0  0  0  0
    0.8110   16.0290   44.0990 O   0  0  0  0  0
   -1.5700   17.3850   45.4350 C   0  0  0  0  0
   -0.8520   15.6690   42.6380 N   0  0  0  0  0
   -0.4140   14.3560   42.2020 C   0  0  0  0  0
    0.1470   14.3860   40.8060 C   0  0  0  0  0
    0.4230   13.3300   40.2360 O   0  0  0  0  0
   -1.5850   13.3960   42.3360 C   0  0  0  0  0
   -2.0160   13.2340   43.7520 C   0  0  0  0  0
   -2.9290   14.0750   44.3510 N   0  0  0  0  0
   -1.5800   12.3960   44.7210 C   0  0  0  0  0
   -3.0440   13.7420   45.6270 C   0  0  0  0  0
   -2.2210   12.7400   45.8850 N   0  0  0  0  0
    0.3800   15.5970   40.3020 N   0  0  0  0  0
    0.9320   15.8020   38.9800 C   0  0  0  0  0
   -0.1020   15.7420   37.8770 C   0  0  0  0  0
    0.2660   15.6000   36.7170 O   0  0  0  0  0
   -1.3880   15.8900   38.2160 N   0  0  0  0  0
   -2.4590   15.7800   37.2250 C   0  0  0  0  0
   -3.5330   16.8430   37.2950 C   0  0  0  0  0
   -3.4110   17.8350   38.0170 O   0  0  0  0  0
   -4.5860   16.6260   36.5080 N   0  0  0  0  0
   -5.7530   17.5020   36.4870 C   0  0  0  0  0
   -5.5350   18.6950   35.5760 C   0  0  0  0  0
   -5.1320   18.5200   34.4220 O   0  0  0  0  0
   -5.6750   19.9380   35.8220 N   0  0  0  0  0
  -14.6127   14.5546   39.0768 H   0  0  0  0  0
  -15.4610   13.1412   39.3209 H   0  0  0  0  0
  -16.2069   14.6123   39.5583 H   0  0  0  0  0
  -14.7785   15.1258   41.3898 H   0  0  0  0  0
  -15.9380   12.3485   41.7038 H   0  0  0  0  0
  -16.8998   13.9165   41.7553 H   0  0  0  0  0
  -15.9988   14.5105   43.7793 H   0  0  0  0  0
  -14.6621   13.2901   43.6446 H   0  0  0  0  0
  -15.9093   12.1034   45.0429 H   0  0  0  0  0
  -16.9040   11.7503   43.5633 H   0  0  0  0  0
  -18.6104   13.0113   44.4265 H   0  0  0  0  0
  -19.7116   14.1465   46.0105 H   0  0  0  0  0
  -16.5888   14.5611   47.5847 H   0  0  0  0  0
  -15.6854   13.6589   46.3637 H   0  0  0  0  0
  -13.0917   14.6728   42.7391 H   0  0  0  0  0
  -11.2662   12.4641   41.8820 H   0  0  0  0  0
   -9.4027   14.0041   42.4870 H   0  0  0  0  0
  -10.6435   15.3115   42.7346 H   0  0  0  0  0
  -10.6946   13.0422   40.2907 H   0  0  0  0  0
  -11.2245   11.4594   46.1865 H   0  0  0  0  0
  -10.4364    9.2641   45.4449 H   0  0  0  0  0
   -9.0196    9.7659   46.2761 H   0  0  0  0  0
   -8.8112    9.1592   43.6998 H   0  0  0  0  0
   -7.9440   10.5435   44.2873 H   0  0  0  0  0
   -9.1955   11.5918   42.5582 H   0  0  0  0  0
  -10.4875   10.4795   42.6615 H   0  0  0  0  0
   -8.7184   13.2486   44.8237 H   0  0  0  0  0
   -8.2282   14.6468   47.3609 H   0  0  0  0  0
   -6.7229   12.7518   47.6607 H   0  0  0  0  0
   -5.9703   13.1035   46.0856 H   0  0  0  0  0
   -5.8434   14.2808   47.4156 H   0  0  0  0  0
   -7.4872   17.7069   44.2160 H   0  0  0  0  0
   -6.1902   19.5201   45.1505 H   0  0  0  0  0
   -4.8629   18.4970   45.5442 H   0  0  0  0  0
   -7.4856   18.8136   47.0555 H   0  0  0  0  0
   -5.8894   18.8366   47.6978 H   0  0  0  0  0
   -5.6324   16.4556   47.5312 H   0  0  0  0  0
   -7.3068   16.5510   47.8460 H   0  0  0  0  0
   -6.9959   17.5198   42.2079 H   0  0  0  0  0
   -5.1755   15.4585   41.4385 H   0  0  0  0  0
   -7.0971   16.0968   40.0690 H   0  0  0  0  0
   -6.3827   17.7036   39.7886 H   0  0  0  0  0
   -5.5905   16.2502   39.1322 H   0  0  0  0  0
   -4.8102   18.9902   41.5767 H   0  0  0  0  0
   -2.4239   19.2039   40.1160 H   0  0  0  0  0
   -3.6487   21.1671   40.7695 H   0  0  0  0  0
   -1.9454   21.2602   41.4510 H   0  0  0  0  0
   -5.6074   21.4578   42.4591 H   0  0  0  0  0
   -0.6972   20.6322   43.7231 H   0  0  0  0  0
   -4.1173   21.6352   47.2528 H   0  0  0  0  0
   -0.0653   20.7555   46.1259 H   0  0  0  0  0
   -1.7624   21.2290   47.8618 H   0  0  0  0  0
   -2.9167   18.0483   43.3878 H   0  0  0  0  0
   -0.1606   18.3854   44.1587 H   0  0  0  0  0
   -1.9714   18.3237   45.8170 H   0  0  0  0  0
   -2.3760   16.6582   45.3337 H   0  0  0  0  0
   -0.8183   17.0021   46.1253 H   0  0  0  0  0
   -1.6635   16.0852   42.1811 H   0  0  0  0  0
    0.4053   14.0125   42.8336 H   0  0  0  0  0
   -1.2707   12.4215   41.9623 H   0  0  0  0  0
   -2.4235   13.8007   41.7692 H   0  0  0  0  0
   -0.8522   11.5938   44.5993 H   0  0  0  0  0
   -3.7093   14.2169   46.3480 H   0  0  0  0  0
    0.1601   16.4140   40.8718 H   0  0  0  0  0
    1.6511   15.0033   38.7982 H   0  0  0  0  0
    1.3736   16.7984   38.9607 H   0  0  0  0  0
   -1.6274   16.0841   39.1883 H   0  0  0  0  0
   -2.9556   14.8281   37.4130 H   0  0  0  0  0
   -1.9863   15.8840   36.2483 H   0  0  0  0  0
   -4.5760   15.8121   35.8934 H   0  0  0  0  0
   -5.9292   17.8673   37.4987 H   0  0  0  0  0
   -6.6051   16.9336   36.1142 H   0  0  0  0  0
   -5.4595   20.6278   35.1022 H   0  0  0  0  0
   -6.0025   20.2428   36.7386 H   0  0  0  0  0
  1  2  1  0  0  0
  2  3  1  0  0  0
  2  5  1  0  0  0
  3  4  2  0  0  0
  3 12  1  0  0  0
  5  6  1  0  0  0
  6  7  1  0  0  0
  7  8  1  0  0  0
  8  9  1  0  0  0
  9 10  2  0  0  0
  9 11  1  0  0  0
 12 13  1  0  0  0
 13 14  1  0  0  0
 13 16  1  0  0  0
 14 15  2  0  0  0
 14 20  1  0  0  0
 16 17  1  0  0  0
 17 18  1  0  0  0
 17 19  2  0  0  0
 20 21  1  0  0  0
 20 26  1  0  0  0
 21 22  1  0  0  0
 21 24  1  0  0  0
 22 23  2  0  0  0
 22 27  1  0  0  0
 24 25  1  0  0  0
 25 26  1  0  0  0
 27 28  1  0  0  0
 28 29  1  0  0  0
 28 31  1  0  0  0
 29 30  2  0  0  0
 29 32  1  0  0  0
 32 33  1  0  0  0
 32 38  1  0  0  0
 33 34  1  0  0  0
 33 36  1  0  0  0
 34 35  2  0  0  0
 34 39  1  0  0  0
 36 37  1  0  0  0
 37 38  1  0  0  0
 39 40  1  0  0  0
 40 41  1  0  0  0
 40 43  1  0  0  0
 41 42  2  0  0  0
 41 44  1  0  0  0
 44 45  1  0  0  0
 45 46  1  0  0  0
 45 48  1  0  0  0
 46 47  2  0  0  0
 46 58  1  0  0  0
 48 49  1  0  0  0
 49 50  4  0  0  0
 49 51  4  0  0  0
 50 52  4  0  0  0
 51 53  4  0  0  0
 51 54  4  0  0  0
 52 53  4  0  0  0
 53 55  4  0  0  0
 54 56  4  0  0  0
 55 57  4  0  0  0
 56 57  4  0  0  0
 58 59  1  0  0  0
 59 60  1  0  0  0
 59 62  1  0  0  0
 60 61  2  0  0  0
 60 63  1  0  0  0
 63 64  1  0  0  0
 64 65  1  0  0  0
 64 67  1  0  0  0
 65 66  2  0  0  0
 65 73  1  0  0  0
 67 68  1  0  0  0
 68 69  4  0  0  0
 68 70  4  0  0  0
 69 71  4  0  0  0
 70 72  4  0  0  0
 71 72  4  0  0  0
 73 74  1  0  0  0
 74 75  1  0  0  0
 75 76  2  0  0  0
 75 77  1  0  0  0
 77 78  1  0  0  0
 78 79  1  0  0  0
 79 80  2  0  0  0
 79 81  1  0  0  0
 81 82  1  0  0  0
 82 83  1  0  0  0
 83 84  2  0  0  0
 83 85  1  0  0  0
  1 86  1  0  0  0
  1 87  1  0  0  0
  1 88  1  0  0  0
  2 89  1  0  0  0
  5 90  1  0  0  0
  5 91  1  0  0  0
  6 92  1  0  0  0
  6 93  1  0  0  0
  7 94  1  0  0  0
  7 95  1  0  0  0
  8 96  1  0  0  0
 10 97  1  0  0  0
 11 98  1  0  0  0
 11 99  1  0  0  0
 12100  1  0  0  0
 13101  1  0  0  0
 16102  1  0  0  0
 16103  1  0  0  0
 18104  1  0  0  0
 21105  1  0  0  0
 24106  1  0  0  0
 24107  1  0  0  0
 25108  1  0  0  0
 25109  1  0  0  0
 26110  1  0  0  0
 26111  1  0  0  0
 27112  1  0  0  0
 28113  1  0  0  0
 31114  1  0  0  0
 31115  1  0  0  0
 31116  1  0  0  0
 33117  1  0  0  0
 36118  1  0  0  0
 36119  1  0  0  0
 37120  1  0  0  0
 37121  1  0  0  0
 38122  1  0  0  0
 38123  1  0  0  0
 39124  1  0  0  0
 40125  1  0  0  0
 43126  1  0  0  0
 43127  1  0  0  0
 43128  1  0  0  0
 44129  1  0  0  0
 45130  1  0  0  0
 48131  1  0  0  0
 48132  1  0  0  0
 50133  1  0  0  0
 54134  1  0  0  0
 55135  1  0  0  0
 56136  1  0  0  0
 57137  1  0  0  0
 58138  1  0  0  0
 59139  1  0  0  0
 62140  1  0  0  0
 62141  1  0  0  0
 62142  1  0  0  0
 63143  1  0  0  0
 64144  1  0  0  0
 67145  1  0  0  0
 67146  1  0  0  0
 70147  1  0  0  0
 71148  1  0  0  0
 73149  1  0  0  0
 74150  1  0  0  0
 74151  1  0  0  0
 77152  1  0  0  0
 78153  1  0  0  0
 78154  1  0  0  0
 81155  1  0  0  0
 82156  1  0  0  0
 82157  1  0  0  0
 85158  1  0  0  0
 85159  1  0  0  0
M  END
$$$$
