### 
### Created by X-TOOL on Mon Sep 10 21:13:30 2018
### 

@<TRIPOS>MOLECULE
5n8e_ligand
  161   165     1     0     0
SMALL
GAST_HUCK


@<TRIPOS>ATOM
      1 N         -15.3290   14.1000   39.6430 N.4       1 ARG         0.2379
      2 CA        -14.8960   14.0880   41.0780 C.3       1 ARG         0.0651
      3 C         -13.5520   13.3770   41.2550 C.2       1 ARG         0.2268
      4 O         -13.2710   12.3890   40.5730 O.2       1 ARG        -0.3907
      5 CB        -15.9560   13.4090   41.9550 C.3       1 ARG         0.0110
      6 CG        -15.7140   13.5080   43.4600 C.3       1 ARG        -0.0125
      7 CD        -16.5440   12.5110   44.2560 C.3       1 ARG         0.0629
      8 NE        -17.7110   13.1210   44.8950 N.pl3     1 ARG        -0.2723
      9 CZ        -17.6980   13.8100   46.0410 C.cat     1 ARG         0.2882
     10 NH1       -18.8400   14.2990   46.5180 N.pl3     1 ARG        -0.2849
     11 NH2       -16.5690   14.0270   46.7160 N.pl3     1 ARG        -0.2849
     12 N         -12.7560   13.8760   42.1980 N.am      1 ASP        -0.2595
     13 CA        -11.4270   13.3460   42.5020 C.3       1 ASP         0.1426
     14 C         -11.3100   12.9170   43.9730 C.2       1 ASP         0.2081
     15 O         -11.9430   13.5040   44.8390 O.2       1 ASP        -0.3941
     16 CB        -10.3720   14.4060   42.1920 C.3       1 ASP         0.0406
     17 CG        -10.2950   14.7590   40.7140 C.2       1 ASP         0.0393
     18 OD1       -10.4910   13.8720   39.8530 O.co2     1 ASP        -0.5688
     19 OD2       -10.0110   15.9380   40.4130 O.co2     1 ASP        -0.5688
     20 N         -10.4640   11.9120   44.2610 N.am      1 PRO        -0.2497
     21 CA        -10.2810   11.4400   45.6410 C.3       1 PRO         0.1338
     22 C          -9.3610   12.3130   46.4920 C.2       1 PRO         0.2041
     23 O          -9.3020   12.1340   47.7090 O.2       1 PRO        -0.3944
     24 CB         -9.6770   10.0460   45.4530 C.3       1 PRO        -0.0104
     25 CG         -8.9480   10.1410   44.1530 C.3       1 PRO        -0.0281
     26 CD         -9.7870   11.0350   43.2850 C.3       1 PRO         0.0369
     27 N          -8.6470   13.2280   45.8410 N.am      1 ALA        -0.2640
     28 CA         -7.7710   14.2020   46.4770 C.3       1 ALA         0.1284
     29 C          -7.4850   15.2550   45.4010 C.2       1 ALA         0.2061
     30 O          -7.8470   15.0510   44.2420 O.2       1 ALA        -0.3942
     31 CB         -6.4850   13.5370   46.9430 C.3       1 ALA        -0.0244
     32 N          -6.8400   16.3730   45.7580 N.am      1 PRO        -0.2498
     33 CA         -6.5820   17.4070   44.7440 C.3       1 PRO         0.1338
     34 C          -5.6550   16.9240   43.6230 C.2       1 PRO         0.2041
     35 O          -4.5500   16.4370   43.8960 O.2       1 PRO        -0.3944
     36 CB         -5.9520   18.5380   45.5590 C.3       1 PRO        -0.0104
     37 CG         -6.5050   18.3520   46.9400 C.3       1 PRO        -0.0281
     38 CD         -6.5560   16.8630   47.1200 C.3       1 PRO         0.0369
     39 N          -6.1080   17.0460   42.3740 N.am      1 ALA        -0.2640
     40 CA         -5.3580   16.5150   41.2420 C.3       1 ALA         0.1282
     41 C          -3.9960   17.1860   41.0880 C.2       1 ALA         0.2037
     42 O          -3.0040   16.5090   40.8030 O.2       1 ALA        -0.3944
     43 CB         -6.1640   16.6510   39.9680 C.3       1 ALA        -0.0244
     44 N          -3.9540   18.5070   41.3050 N.am      1 TRP        -0.2627
     45 CA         -2.7130   19.2830   41.1640 C.3       1 TRP         0.1352
     46 C          -1.5750   18.7090   42.0090 C.2       1 TRP         0.2052
     47 O          -0.4080   18.7870   41.6360 O.2       1 TRP        -0.3942
     48 CB         -2.9260   20.7860   41.4910 C.3       1 TRP         0.0042
     49 CG         -3.4950   21.0650   42.8750 C.2       1 TRP        -0.0418
     50 CD1        -4.7990   21.3700   43.1850 C.2       1 TRP         0.0167
     51 CD2        -2.7860   21.0640   44.1200 C.ar      1 TRP        -0.0214
     52 NE1        -4.9380   21.5480   44.5370 N.pl3     1 TRP        -0.2890
     53 CE2        -3.7260   21.3570   45.1400 C.ar      1 TRP         0.0603
     54 CE3        -1.4500   20.8490   44.4810 C.ar      1 TRP        -0.0747
     55 CZ2        -3.3740   21.4170   46.4860 C.ar      1 TRP        -0.0443
     56 CZ3        -1.1020   20.9180   45.8310 C.ar      1 TRP        -0.0792
     57 CH2        -2.0640   21.1930   46.8150 C.ar      1 TRP        -0.0768
     58 N          -1.9270   18.1330   43.1560 N.am      1 ALA        -0.2639
     59 CA         -0.9360   17.6230   44.0840 C.3       1 ALA         0.1282
     60 C          -0.2490   16.3570   43.6030 C.2       1 ALA         0.2037
     61 O           0.8110   16.0290   44.0990 O.2       1 ALA        -0.3944
     62 CB         -1.5700   17.3850   45.4350 C.3       1 ALA        -0.0244
     63 N          -0.8520   15.6690   42.6380 N.am      1 HIS        -0.2625
     64 CA         -0.4140   14.3560   42.2020 C.3       1 HIS         0.1369
     65 C           0.1470   14.3860   40.8060 C.2       1 HIS         0.2052
     66 O           0.4230   13.3300   40.2360 O.2       1 HIS        -0.3942
     67 CB         -1.5850   13.3960   42.3360 C.3       1 HIS         0.0145
     68 CG         -2.0160   13.2340   43.7520 C.2       1 HIS        -0.0027
     69 ND1        -2.9290   14.0750   44.3510 N.2       1 HIS        -0.3252
     70 CD2        -1.5800   12.3960   44.7210 C.2       1 HIS         0.0291
     71 CE1        -3.0440   13.7420   45.6270 C.2       1 HIS         0.0907
     72 NE2        -2.2210   12.7400   45.8850 N.pl3     1 HIS        -0.2752
     73 N           0.3800   15.5970   40.3020 N.am      1 GLY        -0.2663
     74 CA          0.9320   15.8020   38.9800 C.3       1 GLY         0.1201
     75 C          -0.1020   15.7420   37.8770 C.2       1 GLY         0.2005
     76 O           0.2660   15.6000   36.7170 O.2       1 GLY        -0.3947
     77 N          -1.3880   15.8900   38.2160 N.am      1 GLY        -0.2666
     78 CA         -2.4590   15.7800   37.2250 C.3       1 GLY         0.1201
     79 C          -3.5330   16.8430   37.2950 C.2       1 GLY         0.2005
     80 O          -3.4110   17.8350   38.0170 O.2       1 GLY        -0.3947
     81 N          -4.5860   16.6260   36.5080 N.am      1 GLY        -0.2667
     82 CA         -5.7530   17.5020   36.4870 C.3       1 GLY         0.1198
     83 C          -5.5350   18.6950   35.5760 C.2       1 GLY         0.1960
     84 O          -5.1320   18.5200   34.4220 O.2       1 GLY        -0.3951
     85 N          -5.6750   19.9380   35.8220 N.am      1 NH2        -0.2992
     86 H1        -16.2148   14.5744   39.5633 H         1 ARG         0.2015
     87 H2        -15.4245   13.1524   39.3129 H         1 ARG         0.2015
     88 H3        -14.6390   14.5813   39.0878 H         1 ARG         0.2015
     89 H4        -14.7825   15.1304   41.4103 H         1 ARG         0.1098
     90 H5        -15.9896   12.3432   41.6850 H         1 ARG         0.0347
     91 H6        -16.9284   13.8738   41.7352 H         1 ARG         0.0347
     92 H7        -15.9720   14.5246   43.7917 H         1 ARG         0.0302
     93 H8        -14.6491   13.3168   43.6584 H         1 ARG         0.0302
     94 H9        -15.9076   12.0692   45.0369 H         1 ARG         0.0689
     95 H10       -16.8907   11.7202   43.5746 H         1 ARG         0.0689
     96 H11       -18.6192   13.0102   44.4219 H         1 ARG         0.2642
     97 H12       -18.8438   14.8315   47.3997 H         1 ARG         0.2615
     98 H13       -19.7201   14.1450   46.0055 H         1 ARG         0.2615
     99 H14       -15.6767   13.6553   46.3602 H         1 ARG         0.2615
    100 H15       -16.5890   14.5664   47.5933 H         1 ARG         0.2615
    101 H16       -13.0851   14.6572   42.7285 H         1 ASP         0.1886
    102 H17       -11.2473   12.4665   41.8662 H         1 ASP         0.0819
    103 H18        -9.3904   14.0270   42.5127 H         1 ASP         0.0478
    104 H19       -10.6155   15.3177   42.7572 H         1 ASP         0.0478
    105 H20       -11.2571   11.3738   46.1438 H         1 PRO         0.0802
    106 H21       -10.4661    9.2812   45.4038 H         1 PRO         0.0313
    107 H22        -8.9843    9.8060   46.2731 H         1 PRO         0.0313
    108 H23        -8.8473    9.1458   43.6954 H         1 PRO         0.0287
    109 H24        -7.9499   10.5782   44.3033 H         1 PRO         0.0287
    110 H25        -9.1586   11.6205   42.5977 H         1 PRO         0.0524
    111 H26       -10.5175   10.4507   42.7063 H         1 PRO         0.0524
    112 H27        -8.7170   13.2482   44.8437 H         1 ALA         0.1883
    113 H28        -8.2739   14.6643   47.3392 H         1 ALA         0.0797
    114 H29        -5.8366   14.2866   47.4201 H         1 ALA         0.0277
    115 H30        -5.9645   13.0991   46.0785 H         1 ALA         0.0277
    116 H31        -6.7237   12.7444   47.6674 H         1 ALA         0.0277
    117 H32        -7.5282   17.7409   44.2933 H         1 PRO         0.0802
    118 H33        -6.2405   19.5186   45.1526 H         1 PRO         0.0313
    119 H34        -4.8555   18.4511   45.5634 H         1 PRO         0.0313
    120 H35        -7.5114   18.7890   47.0192 H         1 PRO         0.0287
    121 H36        -5.8451   18.8129   47.6897 H         1 PRO         0.0287
    122 H37        -5.5938   16.4761   47.4866 H         1 PRO         0.0524
    123 H38        -7.3564   16.5765   47.8180 H         1 PRO         0.0524
    124 H39        -6.9785   17.5105   42.2111 H         1 ALA         0.1883
    125 H40        -5.1856   15.4442   41.4252 H         1 ALA         0.0797
    126 H41        -5.5862   16.2468   39.1237 H         1 ALA         0.0277
    127 H42        -6.3854   17.7130   39.7857 H         1 ALA         0.0277
    128 H43        -7.1060   16.0920   40.0686 H         1 ALA         0.0277
    129 H44        -4.7934   18.9807   41.5714 H         1 TRP         0.1884
    130 H45        -2.4069   19.2151   40.1096 H         1 TRP         0.0815
    131 H46        -3.6193   21.2032   40.7458 H         1 TRP         0.0397
    132 H47        -1.9537   21.2943   41.4122 H         1 TRP         0.0397
    133 H48        -5.6066   21.4577   42.4598 H         1 TRP         0.0795
    134 H49        -5.8151   21.7873   45.0211 H         1 TRP         0.2216
    135 H50        -0.7014   20.6334   43.7273 H         1 TRP         0.0540
    136 H51        -4.1132   21.6340   47.2486 H         1 TRP         0.0541
    137 H52        -0.0710   20.7564   46.1243 H         1 TRP         0.0510
    138 H53        -1.7640   21.2288   47.8561 H         1 TRP         0.0530
    139 H54        -2.8973   18.0499   43.3832 H         1 ALA         0.1883
    140 H55        -0.1618   18.3959   44.1990 H         1 ALA         0.0797
    141 H56        -0.8124   16.9985   46.1326 H         1 ALA         0.0277
    142 H57        -2.3836   16.6516   45.3342 H         1 ALA         0.0277
    143 H58        -1.9755   18.3316   45.8217 H         1 ALA         0.0277
    144 H59        -1.6475   16.0770   42.1901 H         1 HIS         0.1885
    145 H60         0.3880   14.0172   42.8743 H         1 HIS         0.0817
    146 H61        -1.2856   12.4138   41.9416 H         1 HIS         0.0420
    147 H62        -2.4310   13.7841   41.7498 H         1 HIS         0.0420
    148 H63        -0.8528   11.5945   44.5994 H         1 HIS         0.0729
    149 H64        -3.7087   14.2165   46.3474 H         1 HIS         0.1199
    150 H65        -2.0841   12.2935   46.8031 H         1 HIS         0.2361
    151 H66         0.1644   16.3979   40.8606 H         1 GLY         0.1881
    152 H67         1.6858   15.0230   38.7930 H         1 GLY         0.0763
    153 H68         1.4124   16.7912   38.9531 H         1 GLY         0.0763
    154 H69        -1.6227   16.0803   39.1693 H         1 GLY         0.1881
    155 H70        -2.9435   14.8016   37.3590 H         1 GLY         0.0763
    156 H71        -2.0008   15.8286   36.2262 H         1 GLY         0.0763
    157 H72        -4.5762   15.8280   35.9054 H         1 GLY         0.1881
    158 H73        -5.9480   17.8625   37.5078 H         1 GLY         0.0763
    159 H74        -6.6220   16.9315   36.1273 H         1 GLY         0.0763
    160 H75        -5.4905   20.6130   35.1076 H         1 NH2         0.1815
    161 H76        -5.9693   20.2381   36.7294 H         1 NH2         0.1815
@<TRIPOS>BOND
     1    1    2 1  
     2    2    3 1  
     3    2    5 1  
     4    3    4 2  
     5    3   12 am 
     6    5    6 1  
     7    6    7 1  
     8    7    8 1  
     9    8    9 ar 
    10    9   10 ar 
    11    9   11 ar 
    12   12   13 1  
    13   13   14 1  
    14   13   16 1  
    15   14   15 2  
    16   14   20 am 
    17   16   17 1  
    18   17   18 ar 
    19   17   19 ar 
    20   20   21 1  
    21   20   26 1  
    22   21   22 1  
    23   21   24 1  
    24   22   23 2  
    25   22   27 am 
    26   24   25 1  
    27   25   26 1  
    28   27   28 1  
    29   28   29 1  
    30   28   31 1  
    31   29   30 2  
    32   29   32 am 
    33   32   33 1  
    34   32   38 1  
    35   33   34 1  
    36   33   36 1  
    37   34   35 2  
    38   34   39 am 
    39   36   37 1  
    40   37   38 1  
    41   39   40 1  
    42   40   41 1  
    43   40   43 1  
    44   41   42 2  
    45   41   44 am 
    46   44   45 1  
    47   45   46 1  
    48   45   48 1  
    49   46   47 2  
    50   46   58 am 
    51   48   49 1  
    52   49   50 2  
    53   49   51 1  
    54   50   52 1  
    55   51   53 ar 
    56   51   54 ar 
    57   52   53 1  
    58   53   55 ar 
    59   54   56 ar 
    60   55   57 ar 
    61   56   57 ar 
    62   58   59 1  
    63   59   60 1  
    64   59   62 1  
    65   60   61 2  
    66   60   63 am 
    67   63   64 1  
    68   64   65 1  
    69   64   67 1  
    70   65   66 2  
    71   65   73 am 
    72   67   68 1  
    73   68   69 1  
    74   68   70 2  
    75   69   71 2  
    76   70   72 1  
    77   71   72 1  
    78   73   74 1  
    79   74   75 1  
    80   75   76 2  
    81   75   77 am 
    82   77   78 1  
    83   78   79 1  
    84   79   80 2  
    85   79   81 am 
    86   81   82 1  
    87   82   83 1  
    88   83   84 2  
    89   83   85 am 
    90    1   86 1  
    91    1   87 1  
    92    1   88 1  
    93    2   89 1  
    94    5   90 1  
    95    5   91 1  
    96    6   92 1  
    97    6   93 1  
    98    7   94 1  
    99    7   95 1  
   100    8   96 1  
   101   10   97 1  
   102   10   98 1  
   103   11   99 1  
   104   11  100 1  
   105   12  101 1  
   106   13  102 1  
   107   16  103 1  
   108   16  104 1  
   109   21  105 1  
   110   24  106 1  
   111   24  107 1  
   112   25  108 1  
   113   25  109 1  
   114   26  110 1  
   115   26  111 1  
   116   27  112 1  
   117   28  113 1  
   118   31  114 1  
   119   31  115 1  
   120   31  116 1  
   121   33  117 1  
   122   36  118 1  
   123   36  119 1  
   124   37  120 1  
   125   37  121 1  
   126   38  122 1  
   127   38  123 1  
   128   39  124 1  
   129   40  125 1  
   130   43  126 1  
   131   43  127 1  
   132   43  128 1  
   133   44  129 1  
   134   45  130 1  
   135   48  131 1  
   136   48  132 1  
   137   50  133 1  
   138   52  134 1  
   139   54  135 1  
   140   55  136 1  
   141   56  137 1  
   142   57  138 1  
   143   58  139 1  
   144   59  140 1  
   145   62  141 1  
   146   62  142 1  
   147   62  143 1  
   148   63  144 1  
   149   64  145 1  
   150   67  146 1  
   151   67  147 1  
   152   70  148 1  
   153   71  149 1  
   154   72  150 1  
   155   73  151 1  
   156   74  152 1  
   157   74  153 1  
   158   77  154 1  
   159   78  155 1  
   160   78  156 1  
   161   81  157 1  
   162   82  158 1  
   163   82  159 1  
   164   85  160 1  
   165   85  161 1  
@<TRIPOS>SUBSTRUCTURE
     1 ARG         1

