5hbj_ligand
  -I-interpret- 

 52 56  0  0  0  0  0  0  0  0999 V2000
   -3.3280   13.9660   -5.2920 C   0  0  0  0  0
   -1.9130   12.3520   -8.2050 C   0  0  0  0  0
   -3.3310   12.1110   -8.4430 C   0  0  0  0  0
   -4.0560   11.4610   -9.4570 C   0  0  0  0  0
   -5.4460   11.4110   -9.3900 C   0  0  0  0  0
   -6.1190   11.9990   -8.3080 C   0  0  0  0  0
   -6.2270   10.7270  -10.4510 C   0  0  0  0  0
   -7.0050    9.6300  -10.0870 C   0  0  0  0  0
   -7.7240    8.9660  -10.9740 N   0  0  0  0  0
   -7.0000   10.4010  -12.7140 C   0  0  0  0  0
   -6.2200   11.1370  -11.8090 C   0  0  0  0  0
   -4.2370   13.0970  -14.2170 C   0  0  0  0  0
   -3.2380   14.9780  -12.8300 C   0  0  0  0  0
   -2.3590   15.6640  -13.8980 C   0  0  0  0  0
   -3.0670   13.2490   -6.5420 N   0  0  0  0  0
   -1.8060   13.0180   -7.0930 N   0  0  0  0  0
   -5.4190   12.6290   -7.3140 C   0  0  0  0  0
   -4.0180   12.7000   -7.3590 C   0  0  0  0  0
   -7.7410    9.3150  -12.2560 C   0  0  0  0  0
   -8.5160    8.5850  -13.1480 N   0  0  0  0  0
   -7.0770   10.8070  -14.3980 Cl  0  0  0  0  0
   -5.4590   12.2300  -12.2190 N   0  0  0  0  0
   -4.2930   12.0370  -13.1010 C   0  0  0  0  0
   -4.4440   14.5090  -13.6770 C   0  0  0  0  0
   -3.3020   16.1330  -14.9170 N   0  0  0  0  0
   -4.4860   15.4960  -14.8170 C   0  0  0  0  0
   -5.4420   15.6940  -15.5400 O   0  0  0  0  0
   -5.7520   14.5920  -12.8920 C   0  0  0  0  0
   -5.7850   13.5820  -11.7330 C   0  0  0  0  0
   -2.8309   13.4521   -4.4692 H   0  0  0  0  0
   -2.9446   14.9833   -5.3713 H   0  0  0  0  0
   -4.4020   13.9944   -5.1084 H   0  0  0  0  0
   -1.0903   12.0316   -8.8442 H   0  0  0  0  0
   -3.5318   10.9977  -10.2929 H   0  0  0  0  0
   -7.2069   11.9539   -8.2585 H   0  0  0  0  0
   -7.0207    9.3119   -9.0446 H   0  0  0  0  0
   -5.0348   12.8844  -14.9287 H   0  0  0  0  0
   -3.2517   13.0511  -14.6809 H   0  0  0  0  0
   -3.5137   15.6346  -12.0048 H   0  0  0  0  0
   -2.7329   14.1677  -12.3043 H   0  0  0  0  0
   -1.6197   14.9798  -14.3145 H   0  0  0  0  0
   -1.7763   16.4836  -13.4775 H   0  0  0  0  0
   -5.9554   13.0800   -6.4791 H   0  0  0  0  0
   -9.0637    7.7910  -12.8164 H   0  0  0  0  0
   -8.5374    8.8429  -14.1346 H   0  0  0  0  0
   -3.3893   12.1267  -12.4982 H   0  0  0  0  0
   -4.3745   11.0545  -13.5660 H   0  0  0  0  0
   -3.0900   16.8488  -15.6120 H   0  0  0  0  0
   -6.5744   14.3637  -13.5699 H   0  0  0  0  0
   -5.8394   15.5955  -12.4755 H   0  0  0  0  0
   -5.0493   13.8768  -10.9847 H   0  0  0  0  0
   -6.7853   13.5716  -11.3001 H   0  0  0  0  0
 15  1  1  0  0  0
  3  2  4  0  0  0
  2 16  4  0  0  0
  4  3  4  0  0  0
  3 18  4  0  0  0
  5  4  4  0  0  0
  5  6  4  0  0  0
  7  5  1  0  0  0
  6 17  4  0  0  0
  7  8  4  0  0  0
 11  7  4  0  0  0
  8  9  4  0  0  0
 19  9  4  0  0  0
 11 10  4  0  0  0
 10 19  4  0  0  0
 10 21  1  0  0  0
 22 11  1  0  0  0
 23 12  1  0  0  0
 12 24  1  0  0  0
 13 14  1  0  0  0
 24 13  1  0  0  0
 14 25  1  0  0  0
 15 16  4  0  0  0
 18 15  4  0  0  0
 17 18  4  0  0  0
 19 20  1  0  0  0
 22 23  1  0  0  0
 22 29  1  0  0  0
 24 26  1  0  0  0
 24 28  1  0  0  0
 25 26  1  0  0  0
 26 27  2  0  0  0
 28 29  1  0  0  0
  1 30  1  0  0  0
  1 31  1  0  0  0
  1 32  1  0  0  0
  2 33  1  0  0  0
  4 34  1  0  0  0
  6 35  1  0  0  0
  8 36  1  0  0  0
 12 37  1  0  0  0
 12 38  1  0  0  0
 13 39  1  0  0  0
 13 40  1  0  0  0
 14 41  1  0  0  0
 14 42  1  0  0  0
 17 43  1  0  0  0
 20 44  1  0  0  0
 20 45  1  0  0  0
 23 46  1  0  0  0
 23 47  1  0  0  0
 25 48  1  0  0  0
 28 49  1  0  0  0
 28 50  1  0  0  0
 29 51  1  0  0  0
 29 52  1  0  0  0
M  END
$$$$
