5f00_ligand
  -I-interpret- 

 45 48  0  0  0  0  0  0  0  0999 V2000
  -14.8530   42.2880    8.3270 C   0  0  0  0  0
  -16.0380   41.0190    9.9890 C   0  0  0  0  0
  -20.0190   39.5250    8.7990 C   0  0  0  0  0
  -20.3150   40.1330    7.5960 C   0  0  0  0  0
  -17.9540   40.5440    7.2880 C   0  0  0  0  0
  -16.0530   38.5310    9.7560 C   0  0  0  0  0
  -21.6020   42.4350    5.9620 C   0  0  0  0  0
  -20.3310   42.7070    3.9190 C   0  0  0  0  0
  -21.2890   43.6200    3.4320 C   0  0  0  0  0
  -21.0750   44.2030    2.1530 C   0  0  0  0  0
  -19.0590   42.9260    1.9970 C   0  0  0  0  0
  -16.2580   39.8530    9.0050 C   0  0  0  0  0
  -15.3210   39.9170    7.8790 N   0  0  0  0  0
  -14.6830   40.9910    7.5780 C   0  0  0  0  0
  -15.9780   42.2500    9.2480 O   0  0  0  0  0
  -19.2640   40.6480    6.8390 C   0  0  0  0  0
  -17.6710   39.9480    8.4890 C   0  0  0  0  0
  -18.7080   39.4380    9.2380 C   0  0  0  0  0
  -13.8210   40.9410    6.5080 N   0  0  0  0  0
  -19.4930   41.2450    5.6000 N   0  0  0  0  0
  -20.4960   42.1170    5.1900 C   0  0  0  0  0
  -22.5300   43.3480    5.4610 C   0  0  0  0  0
  -22.4030   43.9310    4.2290 C   0  0  0  0  0
  -19.9450   43.8370    1.4550 C   0  0  0  0  0
  -19.2680   42.3990    3.1720 N   0  0  0  0  0
  -19.5950   44.4780   -0.1180 Cl  0  0  0  0  0
  -15.0387   43.0774    7.5986 H   0  0  0  0  0
  -13.9471   42.4650    8.9068 H   0  0  0  0  0
  -15.1050   40.8708   10.5327 H   0  0  0  0  0
  -16.8609   41.0587   10.7027 H   0  0  0  0  0
  -20.8223   39.1104    9.4080 H   0  0  0  0  0
  -21.3447   40.2086    7.2466 H   0  0  0  0  0
  -17.1421   40.9408    6.6785 H   0  0  0  0  0
  -16.2366   37.6973    9.0782 H   0  0  0  0  0
  -15.0294   38.4805   10.1273 H   0  0  0  0  0
  -16.7479   38.4793   10.5942 H   0  0  0  0  0
  -21.7441   41.9802    6.9423 H   0  0  0  0  0
  -21.7842   44.9186    1.7369 H   0  0  0  0  0
  -18.1701   42.6427    1.4333 H   0  0  0  0  0
  -15.1705   39.0803    7.3153 H   0  0  0  0  0
  -18.4936   38.9576   10.1927 H   0  0  0  0  0
  -13.7067   40.0726    5.9853 H   0  0  0  0  0
  -18.8152   41.0031    4.8772 H   0  0  0  0  0
  -23.3917   43.6079    6.0758 H   0  0  0  0  0
  -23.1588   44.6296    3.8701 H   0  0  0  0  0
 14  1  1  0  0  0
 15  1  1  0  0  0
 12  2  1  0  0  0
  2 15  1  0  0  0
  4  3  4  0  0  0
  3 18  4  0  0  0
 16  4  4  0  0  0
 16  5  4  0  0  0
  5 17  4  0  0  0
 12  6  1  0  0  0
 21  7  4  0  0  0
  7 22  4  0  0  0
  8  9  4  0  0  0
 21  8  4  0  0  0
  8 25  4  0  0  0
  9 10  4  0  0  0
  9 23  4  0  0  0
 10 24  4  0  0  0
 11 24  4  0  0  0
 25 11  4  0  0  0
 12 13  1  0  0  0
 17 12  1  0  0  0
 13 14  1  0  0  0
 14 19  2  0  0  0
 20 16  1  0  0  0
 17 18  4  0  0  0
 20 21  1  0  0  0
 22 23  4  0  0  0
 24 26  1  0  0  0
  1 27  1  0  0  0
  1 28  1  0  0  0
  2 29  1  0  0  0
  2 30  1  0  0  0
  3 31  1  0  0  0
  4 32  1  0  0  0
  5 33  1  0  0  0
  6 34  1  0  0  0
  6 35  1  0  0  0
  6 36  1  0  0  0
  7 37  1  0  0  0
 10 38  1  0  0  0
 11 39  1  0  0  0
 13 40  1  0  0  0
 18 41  1  0  0  0
 19 42  1  0  0  0
 20 43  1  0  0  0
 22 44  1  0  0  0
 23 45  1  0  0  0
M  END
$$$$
