2vcg_ligand
  -I-interpret- 

 51 51  0  0  0  0  0  0  0  0999 V2000
   -7.9200   -4.7190   34.1180 C   0  0  0  0  0
   -8.3870   -3.7720   35.0200 C   0  0  0  0  0
   -8.7080   -4.1520   36.3220 C   0  0  0  0  0
   -9.3360   -2.8370   37.5290 Br  0  0  0  0  0
   -8.5750   -5.4820   36.7280 C   0  0  0  0  0
   -8.1130   -6.4330   35.8200 C   0  0  0  0  0
   -7.7750   -6.0440   34.5190 C   0  0  0  0  0
   -7.2810   -7.0610   33.4940 C   0  0  0  0  0
   -5.7900   -7.4490   33.5930 C   0  0  0  0  0
   -4.8750   -6.2760   33.1670 C   0  0  0  0  0
   -3.7930   -6.0940   33.7240 O   0  0  0  0  0
   -5.2510   -5.4330   32.1560 O   0  0  0  0  0
   -4.1740   -5.1190   31.2530 C   0  0  0  0  0
   -5.4240   -7.9620   34.9410 N   0  0  0  0  0
   -5.9390   -9.0580   35.5270 C   0  0  0  0  0
   -6.8040   -9.7900   35.0440 O   0  0  0  0  0
   -5.3710   -9.3640   36.9180 C   0  0  0  0  0
   -5.1270  -10.8560   37.1570 C   0  0  0  0  0
   -3.7690  -11.0820   37.8280 C   0  0  0  0  0
   -3.8200  -10.9460   39.3570 C   0  0  0  0  0
   -4.3170  -12.2160   40.0610 C   0  0  0  0  0
   -3.2630  -13.3130   40.0540 C   0  0  0  0  0
   -3.0110  -13.9380   41.4360 C   0  0  0  0  0
   -1.8990  -14.3290   41.7500 O   0  0  0  0  0
   -4.0460  -14.0240   42.2470 N   0  0  0  0  0
   -3.8690  -14.5640   43.4570 O   0  0  0  0  0
   -7.6677   -4.4256   33.0990 H   0  0  0  0  0
   -8.5023   -2.7333   34.7103 H   0  0  0  0  0
   -8.8305   -5.7736   37.7467 H   0  0  0  0  0
   -8.0153   -7.4757   36.1221 H   0  0  0  0  0
   -7.4136   -6.5996   32.5154 H   0  0  0  0  0
   -7.8482   -7.9749   33.6706 H   0  0  0  0  0
   -5.6313   -8.2697   32.8935 H   0  0  0  0  0
   -3.3681   -4.6352   31.8049 H   0  0  0  0  0
   -3.8038   -6.0376   30.7977 H   0  0  0  0  0
   -4.5377   -4.4474   30.4753 H   0  0  0  0  0
   -4.7231   -7.4382   35.4652 H   0  0  0  0  0
   -6.1015   -9.0275   37.6537 H   0  0  0  0  0
   -4.4105   -8.8555   37.0010 H   0  0  0  0  0
   -5.1360  -11.3726   36.1972 H   0  0  0  0  0
   -5.9107  -11.2411   37.8094 H   0  0  0  0  0
   -3.0838  -10.3225   37.4514 H   0  0  0  0  0
   -3.4515  -12.0988   37.5971 H   0  0  0  0  0
   -4.5175  -10.1426   39.5940 H   0  0  0  0  0
   -2.8057  -10.7509   39.7052 H   0  0  0  0  0
   -5.1960  -12.5812   39.5299 H   0  0  0  0  0
   -4.5461  -11.9668   41.0971 H   0  0  0  0  0
   -2.3266  -12.8628   39.7246 H   0  0  0  0  0
   -3.6229  -14.1062   39.3987 H   0  0  0  0  0
   -4.9636  -13.6854   41.9574 H   0  0  0  0  0
   -4.7027  -14.5603   43.9329 H   0  0  0  0  0
  1  2  4  0  0  0
  1  7  4  0  0  0
  2  3  4  0  0  0
  3  4  1  0  0  0
  3  5  4  0  0  0
  5  6  4  0  0  0
  6  7  4  0  0  0
  7  8  1  0  0  0
  8  9  1  0  0  0
  9 10  1  0  0  0
  9 14  1  0  0  0
 10 11  2  0  0  0
 10 12  1  0  0  0
 12 13  1  0  0  0
 14 15  1  0  0  0
 15 16  2  0  0  0
 15 17  1  0  0  0
 17 18  1  0  0  0
 18 19  1  0  0  0
 19 20  1  0  0  0
 20 21  1  0  0  0
 21 22  1  0  0  0
 22 23  1  0  0  0
 23 24  2  0  0  0
 23 25  1  0  0  0
 25 26  1  0  0  0
  1 27  1  0  0  0
  2 28  1  0  0  0
  5 29  1  0  0  0
  6 30  1  0  0  0
  8 31  1  0  0  0
  8 32  1  0  0  0
  9 33  1  0  0  0
 13 34  1  0  0  0
 13 35  1  0  0  0
 13 36  1  0  0  0
 14 37  1  0  0  0
 17 38  1  0  0  0
 17 39  1  0  0  0
 18 40  1  0  0  0
 18 41  1  0  0  0
 19 42  1  0  0  0
 19 43  1  0  0  0
 20 44  1  0  0  0
 20 45  1  0  0  0
 21 46  1  0  0  0
 21 47  1  0  0  0
 22 48  1  0  0  0
 22 49  1  0  0  0
 25 50  1  0  0  0
 26 51  1  0  0  0
M  END
$$$$
