3bft_ligand
  -I-interpret- 

 20 20  0  0  0  0  0  0  0  0999 V2000
  -11.6930   27.1040   40.2530 C   0  0  0  0  0
  -11.5500   25.9660   41.2070 C   0  0  0  0  0
  -11.2920   24.8240   40.5660 N   0  0  0  0  0
  -11.6940   26.1750   42.7000 C   0  0  0  0  0
  -10.3180   26.4110   43.3730 C   0  0  0  0  0
  -11.9510   28.2885   40.8000 O   0  0  0  0  0
  -11.2456   27.4687   45.3608 O   0  0  0  0  0
  -10.4690   26.6390   44.9170 C   0  0  0  0  0
   -9.6600   25.8090   45.5694 O   0  0  0  0  0
  -11.5470   26.7820   38.9290 N   0  0  0  0  0
   -9.2920   25.2620   43.1590 N   0  3  0  0  0
  -11.2190   25.0550   38.8120 S   0  0  0  0  0
  -12.1425   25.2809   43.1331 H   0  0  0  0  0
  -12.3169   27.0535   42.8681 H   0  0  0  0  0
   -9.9303   27.3022   42.8796 H   0  0  0  0  0
   -9.1719   25.2767   44.9370 H   0  0  0  0  0
  -11.6164   27.4312   38.1453 H   0  0  0  0  0
   -9.1755   25.0936   42.1598 H   0  0  0  0  0
   -8.3957   25.5278   43.5670 H   0  0  0  0  0
   -9.6342   24.4137   43.6104 H   0  0  0  0  0
  1  2  1  0  0  0
  1  6  2  0  0  0
  1 10  1  0  0  0
  2  3  2  0  0  0
  2  4  1  0  0  0
  3 12  1  0  0  0
  4  5  1  0  0  0
  5  8  1  0  0  0
  5 11  1  0  0  0
  8  7  2  0  0  0
  8  9  1  0  0  0
 10 12  1  0  0  0
  4 13  1  0  0  0
  4 14  1  0  0  0
  5 15  1  0  0  0
  9 16  1  0  0  0
 10 17  1  0  0  0
 11 18  1  0  0  0
 11 19  1  0  0  0
 11 20  1  0  0  0
M  END
$$$$
