### 
### Created by X-TOOL on Mon Sep 10 21:13:33 2018
### 

@<TRIPOS>MOLECULE
5xyf_ligand
  218   217     1     0     0
SMALL
GAST_HUCK


@<TRIPOS>ATOM
      1 N           6.1300   60.9070   27.9380 N.4       1 LYS         0.2379
      2 CA          6.0450   60.0940   26.7310 C.3       1 LYS         0.0650
      3 C           5.7140   58.6420   27.0500 C.2       1 LYS         0.2267
      4 O           6.2890   58.0480   27.9630 O.2       1 LYS        -0.3907
      5 CB          7.3560   60.1640   25.9440 C.3       1 LYS         0.0080
      6 CG          7.3340   61.1290   24.7710 C.3       1 LYS        -0.0410
      7 CD          8.6530   61.0990   24.0130 C.3       1 LYS        -0.0123
      8 CE          8.4790   61.5700   22.5780 C.3       1 LYS        -0.0354
      9 NZ          7.8290   60.5290   21.7340 N.4       1 LYS         0.2185
     10 N           4.7810   58.0770   26.2910 N.am      1 ARG        -0.2610
     11 CA          4.4560   56.6670   26.4200 C.3       1 ARG         0.1312
     12 C           5.4750   55.8180   25.6700 C.2       1 ARG         0.2039
     13 O           6.0560   56.2460   24.6680 O.2       1 ARG        -0.3944
     14 CB          3.0440   56.3900   25.9030 C.3       1 ARG        -0.0092
     15 CG          1.9860   56.3770   26.9960 C.3       1 ARG        -0.0156
     16 CD          0.6300   56.8100   26.4660 C.3       1 ARG         0.0627
     17 NE          0.3850   56.3260   25.1110 N.pl3     1 ARG        -0.2723
     18 CZ         -0.6070   55.5060   24.7790 C.cat     1 ARG         0.2882
     19 NH1        -1.4520   55.0770   25.7080 N.pl3     1 ARG        -0.2849
     20 NH2        -0.7570   55.1170   23.5200 N.pl3     1 ARG        -0.2849
     21 N           5.6870   54.6030   26.1710 N.am      1 MET        -0.2637
     22 CA          6.7470   53.7480   25.6540 C.3       1 MET         0.1317
     23 C           6.5040   53.3860   24.1940 C.2       1 MET         0.2040
     24 O           5.3840   53.0620   23.7900 O.2       1 MET        -0.3944
     25 CB          6.8520   52.4760   26.4960 C.3       1 MET        -0.0034
     26 CG          7.9800   51.5400   26.0810 C.3       1 MET        -0.0024
     27 SD          9.6190   52.2440   26.3550 S.3       1 MET        -0.1639
     28 CE          9.5330   52.6260   28.1010 C.3       1 MET        -0.0181
     29 N           7.5640   53.4640   23.4100 N.am      1 THR        -0.2613
     30 CA          7.5930   52.9640   22.0530 C.3       1 THR         0.1565
     31 C           8.4740   51.7500   21.9110 C.2       1 THR         0.2065
     32 O           9.3240   51.4900   22.7190 O.2       1 THR        -0.3943
     33 CB          8.1000   54.0030   21.0450 C.3       1 THR         0.0924
     34 OG1         9.4030   54.4210   21.4010 O.3       1 THR        -0.3874
     35 CG2         7.2120   55.1890   20.9950 C.3       1 THR        -0.0346
     36 N           8.2720   51.0320   20.8290 N.am      1 ILE        -0.2634
     37 CA          9.0960   49.8940   20.5020 C.3       1 ILE         0.1335
     38 C          10.5440   50.3040   20.3380 C.2       1 ILE         0.2042
     39 O          11.4230   49.7120   20.8900 O.2       1 ILE        -0.3944
     40 CB          8.5890   49.1620   19.2590 C.3       1 ILE        -0.0037
     41 CG1         7.2390   48.5240   19.5510 C.3       1 ILE        -0.0491
     42 CG2         9.5710   48.0990   18.8450 C.3       1 ILE        -0.0582
     43 CD1         6.5820   47.8360   18.3930 C.3       1 ILE        -0.0648
     44 N          10.7530   51.3640   19.5940 N.am      1 SER        -0.2616
     45 CA         12.0460   51.9820   19.4700 C.3       1 SER         0.1539
     46 C          12.7830   52.2330   20.7820 C.2       1 SER         0.2062
     47 O          13.8840   51.8240   20.9390 O.2       1 SER        -0.3943
     48 CB         11.9120   53.2740   18.7090 C.3       1 SER         0.0843
     49 OG         13.1610   53.8110   18.4590 O.3       1 SER        -0.3903
     50 N          12.1530   52.9190   21.7090 N.am      1 ARG        -0.2637
     51 CA         12.7900   53.2530   22.9530 C.3       1 ARG         0.1311
     52 C          12.9430   52.0430   23.8320 C.2       1 ARG         0.2039
     53 O          13.9100   51.9100   24.5290 O.2       1 ARG        -0.3944
     54 CB         12.0340   54.3330   23.7020 C.3       1 ARG        -0.0092
     55 CG         12.5080   54.4880   25.1290 C.3       1 ARG        -0.0156
     56 CD         11.9160   55.6760   25.8690 C.3       1 ARG         0.0627
     57 NE         10.7550   56.1860   25.1910 N.pl3     1 ARG        -0.2723
     58 CZ          9.6170   56.4700   25.7910 C.cat     1 ARG         0.2882
     59 NH1         9.5060   56.3070   27.0960 N.pl3     1 ARG        -0.2849
     60 NH2         8.5980   56.9140   25.0720 N.pl3     1 ARG        -0.2849
     61 N          11.9890   51.1440   23.7760 N.am      1 LEU        -0.2637
     62 CA         12.1110   49.8990   24.4860 C.3       1 LEU         0.1312
     63 C          13.2950   49.0560   24.0160 C.2       1 LEU         0.2039
     64 O          13.9080   48.4120   24.8000 O.2       1 LEU        -0.3944
     65 CB         10.8190   49.1080   24.3980 C.3       1 LEU        -0.0101
     66 CG         10.6930   47.9470   25.3650 C.3       1 LEU        -0.0425
     67 CD1        10.7300   48.4420   26.7840 C.3       1 LEU        -0.0625
     68 CD2         9.4440   47.1510   25.1160 C.3       1 LEU        -0.0625
     69 N          13.6030   49.0690   22.7360 N.am      1 VAL        -0.2635
     70 CA         14.7350   48.3490   22.2350 C.3       1 VAL         0.1332
     71 C          16.0250   49.0490   22.6170 C.2       1 VAL         0.2041
     72 O          16.9670   48.4200   23.0060 O.2       1 VAL        -0.3944
     73 CB         14.6430   48.1360   20.7150 C.3       1 VAL        -0.0063
     74 CG1        15.9660   47.6850   20.1450 C.3       1 VAL        -0.0584
     75 CG2        13.5670   47.1200   20.3870 C.3       1 VAL        -0.0584
     76 N          16.0280   50.3640   22.5340 N.am      1 LEU        -0.2637
     77 CA         17.2010   51.1540   22.8300 C.3       1 LEU         0.1312
     78 C          17.5790   51.2540   24.2920 C.2       1 LEU         0.2039
     79 O          18.7050   51.5180   24.5950 O.2       1 LEU        -0.3944
     80 CB         17.0560   52.5380   22.2480 C.3       1 LEU        -0.0101
     81 CG         17.2090   52.5530   20.7500 C.3       1 LEU        -0.0425
     82 CD1        16.5300   53.7560   20.1670 C.3       1 LEU        -0.0625
     83 CD2        18.6510   52.4820   20.3300 C.3       1 LEU        -0.0625
     84 N          16.6530   51.0170   25.1970 N.am      1 GLU        -0.2636
     85 CA         16.9250   51.2360   26.6070 C.3       1 GLU         0.1324
     86 C          17.6810   50.1200   27.3070 C.2       1 GLU         0.2035
     87 O          18.1350   49.1930   26.6950 O.2       1 GLU        -0.3944
     88 CB         15.6510   51.5690   27.3700 C.3       1 GLU        -0.0008
     89 CG         14.9000   50.3720   27.8980 C.3       1 GLU         0.0044
     90 CD         13.7370   50.7520   28.8030 C.2       1 GLU         0.0350
     91 OE1        13.3070   51.9250   28.7700 O.co2     1 GLU        -0.5690
     92 OE2        13.2470   49.8780   29.5510 O.co2     1 GLU        -0.5690
     93 N          17.8150   50.2430   28.6120 N.am      1 GLU        -0.2694
     94 CA         18.7010   49.3950   29.4150 C.3       1 GLU         0.0959
     95 C          20.1630   49.5660   29.0140 C.2       1 GLU         0.0602
     96 O          20.6010   50.6740   28.6950 O.co2     1 GLU        -0.5666
     97 CB         18.2960   47.9170   29.3150 C.3       1 GLU        -0.0064
     98 CG         19.4720   46.9460   29.4360 C.3       1 GLU         0.0038
     99 CD         19.0360   45.5090   29.6220 C.2       1 GLU         0.0350
    100 OE1        17.8980   45.2800   30.0750 O.co2     1 GLU        -0.5690
    101 OE2        19.8440   44.6120   29.3230 O.co2     1 GLU        -0.5690
    102 OXT        20.9280   48.5990   29.0030 O.co2     1 GLU        -0.5666
    103 H1          6.3499   61.8583   27.6875 H         1 LYS         0.2015
    104 H2          6.8526   60.5422   28.5387 H         1 LYS         0.2015
    105 H3          5.2464   60.8828   28.4224 H         1 LYS         0.2015
    106 H4          5.2391   60.5003   26.1022 H         1 LYS         0.1098
    107 H5          7.5794   59.1585   25.5579 H         1 LYS         0.0346
    108 H6          8.1542   60.4781   26.6327 H         1 LYS         0.0346
    109 H7          7.1587   62.1478   25.1470 H         1 LYS         0.0270
    110 H8          6.5202   60.8453   24.0874 H         1 LYS         0.0270
    111 H9          9.0391   60.0690   24.0072 H         1 LYS         0.0317
    112 H10         9.3728   61.7576   24.5210 H         1 LYS         0.0317
    113 H11         9.4678   61.8046   22.1569 H         1 LYS         0.0813
    114 H12         7.8540   62.4752   22.5727 H         1 LYS         0.0813
    115 H13         7.7297   60.8740   20.7921 H         1 LYS         0.1994
    116 H14         6.9193   60.3115   22.1098 H         1 LYS         0.1994
    117 H15         8.3981   59.6971   21.7288 H         1 LYS         0.1994
    118 H16         4.2932   58.6331   25.6181 H         1 ARG         0.1884
    119 H17         4.4947   56.3972   27.4857 H         1 ARG         0.0800
    120 H18         3.0421   55.4088   25.4058 H         1 ARG         0.0313
    121 H19         2.7812   57.1709   25.1742 H         1 ARG         0.0313
    122 H20         2.2923   57.0651   27.7977 H         1 ARG         0.0301
    123 H21         1.9024   55.3573   27.4000 H         1 ARG         0.0301
    124 H22         0.5860   57.9091   26.4624 H         1 ARG         0.0689
    125 H23        -0.1524   56.4139   27.1300 H         1 ARG         0.0689
    126 H24         1.0214   56.6399   24.3644 H         1 ARG         0.2642
    127 H25        -2.2208   54.4416   25.4510 H         1 ARG         0.2615
    128 H26        -1.3391   55.3795   26.6861 H         1 ARG         0.2615
    129 H27        -0.1025   55.4485   22.7971 H         1 ARG         0.2615
    130 H28        -1.5280   54.4833   23.2651 H         1 ARG         0.2615
    131 H29         5.1080   54.2712   26.9158 H         1 MET         0.1883
    132 H30         7.6988   54.2951   25.7226 H         1 MET         0.0800
    133 H31         5.9017   51.9283   26.4124 H         1 MET         0.0320
    134 H32         7.0155   52.7690   27.5436 H         1 MET         0.0320
    135 H33         7.8708   51.3130   25.0102 H         1 MET         0.0378
    136 H34         7.8962   50.6106   26.6633 H         1 MET         0.0378
    137 H35        10.4838   53.0738   28.4256 H         1 MET         0.0340
    138 H36         9.3496   51.7025   28.6698 H         1 MET         0.0340
    139 H37         8.7128   53.3365   28.2810 H         1 MET         0.0340
    140 H38         8.3912   53.8918   23.7742 H         1 THR         0.1884
    141 H39         6.5640   52.6861   21.7810 H         1 THR         0.0826
    142 H40         8.1296   53.5398   20.0477 H         1 THR         0.0639
    143 H41         9.7107   55.0640   20.7730 H         1 THR         0.2101
    144 H42         7.6052   55.9108   20.2640 H         1 THR         0.0257
    145 H43         7.1714   55.6588   21.9888 H         1 THR         0.0257
    146 H44         6.2006   54.8774   20.6951 H         1 THR         0.0257
    147 H45         7.5244   51.2821   20.2137 H         1 ILE         0.1883
    148 H46         9.0407   49.1909   21.3461 H         1 ILE         0.0803
    149 H47         8.4758   49.8855   18.4382 H         1 ILE         0.0345
    150 H48         6.5605   49.3148   19.9036 H         1 ILE         0.0267
    151 H49         7.3819   47.7806   20.3491 H         1 ILE         0.0267
    152 H50        10.5461   48.5626   18.6345 H         1 ILE         0.0235
    153 H51         9.2031   47.5921   17.9407 H         1 ILE         0.0235
    154 H52         9.6815   47.3655   19.6573 H         1 ILE         0.0235
    155 H53         5.6188   47.4140   18.7157 H         1 ILE         0.0230
    156 H54         7.2331   47.0274   18.0294 H         1 ILE         0.0230
    157 H55         6.4117   48.5616   17.5840 H         1 ILE         0.0230
    158 H56         9.9826   51.7582   19.0930 H         1 SER         0.1884
    159 H57        12.6722   51.2992   18.8771 H         1 SER         0.0823
    160 H58        11.3222   53.9869   19.3039 H         1 SER         0.0606
    161 H59        11.4009   53.0822   17.7540 H         1 SER         0.0606
    162 H60        13.6031   53.9787   19.2829 H         1 SER         0.2097
    163 H61        11.2117   53.2144   21.5455 H         1 ARG         0.1883
    164 H62        13.7942   53.6378   22.7219 H         1 ARG         0.0800
    165 H63        10.9651   54.0734   23.7116 H         1 ARG         0.0313
    166 H64        12.1742   55.2899   23.1779 H         1 ARG         0.0313
    167 H65        13.6019   54.6028   25.1162 H         1 ARG         0.0301
    168 H66        12.2416   53.5739   25.6798 H         1 ARG         0.0301
    169 H67        12.6725   56.4720   25.9329 H         1 ARG         0.0689
    170 H68        11.6293   55.3603   26.8830 H         1 ARG         0.0689
    171 H69        10.8168   56.3386   24.1742 H         1 ARG         0.2642
    172 H70         8.6180   56.5279   27.5689 H         1 ARG         0.2615
    173 H71        10.3073   55.9589   27.6415 H         1 ARG         0.2615
    174 H72         8.7001   57.0360   24.0544 H         1 ARG         0.2615
    175 H73         7.7030   57.1375   25.5302 H         1 ARG         0.2615
    176 H74        11.1686   51.3262   23.2341 H         1 LEU         0.1883
    177 H75        12.2837   50.1420   25.5448 H         1 LEU         0.0800
    178 H76        10.7363   48.7079   23.3767 H         1 LEU         0.0315
    179 H77         9.9853   49.7996   24.5895 H         1 LEU         0.0315
    180 H78        11.5551   47.2815   25.2108 H         1 LEU         0.0298
    181 H79        10.6376   47.5890   27.4724 H         1 LEU         0.0232
    182 H80         9.8961   49.1397   26.9508 H         1 LEU         0.0232
    183 H81        11.6833   48.9594   26.9672 H         1 LEU         0.0232
    184 H82         9.4356   46.7983   24.0741 H         1 LEU         0.0232
    185 H83         8.5632   47.7850   25.2955 H         1 LEU         0.0232
    186 H84         9.4184   46.2867   25.7959 H         1 LEU         0.0232
    187 H85        13.0350   49.5923   22.1008 H         1 VAL         0.1883
    188 H86        14.7379   47.3568   22.7100 H         1 VAL         0.0802
    189 H87        14.3728   49.0946   20.2481 H         1 VAL         0.0343
    190 H88        15.8675   47.5417   19.0588 H         1 VAL         0.0234
    191 H89        16.2631   46.7357   20.6146 H         1 VAL         0.0234
    192 H90        16.7315   48.4489   20.3461 H         1 VAL         0.0234
    193 H91        12.6065   47.4552   20.8053 H         1 VAL         0.0234
    194 H92        13.8368   46.1466   20.8225 H         1 VAL         0.0234
    195 H93        13.4768   47.0209   19.2952 H         1 VAL         0.0234
    196 H94        15.1889   50.8317   22.2564 H         1 LEU         0.1883
    197 H95        18.0438   50.6636   22.3210 H         1 LEU         0.0800
    198 H96        17.8267   53.1881   22.6877 H         1 LEU         0.0315
    199 H97        16.0591   52.9259   22.5046 H         1 LEU         0.0315
    200 H98        16.7056   51.6585   20.3545 H         1 LEU         0.0298
    201 H99        16.6512   53.7515   19.0737 H         1 LEU         0.0232
    202 H100       16.9815   54.6691   20.5822 H         1 LEU         0.0232
    203 H101       15.4592   53.7299   20.4173 H         1 LEU         0.0232
    204 H102       19.1186   51.5906   20.7735 H         1 LEU         0.0232
    205 H103       19.1785   53.3832   20.6759 H         1 LEU         0.0232
    206 H104       18.7109   52.4202   19.2334 H         1 LEU         0.0232
    207 H105       15.7546   50.6833   24.9114 H         1 GLU         0.1883
    208 H106       17.5723   52.1240   26.6571 H         1 GLU         0.0801
    209 H107       14.9820   52.1222   26.6945 H         1 GLU         0.0330
    210 H108       15.9203   52.2081   28.2238 H         1 GLU         0.0330
    211 H109       15.5988   49.7441   28.4702 H         1 GLU         0.0433
    212 H110       14.5075   49.7998   27.0444 H         1 GLU         0.0433
    213 H111       17.2851   50.9512   29.0786 H         1 GLU         0.1875
    214 H112       18.5996   49.7054   30.4654 H         1 GLU         0.0727
    215 H113       17.8113   47.7552   28.3409 H         1 GLU         0.0323
    216 H114       17.5808   47.6979   30.1215 H         1 GLU         0.0323
    217 H115       20.0830   47.2416   30.3016 H         1 GLU         0.0432
    218 H116       20.0773   47.0128   28.5200 H         1 GLU         0.0432
@<TRIPOS>BOND
     1    1    2 1  
     2    2    3 1  
     3    2    5 1  
     4    3    4 2  
     5    3   10 am 
     6    5    6 1  
     7    6    7 1  
     8    7    8 1  
     9    8    9 1  
    10   10   11 1  
    11   11   12 1  
    12   11   14 1  
    13   12   13 2  
    14   12   21 am 
    15   14   15 1  
    16   15   16 1  
    17   16   17 1  
    18   17   18 ar 
    19   18   19 ar 
    20   18   20 ar 
    21   21   22 1  
    22   22   23 1  
    23   22   25 1  
    24   23   24 2  
    25   23   29 am 
    26   25   26 1  
    27   26   27 1  
    28   27   28 1  
    29   29   30 1  
    30   30   31 1  
    31   30   33 1  
    32   31   32 2  
    33   31   36 am 
    34   33   34 1  
    35   33   35 1  
    36   36   37 1  
    37   37   38 1  
    38   37   40 1  
    39   38   39 2  
    40   38   44 am 
    41   40   41 1  
    42   40   42 1  
    43   41   43 1  
    44   44   45 1  
    45   45   46 1  
    46   45   48 1  
    47   46   47 2  
    48   46   50 am 
    49   48   49 1  
    50   50   51 1  
    51   51   52 1  
    52   51   54 1  
    53   52   53 2  
    54   52   61 am 
    55   54   55 1  
    56   55   56 1  
    57   56   57 1  
    58   57   58 ar 
    59   58   59 ar 
    60   58   60 ar 
    61   61   62 1  
    62   62   63 1  
    63   62   65 1  
    64   63   64 2  
    65   63   69 am 
    66   65   66 1  
    67   66   67 1  
    68   66   68 1  
    69   69   70 1  
    70   70   71 1  
    71   70   73 1  
    72   71   72 2  
    73   71   76 am 
    74   73   74 1  
    75   73   75 1  
    76   76   77 1  
    77   77   78 1  
    78   77   80 1  
    79   78   79 2  
    80   78   84 am 
    81   80   81 1  
    82   81   82 1  
    83   81   83 1  
    84   84   85 1  
    85   85   86 1  
    86   85   88 1  
    87   86   87 2  
    88   86   93 am 
    89   88   89 1  
    90   89   90 1  
    91   90   91 ar 
    92   90   92 ar 
    93   93   94 1  
    94   94   95 1  
    95   94   97 1  
    96   95   96 ar 
    97   95  102 ar 
    98   97   98 1  
    99   98   99 1  
   100   99  100 ar 
   101   99  101 ar 
   102    1  103 1  
   103    1  104 1  
   104    1  105 1  
   105    2  106 1  
   106    5  107 1  
   107    5  108 1  
   108    6  109 1  
   109    6  110 1  
   110    7  111 1  
   111    7  112 1  
   112    8  113 1  
   113    8  114 1  
   114    9  115 1  
   115    9  116 1  
   116    9  117 1  
   117   10  118 1  
   118   11  119 1  
   119   14  120 1  
   120   14  121 1  
   121   15  122 1  
   122   15  123 1  
   123   16  124 1  
   124   16  125 1  
   125   17  126 1  
   126   19  127 1  
   127   19  128 1  
   128   20  129 1  
   129   20  130 1  
   130   21  131 1  
   131   22  132 1  
   132   25  133 1  
   133   25  134 1  
   134   26  135 1  
   135   26  136 1  
   136   28  137 1  
   137   28  138 1  
   138   28  139 1  
   139   29  140 1  
   140   30  141 1  
   141   33  142 1  
   142   34  143 1  
   143   35  144 1  
   144   35  145 1  
   145   35  146 1  
   146   36  147 1  
   147   37  148 1  
   148   40  149 1  
   149   41  150 1  
   150   41  151 1  
   151   42  152 1  
   152   42  153 1  
   153   42  154 1  
   154   43  155 1  
   155   43  156 1  
   156   43  157 1  
   157   44  158 1  
   158   45  159 1  
   159   48  160 1  
   160   48  161 1  
   161   49  162 1  
   162   50  163 1  
   163   51  164 1  
   164   54  165 1  
   165   54  166 1  
   166   55  167 1  
   167   55  168 1  
   168   56  169 1  
   169   56  170 1  
   170   57  171 1  
   171   59  172 1  
   172   59  173 1  
   173   60  174 1  
   174   60  175 1  
   175   61  176 1  
   176   62  177 1  
   177   65  178 1  
   178   65  179 1  
   179   66  180 1  
   180   67  181 1  
   181   67  182 1  
   182   67  183 1  
   183   68  184 1  
   184   68  185 1  
   185   68  186 1  
   186   69  187 1  
   187   70  188 1  
   188   73  189 1  
   189   74  190 1  
   190   74  191 1  
   191   74  192 1  
   192   75  193 1  
   193   75  194 1  
   194   75  195 1  
   195   76  196 1  
   196   77  197 1  
   197   80  198 1  
   198   80  199 1  
   199   81  200 1  
   200   82  201 1  
   201   82  202 1  
   202   82  203 1  
   203   83  204 1  
   204   83  205 1  
   205   83  206 1  
   206   84  207 1  
   207   85  208 1  
   208   88  209 1  
   209   88  210 1  
   210   89  211 1  
   211   89  212 1  
   212   93  213 1  
   213   94  214 1  
   214   97  215 1  
   215   97  216 1  
   216   98  217 1  
   217   98  218 1  
@<TRIPOS>SUBSTRUCTURE
     1 LYS         1

