5xyf_ligand
  -I-interpret- 

219218  0  0  0  0  0  0  0  0999 V2000
    6.1300   60.9070   27.9380 N   0  3  0  0  0
    6.0450   60.0940   26.7310 C   0  0  0  0  0
    5.7140   58.6420   27.0500 C   0  0  0  0  0
    6.2890   58.0480   27.9630 O   0  0  0  0  0
    7.3560   60.1640   25.9440 C   0  0  0  0  0
    7.3340   61.1290   24.7710 C   0  0  0  0  0
    8.6530   61.0990   24.0130 C   0  0  0  0  0
    8.4790   61.5700   22.5780 C   0  0  0  0  0
    7.8290   60.5290   21.7340 N   0  3  0  0  0
    4.7810   58.0770   26.2910 N   0  0  0  0  0
    4.4560   56.6670   26.4200 C   0  0  0  0  0
    5.4750   55.8180   25.6700 C   0  0  0  0  0
    6.0560   56.2460   24.6680 O   0  0  0  0  0
    3.0440   56.3900   25.9030 C   0  0  0  0  0
    1.9860   56.3770   26.9960 C   0  0  0  0  0
    0.6300   56.8100   26.4660 C   0  0  0  0  0
    0.3850   56.3260   25.1110 N   0  0  0  0  0
   -0.6070   55.5060   24.7790 C   0  0  0  0  0
   -1.4520   55.0770   25.7080 N   0  0  0  0  0
   -0.7570   55.1170   23.5200 N   0  0  0  0  0
    5.6870   54.6030   26.1710 N   0  0  0  0  0
    6.7470   53.7480   25.6540 C   0  0  0  0  0
    6.5040   53.3860   24.1940 C   0  0  0  0  0
    5.3840   53.0620   23.7900 O   0  0  0  0  0
    6.8520   52.4760   26.4960 C   0  0  0  0  0
    7.9800   51.5400   26.0810 C   0  0  0  0  0
    9.6190   52.2440   26.3550 S   0  0  0  0  0
    9.5330   52.6260   28.1010 C   0  0  0  0  0
    7.5640   53.4640   23.4100 N   0  0  0  0  0
    7.5930   52.9640   22.0530 C   0  0  0  0  0
    8.4740   51.7500   21.9110 C   0  0  0  0  0
    9.3240   51.4900   22.7190 O   0  0  0  0  0
    8.1000   54.0030   21.0450 C   0  0  0  0  0
    9.4030   54.4210   21.4010 O   0  0  0  0  0
    7.2120   55.1890   20.9950 C   0  0  0  0  0
    8.2720   51.0320   20.8290 N   0  0  0  0  0
    9.0960   49.8940   20.5020 C   0  0  0  0  0
   10.5440   50.3040   20.3380 C   0  0  0  0  0
   11.4230   49.7120   20.8900 O   0  0  0  0  0
    8.5890   49.1620   19.2590 C   0  0  0  0  0
    7.2390   48.5240   19.5510 C   0  0  0  0  0
    9.5710   48.0990   18.8450 C   0  0  0  0  0
    6.5820   47.8360   18.3930 C   0  0  0  0  0
   10.7530   51.3640   19.5940 N   0  0  0  0  0
   12.0460   51.9820   19.4700 C   0  0  0  0  0
   12.7830   52.2330   20.7820 C   0  0  0  0  0
   13.8840   51.8240   20.9390 O   0  0  0  0  0
   11.9120   53.2740   18.7090 C   0  0  0  0  0
   13.1610   53.8110   18.4590 O   0  0  0  0  0
   12.1530   52.9190   21.7090 N   0  0  0  0  0
   12.7900   53.2530   22.9530 C   0  0  0  0  0
   12.9430   52.0430   23.8320 C   0  0  0  0  0
   13.9100   51.9100   24.5290 O   0  0  0  0  0
   12.0340   54.3330   23.7020 C   0  0  0  0  0
   12.5080   54.4880   25.1290 C   0  0  0  0  0
   11.9160   55.6760   25.8690 C   0  0  0  0  0
   10.7550   56.1860   25.1910 N   0  0  0  0  0
    9.6170   56.4700   25.7910 C   0  0  0  0  0
    9.5060   56.3070   27.0960 N   0  0  0  0  0
    8.5980   56.9140   25.0720 N   0  0  0  0  0
   11.9890   51.1440   23.7760 N   0  0  0  0  0
   12.1110   49.8990   24.4860 C   0  0  0  0  0
   13.2950   49.0560   24.0160 C   0  0  0  0  0
   13.9080   48.4120   24.8000 O   0  0  0  0  0
   10.8190   49.1080   24.3980 C   0  0  0  0  0
   10.6930   47.9470   25.3650 C   0  0  0  0  0
   10.7300   48.4420   26.7840 C   0  0  0  0  0
    9.4440   47.1510   25.1160 C   0  0  0  0  0
   13.6030   49.0690   22.7360 N   0  0  0  0  0
   14.7350   48.3490   22.2350 C   0  0  0  0  0
   16.0250   49.0490   22.6170 C   0  0  0  0  0
   16.9670   48.4200   23.0060 O   0  0  0  0  0
   14.6430   48.1360   20.7150 C   0  0  0  0  0
   15.9660   47.6850   20.1450 C   0  0  0  0  0
   13.5670   47.1200   20.3870 C   0  0  0  0  0
   16.0280   50.3640   22.5340 N   0  0  0  0  0
   17.2010   51.1540   22.8300 C   0  0  0  0  0
   17.5790   51.2540   24.2920 C   0  0  0  0  0
   18.7050   51.5180   24.5950 O   0  0  0  0  0
   17.0560   52.5380   22.2480 C   0  0  0  0  0
   17.2090   52.5530   20.7500 C   0  0  0  0  0
   16.5300   53.7560   20.1670 C   0  0  0  0  0
   18.6510   52.4820   20.3300 C   0  0  0  0  0
   16.6530   51.0170   25.1970 N   0  0  0  0  0
   16.9250   51.2360   26.6070 C   0  0  0  0  0
   17.6810   50.1200   27.3070 C   0  0  0  0  0
   18.1350   49.1930   26.6950 O   0  0  0  0  0
   15.6510   51.5690   27.3700 C   0  0  0  0  0
   14.9000   50.3720   27.8980 C   0  0  0  0  0
   13.7370   50.7520   28.8030 C   0  0  0  0  0
   13.3070   51.9250   28.7700 O   0  0  0  0  0
   13.2470   49.8780   29.5510 O   0  0  0  0  0
   17.8150   50.2430   28.6120 N   0  0  0  0  0
   18.7010   49.3950   29.4150 C   0  0  0  0  0
   20.1630   49.5660   29.0140 C   0  0  0  0  0
   20.6010   50.6740   28.6950 O   0  0  0  0  0
   18.2960   47.9170   29.3150 C   0  0  0  0  0
   19.4720   46.9460   29.4360 C   0  0  0  0  0
   19.0360   45.5090   29.6220 C   0  0  0  0  0
   17.8980   45.2800   30.0750 O   0  0  0  0  0
   19.8440   44.6120   29.3230 O   0  0  0  0  0
   20.9280   48.5990   29.0030 O   0  0  0  0  0
    5.2490   60.8483   28.4487 H   0  0  0  0  0
    6.8889   60.5623   28.5259 H   0  0  0  0  0
    6.3114   61.8773   27.6809 H   0  0  0  0  0
    5.2358   60.5000   26.1239 H   0  0  0  0  0
    7.5375   59.1695   25.5363 H   0  0  0  0  0
    8.1239   60.5159   26.6329 H   0  0  0  0  0
    7.1731   62.1376   25.1518 H   0  0  0  0  0
    6.5342   60.8343   24.0916 H   0  0  0  0  0
    9.0206   60.0729   23.9984 H   0  0  0  0  0
    9.3551   61.7659   24.5135 H   0  0  0  0  0
    9.4644   61.7832   22.1637 H   0  0  0  0  0
    7.8445   62.4563   22.5811 H   0  0  0  0  0
    7.7290   60.8791   20.7812 H   0  0  0  0  0
    8.4057   59.6877   21.7296 H   0  0  0  0  0
    6.9087   60.3098   22.1153 H   0  0  0  0  0
    4.2835   58.6442   25.6046 H   0  0  0  0  0
    4.4916   56.4001   27.4762 H   0  0  0  0  0
    3.0522   55.4010   25.4447 H   0  0  0  0  0
    2.7872   57.1908   25.2095 H   0  0  0  0  0
    2.2891   57.0740   27.7773 H   0  0  0  0  0
    1.8979   55.3600   27.3782 H   0  0  0  0  0
    0.6070   57.8996   26.4454 H   0  0  0  0  0
   -0.1371   56.3926   27.1182 H   0  0  0  0  0
    1.0152   56.6369   24.3717 H   0  0  0  0  0
   -2.2147   54.4495   25.4530 H   0  0  0  0  0
   -1.3388   55.3747   26.6770 H   0  0  0  0  0
   -0.1102   55.4471   22.8037 H   0  0  0  0  0
    5.0965   54.2646   26.9307 H   0  0  0  0  0
    7.6845   54.3007   25.7143 H   0  0  0  0  0
    5.9180   51.9288   26.3679 H   0  0  0  0  0
    7.0537   52.7861   27.5213 H   0  0  0  0  0
    7.8758   51.3480   25.0131 H   0  0  0  0  0
    7.9014   50.6370   26.6865 H   0  0  0  0  0
    8.7199   53.3300   28.2780 H   0  0  0  0  0
    9.3512   51.7102   28.6635 H   0  0  0  0  0
   10.4757   53.0697   28.4214 H   0  0  0  0  0
    8.4078   53.9004   23.7815 H   0  0  0  0  0
    6.5549   52.7120   21.8365 H   0  0  0  0  0
    8.1090   53.5330   20.0616 H   0  0  0  0  0
    9.7140   55.0708   20.7664 H   0  0  0  0  0
    6.2102   54.8789   20.6977 H   0  0  0  0  0
    7.1726   55.6536   21.9803 H   0  0  0  0  0
    7.6026   55.9035   20.2704 H   0  0  0  0  0
    7.5095   51.2871   20.2014 H   0  0  0  0  0
    9.0315   49.1959   21.3366 H   0  0  0  0  0
    8.4815   49.8814   18.4472 H   0  0  0  0  0
    6.5724   49.3337   19.8479 H   0  0  0  0  0
    7.4163   47.7576   20.3055 H   0  0  0  0  0
   10.5320   48.5616   18.6202 H   0  0  0  0  0
    9.6925   47.3823   19.6572 H   0  0  0  0  0
    9.1971   47.5860   17.9589 H   0  0  0  0  0
    6.4139   48.5560   17.5921 H   0  0  0  0  0
    7.2282   47.0351   18.0337 H   0  0  0  0  0
    5.6278   47.4183   18.7140 H   0  0  0  0  0
    9.9672   51.7661   19.0829 H   0  0  0  0  0
   12.6609   51.2596   18.9332 H   0  0  0  0  0
   11.3319   53.9801   19.3031 H   0  0  0  0  0
   11.4102   53.0799   17.7610 H   0  0  0  0  0
   13.0631   54.6336   17.9738 H   0  0  0  0  0
   11.1929   53.2203   21.5422 H   0  0  0  0  0
   13.7793   53.6357   22.7022 H   0  0  0  0  0
   10.9813   54.0515   23.7261 H   0  0  0  0  0
   12.2015   55.2792   23.1874 H   0  0  0  0  0
   13.5862   54.6435   25.0902 H   0  0  0  0  0
   12.1963   53.5922   25.6660 H   0  0  0  0  0
   12.6661   56.4655   25.9156 H   0  0  0  0  0
   11.6213   55.3521   26.8672 H   0  0  0  0  0
   10.8162   56.3371   24.1841 H   0  0  0  0  0
   10.2996   55.9623   27.6362 H   0  0  0  0  0
    7.7117   57.1353   25.5258 H   0  0  0  0  0
    8.6992   57.0348   24.0642 H   0  0  0  0  0
   11.1521   51.3299   23.2233 H   0  0  0  0  0
   12.3065   50.1508   25.5283 H   0  0  0  0  0
   10.7860   48.6805   23.3959 H   0  0  0  0  0
   10.0146   49.8019   24.6417 H   0  0  0  0  0
   11.5424   47.2841   25.2003 H   0  0  0  0  0
   11.6750   48.9545   26.9642 H   0  0  0  0  0
    9.9033   49.1333   26.9480 H   0  0  0  0  0
   10.6384   47.5959   27.4651 H   0  0  0  0  0
    8.5736   47.7958   25.2372 H   0  0  0  0  0
    9.4645   46.7531   24.1014 H   0  0  0  0  0
    9.3906   46.3285   25.8292 H   0  0  0  0  0
   13.0236   49.6027   22.0881 H   0  0  0  0  0
   14.7346   47.3619   22.6974 H   0  0  0  0  0
   14.3824   49.0920   20.2608 H   0  0  0  0  0
   16.7236   48.4428   20.3450 H   0  0  0  0  0
   16.2592   46.7443   20.6111 H   0  0  0  0  0
   15.8671   47.5434   19.0688 H   0  0  0  0  0
   13.8079   46.1704   20.8648 H   0  0  0  0  0
   12.6057   47.4794   20.7542 H   0  0  0  0  0
   13.5163   46.9822   19.3069 H   0  0  0  0  0
   15.1721   50.8411   22.2508 H   0  0  0  0  0
   18.0213   50.6096   22.3622 H   0  0  0  0  0
   17.8402   53.1650   22.6723 H   0  0  0  0  0
   16.0562   52.9003   22.4874 H   0  0  0  0  0
   16.7237   51.6591   20.3582 H   0  0  0  0  0
   15.4691   53.7290   20.4157 H   0  0  0  0  0
   16.9783   54.6600   20.5792 H   0  0  0  0  0
   16.6508   53.7504   19.0837 H   0  0  0  0  0
   19.1890   53.3385   20.7362 H   0  0  0  0  0
   19.0934   51.5606   20.7086 H   0  0  0  0  0
   18.7122   52.4956   19.2418 H   0  0  0  0  0
   15.7366   50.6767   24.9057 H   0  0  0  0  0
   17.6006   52.0913   26.6178 H   0  0  0  0  0
   14.9865   52.0768   26.6709 H   0  0  0  0  0
   15.9456   52.1646   28.2340 H   0  0  0  0  0
   15.5973   49.7753   28.4860 H   0  0  0  0  0
   14.4930   49.8317   27.0433 H   0  0  0  0  0
   13.7172   49.0506   29.4253 H   0  0  0  0  0
   17.2745   50.9653   29.0879 H   0  0  0  0  0
   18.5943   49.7166   30.4510 H   0  0  0  0  0
   19.8963   51.3235   28.7505 H   0  0  0  0  0
   17.8505   47.7675   28.3315 H   0  0  0  0  0
   17.6162   47.7093   30.1413 H   0  0  0  0  0
   20.0508   47.2335   30.3137 H   0  0  0  0  0
   20.0451   47.0018   28.5105 H   0  0  0  0  0
   17.4454   46.1113   30.2354 H   0  0  0  0  0
  1  2  1  0  0  0
  2  3  1  0  0  0
  2  5  1  0  0  0
  3  4  2  0  0  0
  3 10  1  0  0  0
  5  6  1  0  0  0
  6  7  1  0  0  0
  7  8  1  0  0  0
  8  9  1  0  0  0
 10 11  1  0  0  0
 11 12  1  0  0  0
 11 14  1  0  0  0
 12 13  2  0  0  0
 12 21  1  0  0  0
 14 15  1  0  0  0
 15 16  1  0  0  0
 16 17  1  0  0  0
 17 18  1  0  0  0
 18 19  1  0  0  0
 18 20  2  0  0  0
 21 22  1  0  0  0
 22 23  1  0  0  0
 22 25  1  0  0  0
 23 24  2  0  0  0
 23 29  1  0  0  0
 25 26  1  0  0  0
 26 27  1  0  0  0
 27 28  1  0  0  0
 29 30  1  0  0  0
 30 31  1  0  0  0
 30 33  1  0  0  0
 31 32  2  0  0  0
 31 36  1  0  0  0
 33 34  1  0  0  0
 33 35  1  0  0  0
 36 37  1  0  0  0
 37 38  1  0  0  0
 37 40  1  0  0  0
 38 39  2  0  0  0
 38 44  1  0  0  0
 40 41  1  0  0  0
 40 42  1  0  0  0
 41 43  1  0  0  0
 44 45  1  0  0  0
 45 46  1  0  0  0
 45 48  1  0  0  0
 46 47  2  0  0  0
 46 50  1  0  0  0
 48 49  1  0  0  0
 50 51  1  0  0  0
 51 52  1  0  0  0
 51 54  1  0  0  0
 52 53  2  0  0  0
 52 61  1  0  0  0
 54 55  1  0  0  0
 55 56  1  0  0  0
 56 57  1  0  0  0
 57 58  1  0  0  0
 58 59  2  0  0  0
 58 60  1  0  0  0
 61 62  1  0  0  0
 62 63  1  0  0  0
 62 65  1  0  0  0
 63 64  2  0  0  0
 63 69  1  0  0  0
 65 66  1  0  0  0
 66 67  1  0  0  0
 66 68  1  0  0  0
 69 70  1  0  0  0
 70 71  1  0  0  0
 70 73  1  0  0  0
 71 72  2  0  0  0
 71 76  1  0  0  0
 73 74  1  0  0  0
 73 75  1  0  0  0
 76 77  1  0  0  0
 77 78  1  0  0  0
 77 80  1  0  0  0
 78 79  2  0  0  0
 78 84  1  0  0  0
 80 81  1  0  0  0
 81 82  1  0  0  0
 81 83  1  0  0  0
 84 85  1  0  0  0
 85 86  1  0  0  0
 85 88  1  0  0  0
 86 87  2  0  0  0
 86 93  1  0  0  0
 88 89  1  0  0  0
 89 90  1  0  0  0
 90 91  2  0  0  0
 90 92  1  0  0  0
 93 94  1  0  0  0
 94 95  1  0  0  0
 94 97  1  0  0  0
 95 96  1  0  0  0
 95102  2  0  0  0
 97 98  1  0  0  0
 98 99  1  0  0  0
 99100  1  0  0  0
 99101  2  0  0  0
  1103  1  0  0  0
  1104  1  0  0  0
  1105  1  0  0  0
  2106  1  0  0  0
  5107  1  0  0  0
  5108  1  0  0  0
  6109  1  0  0  0
  6110  1  0  0  0
  7111  1  0  0  0
  7112  1  0  0  0
  8113  1  0  0  0
  8114  1  0  0  0
  9115  1  0  0  0
  9116  1  0  0  0
  9117  1  0  0  0
 10118  1  0  0  0
 11119  1  0  0  0
 14120  1  0  0  0
 14121  1  0  0  0
 15122  1  0  0  0
 15123  1  0  0  0
 16124  1  0  0  0
 16125  1  0  0  0
 17126  1  0  0  0
 19127  1  0  0  0
 19128  1  0  0  0
 20129  1  0  0  0
 21130  1  0  0  0
 22131  1  0  0  0
 25132  1  0  0  0
 25133  1  0  0  0
 26134  1  0  0  0
 26135  1  0  0  0
 28136  1  0  0  0
 28137  1  0  0  0
 28138  1  0  0  0
 29139  1  0  0  0
 30140  1  0  0  0
 33141  1  0  0  0
 34142  1  0  0  0
 35143  1  0  0  0
 35144  1  0  0  0
 35145  1  0  0  0
 36146  1  0  0  0
 37147  1  0  0  0
 40148  1  0  0  0
 41149  1  0  0  0
 41150  1  0  0  0
 42151  1  0  0  0
 42152  1  0  0  0
 42153  1  0  0  0
 43154  1  0  0  0
 43155  1  0  0  0
 43156  1  0  0  0
 44157  1  0  0  0
 45158  1  0  0  0
 48159  1  0  0  0
 48160  1  0  0  0
 49161  1  0  0  0
 50162  1  0  0  0
 51163  1  0  0  0
 54164  1  0  0  0
 54165  1  0  0  0
 55166  1  0  0  0
 55167  1  0  0  0
 56168  1  0  0  0
 56169  1  0  0  0
 57170  1  0  0  0
 59171  1  0  0  0
 60172  1  0  0  0
 60173  1  0  0  0
 61174  1  0  0  0
 62175  1  0  0  0
 65176  1  0  0  0
 65177  1  0  0  0
 66178  1  0  0  0
 67179  1  0  0  0
 67180  1  0  0  0
 67181  1  0  0  0
 68182  1  0  0  0
 68183  1  0  0  0
 68184  1  0  0  0
 69185  1  0  0  0
 70186  1  0  0  0
 73187  1  0  0  0
 74188  1  0  0  0
 74189  1  0  0  0
 74190  1  0  0  0
 75191  1  0  0  0
 75192  1  0  0  0
 75193  1  0  0  0
 76194  1  0  0  0
 77195  1  0  0  0
 80196  1  0  0  0
 80197  1  0  0  0
 81198  1  0  0  0
 82199  1  0  0  0
 82200  1  0  0  0
 82201  1  0  0  0
 83202  1  0  0  0
 83203  1  0  0  0
 83204  1  0  0  0
 84205  1  0  0  0
 85206  1  0  0  0
 88207  1  0  0  0
 88208  1  0  0  0
 89209  1  0  0  0
 89210  1  0  0  0
 92211  1  0  0  0
 93212  1  0  0  0
 94213  1  0  0  0
 96214  1  0  0  0
 97215  1  0  0  0
 97216  1  0  0  0
 98217  1  0  0  0
 98218  1  0  0  0
100219  1  0  0  0
M  END
$$$$
