4an1_ligand
  -I-interpret- 

 53 55  0  0  0  0  0  0  0  0999 V2000
   41.5700   37.3330   84.0260 C   0  0  0  0  0
   42.0590   37.2190   82.9040 O   0  0  0  0  0
   42.3300   37.7920   85.0220 N   0  0  0  0  0
   43.7400   38.1700   84.8820 C   0  0  0  0  0
   44.4990   37.0790   85.6130 C   0  0  0  0  0
   44.5420   35.7940   85.0980 C   0  0  0  0  0
   45.2020   34.7700   85.7710 C   0  0  0  0  0
   45.8590   35.0330   86.9740 C   0  0  0  0  0
   45.8250   36.3340   87.4910 C   0  0  0  0  0
   45.1340   37.3520   86.8130 C   0  0  0  0  0
   40.2940   37.0370   84.3010 N   0  0  0  0  0
   39.3660   36.5370   83.3020 C   0  0  0  0  0
   38.9330   37.6280   82.3770 C   0  0  0  0  0
   39.1650   38.8120   82.6170 O   0  0  0  0  0
   38.1470   36.0420   84.0860 C   0  0  0  0  0
   38.1860   36.9390   85.3080 C   0  0  0  0  0
   39.6530   37.1960   85.6030 C   0  0  0  0  0
   36.3810   38.7230   80.6760 C   0  0  0  0  0
   35.4990   37.6270   80.7380 O   0  0  0  0  0
   36.2080   39.2360   82.1050 C   0  0  0  0  0
   37.0250   40.3630   82.3300 O   0  0  0  0  0
   37.8040   38.2200   80.3200 C   0  0  0  0  0
   37.7730   37.3800   79.0330 C   0  0  0  0  0
   37.6430   35.9200   79.4250 C   0  0  0  0  0
   37.9840   35.8450   80.9140 C   0  0  0  0  0
   38.2630   37.2320   81.3020 N   0  0  0  0  0
   41.9014   37.8863   85.9428 H   0  0  0  0  0
   43.9419   39.1573   85.2974 H   0  0  0  0  0
   44.0407   38.2477   83.8372 H   0  0  0  0  0
   44.0503   35.5809   84.1489 H   0  0  0  0  0
   45.2058   33.7613   85.3580 H   0  0  0  0  0
   46.3890   34.2400   87.5016 H   0  0  0  0  0
   46.3383   36.5584   88.4260 H   0  0  0  0  0
   45.0976   38.3577   87.2318 H   0  0  0  0  0
   39.8300   35.7568   82.6987 H   0  0  0  0  0
   38.1848   34.9791   84.3246 H   0  0  0  0  0
   37.2136   36.1078   83.5270 H   0  0  0  0  0
   37.6929   36.4656   86.1571 H   0  0  0  0  0
   37.6539   37.8726   85.1255 H   0  0  0  0  0
   39.8261   38.1808   86.0370 H   0  0  0  0  0
   40.0545   36.5144   86.3529 H   0  0  0  0  0
   36.2024   39.4920   79.9244 H   0  0  0  0  0
   35.4885   37.1777   79.8897 H   0  0  0  0  0
   36.4948   38.4473   82.8005 H   0  0  0  0  0
   35.1662   39.5194   82.2548 H   0  0  0  0  0
   36.9030   40.6705   83.2312 H   0  0  0  0  0
   38.4266   39.1125   80.2584 H   0  0  0  0  0
   38.6880   37.5351   78.4614 H   0  0  0  0  0
   36.9294   37.6781   78.4104 H   0  0  0  0  0
   38.3140   35.2942   78.8366 H   0  0  0  0  0
   36.6356   35.5504   79.2338 H   0  0  0  0  0
   38.8346   35.1904   81.1041 H   0  0  0  0  0
   37.1691   35.4156   81.4968 H   0  0  0  0  0
  1  2  2  0  0  0
  1  3  1  0  0  0
 11  1  1  0  0  0
  3  4  1  0  0  0
  4  5  1  0  0  0
  5  6  4  0  0  0
  5 10  4  0  0  0
  6  7  4  0  0  0
  7  8  4  0  0  0
  9  8  4  0  0  0
 10  9  4  0  0  0
 12 11  1  0  0  0
 11 17  1  0  0  0
 13 12  1  0  0  0
 12 15  1  0  0  0
 13 14  2  0  0  0
 26 13  1  0  0  0
 15 16  1  0  0  0
 16 17  1  0  0  0
 18 19  1  0  0  0
 18 20  1  0  0  0
 22 18  1  0  0  0
 20 21  1  0  0  0
 22 23  1  0  0  0
 22 26  1  0  0  0
 23 24  1  0  0  0
 24 25  1  0  0  0
 25 26  1  0  0  0
  3 27  1  0  0  0
  4 28  1  0  0  0
  4 29  1  0  0  0
  6 30  1  0  0  0
  7 31  1  0  0  0
  8 32  1  0  0  0
  9 33  1  0  0  0
 10 34  1  0  0  0
 12 35  1  0  0  0
 15 36  1  0  0  0
 15 37  1  0  0  0
 16 38  1  0  0  0
 16 39  1  0  0  0
 17 40  1  0  0  0
 17 41  1  0  0  0
 18 42  1  0  0  0
 19 43  1  0  0  0
 20 44  1  0  0  0
 20 45  1  0  0  0
 21 46  1  0  0  0
 22 47  1  0  0  0
 23 48  1  0  0  0
 23 49  1  0  0  0
 24 50  1  0  0  0
 24 51  1  0  0  0
 25 52  1  0  0  0
 25 53  1  0  0  0
M  END
$$$$
