5e3g_ligand
  -I-interpret- 

 16 17  0  0  0  0  0  0  0  0999 V2000
   12.5380    0.9780   -5.9920 C   0  0  0  0  0
   10.7990    0.5340   -7.1350 C   0  0  0  0  0
   14.8300    1.3440   -5.3790 C   0  0  0  0  0
   14.2340    0.7460   -7.5450 C   0  0  0  0  0
   14.5720    0.4600   -8.8230 O   0  0  0  0  0
   15.1770    1.0610   -6.6420 N   0  0  0  0  0
   16.0240    1.7510   -4.1880 S   0  0  0  0  0
   13.4830    1.3070   -5.0210 N   0  0  0  0  0
   12.9310    0.7020   -7.2400 C   0  0  0  0  0
   11.8410    0.4220   -7.9600 N   0  0  0  0  0
    9.6180    0.3530   -7.4350 O   0  0  0  0  0
   11.2120    0.8740   -5.9230 N   0  0  0  0  0
   16.1587    1.0848   -6.9180 H   0  0  0  0  0
   13.1940    1.5169   -4.0656 H   0  0  0  0  0
   11.8114    0.1714   -8.9483 H   0  0  0  0  0
   10.6295    1.0261   -5.0996 H   0  0  0  0  0
  8  1  1  0  0  0
  1  9  2  0  0  0
  1 12  1  0  0  0
  2 10  1  0  0  0
  2 11  2  0  0  0
 12  2  1  0  0  0
  6  3  1  0  0  0
  3  7  2  0  0  0
  3  8  1  0  0  0
  4  5  2  0  0  0
  4  6  1  0  0  0
  4  9  1  0  0  0
  9 10  1  0  0  0
  6 13  1  0  0  0
  8 14  1  0  0  0
 10 15  1  0  0  0
 12 16  1  0  0  0
M  END
$$$$
