4n6z_ligand
  -I-interpret- 

 43 45  0  0  0  0  0  0  0  0999 V2000
  -18.6500   36.5270    1.6050 O   0  0  0  0  0
  -18.9010   36.8130    0.4370 C   0  0  0  0  0
  -19.8770   37.9010    0.0910 C   0  0  0  0  0
  -20.5690   38.6950    1.0570 C   0  0  0  0  0
  -20.3570   38.5810    2.3760 N   0  0  0  0  0
  -21.4520   39.6370    0.6490 N   0  0  0  0  0
  -21.6260   39.8100   -0.6680 C   0  0  0  0  0
  -20.9390   39.0590   -1.5960 C   0  0  0  0  0
  -20.0760   38.1000   -1.2290 N   0  0  0  0  0
  -18.3300   36.2290   -0.6450 N   0  0  0  0  0
  -17.4020   35.1610   -0.7190 C   0  0  0  0  0
  -16.9560   34.4490    0.3940 C   0  0  0  0  0
  -16.0220   33.4960    0.3470 N   0  0  0  0  0
  -15.4890   33.2230   -0.8430 C   0  0  0  0  0
  -15.8470   33.8580   -2.0130 C   0  0  0  0  0
  -16.8260   34.8480   -1.9580 C   0  0  0  0  0
  -17.2400   35.5260   -3.1270 N   0  0  0  0  0
  -18.5150   35.0980   -3.7150 C   0  0  0  0  0
  -19.0580   36.1470   -4.6550 C   0  0  0  0  0
  -18.0070   36.5470   -5.6880 C   0  0  0  0  0
  -16.2160   35.9080   -4.1010 C   0  0  0  0  0
  -16.7400   37.0180   -4.9930 C   0  0  0  0  0
  -15.6770   37.3540   -5.9470 N   0  3  0  0  0
  -19.6779   37.9057    2.7269 H   0  0  0  0  0
  -20.8749   39.1696    3.0285 H   0  0  0  0  0
  -22.3306   40.5659   -1.0147 H   0  0  0  0  0
  -21.1010   39.2491   -2.6570 H   0  0  0  0  0
  -18.6120   36.6186   -1.5445 H   0  0  0  0  0
  -17.3972   34.6851    1.3623 H   0  0  0  0  0
  -14.7225   32.4498   -0.8947 H   0  0  0  0  0
  -15.3753   33.5919   -2.9589 H   0  0  0  0  0
  -19.2352   34.9424   -2.9118 H   0  0  0  0  0
  -18.3495   34.1783   -4.2761 H   0  0  0  0  0
  -19.3344   37.0281   -4.0759 H   0  0  0  0  0
  -19.9239   35.7378   -5.1754 H   0  0  0  0  0
  -18.4001   37.3580   -6.3011 H   0  0  0  0  0
  -17.7723   35.6837   -6.3107 H   0  0  0  0  0
  -15.9629   35.0432   -4.7144 H   0  0  0  0  0
  -15.3302   36.2598   -3.5721 H   0  0  0  0  0
  -16.9993   37.9099   -4.4226 H   0  0  0  0  0
  -14.8496   37.6637   -5.4371 H   0  0  0  0  0
  -15.4470   36.5298   -6.5021 H   0  0  0  0  0
  -15.9980   38.1013   -6.5626 H   0  0  0  0  0
  1  2  2  0  0  0
  2  3  1  0  0  0
  2 10  1  0  0  0
  3  4  4  0  0  0
  3  9  4  0  0  0
  4  5  1  0  0  0
  4  6  4  0  0  0
  6  7  4  0  0  0
  7  8  4  0  0  0
  8  9  4  0  0  0
 10 11  1  0  0  0
 11 12  4  0  0  0
 11 16  4  0  0  0
 12 13  4  0  0  0
 13 14  4  0  0  0
 14 15  4  0  0  0
 15 16  4  0  0  0
 16 17  1  0  0  0
 17 18  1  0  0  0
 17 21  1  0  0  0
 18 19  1  0  0  0
 19 20  1  0  0  0
 20 22  1  0  0  0
 21 22  1  0  0  0
 22 23  1  0  0  0
  5 24  1  0  0  0
  5 25  1  0  0  0
  7 26  1  0  0  0
  8 27  1  0  0  0
 10 28  1  0  0  0
 12 29  1  0  0  0
 14 30  1  0  0  0
 15 31  1  0  0  0
 18 32  1  0  0  0
 18 33  1  0  0  0
 19 34  1  0  0  0
 19 35  1  0  0  0
 20 36  1  0  0  0
 20 37  1  0  0  0
 21 38  1  0  0  0
 21 39  1  0  0  0
 22 40  1  0  0  0
 23 41  1  0  0  0
 23 42  1  0  0  0
 23 43  1  0  0  0
M  END
$$$$
