3rq7_ligand
  -I-interpret- 

123125  0  0  0  0  0  0  0  0999 V2000
    7.2440   28.9160   14.1520 C   0  0  0  0  0
    6.9900   29.3510   15.2700 O   0  0  0  0  0
    8.6130   29.0310   13.5070 C   0  0  0  0  0
    6.3150   28.1580   13.5460 N   0  0  0  0  0
    4.9600   27.9030   14.0860 C   0  0  0  0  0
    4.9570   27.0540   15.3320 C   0  0  0  0  0
    5.8230   26.2270   15.5570 O   0  0  0  0  0
    4.1910   27.1690   12.9760 C   0  0  0  0  0
    5.2690   26.6200   12.0110 C   0  0  0  0  0
    6.5350   27.4290   12.2790 C   0  0  0  0  0
    3.9920   27.4060   16.2030 N   0  0  0  0  0
    3.8480   26.7270   17.4980 C   0  0  0  0  0
    2.8020   25.6220   17.4930 C   0  0  0  0  0
    2.5430   24.9480   18.4900 O   0  0  0  0  0
    3.4670   27.7170   18.5830 C   0  0  0  0  0
    4.6680   28.6060   18.9150 C   0  0  0  0  0
    4.3520   29.5630   20.0840 C   0  0  0  0  0
    5.7930   27.7880   19.4720 C   0  0  0  0  0
    1.3830   23.9220   14.6740 C   0  0  0  0  0
    2.2080   25.4240   16.3190 N   0  0  0  0  0
    1.7610   24.7130   13.7770 O   0  0  0  0  0
    1.3210   24.2790   16.1250 C   0  0  0  0  0
   -0.0970   24.5620   16.6020 C   0  0  0  0  0
   -0.6960   25.8500   16.0620 C   0  0  0  0  0
   -0.2410   27.1950   18.1470 C   0  0  0  0  0
   -1.3630   26.7700   19.0610 C   0  0  0  0  0
   -0.9440   26.8720   20.5280 C   0  0  0  0  0
   -2.1460   26.4860   21.3890 C   0  0  0  0  0
   -1.5100   26.1690   22.6990 C   0  0  0  0  0
   -2.6790   25.8980   23.6730 C   0  0  0  0  0
   -3.2030   24.4480   23.4200 C   0  0  0  0  0
   -4.2400   24.0310   24.4750 C   0  0  0  0  0
   -3.7560   24.0260   25.9130 C   0  0  0  0  0
   -4.1320   25.0110   26.8210 C   0  0  0  0  0
   -3.6360   24.9420   28.1190 C   0  0  0  0  0
   -2.7540   23.9460   28.5000 C   0  0  0  0  0
   -2.3690   22.9560   27.6100 C   0  0  0  0  0
   -2.8710   23.0320   26.3230 C   0  0  0  0  0
   -0.7280   27.0380   16.7750 N   0  0  0  0  0
   -1.2970   26.0740   14.8710 C   0  0  0  0  0
   -1.3750   27.9490   15.9690 C   0  0  0  0  0
   -1.7170   27.3790   14.8530 N   0  0  0  0  0
    0.8250   22.7420   14.3540 N   0  0  0  0  0
    0.7840   22.2150   12.9910 C   0  0  0  0  0
   -0.2770   22.9430   12.2340 C   0  0  0  0  0
   -1.0720   23.7920   12.7080 O   0  0  0  0  0
    0.6170   20.6670   13.0380 C   0  0  0  0  0
   -0.6060   20.3570   13.7000 O   0  0  0  0  0
   -0.3660   22.6250   10.9380 N   0  0  0  0  0
   -1.2390   23.3160   10.0410 C   0  0  0  0  0
   -0.9730   22.8110    8.6130 C   0  0  0  0  0
   -1.7710   23.7000    7.6500 C   0  0  0  0  0
    0.3960   23.0190    8.3420 O   0  0  0  0  0
    1.3120   21.6710    8.1060 P   0  0  0  0  0
    0.6760   20.9280    6.9960 O   0  0  0  0  0
    2.6810   22.2750    7.7760 O   0  0  0  0  0
    1.3420   20.9340    9.4290 O   0  0  0  0  0
   -2.6880   23.2020   10.3350 C   0  0  0  0  0
   -3.2070   22.1520   10.5660 O   0  0  0  0  0
   -3.3990   24.3460   10.2980 N   0  0  0  0  0
    8.8818   30.0832   13.4131 H   0  0  0  0  0
    9.3496   28.5205   14.1274 H   0  0  0  0  0
    8.5874   28.5717   12.5188 H   0  0  0  0  0
    4.5084   28.8532   14.3710 H   0  0  0  0  0
    3.5011   27.8380   12.4616 H   0  0  0  0  0
    3.5762   26.3661   13.3829 H   0  0  0  0  0
    4.9528   26.7189   10.9726 H   0  0  0  0  0
    5.4403   25.5566   12.1783 H   0  0  0  0  0
    7.4042   26.7756   12.3535 H   0  0  0  0  0
    6.7322   28.1227   11.4617 H   0  0  0  0  0
    3.3485   28.1588   15.9589 H   0  0  0  0  0
    4.8213   26.2773   17.6944 H   0  0  0  0  0
    3.1617   27.1734   19.4771 H   0  0  0  0  0
    2.6434   28.3387   18.2319 H   0  0  0  0  0
    4.9109   29.1220   17.9861 H   0  0  0  0  0
    3.5119   30.2019   19.8119 H   0  0  0  0  0
    4.0957   28.9810   20.9692 H   0  0  0  0  0
    5.2261   30.1796   20.2935 H   0  0  0  0  0
    5.4612   27.2881   20.3820 H   0  0  0  0  0
    6.0974   27.0429   18.7369 H   0  0  0  0  0
    6.6360   28.4400   19.7009 H   0  0  0  0  0
    2.3725   26.0745   15.5508 H   0  0  0  0  0
    1.6480   23.4341   16.7311 H   0  0  0  0  0
   -0.0561   24.6586   17.6869 H   0  0  0  0  0
   -0.7234   23.7441   16.2459 H   0  0  0  0  0
    0.6466   26.5850   18.3146 H   0  0  0  0  0
    0.0447   28.2290   18.3401 H   0  0  0  0  0
   -1.6187   25.7333   18.8418 H   0  0  0  0  0
   -2.2169   27.4268   18.8949 H   0  0  0  0  0
   -0.6254   27.8884   20.7593 H   0  0  0  0  0
   -0.1066   26.2036   20.7283 H   0  0  0  0  0
   -2.7185   25.6545   20.9780 H   0  0  0  0  0
   -2.8961   27.2740   21.4561 H   0  0  0  0  0
   -0.8833   26.9901   23.0470 H   0  0  0  0  0
   -0.8471   25.3072   22.6222 H   0  0  0  0  0
   -3.4793   26.6190   23.5061 H   0  0  0  0  0
   -2.3376   25.9975   24.7034 H   0  0  0  0  0
   -2.3584   23.7612   23.4761 H   0  0  0  0  0
   -3.6777   24.4189   22.4392 H   0  0  0  0  0
   -4.5199   23.0038   24.2414 H   0  0  0  0  0
   -5.0432   24.7661   24.4237 H   0  0  0  0  0
   -4.8002   25.8186   26.5220 H   0  0  0  0  0
   -3.9483   25.6873   28.8505 H   0  0  0  0  0
   -2.3563   23.9401   29.5149 H   0  0  0  0  0
   -1.6987   22.1510   27.9113 H   0  0  0  0  0
   -2.5599   22.2803   25.5976 H   0  0  0  0  0
   -1.4246   25.3470   14.0690 H   0  0  0  0  0
   -1.5702   28.9896   16.2283 H   0  0  0  0  0
    0.4087   22.1855   15.1006 H   0  0  0  0  0
    1.7164   22.3869   12.4533 H   0  0  0  0  0
    1.4525   20.2216   13.5780 H   0  0  0  0  0
    0.6002   20.2664   12.0244 H   0  0  0  0  0
   -0.7177   19.4041   13.7338 H   0  0  0  0  0
    0.2086   21.8634   10.5771 H   0  0  0  0  0
   -1.0085   24.3743   10.1636 H   0  0  0  0  0
   -1.2486   21.7620    8.5047 H   0  0  0  0  0
   -2.8325   23.6289    7.8871 H   0  0  0  0  0
   -1.4424   24.7339    7.7553 H   0  0  0  0  0
   -1.6030   23.3665    6.6260 H   0  0  0  0  0
    3.0200   22.7365    8.5465 H   0  0  0  0  0
    1.7689   21.4834   10.0905 H   0  0  0  0  0
   -4.4043   24.3275   10.4696 H   0  0  0  0  0
   -2.9319   25.2305   10.0984 H   0  0  0  0  0
  1  2  2  0  0  0
  1  3  1  0  0  0
  4  1  1  0  0  0
  5  4  1  0  0  0
  4 10  1  0  0  0
  6  5  1  0  0  0
  5  8  1  0  0  0
  6  7  2  0  0  0
 11  6  1  0  0  0
  8  9  1  0  0  0
  9 10  1  0  0  0
 12 11  1  0  0  0
 13 12  1  0  0  0
 12 15  1  0  0  0
 13 14  2  0  0  0
 20 13  1  0  0  0
 15 16  1  0  0  0
 16 17  1  0  0  0
 16 18  1  0  0  0
 19 21  2  0  0  0
 22 19  1  0  0  0
 19 43  1  0  0  0
 22 20  1  0  0  0
 23 22  1  0  0  0
 24 23  1  0  0  0
 39 24  4  0  0  0
 24 40  4  0  0  0
 25 26  1  0  0  0
 25 39  1  0  0  0
 26 27  1  0  0  0
 27 28  1  0  0  0
 28 29  1  0  0  0
 29 30  1  0  0  0
 30 31  1  0  0  0
 31 32  1  0  0  0
 32 33  1  0  0  0
 33 34  4  0  0  0
 33 38  4  0  0  0
 34 35  4  0  0  0
 35 36  4  0  0  0
 36 37  4  0  0  0
 37 38  4  0  0  0
 39 41  4  0  0  0
 40 42  4  0  0  0
 41 42  4  0  0  0
 43 44  1  0  0  0
 44 45  1  0  0  0
 44 47  1  0  0  0
 45 46  2  0  0  0
 45 49  1  0  0  0
 47 48  1  0  0  0
 49 50  1  0  0  0
 50 51  1  0  0  0
 50 58  1  0  0  0
 51 52  1  0  0  0
 51 53  1  0  0  0
 53 54  1  0  0  0
 54 55  2  0  0  0
 54 56  1  0  0  0
 54 57  1  0  0  0
 58 59  2  0  0  0
 58 60  1  0  0  0
  3 61  1  0  0  0
  3 62  1  0  0  0
  3 63  1  0  0  0
  5 64  1  0  0  0
  8 65  1  0  0  0
  8 66  1  0  0  0
  9 67  1  0  0  0
  9 68  1  0  0  0
 10 69  1  0  0  0
 10 70  1  0  0  0
 11 71  1  0  0  0
 12 72  1  0  0  0
 15 73  1  0  0  0
 15 74  1  0  0  0
 16 75  1  0  0  0
 17 76  1  0  0  0
 17 77  1  0  0  0
 17 78  1  0  0  0
 18 79  1  0  0  0
 18 80  1  0  0  0
 18 81  1  0  0  0
 20 82  1  0  0  0
 22 83  1  0  0  0
 23 84  1  0  0  0
 23 85  1  0  0  0
 25 86  1  0  0  0
 25 87  1  0  0  0
 26 88  1  0  0  0
 26 89  1  0  0  0
 27 90  1  0  0  0
 27 91  1  0  0  0
 28 92  1  0  0  0
 28 93  1  0  0  0
 29 94  1  0  0  0
 29 95  1  0  0  0
 30 96  1  0  0  0
 30 97  1  0  0  0
 31 98  1  0  0  0
 31 99  1  0  0  0
 32100  1  0  0  0
 32101  1  0  0  0
 34102  1  0  0  0
 35103  1  0  0  0
 36104  1  0  0  0
 37105  1  0  0  0
 38106  1  0  0  0
 40107  1  0  0  0
 41108  1  0  0  0
 43109  1  0  0  0
 44110  1  0  0  0
 47111  1  0  0  0
 47112  1  0  0  0
 48113  1  0  0  0
 49114  1  0  0  0
 50115  1  0  0  0
 51116  1  0  0  0
 52117  1  0  0  0
 52118  1  0  0  0
 52119  1  0  0  0
 56120  1  0  0  0
 57121  1  0  0  0
 60122  1  0  0  0
 60123  1  0  0  0
M  END
$$$$
