### 
### Created by X-TOOL on Mon Sep 10 21:13:05 2018
### 

@<TRIPOS>MOLECULE
3rq7_ligand
  121   123     1     0     0
SMALL
GAST_HUCK


@<TRIPOS>ATOM
      1 C           7.2440   28.9160   14.1520 C.2       1 ACE         0.1776
      2 O           6.9900   29.3510   15.2700 O.2       1 ACE        -0.3970
      3 CH3         8.6130   29.0310   13.5070 C.3       1 ACE         0.0260
      4 N           6.3150   28.1580   13.5460 N.am      1 PRO        -0.2520
      5 CA          4.9600   27.9030   14.0860 C.3       1 PRO         0.1337
      6 C           4.9570   27.0540   15.3320 C.2       1 PRO         0.2041
      7 O           5.8230   26.2270   15.5570 O.2       1 PRO        -0.3944
      8 CB          4.1910   27.1690   12.9760 C.3       1 PRO        -0.0104
      9 CG          5.2690   26.6200   12.0110 C.3       1 PRO        -0.0281
     10 CD          6.5350   27.4290   12.2790 C.3       1 PRO         0.0369
     11 N           3.9920   27.4060   16.2030 N.am      1 LEU        -0.2637
     12 CA          3.8480   26.7270   17.4980 C.3       1 LEU         0.1312
     13 C           2.8020   25.6220   17.4930 C.2       1 LEU         0.2040
     14 O           2.5430   24.9480   18.4900 O.2       1 LEU        -0.3944
     15 CB          3.4670   27.7170   18.5830 C.3       1 LEU        -0.0101
     16 CG          4.6680   28.6060   18.9150 C.3       1 LEU        -0.0425
     17 CD1         4.3520   29.5630   20.0840 C.3       1 LEU        -0.0625
     18 CD2         5.7930   27.7880   19.4720 C.3       1 LEU        -0.0625
     19 C           1.3830   23.9220   14.6740 C.2       1 56A         0.2061
     20 N           2.2080   25.4240   16.3190 N.am      1 56A        -0.2619
     21 O           1.7610   24.7130   13.7770 O.2       1 56A        -0.3942
     22 CA          1.3210   24.2790   16.1250 C.3       1 56A         0.1421
     23 CB         -0.0970   24.5620   16.6020 C.3       1 56A         0.0429
     24 CG         -0.6960   25.8500   16.0620 C.2       1 56A         0.0589
     25 C27        -0.2410   27.1950   18.1470 C.3       1 56A         0.0580
     26 C28        -1.3630   26.7700   19.0610 C.3       1 56A        -0.0249
     27 C29        -0.9440   26.8720   20.5280 C.3       1 56A        -0.0505
     28 C30        -2.1460   26.4860   21.3890 C.3       1 56A        -0.0530
     29 C31        -1.5100   26.1690   22.6990 C.3       1 56A        -0.0529
     30 C32        -2.6790   25.8980   23.6730 C.3       1 56A        -0.0513
     31 C33        -3.2030   24.4480   23.4200 C.3       1 56A        -0.0433
     32 C34        -4.2400   24.0310   24.4750 C.3       1 56A        -0.0192
     33 C35        -3.7560   24.0260   25.9130 C.ar      1 56A        -0.0430
     34 C36        -4.1320   25.0110   26.8210 C.ar      1 56A        -0.0603
     35 C37        -3.6360   24.9420   28.1190 C.ar      1 56A        -0.0686
     36 C38        -2.7540   23.9460   28.5000 C.ar      1 56A        -0.0687
     37 C39        -2.3690   22.9560   27.6100 C.ar      1 56A        -0.0686
     38 C40        -2.8710   23.0320   26.3230 C.ar      1 56A        -0.0603
     39 ND1        -0.7280   27.0380   16.7750 N.pl3     1 56A        -0.2480
     40 CD2        -1.2970   26.0740   14.8710 C.2       1 56A        -0.0274
     41 CE1        -1.3750   27.9490   15.9690 C.2       1 56A         0.0900
     42 NE2        -1.7170   27.3790   14.8530 N.2       1 56A        -0.3436
     43 N           0.8250   22.7420   14.3540 N.am      1 SER        -0.2614
     44 CA          0.7840   22.2150   12.9910 C.3       1 SER         0.1539
     45 C          -0.2770   22.9430   12.2340 C.2       1 SER         0.2063
     46 O          -1.0720   23.7920   12.7080 O.2       1 SER        -0.3943
     47 CB          0.6170   20.6670   13.0380 C.3       1 SER         0.0843
     48 OG         -0.6060   20.3570   13.7000 O.3       1 SER        -0.3903
     49 N          -0.3660   22.6250   10.9380 N.am      1 TPO        -0.2610
     50 CA         -1.2390   23.3160   10.0410 C.3       1 TPO         0.1608
     51 CB         -0.9730   22.8110    8.6130 C.3       1 TPO         0.1262
     52 CG2        -1.7710   23.7000    7.6500 C.3       1 TPO        -0.0298
     53 OG1         0.3960   23.0190    8.3420 O.3       1 TPO        -0.2685
     54 P           1.3120   21.6710    8.1060 P.3       1 TPO         0.2014
     55 O1P         0.6760   20.9280    6.9960 O.co2     1 TPO        -0.5537
     56 O2P         2.6810   22.2750    7.7760 O.co2     1 TPO        -0.5537
     57 O3P         1.3420   20.9340    9.4290 O.co2     1 TPO        -0.5537
     58 C          -2.6880   23.2020   10.3350 C.2       1 TPO         0.2021
     59 O          -3.2070   22.1520   10.5660 O.2       1 TPO        -0.3946
     60 N          -3.3990   24.3460   10.2980 N.am      1 NH2        -0.2989
     61 H1          8.5885   28.5677   12.5096 H         1 ACE         0.0467
     62 H2          9.3573   28.5161   14.1322 H         1 ACE         0.0467
     63 H3          8.8854   30.0924   13.4116 H         1 ACE         0.0467
     64 H4          4.4736   28.8631   14.3131 H         1 PRO         0.0802
     65 H5          3.5226   27.8650   12.4480 H         1 PRO         0.0313
     66 H6          3.6002   26.3438   13.4002 H         1 PRO         0.0313
     67 H7          4.9477   26.7501   10.9671 H         1 PRO         0.0287
     68 H8          5.4497   25.5531   12.2088 H         1 PRO         0.0287
     69 H9          7.4008   26.7572   12.3739 H         1 PRO         0.0524
     70 H10         6.7109   28.1401   11.4584 H         1 PRO         0.0524
     71 H11         3.3611   28.1440   15.9637 H         1 LEU         0.1883
     72 H12         4.8207   26.2798   17.7507 H         1 LEU         0.0800
     73 H13         3.1570   27.1694   19.4852 H         1 LEU         0.0315
     74 H14         2.6346   28.3437   18.2303 H         1 LEU         0.0315
     75 H15         4.9786   29.1598   18.0168 H         1 LEU         0.0298
     76 H16         5.2334   30.1859   20.2964 H         1 LEU         0.0232
     77 H17         4.0932   28.9768   20.9781 H         1 LEU         0.0232
     78 H18         3.5043   30.2084   19.8106 H         1 LEU         0.0232
     79 H19         6.1177   27.0521   18.7217 H         1 LEU         0.0232
     80 H20         5.4520   27.2633   20.3766 H         1 LEU         0.0232
     81 H21         6.6353   28.4481   19.7265 H         1 LEU         0.0232
     82 H22         2.3693   26.0618   15.5658 H         1 56A         0.1885
     83 H23         1.7054   23.4315   16.7115 H         1 56A         0.0824
     84 H24        -0.0849   24.6223   17.7003 H         1 56A         0.0491
     85 H25        -0.7390   23.7259   16.2877 H         1 56A         0.0491
     86 H26         0.6415   26.5590   18.3103 H         1 56A         0.0620
     87 H27         0.0240   28.2456   18.3365 H         1 56A         0.0620
     88 H28        -1.6348   25.7281   18.8363 H         1 56A         0.0293
     89 H29        -2.2328   27.4211   18.8894 H         1 56A         0.0293
     90 H30        -0.6357   27.9026   20.7576 H         1 56A         0.0266
     91 H31        -0.1071   26.1861   20.7260 H         1 56A         0.0266
     92 H32        -2.6664   25.6091   20.9764 H         1 56A         0.0265
     93 H33        -2.8543   27.3225   21.4822 H         1 56A         0.0265
     94 H34        -0.9076   27.0200   23.0494 H         1 56A         0.0265
     95 H35        -0.8701   25.2787   22.6099 H         1 56A         0.0265
     96 H36        -3.4876   26.6220   23.4941 H         1 56A         0.0267
     97 H37        -2.3271   25.9903   24.7111 H         1 56A         0.0267
     98 H38        -2.3541   23.7496   23.4579 H         1 56A         0.0287
     99 H39        -3.6690   24.4051   22.4245 H         1 56A         0.0287
    100 H40        -4.5799   23.0139   24.2301 H         1 56A         0.0426
    101 H41        -5.0887   24.7275   24.4074 H         1 56A         0.0426
    102 H42        -4.7965   25.8142   26.5237 H         1 56A         0.0557
    103 H43        -3.9466   25.6832   28.8464 H         1 56A         0.0599
    104 H44        -2.3585   23.9401   29.5093 H         1 56A         0.0559
    105 H45        -1.7024   22.1555   27.9097 H         1 56A         0.0599
    106 H46        -2.5616   22.2844   25.6015 H         1 56A         0.0557
    107 H47        -1.4244   25.3476   14.0697 H         1 56A         0.0324
    108 H48        -1.5700   28.9886   16.2281 H         1 56A         0.1150
    109 H49         0.4168   22.1964   15.0859 H         1 SER         0.1884
    110 H50         1.7461   22.4271   12.5017 H         1 SER         0.0823
    111 H51         1.4586   20.2209   13.5882 H         1 SER         0.0606
    112 H52         0.5949   20.2663   12.0138 H         1 SER         0.0606
    113 H53        -1.3301   20.7451   13.2231 H         1 SER         0.2097
    114 H54         0.1973   21.8783   10.5842 H         1 TPO         0.1884
    115 H55        -0.9803   24.3840   10.0903 H         1 TPO         0.0830
    116 H56        -1.2487   21.7518    8.5035 H         1 TPO         0.0695
    117 H57        -1.6023   23.3644    6.6161 H         1 TPO         0.0260
    118 H58        -1.4402   24.7438    7.7552 H         1 TPO         0.0260
    119 H59        -2.8425   23.6291    7.8882 H         1 TPO         0.0260
    120 H60        -4.3807   24.3309   10.4878 H         1 NH2         0.1815
    121 H61        -2.9450   25.2101   10.0807 H         1 NH2         0.1815
@<TRIPOS>BOND
     1    1    2 2  
     2    1    3 1  
     3    4    1 am 
     4    5    4 1  
     5    4   10 1  
     6    6    5 1  
     7    5    8 1  
     8    6    7 2  
     9   11    6 am 
    10    8    9 1  
    11    9   10 1  
    12   12   11 1  
    13   13   12 1  
    14   12   15 1  
    15   13   14 2  
    16   20   13 am 
    17   15   16 1  
    18   16   17 1  
    19   16   18 1  
    20   19   21 2  
    21   22   19 1  
    22   19   43 am 
    23   22   20 1  
    24   23   22 1  
    25   24   23 1  
    26   39   24 1  
    27   24   40 2  
    28   25   26 1  
    29   25   39 1  
    30   26   27 1  
    31   27   28 1  
    32   28   29 1  
    33   29   30 1  
    34   30   31 1  
    35   31   32 1  
    36   32   33 1  
    37   33   34 ar 
    38   33   38 ar 
    39   34   35 ar 
    40   35   36 ar 
    41   36   37 ar 
    42   37   38 ar 
    43   39   41 1  
    44   40   42 1  
    45   41   42 2  
    46   43   44 1  
    47   44   45 1  
    48   44   47 1  
    49   45   46 2  
    50   45   49 am 
    51   47   48 1  
    52   49   50 1  
    53   50   51 1  
    54   50   58 1  
    55   51   52 1  
    56   51   53 1  
    57   53   54 1  
    58   54   55 ar 
    59   54   56 ar 
    60   54   57 ar 
    61   58   59 2  
    62   58   60 am 
    63    3   61 1  
    64    3   62 1  
    65    3   63 1  
    66    5   64 1  
    67    8   65 1  
    68    8   66 1  
    69    9   67 1  
    70    9   68 1  
    71   10   69 1  
    72   10   70 1  
    73   11   71 1  
    74   12   72 1  
    75   15   73 1  
    76   15   74 1  
    77   16   75 1  
    78   17   76 1  
    79   17   77 1  
    80   17   78 1  
    81   18   79 1  
    82   18   80 1  
    83   18   81 1  
    84   20   82 1  
    85   22   83 1  
    86   23   84 1  
    87   23   85 1  
    88   25   86 1  
    89   25   87 1  
    90   26   88 1  
    91   26   89 1  
    92   27   90 1  
    93   27   91 1  
    94   28   92 1  
    95   28   93 1  
    96   29   94 1  
    97   29   95 1  
    98   30   96 1  
    99   30   97 1  
   100   31   98 1  
   101   31   99 1  
   102   32  100 1  
   103   32  101 1  
   104   34  102 1  
   105   35  103 1  
   106   36  104 1  
   107   37  105 1  
   108   38  106 1  
   109   40  107 1  
   110   41  108 1  
   111   43  109 1  
   112   44  110 1  
   113   47  111 1  
   114   47  112 1  
   115   48  113 1  
   116   49  114 1  
   117   50  115 1  
   118   51  116 1  
   119   52  117 1  
   120   52  118 1  
   121   52  119 1  
   122   60  120 1  
   123   60  121 1  
@<TRIPOS>SUBSTRUCTURE
     1 ACE         1

