5alc_ligand
  -I-interpret- 

 64 68  0  0  0  0  0  0  0  0999 V2000
    8.9580  -12.2190  -70.0730 C   0  0  0  0  0
    8.3170  -11.1590  -69.2140 C   0  0  0  0  0
    6.9750  -10.8530  -69.8310 C   0  0  0  0  0
    6.2430   -9.3690  -69.0960 S   0  0  0  0  0
    6.9560   -8.1160  -70.1290 C   0  0  0  0  0
    6.5830   -6.8710  -69.8050 N   0  0  0  0  0
    7.0790   -5.8190  -70.4740 C   0  0  0  0  0
    6.7230   -4.4970  -70.1820 N   0  0  0  0  0
    6.3970   -4.1640  -68.7920 C   0  0  0  0  0
    5.0000   -3.8340  -68.3580 C   0  0  0  0  0
    6.0170   -2.7530  -68.4760 C   0  0  0  0  0
    6.4950   -2.0780  -67.2500 C   0  0  0  0  0
    6.6660   -0.7120  -67.3190 C   0  0  0  0  0
    7.0820    0.0560  -66.2510 C   0  0  0  0  0
    7.3380   -0.5710  -65.0570 C   0  0  0  0  0
    7.7800    0.1540  -64.0020 F   0  0  0  0  0
    7.1620   -1.9350  -64.9590 C   0  0  0  0  0
    7.4310   -2.5420  -63.8050 F   0  0  0  0  0
    6.7380   -2.6880  -66.0340 C   0  0  0  0  0
    7.9490   -6.0890  -71.5180 C   0  0  0  0  0
    8.6170   -5.2780  -72.4010 N   0  0  0  0  0
    9.3400   -6.0560  -73.2010 N   0  0  0  0  0
    9.1160   -7.3300  -72.8390 N   0  0  0  0  0
    9.8670   -8.3870  -73.4970 C   0  0  0  0  0
    9.0500   -9.3980  -74.2590 C   0  0  0  0  0
    9.9450  -10.6160  -74.3340 C   0  0  0  0  0
    9.1470  -11.7670  -74.0550 O   0  0  0  0  0
    9.6030  -12.8310  -74.8860 C   0  0  0  0  0
    8.4630  -13.4090  -75.6910 C   0  0  0  0  0
    8.9900  -14.4890  -76.4520 O   0  0  0  0  0
   11.0670  -10.4450  -73.3130 C   0  0  0  0  0
   12.3010  -10.2500  -74.0130 O   0  0  0  0  0
   10.7330   -9.1810  -72.5520 C   0  0  0  0  0
   11.8940   -8.4500  -72.1800 O   0  0  0  0  0
    8.2480   -7.4050  -71.7820 C   0  0  0  0  0
    7.7890   -8.4740  -71.1210 N   0  0  0  0  0
    8.3252  -13.1064  -70.0855 H   0  0  0  0  0
    9.0750  -11.8403  -71.0884 H   0  0  0  0  0
    9.9357  -12.4741  -69.6641 H   0  0  0  0  0
    8.9384  -10.2644  -69.1731 H   0  0  0  0  0
    8.2018  -11.5082  -68.1879 H   0  0  0  0  0
    6.3082  -11.6964  -69.6517 H   0  0  0  0  0
    7.1128  -10.6819  -70.8986 H   0  0  0  0  0
    6.6914   -3.7872  -70.9139 H   0  0  0  0  0
    7.1385   -4.8849  -68.4477 H   0  0  0  0  0
    4.2633   -4.1877  -67.6368 H   0  0  0  0  0
    3.9768   -4.0318  -68.6774 H   0  0  0  0  0
    6.0991   -1.8105  -69.0173 H   0  0  0  0  0
    6.4620   -0.2128  -68.2662 H   0  0  0  0  0
    7.2044    1.1343  -66.3529 H   0  0  0  0  0
    6.5948   -3.7630  -65.9246 H   0  0  0  0  0
   10.4629   -7.8080  -74.2026 H   0  0  0  0  0
    8.7636   -9.0360  -75.2464 H   0  0  0  0  0
    8.1007   -9.6141  -73.7688 H   0  0  0  0  0
   10.3932  -10.7357  -75.3203 H   0  0  0  0  0
   10.0210  -13.6154  -74.2551 H   0  0  0  0  0
   10.3564  -12.4434  -75.5717 H   0  0  0  0  0
    8.0334  -12.6514  -76.3465 H   0  0  0  0  0
    7.6661  -13.7560  -75.0332 H   0  0  0  0  0
    8.2887  -14.8808  -76.9777 H   0  0  0  0  0
   11.1615  -11.3090  -72.6552 H   0  0  0  0  0
   13.0136  -10.1413  -73.3789 H   0  0  0  0  0
   10.2307   -9.4036  -71.6106 H   0  0  0  0  0
   12.4249   -8.9786  -71.5798 H   0  0  0  0  0
  1  2  1  0  0  0
  2  3  1  0  0  0
  3  4  1  0  0  0
  4  5  1  0  0  0
  5  6  4  0  0  0
  5 36  4  0  0  0
  6  7  4  0  0  0
  7  8  1  0  0  0
  7 20  4  0  0  0
  8  9  1  0  0  0
  9 10  1  0  0  0
  9 11  1  0  0  0
 10 11  1  0  0  0
 11 12  1  0  0  0
 12 13  4  0  0  0
 12 19  4  0  0  0
 13 14  4  0  0  0
 14 15  4  0  0  0
 15 16  1  0  0  0
 15 17  4  0  0  0
 17 18  1  0  0  0
 17 19  4  0  0  0
 20 21  4  0  0  0
 20 35  4  0  0  0
 21 22  4  0  0  0
 22 23  4  0  0  0
 23 24  1  0  0  0
 23 35  4  0  0  0
 24 25  1  0  0  0
 24 33  1  0  0  0
 25 26  1  0  0  0
 26 27  1  0  0  0
 26 31  1  0  0  0
 27 28  1  0  0  0
 28 29  1  0  0  0
 29 30  1  0  0  0
 31 32  1  0  0  0
 31 33  1  0  0  0
 33 34  1  0  0  0
 35 36  4  0  0  0
  1 37  1  0  0  0
  1 38  1  0  0  0
  1 39  1  0  0  0
  2 40  1  0  0  0
  2 41  1  0  0  0
  3 42  1  0  0  0
  3 43  1  0  0  0
  8 44  1  0  0  0
  9 45  1  0  0  0
 10 46  1  0  0  0
 10 47  1  0  0  0
 11 48  1  0  0  0
 13 49  1  0  0  0
 14 50  1  0  0  0
 19 51  1  0  0  0
 24 52  1  0  0  0
 25 53  1  0  0  0
 25 54  1  0  0  0
 26 55  1  0  0  0
 28 56  1  0  0  0
 28 57  1  0  0  0
 29 58  1  0  0  0
 29 59  1  0  0  0
 30 60  1  0  0  0
 31 61  1  0  0  0
 32 62  1  0  0  0
 33 63  1  0  0  0
 34 64  1  0  0  0
M  END
$$$$
