3kqo_ligand
  -I-interpret- 

 12 13  0  0  0  0  0  0  0  0999 V2000
   27.6490   44.4100   16.3770 C   0  0  0  0  0
   26.4910   42.7050   14.5560 Cl  0  0  0  0  0
   27.3180   43.1000   16.0910 C   0  0  0  0  0
   27.6150   42.1180   16.9760 N   0  0  0  0  0
   28.2490   42.4210   18.1600 C   0  0  0  0  0
   28.5800   43.7290   18.4420 N   0  0  0  0  0
   28.2810   44.7140   17.5550 C   0  0  0  0  0
   28.4880   46.0460   17.5880 N   0  0  0  0  0
   27.9840   46.5700   16.4330 C   0  0  0  0  0
   27.4630   45.5520   15.6930 N   0  0  0  0  0
   28.4881   41.6302   18.8711 H   0  0  0  0  0
   27.9963   47.6228   16.1510 H   0  0  0  0  0
  1  3  4  0  0  0
  1  7  4  0  0  0
  1 10  4  0  0  0
  3  2  1  0  0  0
  3  4  4  0  0  0
  4  5  4  0  0  0
  5  6  4  0  0  0
  6  7  4  0  0  0
  7  8  4  0  0  0
  8  9  4  0  0  0
  9 10  4  0  0  0
  5 11  1  0  0  0
  9 12  1  0  0  0
M  END
$$$$
