3c88_ligand
  -I-interpret- 

 68 67  0  0  0  0  0  0  0  0999 V2000
   27.8550   27.4330   53.0950 N   0  3  0  0  0
   27.7950   25.9750   53.1300 C   0  0  0  0  0
   26.8210   25.4980   54.2010 C   0  0  0  0  0
   26.6570   26.1420   55.2370 O   0  0  0  0  0
   29.1790   25.3830   53.3980 C   0  0  0  0  0
   30.2160   25.7210   52.3460 C   0  0  0  0  0
   31.4460   24.8380   52.5070 C   0  0  0  0  0
   32.4790   25.1620   51.5310 N   0  0  0  0  0
   33.2360   26.2530   51.5750 C   0  0  0  0  0
   33.0830   27.1340   52.5550 N   0  0  0  0  0
   34.1460   26.4650   50.6330 N   0  0  0  0  0
   26.1930   24.3570   53.9290 N   0  0  0  0  0
   25.2060   23.7390   54.8050 C   0  0  0  0  0
   25.7490   23.1340   56.1060 C   0  0  0  0  0
   25.1020   23.2930   57.1650 O   0  0  0  0  0
   24.4540   22.6430   54.0370 C   0  0  0  0  0
   23.3920   23.1660   53.0790 C   0  0  0  0  0
   22.0880   23.4010   53.8200 C   0  0  0  0  0
   21.7290   22.2400   54.6280 N   0  0  0  0  0
   20.5720   22.0980   55.2650 C   0  0  0  0  0
   19.6420   23.0440   55.1920 N   0  0  0  0  0
   20.3460   21.0070   55.9780 N   0  0  0  0  0
   26.9130   22.4690   56.0300 N   0  0  0  0  0
   27.4630   21.8000   57.2100 C   0  0  0  0  0
   26.8430   20.4100   57.4370 C   0  0  0  0  0
   26.2280   19.8580   56.4910 O   0  0  0  0  0
   26.9920   19.8930   58.6750 N   0  0  0  0  0
   26.4840   18.5580   59.0650 C   0  0  0  0  0
   24.9800   18.5250   59.0440 C   0  0  0  0  0
   24.4540   17.4080   58.8560 O   0  0  0  0  0
   26.9490   18.1090   60.4710 C   0  0  0  0  0
   28.7350   17.8750   60.6350 S   0  0  0  0  0
   24.2512   19.6242   59.2161 O   0  0  0  0  0
   28.5117   27.7278   52.3723 H   0  0  0  0  0
   26.9285   27.8053   52.8866 H   0  0  0  0  0
   28.1666   27.7811   54.0017 H   0  0  0  0  0
   27.4445   25.6342   52.1558 H   0  0  0  0  0
   29.0686   24.2986   53.4029 H   0  0  0  0  0
   29.5301   25.8022   54.3409 H   0  0  0  0  0
   30.5110   26.7639   52.4617 H   0  0  0  0  0
   29.7864   25.5533   51.3584 H   0  0  0  0  0
   31.1450   23.8015   52.3548 H   0  0  0  0  0
   31.8550   25.0001   53.5043 H   0  0  0  0  0
   32.6308   24.5078   50.7633 H   0  0  0  0  0
   32.3820   26.9752   53.2787 H   0  0  0  0  0
   34.7258   27.3037   50.6635 H   0  0  0  0  0
   34.2658   25.7893   49.8783 H   0  0  0  0  0
   26.4164   23.8854   53.0526 H   0  0  0  0  0
   24.5565   24.5599   55.1090 H   0  0  0  0  0
   23.9434   22.0258   54.7762 H   0  0  0  0  0
   25.1908   22.1076   53.4381 H   0  0  0  0  0
   23.2277   22.4300   52.2920 H   0  0  0  0  0
   23.7325   24.1076   52.6483 H   0  0  0  0  0
   21.2978   23.5769   53.0901 H   0  0  0  0  0
   22.2101   24.2610   54.4784 H   0  0  0  0  0
   22.4123   21.4871   54.7091 H   0  0  0  0  0
   18.7566   22.9279   55.6850 H   0  0  0  0  0
   19.8134   23.8864   54.6430 H   0  0  0  0  0
   21.0585   20.2795   56.0368 H   0  0  0  0  0
   27.4172   22.4298   55.1442 H   0  0  0  0  0
   27.2404   22.4155   58.0816 H   0  0  0  0  0
   28.5344   21.6709   57.0563 H   0  0  0  0  0
   27.4790   20.4500   59.3771 H   0  0  0  0  0
   26.8995   17.8702   58.3285 H   0  0  0  0  0
   26.4825   17.1435   60.6669 H   0  0  0  0  0
   26.6667   18.8992   61.1666 H   0  0  0  0  0
   29.0182   17.4918   61.8767 H   0  0  0  0  0
   24.8339   20.3762   59.3450 H   0  0  0  0  0
  2  1  1  0  0  0
  2  5  1  0  0  0
  3  2  1  0  0  0
  3  4  2  0  0  0
  5  6  1  0  0  0
  6  7  1  0  0  0
  7  8  1  0  0  0
  8  9  1  0  0  0
  9 11  1  0  0  0
  9 10  2  0  0  0
 13 12  1  0  0  0
 13 16  1  0  0  0
 14 13  1  0  0  0
 14 15  2  0  0  0
 16 17  1  0  0  0
 17 18  1  0  0  0
 18 19  1  0  0  0
 19 20  1  0  0  0
 20 22  2  0  0  0
 20 21  1  0  0  0
 12  3  1  0  0  0
 24 23  1  0  0  0
 25 24  1  0  0  0
 25 26  2  0  0  0
 23 14  1  0  0  0
 27 28  1  0  0  0
 28 31  1  0  0  0
 28 29  1  0  0  0
 29 30  2  0  0  0
 31 32  1  0  0  0
 25 27  1  0  0  0
 29 33  1  0  0  0
  1 34  1  0  0  0
  1 35  1  0  0  0
  1 36  1  0  0  0
  2 37  1  0  0  0
  5 38  1  0  0  0
  5 39  1  0  0  0
  6 40  1  0  0  0
  6 41  1  0  0  0
  7 42  1  0  0  0
  7 43  1  0  0  0
  8 44  1  0  0  0
 10 45  1  0  0  0
 11 46  1  0  0  0
 11 47  1  0  0  0
 12 48  1  0  0  0
 13 49  1  0  0  0
 16 50  1  0  0  0
 16 51  1  0  0  0
 17 52  1  0  0  0
 17 53  1  0  0  0
 18 54  1  0  0  0
 18 55  1  0  0  0
 19 56  1  0  0  0
 21 57  1  0  0  0
 21 58  1  0  0  0
 22 59  1  0  0  0
 23 60  1  0  0  0
 24 61  1  0  0  0
 24 62  1  0  0  0
 27 63  1  0  0  0
 28 64  1  0  0  0
 31 65  1  0  0  0
 31 66  1  0  0  0
 32 67  1  0  0  0
 33 68  1  0  0  0
M  END
$$$$
