### 
### Created by X-TOOL on Mon Sep 10 21:12:54 2018
### 

@<TRIPOS>MOLECULE
2df6_ligand
  296   301     1     0     0
SMALL
GAST_HUCK


@<TRIPOS>ATOM
      1 N          54.3450   20.4350    2.3490 N.4       1 PRO         0.2461
      2 CA         53.3990   21.4770    1.8980 C.3       1 PRO         0.0671
      3 C          53.8150   22.8490    2.4240 C.2       1 PRO         0.2293
      4 O          54.6090   22.9530    3.3580 O.2       1 PRO        -0.3905
      5 CB         52.0290   21.0820    2.4270 C.3       1 PRO         0.0127
      6 CG         52.4110   20.2940    3.6730 C.3       1 PRO        -0.0053
      7 CD         53.6570   19.4980    3.2550 C.3       1 PRO        -0.0313
      8 N          53.2850   23.9220    1.8240 N.am      1 PRO        -0.2471
      9 CA         53.6270   25.2750    2.2630 C.3       1 PRO         0.1339
     10 C          53.2570   25.5480    3.7110 C.2       1 PRO         0.2041
     11 O          52.4310   24.8520    4.3080 O.2       1 PRO        -0.3944
     12 CB         52.8780   26.1690    1.2730 C.3       1 PRO        -0.0104
     13 CG         51.7590   25.3180    0.7990 C.3       1 PRO        -0.0281
     14 CD         52.3740   23.9570    0.6710 C.3       1 PRO         0.0371
     15 N          53.8920   26.5630    4.2810 N.am      1 VAL        -0.2635
     16 CA         53.6340   26.9260    5.6590 C.3       1 VAL         0.1332
     17 C          52.2730   27.5820    5.7640 C.2       1 VAL         0.2042
     18 O          51.9480   28.4920    5.0030 O.2       1 VAL        -0.3944
     19 CB         54.7030   27.8950    6.1860 C.3       1 VAL        -0.0063
     20 CG1        54.3990   28.2750    7.6250 C.3       1 VAL        -0.0584
     21 CG2        56.0740   27.2470    6.0810 C.3       1 VAL        -0.0584
     22 N          51.4770   27.0980    6.7060 N.am      1 ILE        -0.2635
     23 CA         50.1500   27.6380    6.9310 C.3       1 ILE         0.1335
     24 C          50.2370   28.6720    8.0330 C.2       1 ILE         0.2041
     25 O          50.5790   28.3550    9.1710 O.2       1 ILE        -0.3944
     26 CB         49.1800   26.5430    7.3660 C.3       1 ILE        -0.0037
     27 CG1        49.0230   25.5230    6.2400 C.3       1 ILE        -0.0491
     28 CG2        47.8430   27.1530    7.7260 C.3       1 ILE        -0.0582
     29 CD1        48.1550   24.3510    6.6050 C.3       1 ILE        -0.0648
     30 N          49.9350   29.9150    7.6930 N.am      1 ALA        -0.2640
     31 CA         49.9860   30.9730    8.6830 C.3       1 ALA         0.1284
     32 C          48.9220   30.7160    9.7350 C.2       1 ALA         0.2061
     33 O          47.9020   30.0870    9.4620 O.2       1 ALA        -0.3942
     34 CB         49.7500   32.3220    8.0190 C.3       1 ALA        -0.0244
     35 N          49.1610   31.1630   10.9700 N.am      1 PRO        -0.2498
     36 CA         48.1230   30.9200   11.9680 C.3       1 PRO         0.1338
     37 C          46.9140   31.7220   11.5070 C.2       1 PRO         0.2041
     38 O          47.0680   32.7720   10.8840 O.2       1 PRO        -0.3944
     39 CB         48.7320   31.4900   13.2430 C.3       1 PRO        -0.0104
     40 CG         50.2080   31.2980   13.0280 C.3       1 PRO        -0.0281
     41 CD         50.3780   31.7130   11.5900 C.3       1 PRO         0.0369
     42 N          45.7190   31.2290   11.7870 N.am      1 ARG        -0.2637
     43 CA         44.5230   31.9560   11.3920 C.3       1 ARG         0.1313
     44 C          44.5810   33.3530   11.9910 C.2       1 ARG         0.2064
     45 O          44.7090   33.5070   13.1990 O.2       1 ARG        -0.3942
     46 CB         43.2690   31.2550   11.9160 C.3       1 ARG        -0.0092
     47 CG         42.8030   30.0780   11.0880 C.3       1 ARG        -0.0156
     48 CD         42.2130   30.5570    9.7800 C.3       1 ARG         0.0627
     49 NE         40.9600   31.2760    9.9710 N.pl3     1 ARG        -0.2723
     50 CZ         39.8110   30.6950   10.2960 C.cat     1 ARG         0.2882
     51 NH1        39.7590   29.3810   10.4660 N.pl3     1 ARG        -0.2849
     52 NH2        38.7160   31.4260   10.4430 N.pl3     1 ARG        -0.2849
     53 N          44.5200   34.3930   11.1510 N.am      1 PRO        -0.2498
     54 CA         44.5610   35.7420   11.7110 C.3       1 PRO         0.1338
     55 C          43.2270   35.9670   12.3880 C.2       1 PRO         0.2041
     56 O          42.2120   35.4250   11.9570 O.2       1 PRO        -0.3944
     57 CB         44.7110   36.6260   10.4830 C.3       1 PRO        -0.0104
     58 CG         45.3650   35.7460    9.4870 C.3       1 PRO        -0.0281
     59 CD         44.6740   34.4270    9.6890 C.3       1 PRO         0.0369
     60 N          43.2220   36.7710   13.4370 N.am      1 GLU        -0.2636
     61 CA         41.9880   37.0340   14.1440 C.3       1 GLU         0.1325
     62 C          40.9280   37.6270   13.2300 C.2       1 GLU         0.2041
     63 O          39.7430   37.3400   13.3800 O.2       1 GLU        -0.3944
     64 CB         42.2480   37.9860   15.3050 C.3       1 GLU        -0.0008
     65 CG         41.0210   38.2540   16.1440 C.3       1 GLU         0.0044
     66 CD         40.4160   36.9820   16.6990 C.2       1 GLU         0.0350
     67 OE1        41.1680   36.1760   17.2860 O.co2     1 GLU        -0.5690
     68 OE2        39.1890   36.7940   16.5520 O.co2     1 GLU        -0.5690
     69 N          41.3430   38.4470   12.2700 N.am      1 HIS        -0.2625
     70 CA         40.3710   39.0700   11.3890 C.3       1 HIS         0.1369
     71 C          39.6830   38.0980   10.4460 C.2       1 HIS         0.2054
     72 O          38.8180   38.4900    9.6690 O.2       1 HIS        -0.3942
     73 CB         40.9970   40.2180   10.5960 C.3       1 HIS         0.0145
     74 CG         42.0900   39.7950    9.6720 C.2       1 HIS        -0.0027
     75 ND1        43.3740   39.5420   10.1020 N.2       1 HIS        -0.3252
     76 CD2        42.0950   39.6010    8.3330 C.2       1 HIS         0.0291
     77 CE1        44.1250   39.2170    9.0660 C.2       1 HIS         0.0907
     78 NE2        43.3720   39.2450    7.9810 N.pl3     1 HIS        -0.2752
     79 N          40.0740   36.8310   10.5040 N.am      1 THR        -0.2612
     80 CA         39.4290   35.8240    9.6700 C.3       1 THR         0.1565
     81 C          38.6000   34.9190   10.5580 C.2       1 THR         0.2065
     82 O          37.8960   34.0400   10.0740 O.2       1 THR        -0.3943
     83 CB         40.4310   34.9230    8.9440 C.3       1 THR         0.0924
     84 OG1        41.1040   34.0900    9.8940 O.3       1 THR        -0.3874
     85 CG2        41.4340   35.7520    8.1830 C.3       1 THR        -0.0346
     86 N          38.6920   35.1350   11.8620 N.am      1 LYS        -0.2637
     87 CA         37.9690   34.3050   12.8040 C.3       1 LYS         0.1310
     88 C          36.6030   34.8200   13.1940 C.2       1 LYS         0.2040
     89 O          36.2630   35.9830   12.9900 O.2       1 LYS        -0.3944
     90 CB         38.7980   34.1120   14.0660 C.3       1 LYS        -0.0122
     91 CG         40.1230   33.4380   13.8230 C.3       1 LYS        -0.0440
     92 CD         40.8590   33.2200   15.1270 C.3       1 LYS        -0.0124
     93 CE         42.1800   32.5240   14.8980 C.3       1 LYS        -0.0354
     94 NZ         42.8640   32.2230   16.1840 N.4       1 LYS         0.2185
     95 N          35.8250   33.9110   13.7610 N.am      1 SER        -0.2616
     96 CA         34.4890   34.2060   14.2410 C.3       1 SER         0.1539
     97 C          34.2780   33.1810   15.3380 C.2       1 SER         0.2062
     98 O          35.1850   32.4070   15.6480 O.2       1 SER        -0.3943
     99 CB         33.4580   34.0040   13.1360 C.3       1 SER         0.0843
    100 OG         33.2680   32.6250   12.8770 O.3       1 SER        -0.3903
    101 N          33.0920   33.1710   15.9310 N.am      1 ILE        -0.2634
    102 CA         32.8130   32.2080   16.9850 C.3       1 ILE         0.1335
    103 C          32.8480   30.8050   16.3920 C.2       1 ILE         0.2043
    104 O          32.9280   29.8180   17.1180 O.2       1 ILE        -0.3944
    105 CB         31.4260   32.4460   17.6310 C.3       1 ILE        -0.0037
    106 CG1        30.3130   32.2240   16.6040 C.3       1 ILE        -0.0491
    107 CG2        31.3620   33.8520   18.2110 C.3       1 ILE        -0.0582
    108 CD1        30.2480   33.2600   15.5060 C.3       1 ILE        -0.0648
    109 N          32.8080   30.7290   15.0640 N.am      1 TYR        -0.2621
    110 CA         32.8280   29.4480   14.3720 C.3       1 TYR         0.1390
    111 C          34.2260   28.8960   14.1650 C.2       1 TYR         0.2058
    112 O          34.4010   27.7750   13.6920 O.2       1 TYR        -0.3942
    113 CB         32.0910   29.5740   13.0430 C.3       1 TYR         0.0163
    114 CG         30.6420   29.8890   13.2750 C.ar      1 TYR        -0.0493
    115 CD1        30.0850   31.0950   12.8560 C.ar      1 TYR        -0.0685
    116 CD2        29.8420   29.0050   13.9950 C.ar      1 TYR        -0.0685
    117 CE1        28.7680   31.4140   13.1570 C.ar      1 TYR        -0.0398
    118 CE2        28.5340   29.3130   14.3010 C.ar      1 TYR        -0.0398
    119 CZ         28.0020   30.5170   13.8830 C.ar      1 TYR         0.0805
    120 OH         26.7070   30.8240   14.2030 O.3       1 TYR        -0.3376
    121 N          35.2270   29.6850   14.5320 N.am      1 THR        -0.2612
    122 CA         36.5980   29.2330   14.4040 C.3       1 THR         0.1565
    123 C          36.8950   28.3880   15.6360 C.2       1 THR         0.2065
    124 O          37.6210   28.8110   16.5340 O.2       1 THR        -0.3943
    125 CB         37.5610   30.4210   14.3430 C.3       1 THR         0.0924
    126 OG1        37.1120   31.3360   13.3370 O.3       1 THR        -0.3874
    127 CG2        38.9620   29.9480   14.0020 C.3       1 THR        -0.0346
    128 N          36.3050   27.1970   15.6720 N.am      1 ARG        -0.2637
    129 CA         36.4800   26.2750   16.7920 C.3       1 ARG         0.1310
    130 C          37.4670   25.1760   16.4190 C.2       1 ARG         0.2034
    131 O          37.3960   24.6130   15.3260 O.2       1 ARG        -0.3944
    132 CB         35.1460   25.6200   17.1620 C.3       1 ARG        -0.0092
    133 CG         33.9410   26.5450   17.1640 C.3       1 ARG        -0.0156
    134 CD         32.6660   25.7440   17.3990 C.3       1 ARG         0.0627
    135 NE         31.4610   26.5130   17.1080 N.pl3     1 ARG        -0.2723
    136 CZ         30.2270   26.0160   17.1440 C.cat     1 ARG         0.2882
    137 NH1        30.0300   24.7420   17.4610 N.pl3     1 ARG        -0.2849
    138 NH2        29.1900   26.7900   16.8500 N.pl3     1 ARG        -0.2849
    139 N          38.3770   24.8650   17.3350 N.am      1 SER        -0.2672
    140 CA         39.3680   23.8220   17.0990 C.3       1 SER         0.1173
    141 C          39.1960   22.6990   18.1170 C.2       1 SER         0.0623
    142 O          40.1430   22.4500   18.8920 O.co2     1 SER        -0.5665
    143 CB         40.7810   24.4020   17.1950 C.3       1 SER         0.0789
    144 OG         41.7560   23.4190   16.8870 O.3       1 SER        -0.3910
    145 OXT        38.1090   22.0830   18.1290 O.co2     1 SER        -0.5665
    146 H1         55.1137   20.8685    2.8361 H         1 PRO         0.2035
    147 H2         54.6951   19.9314    1.5491 H         1 PRO         0.2035
    148 H3         53.3769   21.5086    0.7987 H         1 PRO         0.1099
    149 H4         51.4830   20.4563    1.7056 H         1 PRO         0.0347
    150 H5         51.4235   21.9653    2.6782 H         1 PRO         0.0347
    151 H6         51.5972   19.6158    3.9693 H         1 PRO         0.0320
    152 H7         52.6444   20.9728    4.5065 H         1 PRO         0.0320
    153 H8         54.2836   19.2544    4.1256 H         1 PRO         0.0814
    154 H9         53.3794   18.5709    2.7321 H         1 PRO         0.0814
    155 H10        54.7104   25.4342    2.1585 H         1 PRO         0.0802
    156 H11        53.5306   26.4589    0.4363 H         1 PRO         0.0313
    157 H12        52.4981   27.0727    1.7719 H         1 PRO         0.0313
    158 H13        51.3827   25.6708   -0.1725 H         1 PRO         0.0287
    159 H14        50.9367   25.3092    1.5295 H         1 PRO         0.0287
    160 H15        51.6122   23.1665    0.7397 H         1 PRO         0.0524
    161 H16        52.9242   23.8548   -0.2760 H         1 PRO         0.0524
    162 H17        54.5595   27.0860    3.7510 H         1 VAL         0.1883
    163 H18        53.6450   26.0143    6.2744 H         1 VAL         0.0802
    164 H19        54.6932   28.8066    5.5704 H         1 VAL         0.0343
    165 H20        55.1701   28.9685    7.9918 H         1 VAL         0.0234
    166 H21        54.3929   27.3697    8.2499 H         1 VAL         0.0234
    167 H22        53.4140   28.7620    7.6754 H         1 VAL         0.0234
    168 H23        56.2740   26.9800    5.0328 H         1 VAL         0.0234
    169 H24        56.0990   26.3392    6.7017 H         1 VAL         0.0234
    170 H25        56.8411   27.9528    6.4324 H         1 VAL         0.0234
    171 H26        51.7991   26.3419    7.2757 H         1 ILE         0.1883
    172 H27        49.7826   28.1055    6.0056 H         1 ILE         0.0803
    173 H28        49.5874   26.0344    8.2522 H         1 ILE         0.0345
    174 H29        50.0207   25.1460    5.9709 H         1 ILE         0.0267
    175 H30        48.5759   26.0296    5.3720 H         1 ILE         0.0267
    176 H31        47.9797   27.8831    8.5373 H         1 ILE         0.0235
    177 H32        47.1558   26.3607    8.0577 H         1 ILE         0.0235
    178 H33        47.4215   27.6587    6.8448 H         1 ILE         0.0235
    179 H34        48.0890   23.6630    5.7492 H         1 ILE         0.0230
    180 H35        47.1480   24.7079    6.8669 H         1 ILE         0.0230
    181 H36        48.5928   23.8244    7.4658 H         1 ILE         0.0230
    182 H37        49.6712   30.1248    6.7515 H         1 ALA         0.1883
    183 H38        50.9767   30.9761    9.1611 H         1 ALA         0.0797
    184 H39        49.7908   33.1166    8.7785 H         1 ALA         0.0277
    185 H40        48.7611   32.3256    7.5374 H         1 ALA         0.0277
    186 H41        50.5276   32.4988    7.2613 H         1 ALA         0.0277
    187 H42        47.8739   29.8543   12.0782 H         1 PRO         0.0802
    188 H43        48.3861   30.9362   14.1283 H         1 PRO         0.0313
    189 H44        48.4845   32.5557   13.3573 H         1 PRO         0.0313
    190 H45        50.4992   30.2478   13.1768 H         1 PRO         0.0287
    191 H46        50.7957   31.9403   13.7003 H         1 PRO         0.0287
    192 H47        50.4176   32.8079   11.4915 H         1 PRO         0.0524
    193 H48        51.2851   31.2722   11.1509 H         1 PRO         0.0524
    194 H49        45.6380   30.3571   12.2699 H         1 ARG         0.1883
    195 H50        44.4776   32.0200   10.2948 H         1 ARG         0.0800
    196 H51        42.4540   31.9930   11.9494 H         1 ARG         0.0313
    197 H52        43.4793   30.8946   12.9338 H         1 ARG         0.0313
    198 H53        42.0382   29.5202   11.6483 H         1 ARG         0.0301
    199 H54        43.6588   29.4190   10.8802 H         1 ARG         0.0301
    200 H55        42.0263   29.6854    9.1355 H         1 ARG         0.0689
    201 H56        42.9347   31.2273    9.2904 H         1 ARG         0.0689
    202 H57        40.9659   32.2984    9.8462 H         1 ARG         0.2642
    203 H58        38.8684   28.9292   10.7181 H         1 ARG         0.2615
    204 H59        40.6092   28.8121   10.3460 H         1 ARG         0.2615
    205 H60        38.7566   32.4467   10.3109 H         1 ARG         0.2615
    206 H61        37.8240   30.9737   10.6894 H         1 ARG         0.2615
    207 H62        45.3920   35.8831   12.4177 H         1 PRO         0.0802
    208 H63        45.3401   37.5006   10.7050 H         1 PRO         0.0313
    209 H64        43.7284   36.9634   10.1214 H         1 PRO         0.0313
    210 H65        46.4438   35.6605    9.6841 H         1 PRO         0.0287
    211 H66        45.2076   36.1214    8.4651 H         1 PRO         0.0287
    212 H67        43.6980   34.4037    9.1822 H         1 PRO         0.0524
    213 H68        45.2930   33.5910    9.3313 H         1 PRO         0.0524
    214 H69        44.0730   37.1983   13.7424 H         1 GLU         0.1883
    215 H70        41.6088   36.0821   14.5442 H         1 GLU         0.0801
    216 H71        42.6086   38.9424   14.8983 H         1 GLU         0.0330
    217 H72        43.0229   37.5464   15.9502 H         1 GLU         0.0330
    218 H73        40.2696   38.7604   15.5203 H         1 GLU         0.0433
    219 H74        41.3019   38.9076   16.9830 H         1 GLU         0.0433
    220 H75        42.3186   38.6339   12.1550 H         1 HIS         0.1885
    221 H76        39.5897   39.5003   12.0327 H         1 HIS         0.0817
    222 H77        41.4103   40.9459   11.3097 H         1 HIS         0.0420
    223 H78        40.2067   40.6973    9.9997 H         1 HIS         0.0420
    224 H79        41.2448   39.7075    7.6609 H         1 HIS         0.0729
    225 H80        45.1847   38.9682    9.1001 H         1 HIS         0.1199
    226 H81        43.6921   39.0336    7.0251 H         1 HIS         0.2361
    227 H82        40.8140   36.5660   11.1222 H         1 THR         0.1884
    228 H83        38.7870   36.3269    8.9318 H         1 THR         0.0826
    229 H84        39.8857   34.2856    8.2324 H         1 THR         0.0639
    230 H85        41.5652   34.6350   10.5207 H         1 THR         0.2101
    231 H86        42.1442   35.0876    7.6690 H         1 THR         0.0257
    232 H87        41.9802   36.4009    8.8834 H         1 THR         0.0257
    233 H88        40.9096   36.3724    7.4413 H         1 THR         0.0257
    234 H89        39.2673   35.8798   12.2000 H         1 LYS         0.1883
    235 H90        37.8264   33.3234   12.3286 H         1 LYS         0.0800
    236 H91        38.2195   33.4967   14.7708 H         1 LYS         0.0312
    237 H92        38.9874   35.0997   14.5115 H         1 LYS         0.0312
    238 H93        40.7351   34.0717   13.1644 H         1 LYS         0.0269
    239 H94        39.9501   32.4655   13.3390 H         1 LYS         0.0269
    240 H95        40.2376   32.6010   15.7908 H         1 LYS         0.0317
    241 H96        41.0445   34.1947   15.6018 H         1 LYS         0.0317
    242 H97        42.8273   33.1749   14.2920 H         1 LYS         0.0813
    243 H98        41.9998   31.5820   14.3593 H         1 LYS         0.0813
    244 H99        43.7399   31.7601   15.9983 H         1 LYS         0.1994
    245 H100       42.2787   31.6226   16.7434 H         1 LYS         0.1994
    246 H101       43.0370   33.0823   16.6817 H         1 LYS         0.1994
    247 H102       36.1744   32.9795   13.8627 H         1 SER         0.1884
    248 H103       34.4236   35.2322   14.6317 H         1 SER         0.0823
    249 H104       33.8097   34.4989   12.2187 H         1 SER         0.0606
    250 H105       32.5014   34.4481   13.4486 H         1 SER         0.0606
    251 H106       34.0919   32.2387   12.6041 H         1 SER         0.2097
    252 H107       32.3890   33.8258   15.6535 H         1 ILE         0.1883
    253 H108       33.5867   32.2968   17.7618 H         1 ILE         0.0803
    254 H109       31.2913   31.7241   18.4499 H         1 ILE         0.0345
    255 H110       29.3504   32.2287   17.1362 H         1 ILE         0.0267
    256 H111       30.4692   31.2402   16.1373 H         1 ILE         0.0267
    257 H112       32.1714   33.9833   18.9443 H         1 ILE         0.0235
    258 H113       30.3911   34.0006   18.7061 H         1 ILE         0.0235
    259 H114       31.4774   34.5881   17.4018 H         1 ILE         0.0235
    260 H115       29.4221   33.0172   14.8212 H         1 ILE         0.0230
    261 H116       31.1967   33.2643   14.9492 H         1 ILE         0.0230
    262 H117       30.0778   34.2527   15.9481 H         1 ILE         0.0230
    263 H118       32.7631   31.5722   14.5283 H         1 TYR         0.1885
    264 H119       32.2816   28.7260   14.9966 H         1 TYR         0.0821
    265 H120       32.1718   28.6251   12.4926 H         1 TYR         0.0453
    266 H121       32.5469   30.3813   12.4510 H         1 TYR         0.0453
    267 H122       30.6880   31.7937   12.2874 H         1 TYR         0.0530
    268 H123       30.2557   28.0574   14.3206 H         1 TYR         0.0530
    269 H124       28.3434   32.3553   12.8273 H         1 TYR         0.0525
    270 H125       27.9269   28.6150   14.8660 H         1 TYR         0.0525
    271 H126       26.4882   31.6777   13.8483 H         1 TYR         0.2458
    272 H127       35.0349   30.5954   14.8985 H         1 THR         0.1884
    273 H128       36.7099   28.6271   13.4928 H         1 THR         0.0826
    274 H129       37.5766   30.9271   15.3195 H         1 THR         0.0639
    275 H130       37.0930   30.8954   12.4955 H         1 THR         0.2101
    276 H131       39.6412   30.8123   13.9620 H         1 THR         0.0257
    277 H132       38.9512   29.4446   13.0240 H         1 THR         0.0257
    278 H133       39.3092   29.2442   14.7728 H         1 THR         0.0257
    279 H134       35.7220   26.9231   14.9071 H         1 ARG         0.1883
    280 H135       36.8645   26.8332   17.6583 H         1 ARG         0.0800
    281 H136       35.2466   25.1926   18.1705 H         1 ARG         0.0313
    282 H137       34.9527   24.8134   16.4395 H         1 ARG         0.0313
    283 H138       33.8745   27.0580   16.1932 H         1 ARG         0.0301
    284 H139       34.0555   27.2899   17.9653 H         1 ARG         0.0301
    285 H140       32.6370   25.4282   18.4523 H         1 ARG         0.0689
    286 H141       32.6828   24.8559   16.7502 H         1 ARG         0.0689
    287 H142       31.5726   27.5060   16.8582 H         1 ARG         0.2642
    288 H143       29.0739   24.3599   17.4881 H         1 ARG         0.2615
    289 H144       30.8333   24.1356   17.6798 H         1 ARG         0.2615
    290 H145       29.3390   27.7789   16.6036 H         1 ARG         0.2615
    291 H146       28.2361   26.4018   16.8682 H         1 ARG         0.2615
    292 H147       38.3826   25.3570   18.2056 H         1 SER         0.1876
    293 H148       39.2196   23.4130   16.0887 H         1 SER         0.0749
    294 H149       40.9506   24.7686   18.2181 H         1 SER         0.0599
    295 H150       40.8759   25.2374   16.4857 H         1 SER         0.0599
    296 H151       41.6158   23.1017   16.0025 H         1 SER         0.2096
@<TRIPOS>BOND
     1    1    2 1  
     2    1    7 1  
     3    2    3 1  
     4    2    5 1  
     5    3    4 2  
     6    3    8 am 
     7    5    6 1  
     8    6    7 1  
     9    8    9 1  
    10    8   14 1  
    11    9   10 1  
    12    9   12 1  
    13   10   11 2  
    14   10   15 am 
    15   12   13 1  
    16   13   14 1  
    17   15   16 1  
    18   16   17 1  
    19   16   19 1  
    20   17   18 2  
    21   17   22 am 
    22   19   20 1  
    23   19   21 1  
    24   22   23 1  
    25   23   24 1  
    26   23   26 1  
    27   24   25 2  
    28   24   30 am 
    29   26   27 1  
    30   26   28 1  
    31   27   29 1  
    32   30   31 1  
    33   31   32 1  
    34   31   34 1  
    35   32   33 2  
    36   32   35 am 
    37   35   36 1  
    38   35   41 1  
    39   36   37 1  
    40   36   39 1  
    41   37   38 2  
    42   37   42 am 
    43   39   40 1  
    44   40   41 1  
    45   42   43 1  
    46   43   44 1  
    47   43   46 1  
    48   44   45 2  
    49   44   53 am 
    50   46   47 1  
    51   47   48 1  
    52   48   49 1  
    53   49   50 ar 
    54   50   51 ar 
    55   50   52 ar 
    56   53   54 1  
    57   53   59 1  
    58   54   55 1  
    59   54   57 1  
    60   55   56 2  
    61   55   60 am 
    62   57   58 1  
    63   58   59 1  
    64   60   61 1  
    65   61   62 1  
    66   61   64 1  
    67   62   63 2  
    68   62   69 am 
    69   64   65 1  
    70   65   66 1  
    71   66   67 ar 
    72   66   68 ar 
    73   69   70 1  
    74   70   71 1  
    75   70   73 1  
    76   71   72 2  
    77   71   79 am 
    78   73   74 1  
    79   74   75 1  
    80   74   76 2  
    81   75   77 2  
    82   76   78 1  
    83   77   78 1  
    84   79   80 1  
    85   80   81 1  
    86   80   83 1  
    87   81   82 2  
    88   81   86 am 
    89   83   84 1  
    90   83   85 1  
    91   86   87 1  
    92   87   88 1  
    93   87   90 1  
    94   88   89 2  
    95   88   95 am 
    96   90   91 1  
    97   91   92 1  
    98   92   93 1  
    99   93   94 1  
   100   95   96 1  
   101   96   97 1  
   102   96   99 1  
   103   97   98 2  
   104   97  101 am 
   105   99  100 1  
   106  101  102 1  
   107  102  103 1  
   108  102  105 1  
   109  103  104 2  
   110  103  109 am 
   111  105  106 1  
   112  105  107 1  
   113  106  108 1  
   114  109  110 1  
   115  110  111 1  
   116  110  113 1  
   117  111  112 2  
   118  111  121 am 
   119  113  114 1  
   120  114  115 ar 
   121  114  116 ar 
   122  115  117 ar 
   123  116  118 ar 
   124  117  119 ar 
   125  118  119 ar 
   126  119  120 1  
   127  121  122 1  
   128  122  123 1  
   129  122  125 1  
   130  123  124 2  
   131  123  128 am 
   132  125  126 1  
   133  125  127 1  
   134  128  129 1  
   135  129  130 1  
   136  129  132 1  
   137  130  131 2  
   138  130  139 am 
   139  132  133 1  
   140  133  134 1  
   141  134  135 1  
   142  135  136 ar 
   143  136  137 ar 
   144  136  138 ar 
   145  139  140 1  
   146  140  141 1  
   147  140  143 1  
   148  141  142 ar 
   149  141  145 ar 
   150  143  144 1  
   151    1  146 1  
   152    1  147 1  
   153    2  148 1  
   154    5  149 1  
   155    5  150 1  
   156    6  151 1  
   157    6  152 1  
   158    7  153 1  
   159    7  154 1  
   160    9  155 1  
   161   12  156 1  
   162   12  157 1  
   163   13  158 1  
   164   13  159 1  
   165   14  160 1  
   166   14  161 1  
   167   15  162 1  
   168   16  163 1  
   169   19  164 1  
   170   20  165 1  
   171   20  166 1  
   172   20  167 1  
   173   21  168 1  
   174   21  169 1  
   175   21  170 1  
   176   22  171 1  
   177   23  172 1  
   178   26  173 1  
   179   27  174 1  
   180   27  175 1  
   181   28  176 1  
   182   28  177 1  
   183   28  178 1  
   184   29  179 1  
   185   29  180 1  
   186   29  181 1  
   187   30  182 1  
   188   31  183 1  
   189   34  184 1  
   190   34  185 1  
   191   34  186 1  
   192   36  187 1  
   193   39  188 1  
   194   39  189 1  
   195   40  190 1  
   196   40  191 1  
   197   41  192 1  
   198   41  193 1  
   199   42  194 1  
   200   43  195 1  
   201   46  196 1  
   202   46  197 1  
   203   47  198 1  
   204   47  199 1  
   205   48  200 1  
   206   48  201 1  
   207   49  202 1  
   208   51  203 1  
   209   51  204 1  
   210   52  205 1  
   211   52  206 1  
   212   54  207 1  
   213   57  208 1  
   214   57  209 1  
   215   58  210 1  
   216   58  211 1  
   217   59  212 1  
   218   59  213 1  
   219   60  214 1  
   220   61  215 1  
   221   64  216 1  
   222   64  217 1  
   223   65  218 1  
   224   65  219 1  
   225   69  220 1  
   226   70  221 1  
   227   73  222 1  
   228   73  223 1  
   229   76  224 1  
   230   77  225 1  
   231   78  226 1  
   232   79  227 1  
   233   80  228 1  
   234   83  229 1  
   235   84  230 1  
   236   85  231 1  
   237   85  232 1  
   238   85  233 1  
   239   86  234 1  
   240   87  235 1  
   241   90  236 1  
   242   90  237 1  
   243   91  238 1  
   244   91  239 1  
   245   92  240 1  
   246   92  241 1  
   247   93  242 1  
   248   93  243 1  
   249   94  244 1  
   250   94  245 1  
   251   94  246 1  
   252   95  247 1  
   253   96  248 1  
   254   99  249 1  
   255   99  250 1  
   256  100  251 1  
   257  101  252 1  
   258  102  253 1  
   259  105  254 1  
   260  106  255 1  
   261  106  256 1  
   262  107  257 1  
   263  107  258 1  
   264  107  259 1  
   265  108  260 1  
   266  108  261 1  
   267  108  262 1  
   268  109  263 1  
   269  110  264 1  
   270  113  265 1  
   271  113  266 1  
   272  115  267 1  
   273  116  268 1  
   274  117  269 1  
   275  118  270 1  
   276  120  271 1  
   277  121  272 1  
   278  122  273 1  
   279  125  274 1  
   280  126  275 1  
   281  127  276 1  
   282  127  277 1  
   283  127  278 1  
   284  128  279 1  
   285  129  280 1  
   286  132  281 1  
   287  132  282 1  
   288  133  283 1  
   289  133  284 1  
   290  134  285 1  
   291  134  286 1  
   292  135  287 1  
   293  137  288 1  
   294  137  289 1  
   295  138  290 1  
   296  138  291 1  
   297  139  292 1  
   298  140  293 1  
   299  143  294 1  
   300  143  295 1  
   301  144  296 1  
@<TRIPOS>SUBSTRUCTURE
     1 PRO         1

