2df6_ligand
  -I-interpret- 

295300  0  0  0  0  0  0  0  0999 V2000
   54.3450   20.4350    2.3490 N   0  3  0  0  0
   53.3990   21.4770    1.8980 C   0  0  0  0  0
   53.8150   22.8490    2.4240 C   0  0  0  0  0
   54.6090   22.9530    3.3580 O   0  0  0  0  0
   52.0290   21.0820    2.4270 C   0  0  0  0  0
   52.4110   20.2940    3.6730 C   0  0  0  0  0
   53.6570   19.4980    3.2550 C   0  0  0  0  0
   53.2850   23.9220    1.8240 N   0  0  0  0  0
   53.6270   25.2750    2.2630 C   0  0  0  0  0
   53.2570   25.5480    3.7110 C   0  0  0  0  0
   52.4310   24.8520    4.3080 O   0  0  0  0  0
   52.8780   26.1690    1.2730 C   0  0  0  0  0
   51.7590   25.3180    0.7990 C   0  0  0  0  0
   52.3740   23.9570    0.6710 C   0  0  0  0  0
   53.8920   26.5630    4.2810 N   0  0  0  0  0
   53.6340   26.9260    5.6590 C   0  0  0  0  0
   52.2730   27.5820    5.7640 C   0  0  0  0  0
   51.9480   28.4920    5.0030 O   0  0  0  0  0
   54.7030   27.8950    6.1860 C   0  0  0  0  0
   54.3990   28.2750    7.6250 C   0  0  0  0  0
   56.0740   27.2470    6.0810 C   0  0  0  0  0
   51.4770   27.0980    6.7060 N   0  0  0  0  0
   50.1500   27.6380    6.9310 C   0  0  0  0  0
   50.2370   28.6720    8.0330 C   0  0  0  0  0
   50.5790   28.3550    9.1710 O   0  0  0  0  0
   49.1800   26.5430    7.3660 C   0  0  0  0  0
   49.0230   25.5230    6.2400 C   0  0  0  0  0
   47.8430   27.1530    7.7260 C   0  0  0  0  0
   48.1550   24.3510    6.6050 C   0  0  0  0  0
   49.9350   29.9150    7.6930 N   0  0  0  0  0
   49.9860   30.9730    8.6830 C   0  0  0  0  0
   48.9220   30.7160    9.7350 C   0  0  0  0  0
   47.9020   30.0870    9.4620 O   0  0  0  0  0
   49.7500   32.3220    8.0190 C   0  0  0  0  0
   49.1610   31.1630   10.9700 N   0  0  0  0  0
   48.1230   30.9200   11.9680 C   0  0  0  0  0
   46.9140   31.7220   11.5070 C   0  0  0  0  0
   47.0680   32.7720   10.8840 O   0  0  0  0  0
   48.7320   31.4900   13.2430 C   0  0  0  0  0
   50.2080   31.2980   13.0280 C   0  0  0  0  0
   50.3780   31.7130   11.5900 C   0  0  0  0  0
   45.7190   31.2290   11.7870 N   0  0  0  0  0
   44.5230   31.9560   11.3920 C   0  0  0  0  0
   44.5810   33.3530   11.9910 C   0  0  0  0  0
   44.7090   33.5070   13.1990 O   0  0  0  0  0
   43.2690   31.2550   11.9160 C   0  0  0  0  0
   42.8030   30.0780   11.0880 C   0  0  0  0  0
   42.2130   30.5570    9.7800 C   0  0  0  0  0
   40.9600   31.2760    9.9710 N   0  0  0  0  0
   39.8110   30.6950   10.2960 C   0  0  0  0  0
   39.7590   29.3810   10.4660 N   0  0  0  0  0
   38.7160   31.4260   10.4430 N   0  0  0  0  0
   44.5200   34.3930   11.1510 N   0  0  0  0  0
   44.5610   35.7420   11.7110 C   0  0  0  0  0
   43.2270   35.9670   12.3880 C   0  0  0  0  0
   42.2120   35.4250   11.9570 O   0  0  0  0  0
   44.7110   36.6260   10.4830 C   0  0  0  0  0
   45.3650   35.7460    9.4870 C   0  0  0  0  0
   44.6740   34.4270    9.6890 C   0  0  0  0  0
   43.2220   36.7710   13.4370 N   0  0  0  0  0
   41.9880   37.0340   14.1440 C   0  0  0  0  0
   40.9280   37.6270   13.2300 C   0  0  0  0  0
   39.7430   37.3400   13.3800 O   0  0  0  0  0
   42.2480   37.9860   15.3050 C   0  0  0  0  0
   41.0210   38.2540   16.1440 C   0  0  0  0  0
   40.4160   36.9820   16.6990 C   0  0  0  0  0
   41.1680   36.1760   17.2860 O   0  0  0  0  0
   39.1890   36.7940   16.5520 O   0  0  0  0  0
   41.3430   38.4470   12.2700 N   0  0  0  0  0
   40.3710   39.0700   11.3890 C   0  0  0  0  0
   39.6830   38.0980   10.4460 C   0  0  0  0  0
   38.8180   38.4900    9.6690 O   0  0  0  0  0
   40.9970   40.2180   10.5960 C   0  0  0  0  0
   42.0900   39.7950    9.6720 C   0  0  0  0  0
   43.3740   39.5420   10.1020 N   0  0  0  0  0
   42.0950   39.6010    8.3330 C   0  0  0  0  0
   44.1250   39.2170    9.0660 C   0  0  0  0  0
   43.3720   39.2450    7.9810 N   0  0  0  0  0
   40.0740   36.8310   10.5040 N   0  0  0  0  0
   39.4290   35.8240    9.6700 C   0  0  0  0  0
   38.6000   34.9190   10.5580 C   0  0  0  0  0
   37.8960   34.0400   10.0740 O   0  0  0  0  0
   40.4310   34.9230    8.9440 C   0  0  0  0  0
   41.1040   34.0900    9.8940 O   0  0  0  0  0
   41.4340   35.7520    8.1830 C   0  0  0  0  0
   38.6920   35.1350   11.8620 N   0  0  0  0  0
   37.9690   34.3050   12.8040 C   0  0  0  0  0
   36.6030   34.8200   13.1940 C   0  0  0  0  0
   36.2630   35.9830   12.9900 O   0  0  0  0  0
   38.7980   34.1120   14.0660 C   0  0  0  0  0
   40.1230   33.4380   13.8230 C   0  0  0  0  0
   40.8590   33.2200   15.1270 C   0  0  0  0  0
   42.1800   32.5240   14.8980 C   0  0  0  0  0
   42.8640   32.2230   16.1840 N   0  3  0  0  0
   35.8250   33.9110   13.7610 N   0  0  0  0  0
   34.4890   34.2060   14.2410 C   0  0  0  0  0
   34.2780   33.1810   15.3380 C   0  0  0  0  0
   35.1850   32.4070   15.6480 O   0  0  0  0  0
   33.4580   34.0040   13.1360 C   0  0  0  0  0
   33.2680   32.6250   12.8770 O   0  0  0  0  0
   33.0920   33.1710   15.9310 N   0  0  0  0  0
   32.8130   32.2080   16.9850 C   0  0  0  0  0
   32.8480   30.8050   16.3920 C   0  0  0  0  0
   32.9280   29.8180   17.1180 O   0  0  0  0  0
   31.4260   32.4460   17.6310 C   0  0  0  0  0
   30.3130   32.2240   16.6040 C   0  0  0  0  0
   31.3620   33.8520   18.2110 C   0  0  0  0  0
   30.2480   33.2600   15.5060 C   0  0  0  0  0
   32.8080   30.7290   15.0640 N   0  0  0  0  0
   32.8280   29.4480   14.3720 C   0  0  0  0  0
   34.2260   28.8960   14.1650 C   0  0  0  0  0
   34.4010   27.7750   13.6920 O   0  0  0  0  0
   32.0910   29.5740   13.0430 C   0  0  0  0  0
   30.6420   29.8890   13.2750 C   0  0  0  0  0
   30.0850   31.0950   12.8560 C   0  0  0  0  0
   29.8420   29.0050   13.9950 C   0  0  0  0  0
   28.7680   31.4140   13.1570 C   0  0  0  0  0
   28.5340   29.3130   14.3010 C   0  0  0  0  0
   28.0020   30.5170   13.8830 C   0  0  0  0  0
   26.7070   30.8240   14.2030 O   0  0  0  0  0
   35.2270   29.6850   14.5320 N   0  0  0  0  0
   36.5980   29.2330   14.4040 C   0  0  0  0  0
   36.8950   28.3880   15.6360 C   0  0  0  0  0
   37.6210   28.8110   16.5340 O   0  0  0  0  0
   37.5610   30.4210   14.3430 C   0  0  0  0  0
   37.1120   31.3360   13.3370 O   0  0  0  0  0
   38.9620   29.9480   14.0020 C   0  0  0  0  0
   36.3050   27.1970   15.6720 N   0  0  0  0  0
   36.4800   26.2750   16.7920 C   0  0  0  0  0
   37.4670   25.1760   16.4190 C   0  0  0  0  0
   37.3960   24.6130   15.3260 O   0  0  0  0  0
   35.1460   25.6200   17.1620 C   0  0  0  0  0
   33.9410   26.5450   17.1640 C   0  0  0  0  0
   32.6660   25.7440   17.3990 C   0  0  0  0  0
   31.4610   26.5130   17.1080 N   0  0  0  0  0
   30.2270   26.0160   17.1440 C   0  0  0  0  0
   30.0300   24.7420   17.4610 N   0  0  0  0  0
   29.1900   26.7900   16.8500 N   0  0  0  0  0
   38.3770   24.8650   17.3350 N   0  0  0  0  0
   39.3680   23.8220   17.0990 C   0  0  0  0  0
   39.1960   22.6990   18.1170 C   0  0  0  0  0
   40.1430   22.4500   18.8920 O   0  0  0  0  0
   40.7810   24.4020   17.1950 C   0  0  0  0  0
   41.7560   23.4190   16.8870 O   0  0  0  0  0
   38.1090   22.0830   18.1290 O   0  0  0  0  0
   55.1216   20.8744    2.8432 H   0  0  0  0  0
   54.6975   19.9249    1.5391 H   0  0  0  0  0
   53.3863   21.5494    0.8105 H   0  0  0  0  0
   51.4292   20.5152    1.7149 H   0  0  0  0  0
   51.3734   21.9297    2.6265 H   0  0  0  0  0
   51.6036   19.6436    4.0096 H   0  0  0  0  0
   52.6079   20.9451    4.5247 H   0  0  0  0  0
   54.2724   19.1926    4.1012 H   0  0  0  0  0
   53.4167   18.5457    2.7823 H   0  0  0  0  0
   54.7022   25.4538    2.2565 H   0  0  0  0  0
   53.5158   26.5067    0.4561 H   0  0  0  0  0
   52.5287   27.0935    1.7328 H   0  0  0  0  0
   51.3373   25.6729   -0.1414 H   0  0  0  0  0
   50.9114   25.3275    1.4842 H   0  0  0  0  0
   51.6409   23.1504    0.6761 H   0  0  0  0  0
   52.8788   23.7999   -0.2822 H   0  0  0  0  0
   54.5729   27.0965    3.7404 H   0  0  0  0  0
   53.6614   26.0178    6.2610 H   0  0  0  0  0
   54.6964   28.8034    5.5836 H   0  0  0  0  0
   53.4228   28.7574    7.6736 H   0  0  0  0  0
   54.3932   27.3772    8.2431 H   0  0  0  0  0
   55.1637   28.9621    7.9873 H   0  0  0  0  0
   56.0887   26.3327    6.6742 H   0  0  0  0  0
   56.2828   27.0084    5.0381 H   0  0  0  0  0
   56.8302   27.9369    6.4556 H   0  0  0  0  0
   51.8055   26.3268    7.2871 H   0  0  0  0  0
   49.7855   28.0780    6.0028 H   0  0  0  0  0
   49.5738   26.0348    8.2462 H   0  0  0  0  0
   50.0154   25.1352    6.0101 H   0  0  0  0  0
   48.5479   26.0326    5.4018 H   0  0  0  0  0
   47.9766   27.8615    8.5435 H   0  0  0  0  0
   47.4357   27.6709    6.8576 H   0  0  0  0  0
   47.1568   26.3646    8.0353 H   0  0  0  0  0
   48.5899   23.8302    7.4581 H   0  0  0  0  0
   47.1576   24.7060    6.8643 H   0  0  0  0  0
   48.0904   23.6701    5.7563 H   0  0  0  0  0
   49.6659   30.1290    6.7327 H   0  0  0  0  0
   50.9692   30.9870    9.1532 H   0  0  0  0  0
   50.5211   32.4959    7.2685 H   0  0  0  0  0
   48.7699   32.3243    7.5421 H   0  0  0  0  0
   49.7907   33.1085    8.7726 H   0  0  0  0  0
   47.8160   29.8842   12.1130 H   0  0  0  0  0
   48.3682   30.9944   14.1431 H   0  0  0  0  0
   48.4617   32.5325   13.4109 H   0  0  0  0  0
   50.5414   30.2787   13.2231 H   0  0  0  0  0
   50.8214   31.8778   13.7177 H   0  0  0  0  0
   50.4812   32.7902   11.4597 H   0  0  0  0  0
   51.2987   31.3432   11.1387 H   0  0  0  0  0
   45.6364   30.3396   12.2796 H   0  0  0  0  0
   44.4793   31.9991   10.3037 H   0  0  0  0  0
   42.4654   31.9912   11.8975 H   0  0  0  0  0
   43.5146   30.8673   12.9047 H   0  0  0  0  0
   42.0406   29.5318   11.6434 H   0  0  0  0  0
   43.6547   29.4309   10.8784 H   0  0  0  0  0
   42.0115   29.6840    9.1593 H   0  0  0  0  0
   42.9267   31.2374    9.3154 H   0  0  0  0  0
   40.9659   32.2885    9.8474 H   0  0  0  0  0
   38.8758   28.9329   10.7100 H   0  0  0  0  0
   40.6022   28.8183   10.3528 H   0  0  0  0  0
   38.7550   32.4361   10.3065 H   0  0  0  0  0
   45.3525   35.9304   12.4363 H   0  0  0  0  0
   45.2946   37.5234   10.6883 H   0  0  0  0  0
   43.7537   37.0098   10.1303 H   0  0  0  0  0
   46.4441   35.6814    9.6269 H   0  0  0  0  0
   45.2684   36.1198    8.4677 H   0  0  0  0  0
   43.7301   34.3436    9.1503 H   0  0  0  0  0
   45.2308   33.5789    9.2906 H   0  0  0  0  0
   44.0900   37.2068   13.7485 H   0  0  0  0  0
   41.6146   36.0812   14.5194 H   0  0  0  0  0
   42.5737   38.9374   14.8844 H   0  0  0  0  0
   42.9938   37.5222   15.9507 H   0  0  0  0  0
   40.2759   38.7344   15.5099 H   0  0  0  0  0
   41.3162   38.8828   16.9840 H   0  0  0  0  0
   38.8078   37.5349   16.0752 H   0  0  0  0  0
   42.3381   38.6376   12.1527 H   0  0  0  0  0
   39.5970   39.4636   12.0479 H   0  0  0  0  0
   41.4338   40.9082   11.3178 H   0  0  0  0  0
   40.2081   40.6550    9.9838 H   0  0  0  0  0
   41.2440   39.7076    7.6603 H   0  0  0  0  0
   45.1856   38.9680    9.1001 H   0  0  0  0  0
   40.8288   36.5607   11.1346 H   0  0  0  0  0
   38.8343   36.3598    8.9302 H   0  0  0  0  0
   39.8909   34.2978    8.2330 H   0  0  0  0  0
   41.7315   33.5263    9.4357 H   0  0  0  0  0
   40.9132   36.3662    7.4485 H   0  0  0  0  0
   41.9745   36.3945    8.8781 H   0  0  0  0  0
   42.1371   35.0926    7.6741 H   0  0  0  0  0
   39.2788   35.8947   12.2068 H   0  0  0  0  0
   37.8019   33.3633   12.2811 H   0  0  0  0  0
   38.2253   33.4723   14.7375 H   0  0  0  0  0
   39.0055   35.1012   14.4740 H   0  0  0  0  0
   40.7292   34.0744   13.1783 H   0  0  0  0  0
   39.9455   32.4709   13.3525 H   0  0  0  0  0
   40.2436   32.5948   15.7739 H   0  0  0  0  0
   41.0514   34.1904   15.5847 H   0  0  0  0  0
   42.8207   33.1815   14.3104 H   0  0  0  0  0
   41.9912   31.5849   14.3779 H   0  0  0  0  0
   43.7501   31.7546   15.9949 H   0  0  0  0  0
   43.0385   33.0932   16.6867 H   0  0  0  0  0
   42.2708   31.6155   16.7492 H   0  0  0  0  0
   36.1814   32.9609   13.8648 H   0  0  0  0  0
   34.3810   35.2365   14.5793 H   0  0  0  0  0
   33.8154   34.4879   12.2270 H   0  0  0  0  0
   32.5098   34.4373   13.4544 H   0  0  0  0  0
   32.6167   32.5183   12.1798 H   0  0  0  0  0
   32.3749   33.8389   15.6479 H   0  0  0  0  0
   33.5706   32.3250   17.7599 H   0  0  0  0  0
   31.2812   31.7306   18.4406 H   0  0  0  0  0
   29.3682   32.2766   17.1450 H   0  0  0  0  0
   30.5121   31.2660   16.1237 H   0  0  0  0  0
   32.1376   33.9669   18.9682 H   0  0  0  0  0
   31.5192   34.5796   17.4148 H   0  0  0  0  0
   30.3836   34.0127   18.6638 H   0  0  0  0  0
   30.0794   34.2432   15.9454 H   0  0  0  0  0
   31.1886   33.2633   14.9552 H   0  0  0  0  0
   29.4293   33.0183   14.8282 H   0  0  0  0  0
   32.7622   31.5891   14.5176 H   0  0  0  0  0
   32.3179   28.7285   15.0124 H   0  0  0  0  0
   32.1668   28.6294   12.5045 H   0  0  0  0  0
   32.5407   30.3799   12.4631 H   0  0  0  0  0
   30.6913   31.7975   12.2842 H   0  0  0  0  0
   30.2580   28.0522   14.3224 H   0  0  0  0  0
   28.3411   32.3605   12.8255 H   0  0  0  0  0
   27.9235   28.6111   14.8691 H   0  0  0  0  0
   26.3221   30.1008   14.7034 H   0  0  0  0  0
   35.0311   30.6136   14.9058 H   0  0  0  0  0
   36.7286   28.6614   13.4851 H   0  0  0  0  0
   37.5824   30.9130   15.3154 H   0  0  0  0  0
   37.7130   32.0834   13.2947 H   0  0  0  0  0
   39.3048   29.2507   14.7665 H   0  0  0  0  0
   38.9499   29.4494   13.0328 H   0  0  0  0  0
   39.6340   30.8053   13.9627 H   0  0  0  0  0
   35.7104   26.9176   14.8918 H   0  0  0  0  0
   36.8579   26.8459   17.6402 H   0  0  0  0  0
   35.2545   25.2497   18.1814 H   0  0  0  0  0
   34.9527   24.8604   16.4045 H   0  0  0  0  0
   33.8747   27.0480   16.1993 H   0  0  0  0  0
   34.0547   27.2786   17.9621 H   0  0  0  0  0
   32.6371   25.4591   18.4507 H   0  0  0  0  0
   32.6833   24.8814   16.7328 H   0  0  0  0  0
   31.5715   27.4964   16.8607 H   0  0  0  0  0
   29.0839   24.3611   17.4780 H   0  0  0  0  0
   30.8247   24.1441   17.6876 H   0  0  0  0  0
   29.3384   27.7667   16.5962 H   0  0  0  0  0
   38.3827   25.3668   18.2230 H   0  0  0  0  0
   39.2210   23.4195   16.0968 H   0  0  0  0  0
   40.9469   24.7518   18.2139 H   0  0  0  0  0
   40.8722   25.2207   16.4812 H   0  0  0  0  0
   42.6318   23.8065   16.9541 H   0  0  0  0  0
   37.5320   22.4411   17.4504 H   0  0  0  0  0
  1  2  1  0  0  0
  1  7  1  0  0  0
  2  3  1  0  0  0
  2  5  1  0  0  0
  3  4  2  0  0  0
  3  8  1  0  0  0
  5  6  1  0  0  0
  6  7  1  0  0  0
  8  9  1  0  0  0
  8 14  1  0  0  0
  9 10  1  0  0  0
  9 12  1  0  0  0
 10 11  2  0  0  0
 10 15  1  0  0  0
 12 13  1  0  0  0
 13 14  1  0  0  0
 15 16  1  0  0  0
 16 17  1  0  0  0
 16 19  1  0  0  0
 17 18  2  0  0  0
 17 22  1  0  0  0
 19 20  1  0  0  0
 19 21  1  0  0  0
 22 23  1  0  0  0
 23 24  1  0  0  0
 23 26  1  0  0  0
 24 25  2  0  0  0
 24 30  1  0  0  0
 26 27  1  0  0  0
 26 28  1  0  0  0
 27 29  1  0  0  0
 30 31  1  0  0  0
 31 32  1  0  0  0
 31 34  1  0  0  0
 32 33  2  0  0  0
 32 35  1  0  0  0
 35 36  1  0  0  0
 35 41  1  0  0  0
 36 37  1  0  0  0
 36 39  1  0  0  0
 37 38  2  0  0  0
 37 42  1  0  0  0
 39 40  1  0  0  0
 40 41  1  0  0  0
 42 43  1  0  0  0
 43 44  1  0  0  0
 43 46  1  0  0  0
 44 45  2  0  0  0
 44 53  1  0  0  0
 46 47  1  0  0  0
 47 48  1  0  0  0
 48 49  1  0  0  0
 49 50  1  0  0  0
 50 51  1  0  0  0
 50 52  2  0  0  0
 53 54  1  0  0  0
 53 59  1  0  0  0
 54 55  1  0  0  0
 54 57  1  0  0  0
 55 56  2  0  0  0
 55 60  1  0  0  0
 57 58  1  0  0  0
 58 59  1  0  0  0
 60 61  1  0  0  0
 61 62  1  0  0  0
 61 64  1  0  0  0
 62 63  2  0  0  0
 62 69  1  0  0  0
 64 65  1  0  0  0
 65 66  1  0  0  0
 66 67  2  0  0  0
 66 68  1  0  0  0
 69 70  1  0  0  0
 70 71  1  0  0  0
 70 73  1  0  0  0
 71 72  2  0  0  0
 71 79  1  0  0  0
 73 74  1  0  0  0
 74 75  4  0  0  0
 74 76  4  0  0  0
 75 77  4  0  0  0
 76 78  4  0  0  0
 77 78  4  0  0  0
 79 80  1  0  0  0
 80 81  1  0  0  0
 80 83  1  0  0  0
 81 82  2  0  0  0
 81 86  1  0  0  0
 83 84  1  0  0  0
 83 85  1  0  0  0
 86 87  1  0  0  0
 87 88  1  0  0  0
 87 90  1  0  0  0
 88 89  2  0  0  0
 88 95  1  0  0  0
 90 91  1  0  0  0
 91 92  1  0  0  0
 92 93  1  0  0  0
 93 94  1  0  0  0
 95 96  1  0  0  0
 96 97  1  0  0  0
 96 99  1  0  0  0
 97 98  2  0  0  0
 97101  1  0  0  0
 99100  1  0  0  0
101102  1  0  0  0
102103  1  0  0  0
102105  1  0  0  0
103104  2  0  0  0
103109  1  0  0  0
105106  1  0  0  0
105107  1  0  0  0
106108  1  0  0  0
109110  1  0  0  0
110111  1  0  0  0
110113  1  0  0  0
111112  2  0  0  0
111121  1  0  0  0
113114  1  0  0  0
114115  4  0  0  0
114116  4  0  0  0
115117  4  0  0  0
116118  4  0  0  0
117119  4  0  0  0
118119  4  0  0  0
119120  1  0  0  0
121122  1  0  0  0
122123  1  0  0  0
122125  1  0  0  0
123124  2  0  0  0
123128  1  0  0  0
125126  1  0  0  0
125127  1  0  0  0
128129  1  0  0  0
129130  1  0  0  0
129132  1  0  0  0
130131  2  0  0  0
130139  1  0  0  0
132133  1  0  0  0
133134  1  0  0  0
134135  1  0  0  0
135136  1  0  0  0
136137  1  0  0  0
136138  2  0  0  0
139140  1  0  0  0
140141  1  0  0  0
140143  1  0  0  0
141142  2  0  0  0
141145  1  0  0  0
143144  1  0  0  0
  1146  1  0  0  0
  1147  1  0  0  0
  2148  1  0  0  0
  5149  1  0  0  0
  5150  1  0  0  0
  6151  1  0  0  0
  6152  1  0  0  0
  7153  1  0  0  0
  7154  1  0  0  0
  9155  1  0  0  0
 12156  1  0  0  0
 12157  1  0  0  0
 13158  1  0  0  0
 13159  1  0  0  0
 14160  1  0  0  0
 14161  1  0  0  0
 15162  1  0  0  0
 16163  1  0  0  0
 19164  1  0  0  0
 20165  1  0  0  0
 20166  1  0  0  0
 20167  1  0  0  0
 21168  1  0  0  0
 21169  1  0  0  0
 21170  1  0  0  0
 22171  1  0  0  0
 23172  1  0  0  0
 26173  1  0  0  0
 27174  1  0  0  0
 27175  1  0  0  0
 28176  1  0  0  0
 28177  1  0  0  0
 28178  1  0  0  0
 29179  1  0  0  0
 29180  1  0  0  0
 29181  1  0  0  0
 30182  1  0  0  0
 31183  1  0  0  0
 34184  1  0  0  0
 34185  1  0  0  0
 34186  1  0  0  0
 36187  1  0  0  0
 39188  1  0  0  0
 39189  1  0  0  0
 40190  1  0  0  0
 40191  1  0  0  0
 41192  1  0  0  0
 41193  1  0  0  0
 42194  1  0  0  0
 43195  1  0  0  0
 46196  1  0  0  0
 46197  1  0  0  0
 47198  1  0  0  0
 47199  1  0  0  0
 48200  1  0  0  0
 48201  1  0  0  0
 49202  1  0  0  0
 51203  1  0  0  0
 51204  1  0  0  0
 52205  1  0  0  0
 54206  1  0  0  0
 57207  1  0  0  0
 57208  1  0  0  0
 58209  1  0  0  0
 58210  1  0  0  0
 59211  1  0  0  0
 59212  1  0  0  0
 60213  1  0  0  0
 61214  1  0  0  0
 64215  1  0  0  0
 64216  1  0  0  0
 65217  1  0  0  0
 65218  1  0  0  0
 68219  1  0  0  0
 69220  1  0  0  0
 70221  1  0  0  0
 73222  1  0  0  0
 73223  1  0  0  0
 76224  1  0  0  0
 77225  1  0  0  0
 79226  1  0  0  0
 80227  1  0  0  0
 83228  1  0  0  0
 84229  1  0  0  0
 85230  1  0  0  0
 85231  1  0  0  0
 85232  1  0  0  0
 86233  1  0  0  0
 87234  1  0  0  0
 90235  1  0  0  0
 90236  1  0  0  0
 91237  1  0  0  0
 91238  1  0  0  0
 92239  1  0  0  0
 92240  1  0  0  0
 93241  1  0  0  0
 93242  1  0  0  0
 94243  1  0  0  0
 94244  1  0  0  0
 94245  1  0  0  0
 95246  1  0  0  0
 96247  1  0  0  0
 99248  1  0  0  0
 99249  1  0  0  0
100250  1  0  0  0
101251  1  0  0  0
102252  1  0  0  0
105253  1  0  0  0
106254  1  0  0  0
106255  1  0  0  0
107256  1  0  0  0
107257  1  0  0  0
107258  1  0  0  0
108259  1  0  0  0
108260  1  0  0  0
108261  1  0  0  0
109262  1  0  0  0
110263  1  0  0  0
113264  1  0  0  0
113265  1  0  0  0
115266  1  0  0  0
116267  1  0  0  0
117268  1  0  0  0
118269  1  0  0  0
120270  1  0  0  0
121271  1  0  0  0
122272  1  0  0  0
125273  1  0  0  0
126274  1  0  0  0
127275  1  0  0  0
127276  1  0  0  0
127277  1  0  0  0
128278  1  0  0  0
129279  1  0  0  0
132280  1  0  0  0
132281  1  0  0  0
133282  1  0  0  0
133283  1  0  0  0
134284  1  0  0  0
134285  1  0  0  0
135286  1  0  0  0
137287  1  0  0  0
137288  1  0  0  0
138289  1  0  0  0
139290  1  0  0  0
140291  1  0  0  0
143292  1  0  0  0
143293  1  0  0  0
144294  1  0  0  0
145295  1  0  0  0
M  END
$$$$
