3td4_ligand
  -I-interpret- 

 29 28  0  0  0  0  0  0  0  0999 V2000
   22.5490    1.0090   30.0020 C   0  0  0  0  0
   21.4150    1.9200   30.3680 C   0  0  0  0  0
   20.7920    2.5830   29.0850 C   0  0  0  0  0
   20.4200    1.6020   28.0020 C   0  0  0  0  0
   19.0930    2.0760   27.3030 C   0  0  0  0  0
   19.4270    3.0420   26.1780 C   0  0  0  0  0
   18.1670    3.8350   25.7830 C   0  0  0  0  0
   23.5700    1.5790   29.5070 O   0  0  0  0  0
   22.4150   -0.2280   30.1640 O   0  0  0  0  0
   17.9270    3.8710   24.5670 O   0  0  0  0  0
   17.4070    4.4110   26.5810 O   0  0  0  0  0
   22.0200    2.9840   31.1580 N   0  3  0  0  0
   20.0250    2.2620   25.0780 N   0  3  0  0  0
   20.6322    1.3701   30.8905 H   0  0  0  0  0
   21.5465    3.2508   28.6691 H   0  0  0  0  0
   19.8747    3.0838   29.3946 H   0  0  0  0  0
   20.2688    0.6154   28.4401 H   0  0  0  0  0
   21.2218    1.5510   27.2654 H   0  0  0  0  0
   18.4573    2.5763   28.0335 H   0  0  0  0  0
   18.5696    1.2114   26.8948 H   0  0  0  0  0
   20.1575    3.7922   26.4807 H   0  0  0  0  0
   23.4283    2.5283   29.4898 H   0  0  0  0  0
   17.7316    4.2878   27.4760 H   0  0  0  0  0
   22.4349    2.5863   32.0007 H   0  0  0  0  0
   22.7434    3.4458   30.6068 H   0  0  0  0  0
   21.3038    3.6623   31.4177 H   0  0  0  0  0
   20.8497    1.7695   25.4212 H   0  0  0  0  0
   19.3435    1.5865   24.7322 H   0  0  0  0  0
   20.2939    2.8926   24.3227 H   0  0  0  0  0
  1  2  1  0  0  0
  1  8  1  0  0  0
  1  9  2  0  0  0
  2  3  1  0  0  0
  2 12  1  0  0  0
  3  4  1  0  0  0
  4  5  1  0  0  0
  5  6  1  0  0  0
  6  7  1  0  0  0
  6 13  1  0  0  0
  7 10  2  0  0  0
  7 11  1  0  0  0
  2 14  1  0  0  0
  3 15  1  0  0  0
  3 16  1  0  0  0
  4 17  1  0  0  0
  4 18  1  0  0  0
  5 19  1  0  0  0
  5 20  1  0  0  0
  6 21  1  0  0  0
  8 22  1  0  0  0
 11 23  1  0  0  0
 12 24  1  0  0  0
 12 25  1  0  0  0
 12 26  1  0  0  0
 13 27  1  0  0  0
 13 28  1  0  0  0
 13 29  1  0  0  0
M  END
$$$$
