### 
### Created by X-TOOL on Mon Sep 10 21:13:13 2018
### 

@<TRIPOS>MOLECULE
4h3q_ligand
  194   195     1     0     0
SMALL
GAST_HUCK


@<TRIPOS>ATOM
      1 N         -18.9070   19.8850   27.7160 N.4       1 ARG         0.2377
      2 CA        -17.7090   19.9440   28.5510 C.3       1 ARG         0.0621
      3 C         -16.8970   18.7040   28.1780 C.2       1 ARG         0.2264
      4 O         -15.7850   18.4480   28.6570 O.2       1 ARG        -0.3907
      5 CB        -18.1310   19.9490   30.0220 C.3       1 ARG        -0.0040
      6 N         -17.5190   17.9780   27.2610 N.am      1 ARG        -0.2610
      7 CA        -17.0630   16.7600   26.5860 C.3       1 ARG         0.1312
      8 C         -15.5910   16.2530   26.4910 C.2       1 ARG         0.2039
      9 O         -15.3480   15.1310   26.9240 O.2       1 ARG        -0.3944
     10 CB        -17.6480   16.7720   25.1630 C.3       1 ARG        -0.0092
     11 CG        -17.4760   15.4440   24.4560 C.3       1 ARG        -0.0156
     12 CD        -16.6810   15.6190   23.1800 C.3       1 ARG         0.0627
     13 NE        -17.5390   15.4230   22.0200 N.pl3     1 ARG        -0.2723
     14 CZ        -17.6570   14.2650   21.3900 C.cat     1 ARG         0.2882
     15 NH1       -18.4700   14.1470   20.3480 N.pl3     1 ARG        -0.2849
     16 NH2       -16.9440   13.2240   21.8000 N.pl3     1 ARG        -0.2849
     17 N         -14.6510   17.0100   25.9000 N.am      1 LYS        -0.2637
     18 CA        -13.2930   16.4920   25.6060 C.3       1 LYS         0.1312
     19 C         -12.2910   16.7540   26.7580 C.2       1 LYS         0.2064
     20 O         -12.0710   17.8900   27.1460 O.2       1 LYS        -0.3942
     21 CB        -12.7530   17.0680   24.2870 C.3       1 LYS        -0.0122
     22 CG        -11.9200   16.0900   23.4010 C.3       1 LYS        -0.0440
     23 CD        -12.5480   15.8410   22.0220 C.3       1 LYS        -0.0124
     24 CE        -11.9520   16.7500   20.9560 C.3       1 LYS        -0.0354
     25 NZ        -11.0950   16.0140   19.9870 N.4       1 LYS         0.2185
     26 N         -11.6310   15.6990   27.2900 N.am      1 PRO        -0.2498
     27 CA        -10.7310   15.9210   28.4390 C.3       1 PRO         0.1338
     28 C          -9.3030   16.2670   28.0380 C.2       1 PRO         0.2041
     29 O          -8.6540   15.4960   27.3280 O.2       1 PRO        -0.3944
     30 CB        -10.7300   14.5610   29.1300 C.3       1 PRO        -0.0104
     31 CG        -10.8370   13.6120   27.9830 C.3       1 PRO        -0.0281
     32 CD        -11.7310   14.2650   26.9580 C.3       1 PRO         0.0369
     33 N          -8.8160   17.4210   28.4810 N.am      1 VAL        -0.2635
     34 CA         -7.4010   17.7390   28.3000 C.3       1 VAL         0.1332
     35 C          -6.7100   18.0270   29.6570 C.2       1 VAL         0.2041
     36 O          -7.2270   18.8470   30.4210 O.2       1 VAL        -0.3944
     37 CB         -7.1740   18.8220   27.1680 C.3       1 VAL        -0.0063
     38 CG1        -8.3820   18.8720   26.2170 C.3       1 VAL        -0.0584
     39 CG2        -6.8590   20.2090   27.7260 C.3       1 VAL        -0.0584
     40 N          -5.6030   17.3610   30.0370 N.am      1 LEU        -0.2637
     41 CA         -4.7250   16.3910   29.3190 C.3       1 LEU         0.1314
     42 C          -3.5710   17.0190   28.5350 C.2       1 LEU         0.2064
     43 O          -3.7750   17.5660   27.4550 O.2       1 LEU        -0.3942
     44 CB         -5.4460   15.3070   28.4870 C.3       1 LEU        -0.0101
     45 CG         -5.3420   13.8310   28.8920 C.3       1 LEU        -0.0425
     46 CD1        -3.8930   13.4310   29.0310 C.3       1 LEU        -0.0625
     47 CD2        -6.1080   13.5450   30.1690 C.3       1 LEU        -0.0625
     48 N          -2.3500   16.9330   29.0920 N.am      1 PRO        -0.2498
     49 CA         -1.1230   17.4260   28.4570 C.3       1 PRO         0.1338
     50 C          -0.8420   16.7760   27.1050 C.2       1 PRO         0.2041
     51 O          -1.1730   15.6060   26.9040 O.2       1 PRO        -0.3944
     52 CB         -0.0300   17.0440   29.4630 C.3       1 PRO        -0.0104
     53 CG         -0.6560   16.0380   30.3760 C.3       1 PRO        -0.0281
     54 CD         -2.0890   16.4270   30.4490 C.3       1 PRO         0.0369
     55 N          -0.2240   17.5350   26.2010 N.am      1 ALA        -0.2640
     56 CA          0.0880   17.0570   24.8540 C.3       1 ALA         0.1282
     57 C           1.1920   16.0010   24.8530 C.2       1 ALA         0.2036
     58 O           2.1480   16.0960   25.6170 O.2       1 ALA        -0.3944
     59 CB          0.4800   18.2270   23.9630 C.3       1 ALA        -0.0244
     60 N           1.0550   14.9950   23.9960 N.am      1 LEU        -0.2637
     61 CA          2.0940   13.9820   23.8270 C.3       1 LEU         0.1312
     62 C           3.1010   14.4840   22.8080 C.2       1 LEU         0.2040
     63 O           2.7800   15.3570   22.0030 O.2       1 LEU        -0.3944
     64 CB          1.4860   12.6700   23.3340 C.3       1 LEU        -0.0101
     65 CG          0.5660   11.9100   24.2850 C.3       1 LEU        -0.0425
     66 CD1        -0.4840   11.1250   23.5180 C.3       1 LEU        -0.0625
     67 CD2         1.3830   11.0020   25.1710 C.3       1 LEU        -0.0625
     68 N           4.3180   13.9460   22.8430 N.am      1 THR        -0.2613
     69 CA          5.3160   14.3000   21.8370 C.3       1 THR         0.1565
     70 C           5.5560   13.1160   20.9340 C.2       1 THR         0.2065
     71 O           5.8690   12.0260   21.4040 O.2       1 THR        -0.3943
     72 CB          6.6620   14.7340   22.4440 C.3       1 THR         0.0924
     73 OG1         6.4610   15.8580   23.3100 O.3       1 THR        -0.3874
     74 CG2         7.6320   15.1370   21.3350 C.3       1 THR        -0.0346
     75 N           5.4170   13.3380   19.6330 N.am      1 ILE        -0.2634
     76 CA          5.5190   12.2560   18.6650 C.3       1 ILE         0.1335
     77 C           6.7160   12.3920   17.7360 C.2       1 ILE         0.2036
     78 O           6.8200   13.3550   16.9770 O.2       1 ILE        -0.3944
     79 CB          4.2520   12.1670   17.8070 C.3       1 ILE        -0.0037
     80 CG1         3.0260   12.0190   18.7060 C.3       1 ILE        -0.0491
     81 CG2         4.3600   11.0070   16.8370 C.3       1 ILE        -0.0582
     82 CD1         1.7250   12.2620   18.0010 C.3       1 ILE        -0.0648
     83 N           7.6030   11.4060   17.8050 N.am      1 ASN        -0.2697
     84 CA          8.7740   11.3240   16.9460 C.3       1 ASN         0.0916
     85 C           8.4720   11.5750   15.4720 C.2       1 ASN         0.0598
     86 O           8.5899   12.7254   14.9717 O.co2     1 ASN        -0.5666
     87 CB          9.4240    9.9510   17.1080 C.3       1 ASN        -0.0300
     88 O           8.0989   10.6171   14.7435 O.co2     1 ASN        -0.5666
     89 H1        -19.4931   20.6811   27.9127 H         1 ARG         0.2015
     90 H2        -19.4141   19.0370   27.9154 H         1 ARG         0.2015
     91 H3        -18.6401   19.8963   26.7441 H         1 ARG         0.2015
     92 H4        -17.1280   20.8530   28.3362 H         1 ARG         0.1095
     93 H5        -17.2360   19.9933   30.6600 H         1 ARG         0.0310
     94 H6        -18.6950   19.0313   30.2448 H         1 ARG         0.0310
     95 H7        -18.7652   20.8260   30.2186 H         1 ARG         0.0310
     96 H8        -18.4245   18.3065   26.9924 H         1 ARG         0.1884
     97 H9        -17.5726   15.9570   27.1386 H         1 ARG         0.0800
     98 H10       -17.1383   17.5519   24.5782 H         1 ARG         0.0313
     99 H11       -18.7218   17.0027   25.2246 H         1 ARG         0.0313
    100 H12       -18.4668   15.0337   24.2112 H         1 ARG         0.0301
    101 H13       -16.9444   14.7469   25.1204 H         1 ARG         0.0301
    102 H14       -15.8650   14.8817   23.1566 H         1 ARG         0.0689
    103 H15       -16.2587   16.6343   23.1517 H         1 ARG         0.0689
    104 H16       -18.0817   16.2263   21.6720 H         1 ARG         0.2642
    105 H17       -18.5569   13.2428   19.8624 H         1 ARG         0.2615
    106 H18       -19.0141   14.9596   20.0247 H         1 ARG         0.2615
    107 H19       -16.3136   13.3181   22.6091 H         1 ARG         0.2615
    108 H20       -17.0209   12.3217   21.3092 H         1 ARG         0.2615
    109 H21       -14.8743   17.9523   25.6506 H         1 LYS         0.1883
    110 H22       -13.3785   15.4020   25.4853 H         1 LYS         0.0800
    111 H23       -12.1120   17.9274   24.5330 H         1 LYS         0.0312
    112 H24       -13.6130   17.4102   23.6926 H         1 LYS         0.0312
    113 H25       -11.8364   15.1271   23.9263 H         1 LYS         0.0269
    114 H26       -10.9167   16.5172   23.2565 H         1 LYS         0.0269
    115 H27       -13.6302   16.0280   22.0847 H         1 LYS         0.0317
    116 H28       -12.3729   14.7936   21.7350 H         1 LYS         0.0317
    117 H29       -11.3420   17.5200   21.4510 H         1 LYS         0.0813
    118 H30       -12.7732   17.2312   20.4046 H         1 LYS         0.0813
    119 H31       -10.7272   16.6596   19.3058 H         1 LYS         0.1994
    120 H32       -11.6444   15.3097   19.5200 H         1 LYS         0.1994
    121 H33       -10.3329   15.5743   20.4789 H         1 LYS         0.1994
    122 H34       -11.1281   16.7093   29.0954 H         1 PRO         0.0802
    123 H35       -11.5890   14.4605   29.8097 H         1 PRO         0.0313
    124 H36        -9.7975   14.4016   29.6913 H         1 PRO         0.0313
    125 H37       -11.2770   12.6612   28.3181 H         1 PRO         0.0287
    126 H38        -9.8422   13.4243   27.5529 H         1 PRO         0.0287
    127 H39       -11.3695   14.0700   25.9376 H         1 PRO         0.0524
    128 H40       -12.7673   13.9089   27.0542 H         1 PRO         0.0524
    129 H41        -9.4192   18.0737   28.9395 H         1 VAL         0.1883
    130 H42        -6.9280   16.8212   27.9208 H         1 VAL         0.0802
    131 H43        -6.3006   18.5021   26.5808 H         1 VAL         0.0343
    132 H44        -8.2050   19.6292   25.4390 H         1 VAL         0.0234
    133 H45        -9.2859   19.1352   26.7859 H         1 VAL         0.0234
    134 H46        -8.5189   17.8874   25.7460 H         1 VAL         0.0234
    135 H47        -5.9931   20.1445   28.4013 H         1 VAL         0.0234
    136 H48        -7.7298   20.5872   28.2815 H         1 VAL         0.0234
    137 H49        -6.6272   20.8938   26.8970 H         1 VAL         0.0234
    138 H50        -5.3156   17.5521   30.9756 H         1 LEU         0.1883
    139 H51        -4.2367   15.8322   30.1309 H         1 LEU         0.0800
    140 H52        -5.0558   15.3826   27.4613 H         1 LEU         0.0315
    141 H53        -6.5159   15.5626   28.4921 H         1 LEU         0.0315
    142 H54        -5.7885   13.2262   28.0890 H         1 LEU         0.0298
    143 H55        -3.8313   12.3718   29.3214 H         1 LEU         0.0232
    144 H56        -3.4138   14.0512   29.8028 H         1 LEU         0.0232
    145 H57        -3.3781   13.5784   28.0702 H         1 LEU         0.0232
    146 H58        -7.1586   13.8449   30.0413 H         1 LEU         0.0232
    147 H59        -5.6627   14.1134   30.9988 H         1 LEU         0.0232
    148 H60        -6.0585   12.4692   30.3932 H         1 LEU         0.0232
    149 H61        -1.1729   18.5170   28.3257 H         1 PRO         0.0802
    150 H62         0.2947   17.9282   30.0312 H         1 PRO         0.0313
    151 H63         0.8340   16.6048   28.9427 H         1 PRO         0.0313
    152 H64        -0.1927   16.0789   31.3728 H         1 PRO         0.0287
    153 H65        -0.5510   15.0234   29.9642 H         1 PRO         0.0287
    154 H66        -2.7252   15.5597   30.6793 H         1 PRO         0.0524
    155 H67        -2.2503   17.2109   31.2036 H         1 PRO         0.0524
    156 H68         0.0365   18.4670   26.4529 H         1 ALA         0.1883
    157 H69        -0.8208   16.5959   24.4398 H         1 ALA         0.0797
    158 H70         0.7124   17.8572   22.9534 H         1 ALA         0.0277
    159 H71         1.3650   18.7273   24.3830 H         1 ALA         0.0277
    160 H72        -0.3541   18.9420   23.9086 H         1 ALA         0.0277
    161 H73         0.2184   14.9295   23.4522 H         1 LEU         0.1883
    162 H74         2.5970   13.8099   24.7900 H         1 LEU         0.0800
    163 H75         2.3187   11.9988   23.0769 H         1 LEU         0.0315
    164 H76         0.9053   12.8976   22.4279 H         1 LEU         0.0315
    165 H77         0.0476   12.6409   24.9229 H         1 LEU         0.0298
    166 H78        -1.1313   10.5885   24.2273 H         1 LEU         0.0232
    167 H79         0.0115   10.4013   22.8542 H         1 LEU         0.0232
    168 H80        -1.0927   11.8167   22.9171 H         1 LEU         0.0232
    169 H81         2.1334   11.5965   25.7128 H         1 LEU         0.0232
    170 H82         1.8903   10.2463   24.5533 H         1 LEU         0.0232
    171 H83         0.7210   10.5014   25.8929 H         1 LEU         0.0232
    172 H84         4.5510   13.2938   23.5643 H         1 THR         0.1884
    173 H85         4.9205   15.1347   21.2396 H         1 THR         0.0826
    174 H86         7.0881   13.8981   23.0182 H         1 THR         0.0639
    175 H87         7.2940   16.1224   23.6823 H         1 THR         0.2101
    176 H88         8.5898   15.4451   21.7797 H         1 THR         0.0257
    177 H89         7.2071   15.9749   20.7628 H         1 THR         0.0257
    178 H90         7.7977   14.2813   20.6640 H         1 THR         0.0257
    179 H91         5.2385   14.2678   19.3112 H         1 ILE         0.1883
    180 H92         5.6278   11.3167   19.2270 H         1 ILE         0.0803
    181 H93         4.1511   13.0971   17.2285 H         1 ILE         0.0345
    182 H94         3.1127   12.7402   19.5320 H         1 ILE         0.0267
    183 H95         3.0148   10.9966   19.1116 H         1 ILE         0.0267
    184 H96         5.2497   11.1400   16.2040 H         1 ILE         0.0235
    185 H97         3.4612   10.9736   16.2037 H         1 ILE         0.0235
    186 H98         4.4475   10.0657   17.3993 H         1 ILE         0.0235
    187 H99         0.8943   12.1374   18.7112 H         1 ILE         0.0230
    188 H100        1.6142   11.5416   17.1771 H         1 ILE         0.0230
    189 H101        1.7121   13.2853   17.5976 H         1 ILE         0.0230
    190 H102        7.4586   10.6837   18.4814 H         1 ASN         0.1875
    191 H103        9.4884   12.0920   17.2773 H         1 ASN         0.0723
    192 H104       10.3101    9.8860   16.4594 H         1 ASN         0.0270
    193 H105        8.7043    9.1688   16.8249 H         1 ASN         0.0270
    194 H106        9.7258    9.8095   18.1563 H         1 ASN         0.0270
@<TRIPOS>BOND
     1    1    2 1  
     2    2    3 1  
     3    2    5 1  
     4    3    4 2  
     5    3    6 am 
     6    6    7 1  
     7    7    8 1  
     8    7   10 1  
     9    8    9 2  
    10    8   17 am 
    11   10   11 1  
    12   11   12 1  
    13   12   13 1  
    14   13   14 ar 
    15   14   15 ar 
    16   14   16 ar 
    17   17   18 1  
    18   18   19 1  
    19   18   21 1  
    20   19   20 2  
    21   19   26 am 
    22   21   22 1  
    23   22   23 1  
    24   23   24 1  
    25   24   25 1  
    26   26   27 1  
    27   26   32 1  
    28   27   28 1  
    29   27   30 1  
    30   28   29 2  
    31   28   33 am 
    32   30   31 1  
    33   31   32 1  
    34   33   34 1  
    35   34   35 1  
    36   34   37 1  
    37   35   36 2  
    38   35   40 am 
    39   37   38 1  
    40   37   39 1  
    41   40   41 1  
    42   41   42 1  
    43   41   44 1  
    44   42   43 2  
    45   42   48 am 
    46   44   45 1  
    47   45   46 1  
    48   45   47 1  
    49   48   49 1  
    50   48   54 1  
    51   49   50 1  
    52   49   52 1  
    53   50   51 2  
    54   50   55 am 
    55   52   53 1  
    56   53   54 1  
    57   55   56 1  
    58   56   57 1  
    59   56   59 1  
    60   57   58 2  
    61   57   60 am 
    62   60   61 1  
    63   61   62 1  
    64   61   64 1  
    65   62   63 2  
    66   62   68 am 
    67   64   65 1  
    68   65   66 1  
    69   65   67 1  
    70   68   69 1  
    71   69   70 1  
    72   69   72 1  
    73   70   71 2  
    74   70   75 am 
    75   72   73 1  
    76   72   74 1  
    77   75   76 1  
    78   76   77 1  
    79   76   79 1  
    80   77   78 2  
    81   77   83 am 
    82   79   80 1  
    83   79   81 1  
    84   80   82 1  
    85   83   84 1  
    86   84   85 1  
    87   84   87 1  
    88   85   86 ar 
    89   85   88 ar 
    90    1   89 1  
    91    1   90 1  
    92    1   91 1  
    93    2   92 1  
    94    5   93 1  
    95    5   94 1  
    96    5   95 1  
    97    6   96 1  
    98    7   97 1  
    99   10   98 1  
   100   10   99 1  
   101   11  100 1  
   102   11  101 1  
   103   12  102 1  
   104   12  103 1  
   105   13  104 1  
   106   15  105 1  
   107   15  106 1  
   108   16  107 1  
   109   16  108 1  
   110   17  109 1  
   111   18  110 1  
   112   21  111 1  
   113   21  112 1  
   114   22  113 1  
   115   22  114 1  
   116   23  115 1  
   117   23  116 1  
   118   24  117 1  
   119   24  118 1  
   120   25  119 1  
   121   25  120 1  
   122   25  121 1  
   123   27  122 1  
   124   30  123 1  
   125   30  124 1  
   126   31  125 1  
   127   31  126 1  
   128   32  127 1  
   129   32  128 1  
   130   33  129 1  
   131   34  130 1  
   132   37  131 1  
   133   38  132 1  
   134   38  133 1  
   135   38  134 1  
   136   39  135 1  
   137   39  136 1  
   138   39  137 1  
   139   40  138 1  
   140   41  139 1  
   141   44  140 1  
   142   44  141 1  
   143   45  142 1  
   144   46  143 1  
   145   46  144 1  
   146   46  145 1  
   147   47  146 1  
   148   47  147 1  
   149   47  148 1  
   150   49  149 1  
   151   52  150 1  
   152   52  151 1  
   153   53  152 1  
   154   53  153 1  
   155   54  154 1  
   156   54  155 1  
   157   55  156 1  
   158   56  157 1  
   159   59  158 1  
   160   59  159 1  
   161   59  160 1  
   162   60  161 1  
   163   61  162 1  
   164   64  163 1  
   165   64  164 1  
   166   65  165 1  
   167   66  166 1  
   168   66  167 1  
   169   66  168 1  
   170   67  169 1  
   171   67  170 1  
   172   67  171 1  
   173   68  172 1  
   174   69  173 1  
   175   72  174 1  
   176   73  175 1  
   177   74  176 1  
   178   74  177 1  
   179   74  178 1  
   180   75  179 1  
   181   76  180 1  
   182   79  181 1  
   183   80  182 1  
   184   80  183 1  
   185   81  184 1  
   186   81  185 1  
   187   81  186 1  
   188   82  187 1  
   189   82  188 1  
   190   82  189 1  
   191   83  190 1  
   192   84  191 1  
   193   87  192 1  
   194   87  193 1  
   195   87  194 1  
@<TRIPOS>SUBSTRUCTURE
     1 ARG         1

