4h3q_ligand
  -I-interpret- 

194195  0  0  0  0  0  0  0  0999 V2000
  -18.9070   19.8850   27.7160 N   0  3  0  0  0
  -17.7090   19.9440   28.5510 C   0  0  0  0  0
  -16.8970   18.7040   28.1780 C   0  0  0  0  0
  -15.7850   18.4480   28.6570 O   0  0  0  0  0
  -18.1310   19.9490   30.0220 C   0  0  0  0  0
  -17.5190   17.9780   27.2610 N   0  0  0  0  0
  -17.0630   16.7600   26.5860 C   0  0  0  0  0
  -15.5910   16.2530   26.4910 C   0  0  0  0  0
  -15.3480   15.1310   26.9240 O   0  0  0  0  0
  -17.6480   16.7720   25.1630 C   0  0  0  0  0
  -17.4760   15.4440   24.4560 C   0  0  0  0  0
  -16.6810   15.6190   23.1800 C   0  0  0  0  0
  -17.5390   15.4230   22.0200 N   0  0  0  0  0
  -17.6570   14.2650   21.3900 C   0  0  0  0  0
  -18.4700   14.1470   20.3480 N   0  0  0  0  0
  -16.9440   13.2240   21.8000 N   0  0  0  0  0
  -14.6510   17.0100   25.9000 N   0  0  0  0  0
  -13.2930   16.4920   25.6060 C   0  0  0  0  0
  -12.2910   16.7540   26.7580 C   0  0  0  0  0
  -12.0710   17.8900   27.1460 O   0  0  0  0  0
  -12.7530   17.0680   24.2870 C   0  0  0  0  0
  -11.9200   16.0900   23.4010 C   0  0  0  0  0
  -12.5480   15.8410   22.0220 C   0  0  0  0  0
  -11.9520   16.7500   20.9560 C   0  0  0  0  0
  -11.0950   16.0140   19.9870 N   0  3  0  0  0
  -11.6310   15.6990   27.2900 N   0  0  0  0  0
  -10.7310   15.9210   28.4390 C   0  0  0  0  0
   -9.3030   16.2670   28.0380 C   0  0  0  0  0
   -8.6540   15.4960   27.3280 O   0  0  0  0  0
  -10.7300   14.5610   29.1300 C   0  0  0  0  0
  -10.8370   13.6120   27.9830 C   0  0  0  0  0
  -11.7310   14.2650   26.9580 C   0  0  0  0  0
   -8.8160   17.4210   28.4810 N   0  0  0  0  0
   -7.4010   17.7390   28.3000 C   0  0  0  0  0
   -6.7100   18.0270   29.6570 C   0  0  0  0  0
   -7.2270   18.8470   30.4210 O   0  0  0  0  0
   -7.1740   18.8220   27.1680 C   0  0  0  0  0
   -8.3820   18.8720   26.2170 C   0  0  0  0  0
   -6.8590   20.2090   27.7260 C   0  0  0  0  0
   -5.6030   17.3610   30.0370 N   0  0  0  0  0
   -4.7250   16.3910   29.3190 C   0  0  0  0  0
   -3.5710   17.0190   28.5350 C   0  0  0  0  0
   -3.7750   17.5660   27.4550 O   0  0  0  0  0
   -5.4460   15.3070   28.4870 C   0  0  0  0  0
   -5.3420   13.8310   28.8920 C   0  0  0  0  0
   -3.8930   13.4310   29.0310 C   0  0  0  0  0
   -6.1080   13.5450   30.1690 C   0  0  0  0  0
   -2.3500   16.9330   29.0920 N   0  0  0  0  0
   -1.1230   17.4260   28.4570 C   0  0  0  0  0
   -0.8420   16.7760   27.1050 C   0  0  0  0  0
   -1.1730   15.6060   26.9040 O   0  0  0  0  0
   -0.0300   17.0440   29.4630 C   0  0  0  0  0
   -0.6560   16.0380   30.3760 C   0  0  0  0  0
   -2.0890   16.4270   30.4490 C   0  0  0  0  0
   -0.2240   17.5350   26.2010 N   0  0  0  0  0
    0.0880   17.0570   24.8540 C   0  0  0  0  0
    1.1920   16.0010   24.8530 C   0  0  0  0  0
    2.1480   16.0960   25.6170 O   0  0  0  0  0
    0.4800   18.2270   23.9630 C   0  0  0  0  0
    1.0550   14.9950   23.9960 N   0  0  0  0  0
    2.0940   13.9820   23.8270 C   0  0  0  0  0
    3.1010   14.4840   22.8080 C   0  0  0  0  0
    2.7800   15.3570   22.0030 O   0  0  0  0  0
    1.4860   12.6700   23.3340 C   0  0  0  0  0
    0.5660   11.9100   24.2850 C   0  0  0  0  0
   -0.4840   11.1250   23.5180 C   0  0  0  0  0
    1.3830   11.0020   25.1710 C   0  0  0  0  0
    4.3180   13.9460   22.8430 N   0  0  0  0  0
    5.3160   14.3000   21.8370 C   0  0  0  0  0
    5.5560   13.1160   20.9340 C   0  0  0  0  0
    5.8690   12.0260   21.4040 O   0  0  0  0  0
    6.6620   14.7340   22.4440 C   0  0  0  0  0
    6.4610   15.8580   23.3100 O   0  0  0  0  0
    7.6320   15.1370   21.3350 C   0  0  0  0  0
    5.4170   13.3380   19.6330 N   0  0  0  0  0
    5.5190   12.2560   18.6650 C   0  0  0  0  0
    6.7160   12.3920   17.7360 C   0  0  0  0  0
    6.8200   13.3550   16.9770 O   0  0  0  0  0
    4.2520   12.1670   17.8070 C   0  0  0  0  0
    3.0260   12.0190   18.7060 C   0  0  0  0  0
    4.3600   11.0070   16.8370 C   0  0  0  0  0
    1.7250   12.2620   18.0010 C   0  0  0  0  0
    7.6030   11.4060   17.8050 N   0  0  0  0  0
    8.7740   11.3240   16.9460 C   0  0  0  0  0
    8.4720   11.5750   15.4720 C   0  0  0  0  0
    8.5899   12.7254   14.9717 O   0  0  0  0  0
    9.4240    9.9510   17.1080 C   0  0  0  0  0
    8.0989   10.6171   14.7435 O   0  0  0  0  0
  -18.6350   19.8813   26.7330 H   0  0  0  0  0
  -19.4271   19.0339   27.9293 H   0  0  0  0  0
  -19.4921   20.6988   27.9050 H   0  0  0  0  0
  -17.1115   20.8425   28.3966 H   0  0  0  0  0
  -18.7451   19.0718   30.2255 H   0  0  0  0  0
  -17.2429   19.9267   30.6535 H   0  0  0  0  0
  -18.7045   20.8520   30.2311 H   0  0  0  0  0
  -18.4426   18.3130   26.9870 H   0  0  0  0  0
  -17.4170   16.0389   27.3227 H   0  0  0  0  0
  -17.1185   17.5312   24.5874 H   0  0  0  0  0
  -18.7158   16.9772   25.2394 H   0  0  0  0  0
  -18.4599   15.0461   24.2074 H   0  0  0  0  0
  -16.9408   14.7599   25.1146 H   0  0  0  0  0
  -15.8776   14.8827   23.1572 H   0  0  0  0  0
  -16.2696   16.6280   23.1523 H   0  0  0  0  0
  -18.0764   16.2185   21.6754 H   0  0  0  0  0
  -18.5478   13.2545   19.8603 H   0  0  0  0  0
  -19.0171   14.9488   20.0347 H   0  0  0  0  0
  -16.3116   13.3201   22.5945 H   0  0  0  0  0
  -14.8788   17.9711   25.6456 H   0  0  0  0  0
  -13.3926   15.4113   25.5045 H   0  0  0  0  0
  -12.0797   17.8800   24.5615 H   0  0  0  0  0
  -13.6253   17.3475   23.6961 H   0  0  0  0  0
  -11.8720   15.1328   23.9202 H   0  0  0  0  0
  -10.9405   16.5408   23.2418 H   0  0  0  0  0
  -13.6161   16.0476   22.0899 H   0  0  0  0  0
  -12.3524   14.8069   21.7384 H   0  0  0  0  0
  -11.3295   17.4908   21.4578 H   0  0  0  0  0
  -12.7754   17.1990   20.4006 H   0  0  0  0  0
  -10.7235   16.6682   19.2983 H   0  0  0  0  0
  -10.3243   15.5695   20.4858 H   0  0  0  0  0
  -11.6520   15.3016   19.5151 H   0  0  0  0  0
  -11.0697   16.7608   29.0457 H   0  0  0  0  0
  -11.5391   14.4495   29.8518 H   0  0  0  0  0
   -9.8420   14.3938   29.7396 H   0  0  0  0  0
  -11.2522   12.6578   28.3073 H   0  0  0  0  0
   -9.8541   13.4014   27.5616 H   0  0  0  0  0
  -11.4263   14.0477   25.9343 H   0  0  0  0  0
  -12.7554   13.8946   26.9959 H   0  0  0  0  0
   -9.4312   18.0868   28.9486 H   0  0  0  0  0
   -6.8888   16.8570   27.9156 H   0  0  0  0  0
   -6.2941   18.5101   26.6053 H   0  0  0  0  0
   -8.5166   17.8959   25.7510 H   0  0  0  0  0
   -9.2770   19.1328   26.7819 H   0  0  0  0  0
   -8.2055   19.6226   25.4466 H   0  0  0  0  0
   -7.6887   20.5463   28.3472 H   0  0  0  0  0
   -5.9505   20.1600   28.3262 H   0  0  0  0  0
   -6.7139   20.9067   26.9012 H   0  0  0  0  0
   -5.3098   17.5559   30.9943 H   0  0  0  0  0
   -4.2806   15.8607   30.1612 H   0  0  0  0  0
   -4.9697   15.3544   27.5077 H   0  0  0  0  0
   -6.5049   15.5436   28.5915 H   0  0  0  0  0
   -5.7974   13.2324   28.1031 H   0  0  0  0  0
   -3.3840   13.5775   28.0784 H   0  0  0  0  0
   -3.4193   14.0463   29.7959 H   0  0  0  0  0
   -3.8332   12.3814   29.3187 H   0  0  0  0  0
   -5.7030   14.1529   30.9780 H   0  0  0  0  0
   -7.1604   13.7879   30.0221 H   0  0  0  0  0
   -6.0093   12.4893   30.4217 H   0  0  0  0  0
   -1.1866   18.4929   28.2429 H   0  0  0  0  0
    0.3257   17.9146   30.0140 H   0  0  0  0  0
    0.8472   16.6350   28.9616 H   0  0  0  0  0
   -0.1864   16.0367   31.3596 H   0  0  0  0  0
   -0.5311   15.0210   30.0041 H   0  0  0  0  0
   -2.7423   15.6011   30.7303 H   0  0  0  0  0
   -2.2930   17.1633   31.2264 H   0  0  0  0  0
    0.0417   18.4857   26.4579 H   0  0  0  0  0
   -0.8116   16.5829   24.4615 H   0  0  0  0  0
   -0.3473   18.9347   23.9099 H   0  0  0  0  0
    1.3570   18.7219   24.3802 H   0  0  0  0  0
    0.7100   17.8594   22.9630 H   0  0  0  0  0
    0.2016   14.9282   23.4413 H   0  0  0  0  0
    2.5806   13.8016   24.7855 H   0  0  0  0  0
    2.3321   12.0064   23.1557 H   0  0  0  0  0
    0.8633   12.9405   22.4812 H   0  0  0  0  0
    0.0405   12.6298   24.9126 H   0  0  0  0  0
   -1.0864   11.8115   22.9230 H   0  0  0  0  0
    0.0083   10.4083   22.8606 H   0  0  0  0  0
   -1.1248   10.5938   24.2218 H   0  0  0  0  0
    1.9307   10.2903   24.5532 H   0  0  0  0  0
    2.0870   11.5992   25.7505 H   0  0  0  0  0
    0.7194   10.4629   25.8471 H   0  0  0  0  0
    4.5557   13.2807   23.5787 H   0  0  0  0  0
    4.9163   15.1502   21.2844 H   0  0  0  0  0
    7.0765   13.8979   23.0073 H   0  0  0  0  0
    7.3028   16.1252   23.6862 H   0  0  0  0  0
    7.7953   14.2883   20.6708 H   0  0  0  0  0
    7.2098   15.9672   20.7688 H   0  0  0  0  0
    8.5806   15.4420   21.7769 H   0  0  0  0  0
    5.2349   14.2864   19.3047 H   0  0  0  0  0
    5.6476   11.3494   19.2563 H   0  0  0  0  0
    4.1434   13.0837   17.2273 H   0  0  0  0  0
    3.1111   12.7644   19.4968 H   0  0  0  0  0
    3.0117   10.9914   19.0692 H   0  0  0  0  0
    5.2226   11.1571   16.1877 H   0  0  0  0  0
    4.4808   10.0785   17.3950 H   0  0  0  0  0
    3.4540   10.9543   16.2333 H   0  0  0  0  0
    1.7135   13.2762   17.6017 H   0  0  0  0  0
    1.6165   11.5476   17.1849 H   0  0  0  0  0
    0.9027   12.1382   18.7057 H   0  0  0  0  0
    7.4557   10.6693   18.4949 H   0  0  0  0  0
    9.4506   12.1180   17.2620 H   0  0  0  0  0
    8.8799   13.3399   15.6499 H   0  0  0  0  0
    9.7225    9.8121   18.1471 H   0  0  0  0  0
    8.7098    9.1769   16.8272 H   0  0  0  0  0
   10.3018    9.8878   16.4649 H   0  0  0  0  0
  1  2  1  0  0  0
  2  3  1  0  0  0
  2  5  1  0  0  0
  3  4  2  0  0  0
  3  6  1  0  0  0
  6  7  1  0  0  0
  7  8  1  0  0  0
  7 10  1  0  0  0
  8  9  2  0  0  0
  8 17  1  0  0  0
 10 11  1  0  0  0
 11 12  1  0  0  0
 12 13  1  0  0  0
 13 14  1  0  0  0
 14 15  1  0  0  0
 14 16  2  0  0  0
 17 18  1  0  0  0
 18 19  1  0  0  0
 18 21  1  0  0  0
 19 20  2  0  0  0
 19 26  1  0  0  0
 21 22  1  0  0  0
 22 23  1  0  0  0
 23 24  1  0  0  0
 24 25  1  0  0  0
 26 27  1  0  0  0
 26 32  1  0  0  0
 27 28  1  0  0  0
 27 30  1  0  0  0
 28 29  2  0  0  0
 28 33  1  0  0  0
 30 31  1  0  0  0
 31 32  1  0  0  0
 33 34  1  0  0  0
 34 35  1  0  0  0
 34 37  1  0  0  0
 35 36  2  0  0  0
 35 40  1  0  0  0
 37 38  1  0  0  0
 37 39  1  0  0  0
 40 41  1  0  0  0
 41 42  1  0  0  0
 41 44  1  0  0  0
 42 43  2  0  0  0
 42 48  1  0  0  0
 44 45  1  0  0  0
 45 46  1  0  0  0
 45 47  1  0  0  0
 48 49  1  0  0  0
 48 54  1  0  0  0
 49 50  1  0  0  0
 49 52  1  0  0  0
 50 51  2  0  0  0
 50 55  1  0  0  0
 52 53  1  0  0  0
 53 54  1  0  0  0
 55 56  1  0  0  0
 56 57  1  0  0  0
 56 59  1  0  0  0
 57 58  2  0  0  0
 57 60  1  0  0  0
 60 61  1  0  0  0
 61 62  1  0  0  0
 61 64  1  0  0  0
 62 63  2  0  0  0
 62 68  1  0  0  0
 64 65  1  0  0  0
 65 66  1  0  0  0
 65 67  1  0  0  0
 68 69  1  0  0  0
 69 70  1  0  0  0
 69 72  1  0  0  0
 70 71  2  0  0  0
 70 75  1  0  0  0
 72 73  1  0  0  0
 72 74  1  0  0  0
 75 76  1  0  0  0
 76 77  1  0  0  0
 76 79  1  0  0  0
 77 78  2  0  0  0
 77 83  1  0  0  0
 79 80  1  0  0  0
 79 81  1  0  0  0
 80 82  1  0  0  0
 83 84  1  0  0  0
 84 85  1  0  0  0
 84 87  1  0  0  0
 85 86  1  0  0  0
 85 88  2  0  0  0
  1 89  1  0  0  0
  1 90  1  0  0  0
  1 91  1  0  0  0
  2 92  1  0  0  0
  5 93  1  0  0  0
  5 94  1  0  0  0
  5 95  1  0  0  0
  6 96  1  0  0  0
  7 97  1  0  0  0
 10 98  1  0  0  0
 10 99  1  0  0  0
 11100  1  0  0  0
 11101  1  0  0  0
 12102  1  0  0  0
 12103  1  0  0  0
 13104  1  0  0  0
 15105  1  0  0  0
 15106  1  0  0  0
 16107  1  0  0  0
 17108  1  0  0  0
 18109  1  0  0  0
 21110  1  0  0  0
 21111  1  0  0  0
 22112  1  0  0  0
 22113  1  0  0  0
 23114  1  0  0  0
 23115  1  0  0  0
 24116  1  0  0  0
 24117  1  0  0  0
 25118  1  0  0  0
 25119  1  0  0  0
 25120  1  0  0  0
 27121  1  0  0  0
 30122  1  0  0  0
 30123  1  0  0  0
 31124  1  0  0  0
 31125  1  0  0  0
 32126  1  0  0  0
 32127  1  0  0  0
 33128  1  0  0  0
 34129  1  0  0  0
 37130  1  0  0  0
 38131  1  0  0  0
 38132  1  0  0  0
 38133  1  0  0  0
 39134  1  0  0  0
 39135  1  0  0  0
 39136  1  0  0  0
 40137  1  0  0  0
 41138  1  0  0  0
 44139  1  0  0  0
 44140  1  0  0  0
 45141  1  0  0  0
 46142  1  0  0  0
 46143  1  0  0  0
 46144  1  0  0  0
 47145  1  0  0  0
 47146  1  0  0  0
 47147  1  0  0  0
 49148  1  0  0  0
 52149  1  0  0  0
 52150  1  0  0  0
 53151  1  0  0  0
 53152  1  0  0  0
 54153  1  0  0  0
 54154  1  0  0  0
 55155  1  0  0  0
 56156  1  0  0  0
 59157  1  0  0  0
 59158  1  0  0  0
 59159  1  0  0  0
 60160  1  0  0  0
 61161  1  0  0  0
 64162  1  0  0  0
 64163  1  0  0  0
 65164  1  0  0  0
 66165  1  0  0  0
 66166  1  0  0  0
 66167  1  0  0  0
 67168  1  0  0  0
 67169  1  0  0  0
 67170  1  0  0  0
 68171  1  0  0  0
 69172  1  0  0  0
 72173  1  0  0  0
 73174  1  0  0  0
 74175  1  0  0  0
 74176  1  0  0  0
 74177  1  0  0  0
 75178  1  0  0  0
 76179  1  0  0  0
 79180  1  0  0  0
 80181  1  0  0  0
 80182  1  0  0  0
 81183  1  0  0  0
 81184  1  0  0  0
 81185  1  0  0  0
 82186  1  0  0  0
 82187  1  0  0  0
 82188  1  0  0  0
 83189  1  0  0  0
 84190  1  0  0  0
 86191  1  0  0  0
 87192  1  0  0  0
 87193  1  0  0  0
 87194  1  0  0  0
M  END
$$$$
