4yl1_ligand
  -I-interpret- 

 61 64  0  0  0  0  0  0  0  0999 V2000
   11.5330   15.5970   33.7160 O   0  0  0  0  0
   17.5130   16.6890   23.1990 C   0  0  0  0  0
   17.1610   17.2110   33.7310 O   0  0  0  0  0
   18.1470   17.8450   22.6900 C   0  0  0  0  0
   15.8130   16.8660   27.2570 C   0  0  0  0  0
   16.1680   17.3010   31.0050 N   0  0  0  0  0
   18.3880   18.8860   23.6110 C   0  0  0  0  0
   18.0210   18.7750   24.9630 C   0  0  0  0  0
   17.3930   17.6190   25.4580 C   0  0  0  0  0
   17.0080   17.5000   26.8780 C   0  0  0  0  0
   18.3600   19.0600   33.3380 O   0  0  0  0  0
   17.5960   18.2060   32.9210 C   0  0  0  0  0
   17.2940   17.9520   31.5290 C   0  0  0  0  0
   18.0910   18.3240   30.4570 C   0  0  0  0  0
   14.9890   16.8950   31.7070 C   0  0  0  0  0
   14.2460   17.8170   32.4600 C   0  0  0  0  0
   13.0890   17.4060   33.1430 C   0  0  0  0  0
   12.6520   16.0780   33.0790 C   0  0  0  0  0
   11.0900   14.2300   33.6520 C   0  0  0  0  0
   11.8080   13.3790   34.6980 C   0  0  0  0  0
    9.5950   14.2580   33.9610 C   0  0  0  0  0
   13.3980   15.1630   32.3180 C   0  0  0  0  0
   14.5570   15.5620   31.6400 C   0  0  0  0  0
   16.2800   17.2720   29.6060 C   0  0  0  0  0
   15.4360   16.7440   28.6030 C   0  0  0  0  0
   17.4760   17.9080   29.2580 C   0  0  0  0  0
   17.8370   18.0200   27.8950 C   0  0  0  0  0
   17.1490   16.5770   24.5490 C   0  0  0  0  0
   18.5410   17.9420   21.1950 C   0  0  0  0  0
   19.9370   18.5580   20.9370 C   0  0  0  0  0
   18.5650   16.5460   20.5280 C   0  0  0  0  0
   17.5210   18.8310   20.4500 C   0  0  0  0  0
   17.3008   15.8606   22.5231 H   0  0  0  0  0
   16.5714   16.6344   33.2395 H   0  0  0  0  0
   15.1611   16.4579   26.4846 H   0  0  0  0  0
   18.8712   19.7998   23.2652 H   0  0  0  0  0
   18.2276   19.6024   25.6418 H   0  0  0  0  0
   19.0411   18.8534   30.5295 H   0  0  0  0  0
   14.5680   18.8569   32.5153 H   0  0  0  0  0
   12.5247   18.1305   33.7301 H   0  0  0  0  0
   11.3012   13.7978   32.6739 H   0  0  0  0  0
   11.6478   13.8091   35.6867 H   0  0  0  0  0
   11.4113   12.3640   34.6733 H   0  0  0  0  0
   12.8753   13.3588   34.4777 H   0  0  0  0  0
    9.2013   13.2419   33.9373 H   0  0  0  0  0
    9.4378   14.6869   34.9506 H   0  0  0  0  0
    9.0824   14.8651   33.2149 H   0  0  0  0  0
   13.0697   14.1256   32.2540 H   0  0  0  0  0
   15.1245   14.8351   31.0590 H   0  0  0  0  0
   14.5034   16.2479   28.8718 H   0  0  0  0  0
   18.7698   18.5155   27.6259 H   0  0  0  0  0
   16.6676   15.6638   24.8990 H   0  0  0  0  0
   20.7017   17.9206   21.3810 H   0  0  0  0  0
   20.1056   18.6356   19.8629 H   0  0  0  0  0
   19.9836   19.5501   21.3860 H   0  0  0  0  0
   18.7569   16.6579   19.4609 H   0  0  0  0  0
   19.3530   15.9428   20.9789 H   0  0  0  0  0
   17.6019   16.0574   20.6760 H   0  0  0  0  0
   17.5752   19.8479   20.8386 H   0  0  0  0  0
   17.7537   18.8347   19.3851 H   0  0  0  0  0
   16.5168   18.4355   20.6024 H   0  0  0  0  0
 18  1  1  0  0  0
  1 19  1  0  0  0
  2  4  4  0  0  0
 28  2  4  0  0  0
 12  3  1  0  0  0
  7  4  4  0  0  0
  4 29  1  0  0  0
  5 10  4  0  0  0
 25  5  4  0  0  0
  6 13  4  0  0  0
  6 15  1  0  0  0
 24  6  4  0  0  0
  8  7  4  0  0  0
  9  8  4  0  0  0
 10  9  1  0  0  0
  9 28  4  0  0  0
 10 27  4  0  0  0
 12 11  2  0  0  0
 13 12  1  0  0  0
 13 14  4  0  0  0
 14 26  4  0  0  0
 15 16  4  0  0  0
 15 23  4  0  0  0
 16 17  4  0  0  0
 17 18  4  0  0  0
 22 18  4  0  0  0
 19 20  1  0  0  0
 19 21  1  0  0  0
 23 22  4  0  0  0
 24 25  4  0  0  0
 24 26  4  0  0  0
 26 27  4  0  0  0
 29 30  1  0  0  0
 29 31  1  0  0  0
 29 32  1  0  0  0
  2 33  1  0  0  0
  3 34  1  0  0  0
  5 35  1  0  0  0
  7 36  1  0  0  0
  8 37  1  0  0  0
 14 38  1  0  0  0
 16 39  1  0  0  0
 17 40  1  0  0  0
 19 41  1  0  0  0
 20 42  1  0  0  0
 20 43  1  0  0  0
 20 44  1  0  0  0
 21 45  1  0  0  0
 21 46  1  0  0  0
 21 47  1  0  0  0
 22 48  1  0  0  0
 23 49  1  0  0  0
 25 50  1  0  0  0
 27 51  1  0  0  0
 28 52  1  0  0  0
 30 53  1  0  0  0
 30 54  1  0  0  0
 30 55  1  0  0  0
 31 56  1  0  0  0
 31 57  1  0  0  0
 31 58  1  0  0  0
 32 59  1  0  0  0
 32 60  1  0  0  0
 32 61  1  0  0  0
M  END
$$$$
