1oko_ligand
  -I-interpret- 

 24 24  0  0  0  0  0  0  0  0999 V2000
   22.0980   16.8310   45.2590 C   0  0  0  0  0
   22.7590   15.4870   45.0500 C   0  0  0  0  0
   24.0340   15.6740   44.2630 C   0  0  0  0  0
   23.6870   16.3310   42.9410 C   0  0  0  0  0
   22.8490   17.5710   43.1540 C   0  0  0  0  0
   22.2680   18.0340   41.8290 C   0  0  0  0  0
   20.9250   16.6420   46.0140 O   0  0  0  0  0
   23.0760   14.8160   46.2410 O   0  0  0  0  0
   24.5430   14.3910   44.0140 O   0  0  0  0  0
   22.9930   15.4110   42.1280 O   0  0  0  0  0
   21.7270   17.3070   43.9640 O   0  0  0  0  0
   21.7260   19.3220   42.0160 O   0  0  0  0  0
   22.7605   17.5278   45.7724 H   0  0  0  0  0
   22.0329   14.8741   44.5159 H   0  0  0  0  0
   24.7560   16.2893   44.7998 H   0  0  0  0  0
   24.6116   16.6310   42.4478 H   0  0  0  0  0
   23.5053   18.3095   43.6144 H   0  0  0  0  0
   21.4923   17.3441   41.4968 H   0  0  0  0  0
   23.0459   18.0604   41.0659 H   0  0  0  0  0
   21.1570   16.3217   46.8887 H   0  0  0  0  0
   22.2767   14.6871   46.7569 H   0  0  0  0  0
   24.7650   13.9688   44.8471 H   0  0  0  0  0
   23.5336   14.6282   41.9993 H   0  0  0  0  0
   21.3526   19.6341   41.1885 H   0  0  0  0  0
  1  2  1  0  0  0
  1  7  1  0  0  0
  1 11  1  0  0  0
  2  3  1  0  0  0
  2  8  1  0  0  0
  3  4  1  0  0  0
  3  9  1  0  0  0
  4  5  1  0  0  0
  4 10  1  0  0  0
  5  6  1  0  0  0
  5 11  1  0  0  0
  6 12  1  0  0  0
  1 13  1  0  0  0
  2 14  1  0  0  0
  3 15  1  0  0  0
  4 16  1  0  0  0
  5 17  1  0  0  0
  6 18  1  0  0  0
  6 19  1  0  0  0
  7 20  1  0  0  0
  8 21  1  0  0  0
  9 22  1  0  0  0
 10 23  1  0  0  0
 12 24  1  0  0  0
M  END
$$$$
