5ajz_ligand
  -I-interpret- 

 37 39  0  0  0  0  0  0  0  0999 V2000
  -45.6740  -41.8200  -12.3870 N   0  0  0  0  0
  -44.5490  -41.7710  -12.2000 C   0  0  0  0  0
  -43.1350  -41.6410  -11.9710 C   0  0  0  0  0
  -42.2900  -42.5670  -11.4090 C   0  0  0  0  0
  -41.0400  -42.0290  -11.2930 N   0  0  0  0  0
  -41.0500  -40.7490  -11.8020 C   0  0  0  0  0
  -40.0310  -39.8070  -11.9010 C   0  0  0  0  0
  -40.3300  -38.5500  -12.4030 C   0  0  0  0  0
  -42.3650  -40.4670  -12.2260 C   0  0  0  0  0
  -42.6450  -39.2010  -12.7450 C   0  0  0  0  0
  -41.6250  -38.2550  -12.8130 C   0  0  0  0  0
  -41.9200  -36.9670  -13.2560 O   0  0  0  0  0
  -41.4700  -36.5010  -14.4930 C   0  0  0  0  0
  -41.1220  -37.3820  -15.5120 C   0  0  0  0  0
  -41.4830  -35.1320  -14.7240 C   0  0  0  0  0
  -41.1930  -34.6450  -15.9890 C   0  0  0  0  0
  -40.8720  -35.5210  -17.0260 C   0  0  0  0  0
  -40.8220  -36.8910  -16.7700 C   0  0  0  0  0
  -40.6430  -34.9980  -18.3270 N   0  0  0  0  0
  -40.3530  -35.6680  -19.4670 C   0  0  0  0  0
  -40.0640  -36.8610  -19.5190 O   0  0  0  0  0
  -40.3670  -34.8270  -20.7530 C   0  0  0  0  0
  -39.2670  -35.2690  -21.6060 N   0  3  0  0  0
  -42.5731  -43.5742  -11.1033 H   0  0  0  0  0
  -39.0158  -40.0530  -11.5894 H   0  0  0  0  0
  -39.5494  -37.7927  -12.4763 H   0  0  0  0  0
  -43.6488  -38.9564  -13.0924 H   0  0  0  0  0
  -41.0859  -38.4543  -15.3200 H   0  0  0  0  0
  -41.7204  -34.4427  -13.9136 H   0  0  0  0  0
  -41.2159  -33.5711  -16.1745 H   0  0  0  0  0
  -40.5444  -37.5803  -17.5674 H   0  0  0  0  0
  -40.7053  -33.9836  -18.4135 H   0  0  0  0  0
  -40.2484  -33.7713  -20.5091 H   0  0  0  0  0
  -41.3165  -34.9563  -21.2725 H   0  0  0  0  0
  -39.2627  -34.7194  -22.4653 H   0  0  0  0  0
  -38.3832  -35.1393  -21.1136 H   0  0  0  0  0
  -39.3896  -36.2559  -21.8328 H   0  0  0  0  0
  1  2  3  0  0  0
  2  3  1  0  0  0
  3  4  4  0  0  0
  3  9  4  0  0  0
  4  5  4  0  0  0
  5  6  4  0  0  0
  6  7  4  0  0  0
  6  9  4  0  0  0
  7  8  4  0  0  0
  8 11  4  0  0  0
  9 10  4  0  0  0
 10 11  4  0  0  0
 11 12  1  0  0  0
 12 13  1  0  0  0
 13 14  4  0  0  0
 13 15  4  0  0  0
 14 18  4  0  0  0
 15 16  4  0  0  0
 16 17  4  0  0  0
 17 18  4  0  0  0
 17 19  1  0  0  0
 19 20  1  0  0  0
 20 21  2  0  0  0
 20 22  1  0  0  0
 22 23  1  0  0  0
  4 24  1  0  0  0
  7 25  1  0  0  0
  8 26  1  0  0  0
 10 27  1  0  0  0
 14 28  1  0  0  0
 15 29  1  0  0  0
 16 30  1  0  0  0
 18 31  1  0  0  0
 19 32  1  0  0  0
 22 33  1  0  0  0
 22 34  1  0  0  0
 23 35  1  0  0  0
 23 36  1  0  0  0
 23 37  1  0  0  0
M  END
$$$$
