4kx8_ligand
  -I-interpret- 

 72 71  0  0  0  0  0  0  0  0999 V2000
  -10.2760   39.0610   44.8090 N   0  3  0  0  0
  -11.3610   39.1710   43.7970 C   0  0  0  0  0
  -12.8040   39.2980   44.3780 C   0  0  0  0  0
  -13.0540   40.7030   44.9480 C   0  0  0  0  0
  -13.6720   41.6060   43.8810 C   0  0  0  0  0
  -14.0210   40.5960   46.1470 C   0  0  0  0  0
  -11.3590   37.9890   42.8200 C   0  0  0  0  0
  -10.0520   37.4670   42.5490 O   0  0  0  0  0
  -11.7760   38.5400   41.4960 C   0  0  0  0  0
  -10.9480   39.2600   40.9020 O   0  0  0  0  0
  -12.7530   37.6790   40.8670 N   0  0  0  0  0
  -13.2620   38.2810   39.6770 C   0  0  0  0  0
  -14.4740   39.0570   40.1270 C   0  0  0  0  0
  -15.1860   38.6390   41.0200 O   0  0  0  0  0
  -13.5790   37.2100   38.6460 C   0  0  0  0  0
  -14.2150   37.8170   37.4410 C   0  0  0  0  0
  -12.2980   36.5420   38.2130 C   0  0  0  0  0
  -14.6570   40.2270   39.5540 N   0  0  0  0  0
  -15.6730   41.1410   39.9890 C   0  0  0  0  0
  -17.0550   40.7460   39.5070 C   0  0  0  0  0
  -18.0140   41.2800   39.9350 O   0  0  0  0  0
  -15.3240   42.5480   39.4830 C   0  0  0  0  0
  -16.4550   43.5270   39.6980 C   0  0  0  0  0
  -14.0570   43.0460   40.1340 C   0  0  0  0  0
  -17.1100   39.7720   38.6430 N   0  0  0  0  0
  -18.1300   39.5720   37.6550 C   0  0  0  0  0
  -18.8790   40.7060   37.0560 C   0  0  0  0  0
  -18.7170   40.7390   35.7980 O   0  0  0  0  0
  -19.0560   38.4560   37.9430 C   0  0  0  0  0
  -18.7930   37.3470   37.0640 C   0  0  0  0  0
  -17.6300   36.9350   37.0800 O   0  0  0  0  0
  -19.6820   36.8960   36.3300 O   0  0  0  0  0
  -19.5740   41.4730   37.7720 O   0  0  0  0  0
  -10.3145   39.8648   45.4357 H   0  0  0  0  0
  -10.3998   38.2030   45.3466 H   0  0  0  0  0
   -9.3725   39.0400   44.3361 H   0  0  0  0  0
  -11.1235   40.1054   43.2885 H   0  0  0  0  0
  -12.9197   38.5714   45.1822 H   0  0  0  0  0
  -13.5187   39.1167   43.5753 H   0  0  0  0  0
  -12.1047   41.1326   45.2680 H   0  0  0  0  0
  -14.6191   41.1798   43.5503 H   0  0  0  0  0
  -13.8450   42.5968   44.3011 H   0  0  0  0  0
  -12.9911   41.6832   43.0333 H   0  0  0  0  0
  -14.1933   41.5887   46.5629 H   0  0  0  0  0
  -14.9675   40.1717   45.8120 H   0  0  0  0  0
  -13.5824   39.9523   46.9095 H   0  0  0  0  0
  -11.9893   37.2149   43.2577 H   0  0  0  0  0
   -9.6894   37.0832   43.3507 H   0  0  0  0  0
  -13.0389   36.7674   41.2244 H   0  0  0  0  0
  -12.5508   38.9444   39.1848 H   0  0  0  0  0
  -14.2608   36.4882   39.0958 H   0  0  0  0  0
  -15.1403   38.3144   37.7318 H   0  0  0  0  0
  -13.5334   38.5440   36.9993 H   0  0  0  0  0
  -14.4344   37.0346   36.7145 H   0  0  0  0  0
  -11.6319   37.2856   37.7753 H   0  0  0  0  0
  -11.8170   36.0860   39.0783 H   0  0  0  0  0
  -12.5225   35.7734   37.4735 H   0  0  0  0  0
  -14.0560   40.4931   38.7740 H   0  0  0  0  0
  -15.7006   41.1198   41.0784 H   0  0  0  0  0
  -15.1620   42.4748   38.4076 H   0  0  0  0  0
  -17.3390   43.1825   39.1614 H   0  0  0  0  0
  -16.6780   43.5944   40.7628 H   0  0  0  0  0
  -16.1609   44.5078   39.3243 H   0  0  0  0  0
  -14.1953   43.0824   41.2146 H   0  0  0  0  0
  -13.2366   42.3696   39.8940 H   0  0  0  0  0
  -13.8271   44.0444   39.7620 H   0  0  0  0  0
  -16.3554   39.0863   38.6723 H   0  0  0  0  0
  -17.4318   39.3253   36.8552 H   0  0  0  0  0
  -18.1309   40.0263   35.5332 H   0  0  0  0  0
  -20.0803   38.7957   37.7896 H   0  0  0  0  0
  -18.9136   38.1334   38.9744 H   0  0  0  0  0
  -20.5007   37.3703   36.4924 H   0  0  0  0  0
  1  2  1  0  0  0
  2  3  1  0  0  0
  2  7  1  0  0  0
  3  4  1  0  0  0
  4  5  1  0  0  0
  4  6  1  0  0  0
  7  8  1  0  0  0
  7  9  1  0  0  0
  9 10  2  0  0  0
  9 11  1  0  0  0
 11 12  1  0  0  0
 12 13  1  0  0  0
 12 15  1  0  0  0
 13 14  2  0  0  0
 13 18  1  0  0  0
 15 16  1  0  0  0
 15 17  1  0  0  0
 18 19  1  0  0  0
 19 20  1  0  0  0
 19 22  1  0  0  0
 20 21  2  0  0  0
 20 25  1  0  0  0
 22 23  1  0  0  0
 22 24  1  0  0  0
 25 26  1  0  0  0
 26 27  1  0  0  0
 26 29  1  0  0  0
 27 28  1  0  0  0
 27 33  2  0  0  0
 29 30  1  0  0  0
 30 31  2  0  0  0
 30 32  1  0  0  0
  1 34  1  0  0  0
  1 35  1  0  0  0
  1 36  1  0  0  0
  2 37  1  0  0  0
  3 38  1  0  0  0
  3 39  1  0  0  0
  4 40  1  0  0  0
  5 41  1  0  0  0
  5 42  1  0  0  0
  5 43  1  0  0  0
  6 44  1  0  0  0
  6 45  1  0  0  0
  6 46  1  0  0  0
  7 47  1  0  0  0
  8 48  1  0  0  0
 11 49  1  0  0  0
 12 50  1  0  0  0
 15 51  1  0  0  0
 16 52  1  0  0  0
 16 53  1  0  0  0
 16 54  1  0  0  0
 17 55  1  0  0  0
 17 56  1  0  0  0
 17 57  1  0  0  0
 18 58  1  0  0  0
 19 59  1  0  0  0
 22 60  1  0  0  0
 23 61  1  0  0  0
 23 62  1  0  0  0
 23 63  1  0  0  0
 24 64  1  0  0  0
 24 65  1  0  0  0
 24 66  1  0  0  0
 25 67  1  0  0  0
 26 68  1  0  0  0
 28 69  1  0  0  0
 29 70  1  0  0  0
 29 71  1  0  0  0
 32 72  1  0  0  0
M  END
$$$$
