3rt4_ligand
  -I-interpret- 

114114  0  0  0  0  0  0  0  0999 V2000
  -21.2460  -30.9190  -21.3980 O   0  0  0  0  0
  -21.1710  -29.5890  -20.6730 P   0  0  0  0  0
  -20.1310  -29.5760  -19.5710 O   0  0  0  0  0
  -21.0640  -28.4150  -21.6270 O   0  0  0  0  0
  -22.6030  -29.3730  -19.9240 O   0  0  0  0  0
  -23.7940  -29.5520  -20.7050 C   0  0  0  0  0
  -25.0840  -28.7210  -20.4300 C   0  0  0  0  0
  -25.4340  -28.3150  -19.0500 N   0  0  0  0  0
  -25.8130  -29.0430  -17.9940 C   0  0  0  0  0
  -26.1580  -28.2730  -16.7320 C   0  0  0  0  0
  -27.4880  -28.7010  -16.1020 C   0  0  0  0  0
  -28.4330  -29.0520  -17.1210 O   0  0  0  0  0
  -28.0360  -27.5330  -15.2830 C   0  0  0  0  0
  -29.3230  -27.8630  -14.5290 C   0  0  0  0  0
  -30.3760  -26.7880  -14.7900 C   0  0  0  0  0
  -30.7290  -25.9660  -13.5440 C   0  0  0  0  0
  -29.5320  -25.1910  -12.9780 C   0  0  0  0  0
  -29.4610  -23.7610  -13.5200 C   0  0  0  0  0
  -28.5110  -23.6910  -14.7220 C   0  0  0  0  0
  -28.2680  -22.2510  -15.1650 C   0  0  0  0  0
  -27.7480  -22.1880  -16.5980 C   0  0  0  0  0
  -26.3280  -21.6370  -16.6490 C   0  0  0  0  0
  -25.7890  -21.6250  -18.0620 C   0  0  0  0  0
  -25.8620  -30.2560  -17.9970 O   0  0  0  0  0
  -26.3610  -29.4490  -20.9160 C   0  0  0  0  0
  -26.1840  -30.5570  -21.9770 C   0  0  0  0  0
  -24.8250  -31.2530  -22.0110 C   0  0  0  0  0
  -24.0960  -30.9400  -20.8160 O   0  0  0  0  0
  -24.0470  -30.9550  -23.3050 C   0  0  0  0  0
  -23.8770  -29.7380  -24.0530 O   0  0  0  0  0
  -27.1900  -31.5550  -21.7760 O   0  0  0  0  0
  -27.3270  -28.4630  -21.3290 O   0  0  0  0  0
  -27.6640  -28.4250  -22.7530 C   0  0  0  0  0
  -26.9120  -27.8430  -23.5240 O   0  0  0  0  0
  -28.9240  -29.0960  -23.2660 C   0  0  0  0  0
  -30.1060  -28.1340  -23.3110 C   0  0  0  0  0
  -30.2960  -27.5240  -22.0310 O   0  0  0  0  0
  -31.3600  -28.9070  -23.7020 C   0  0  0  0  0
  -31.5070  -28.9750  -25.2220 C   0  0  0  0  0
  -32.9050  -29.3730  -25.6900 C   0  0  0  0  0
  -34.0250  -28.7940  -24.8310 C   0  0  0  0  0
  -35.3680  -29.4020  -25.2070 C   0  0  0  0  0
  -36.3320  -28.3090  -25.6430 C   0  0  0  0  0
  -37.2790  -28.8230  -26.7160 C   0  0  0  0  0
  -37.7680  -27.6680  -27.5770 C   0  0  0  0  0
  -37.4750  -27.9160  -29.0500 C   0  0  0  0  0
  -36.5290  -26.8550  -29.5950 C   0  0  0  0  0
  -36.5080  -26.8710  -31.1070 C   0  0  0  0  0
  -21.9175  -30.8717  -22.0824 H   0  0  0  0  0
  -21.7484  -28.4848  -22.2965 H   0  0  0  0  0
  -23.4877  -29.0899  -21.6435 H   0  0  0  0  0
  -24.7957  -27.8220  -20.9748 H   0  0  0  0  0
  -25.3764  -27.3117  -18.8752 H   0  0  0  0  0
  -26.2464  -27.2209  -17.0029 H   0  0  0  0  0
  -25.3714  -28.4678  -16.0030 H   0  0  0  0  0
  -27.3247  -29.5699  -15.4645 H   0  0  0  0  0
  -29.2597  -29.3175  -16.7115 H   0  0  0  0  0
  -28.2635  -26.7252  -15.9786 H   0  0  0  0  0
  -27.2811  -27.2722  -14.5412 H   0  0  0  0  0
  -29.1108  -27.9033  -13.4606 H   0  0  0  0  0
  -29.7019  -28.8253  -14.8731 H   0  0  0  0  0
  -31.2848  -27.2914  -15.1199 H   0  0  0  0  0
  -29.9679  -26.1015  -15.5318 H   0  0  0  0  0
  -31.0697  -26.6589  -12.7747 H   0  0  0  0  0
  -31.4896  -25.2395  -13.8300 H   0  0  0  0  0
  -28.6208  -25.7113  -13.2730 H   0  0  0  0  0
  -29.6434  -25.1382  -11.8950 H   0  0  0  0  0
  -29.0895  -23.1021  -12.7352 H   0  0  0  0  0
  -30.4571  -23.4515  -13.8364 H   0  0  0  0  0
  -28.9650  -24.2338  -15.5511 H   0  0  0  0  0
  -27.5554  -24.1270  -14.4308 H   0  0  0  0  0
  -27.5208  -21.8082  -14.5064 H   0  0  0  0  0
  -29.2132  -21.7102  -15.1162 H   0  0  0  0  0
  -28.3969  -21.5278  -17.1735 H   0  0  0  0  0
  -27.7432  -23.1972  -17.0097 H   0  0  0  0  0
  -25.6877  -22.2755  -16.0405 H   0  0  0  0  0
  -26.3412  -20.6130  -16.2756 H   0  0  0  0  0
  -25.7796  -22.6418  -18.4546 H   0  0  0  0  0
  -26.4256  -20.9987  -18.6870 H   0  0  0  0  0
  -24.7747  -21.2259  -18.0592 H   0  0  0  0  0
  -26.7118  -30.0189  -20.0556 H   0  0  0  0  0
  -26.2699  -30.0401  -22.9328 H   0  0  0  0  0
  -24.9791  -32.3319  -22.0291 H   0  0  0  0  0
  -24.6439  -31.5269  -24.0155 H   0  0  0  0  0
  -23.0279  -31.0942  -22.9442 H   0  0  0  0  0
  -23.3237  -29.9089  -24.8186 H   0  0  0  0  0
  -27.0870  -32.2482  -22.4321 H   0  0  0  0  0
  -29.1749  -29.9126  -22.5891 H   0  0  0  0  0
  -28.7335  -29.4493  -24.2794 H   0  0  0  0  0
  -29.9079  -27.3523  -24.0443 H   0  0  0  0  0
  -31.0421  -26.9214  -22.0725 H   0  0  0  0  0
  -32.2297  -28.3966  -23.2882 H   0  0  0  0  0
  -31.2823  -29.9217  -23.3116 H   0  0  0  0  0
  -30.8153  -29.7369  -25.5813 H   0  0  0  0  0
  -31.3057  -27.9775  -25.6125 H   0  0  0  0  0
  -32.9735  -30.4590  -25.6275 H   0  0  0  0  0
  -33.0342  -28.9847  -26.7003 H   0  0  0  0  0
  -34.0702  -27.7171  -24.9936 H   0  0  0  0  0
  -33.8179  -29.0216  -23.7853 H   0  0  0  0  0
  -35.7815  -29.9197  -24.3415 H   0  0  0  0  0
  -35.2259  -30.1031  -26.0295 H   0  0  0  0  0
  -35.7589  -27.4755  -26.0492 H   0  0  0  0  0
  -36.9171  -27.9908  -24.7801 H   0  0  0  0  0
  -38.1345  -29.3015  -26.2393 H   0  0  0  0  0
  -36.7520  -29.5404  -27.3450 H   0  0  0  0  0
  -37.2501  -26.7602  -27.2676 H   0  0  0  0  0
  -38.8460  -27.5707  -27.4485 H   0  0  0  0  0
  -38.4106  -27.8747  -29.6077 H   0  0  0  0  0
  -37.0069  -28.8946  -29.1568 H   0  0  0  0  0
  -35.5233  -27.0628  -29.2295 H   0  0  0  0  0
  -36.8725  -25.8760  -29.2608 H   0  0  0  0  0
  -36.1741  -27.8488  -31.4541 H   0  0  0  0  0
  -37.5109  -26.6728  -31.4851 H   0  0  0  0  0
  -35.8239  -26.1029  -31.4677 H   0  0  0  0  0
  1  2  1  0  0  0
  2  3  2  0  0  0
  2  4  1  0  0  0
  2  5  1  0  0  0
  5  6  1  0  0  0
  6  7  1  0  0  0
  6 28  1  0  0  0
  7  8  1  0  0  0
  7 25  1  0  0  0
  8  9  1  0  0  0
  9 10  1  0  0  0
  9 24  2  0  0  0
 10 11  1  0  0  0
 11 12  1  0  0  0
 11 13  1  0  0  0
 13 14  1  0  0  0
 14 15  1  0  0  0
 15 16  1  0  0  0
 16 17  1  0  0  0
 17 18  1  0  0  0
 18 19  1  0  0  0
 19 20  1  0  0  0
 20 21  1  0  0  0
 21 22  1  0  0  0
 22 23  1  0  0  0
 25 26  1  0  0  0
 25 32  1  0  0  0
 26 27  1  0  0  0
 26 31  1  0  0  0
 27 28  1  0  0  0
 27 29  1  0  0  0
 29 30  1  0  0  0
 32 33  1  0  0  0
 33 34  2  0  0  0
 33 35  1  0  0  0
 35 36  1  0  0  0
 36 37  1  0  0  0
 36 38  1  0  0  0
 38 39  1  0  0  0
 39 40  1  0  0  0
 40 41  1  0  0  0
 41 42  1  0  0  0
 42 43  1  0  0  0
 43 44  1  0  0  0
 44 45  1  0  0  0
 45 46  1  0  0  0
 46 47  1  0  0  0
 47 48  1  0  0  0
  1 49  1  0  0  0
  4 50  1  0  0  0
  6 51  1  0  0  0
  7 52  1  0  0  0
  8 53  1  0  0  0
 10 54  1  0  0  0
 10 55  1  0  0  0
 11 56  1  0  0  0
 12 57  1  0  0  0
 13 58  1  0  0  0
 13 59  1  0  0  0
 14 60  1  0  0  0
 14 61  1  0  0  0
 15 62  1  0  0  0
 15 63  1  0  0  0
 16 64  1  0  0  0
 16 65  1  0  0  0
 17 66  1  0  0  0
 17 67  1  0  0  0
 18 68  1  0  0  0
 18 69  1  0  0  0
 19 70  1  0  0  0
 19 71  1  0  0  0
 20 72  1  0  0  0
 20 73  1  0  0  0
 21 74  1  0  0  0
 21 75  1  0  0  0
 22 76  1  0  0  0
 22 77  1  0  0  0
 23 78  1  0  0  0
 23 79  1  0  0  0
 23 80  1  0  0  0
 25 81  1  0  0  0
 26 82  1  0  0  0
 27 83  1  0  0  0
 29 84  1  0  0  0
 29 85  1  0  0  0
 30 86  1  0  0  0
 31 87  1  0  0  0
 35 88  1  0  0  0
 35 89  1  0  0  0
 36 90  1  0  0  0
 37 91  1  0  0  0
 38 92  1  0  0  0
 38 93  1  0  0  0
 39 94  1  0  0  0
 39 95  1  0  0  0
 40 96  1  0  0  0
 40 97  1  0  0  0
 41 98  1  0  0  0
 41 99  1  0  0  0
 42100  1  0  0  0
 42101  1  0  0  0
 43102  1  0  0  0
 43103  1  0  0  0
 44104  1  0  0  0
 44105  1  0  0  0
 45106  1  0  0  0
 45107  1  0  0  0
 46108  1  0  0  0
 46109  1  0  0  0
 47110  1  0  0  0
 47111  1  0  0  0
 48112  1  0  0  0
 48113  1  0  0  0
 48114  1  0  0  0
M  END
$$$$
