### 
### Created by X-TOOL on Mon Sep 10 21:13:07 2018
### 

@<TRIPOS>MOLECULE
3rt4_ligand
  112   112     1     0     0
SMALL
GAST_HUCK


@<TRIPOS>ATOM
      1 O48       -21.2460  -30.9190  -21.3980 O.co2     1 LP5        -0.5536
      2 P45       -21.1710  -29.5890  -20.6730 P.3       1 LP5         0.2046
      3 O46       -20.1310  -29.5760  -19.5710 O.co2     1 LP5        -0.5536
      4 O47       -21.0640  -28.4150  -21.6270 O.co2     1 LP5        -0.5536
      5 O1        -22.6030  -29.3730  -19.9240 O.3       1 LP5        -0.2428
      6 C1        -23.7940  -29.5520  -20.7050 C.3       1 LP5         0.2142
      7 C2        -25.0840  -28.7210  -20.4300 C.3       1 LP5         0.1300
      8 N2        -25.4340  -28.3150  -19.0500 N.am      1 LP5        -0.2756
      9 C7        -25.8130  -29.0430  -17.9940 C.2       1 LP5         0.1789
     10 C8        -26.1580  -28.2730  -16.7320 C.3       1 LP5         0.0632
     11 C16       -27.4880  -28.7010  -16.1020 C.3       1 LP5         0.0719
     12 O44       -28.4330  -29.0520  -17.1210 O.3       1 LP5        -0.3894
     13 C17       -28.0360  -27.5330  -15.2830 C.3       1 LP5        -0.0247
     14 C18       -29.3230  -27.8630  -14.5290 C.3       1 LP5        -0.0506
     15 C19       -30.3760  -26.7880  -14.7900 C.3       1 LP5        -0.0530
     16 C20       -30.7290  -25.9660  -13.5440 C.3       1 LP5        -0.0531
     17 C21       -29.5320  -25.1910  -12.9780 C.3       1 LP5        -0.0531
     18 C22       -29.4610  -23.7610  -13.5200 C.3       1 LP5        -0.0531
     19 C23       -28.5110  -23.6910  -14.7220 C.3       1 LP5        -0.0531
     20 C24       -28.2680  -22.2510  -15.1650 C.3       1 LP5        -0.0531
     21 C25       -27.7480  -22.1880  -16.5980 C.3       1 LP5        -0.0533
     22 C26       -26.3280  -21.6370  -16.6490 C.3       1 LP5        -0.0559
     23 C27       -25.7890  -21.6250  -18.0620 C.3       1 LP5        -0.0653
     24 O7        -25.8620  -30.2560  -17.9970 O.2       1 LP5        -0.3970
     25 C3        -26.3610  -29.4490  -20.9160 C.3       1 LP5         0.1436
     26 C4        -26.1840  -30.5570  -21.9770 C.3       1 LP5         0.1163
     27 C5        -24.8250  -31.2530  -22.0110 C.3       1 LP5         0.1136
     28 O5        -24.0960  -30.9400  -20.8160 O.3       1 LP5        -0.3372
     29 C6        -24.0470  -30.9550  -23.3050 C.3       1 LP5         0.0730
     30 O6        -23.8770  -29.7380  -24.0530 O.3       1 LP5        -0.3924
     31 O4        -27.1900  -31.5550  -21.7760 O.3       1 LP5        -0.3861
     32 O3        -27.3270  -28.4630  -21.3290 O.3       1 LP5        -0.2682
     33 C28       -27.6640  -28.4250  -22.7530 C.2       1 LP5         0.2366
     34 O42       -26.9120  -27.8430  -23.5240 O.2       1 LP5        -0.3703
     35 C29       -28.9240  -29.0960  -23.2660 C.3       1 LP5         0.0747
     36 C30       -30.1060  -28.1340  -23.3110 C.3       1 LP5         0.0732
     37 O43       -30.2960  -27.5240  -22.0310 O.3       1 LP5        -0.3893
     38 C31       -31.3600  -28.9070  -23.7020 C.3       1 LP5        -0.0246
     39 C32       -31.5070  -28.9750  -25.2220 C.3       1 LP5        -0.0506
     40 C33       -32.9050  -29.3730  -25.6900 C.3       1 LP5        -0.0530
     41 C34       -34.0250  -28.7940  -24.8310 C.3       1 LP5        -0.0531
     42 C35       -35.3680  -29.4020  -25.2070 C.3       1 LP5        -0.0531
     43 C36       -36.3320  -28.3090  -25.6430 C.3       1 LP5        -0.0531
     44 C37       -37.2790  -28.8230  -26.7160 C.3       1 LP5        -0.0531
     45 C38       -37.7680  -27.6680  -27.5770 C.3       1 LP5        -0.0531
     46 C39       -37.4750  -27.9160  -29.0500 C.3       1 LP5        -0.0533
     47 C40       -36.5290  -26.8550  -29.5950 C.3       1 LP5        -0.0559
     48 C41       -36.5080  -26.8710  -31.1070 C.3       1 LP5        -0.0653
     49 H1        -23.4934  -29.2305  -21.7131 H         1 LP5         0.0987
     50 H2        -24.9625  -27.7969  -21.0142 H         1 LP5         0.0640
     51 H3        -25.3776  -27.3314  -18.8787 H         1 LP5         0.1857
     52 H4        -26.2188  -27.2035  -16.9818 H         1 LP5         0.0528
     53 H5        -25.3563  -28.4327  -15.9960 H         1 LP5         0.0528
     54 H6        -27.3213  -29.5679  -15.4458 H         1 LP5         0.0618
     55 H7        -28.0884  -29.7716  -17.6366 H         1 LP5         0.2100
     56 H8        -28.2386  -26.6947  -15.9658 H         1 LP5         0.0292
     57 H9        -27.2717  -27.2331  -14.5510 H         1 LP5         0.0292
     58 H10       -29.1109  -27.9099  -13.4507 H         1 LP5         0.0266
     59 H11       -29.7049  -28.8365  -14.8703 H         1 LP5         0.0266
     60 H12       -31.2908  -27.2774  -15.1555 H         1 LP5         0.0265
     61 H13       -29.9925  -26.1043  -15.5616 H         1 LP5         0.0265
     62 H14       -31.1028  -26.6495  -12.7675 H         1 LP5         0.0265
     63 H15       -31.5178  -25.2470  -13.8103 H         1 LP5         0.0265
     64 H16       -28.6067  -25.7196  -13.2507 H         1 LP5         0.0265
     65 H17       -29.6220  -25.1506  -11.8824 H         1 LP5         0.0265
     66 H18       -29.0938  -23.0912  -12.7285 H         1 LP5         0.0265
     67 H19       -30.4660  -23.4419  -13.8334 H         1 LP5         0.0265
     68 H20       -28.9527  -24.2518  -15.5589 H         1 LP5         0.0265
     69 H21       -27.5489  -24.1455  -14.4432 H         1 LP5         0.0265
     70 H22       -27.5267  -21.7910  -14.4951 H         1 LP5         0.0265
     71 H23       -29.2141  -21.6933  -15.1031 H         1 LP5         0.0265
     72 H24       -28.4068  -21.5355  -17.1897 H         1 LP5         0.0265
     73 H25       -27.7546  -23.2012  -17.0263 H         1 LP5         0.0265
     74 H26       -25.6776  -22.2663  -16.0237 H         1 LP5         0.0263
     75 H27       -26.3292  -20.6088  -16.2581 H         1 LP5         0.0263
     76 H28       -24.7653  -21.2224  -18.0605 H         1 LP5         0.0230
     77 H29       -26.4305  -20.9932  -18.6938 H         1 LP5         0.0230
     78 H30       -25.7790  -22.6507  -18.4594 H         1 LP5         0.0230
     79 H31       -26.7751  -29.9556  -20.0318 H         1 LP5         0.0702
     80 H32       -26.3379  -30.0913  -22.9616 H         1 LP5         0.0650
     81 H33       -25.0116  -32.3370  -22.0009 H         1 LP5         0.0647
     82 H34       -24.4790  -31.6535  -24.0367 H         1 LP5         0.0584
     83 H35       -23.0177  -31.2623  -23.0681 H         1 LP5         0.0584
     84 H36       -23.3294  -29.9072  -24.8107 H         1 LP5         0.2095
     85 H37       -27.1603  -32.1812  -22.4897 H         1 LP5         0.2100
     86 H38       -29.1749  -29.9358  -22.6014 H         1 LP5         0.0544
     87 H39       -28.7361  -29.4753  -24.2813 H         1 LP5         0.0544
     88 H40       -29.9103  -27.3516  -24.0590 H         1 LP5         0.0620
     89 H41       -31.0344  -26.9277  -22.0721 H         1 LP5         0.2100
     90 H42       -32.2408  -28.4032  -23.2772 H         1 LP5         0.0292
     91 H43       -31.2930  -29.9289  -23.3006 H         1 LP5         0.0292
     92 H44       -30.7892  -29.7143  -25.6069 H         1 LP5         0.0266
     93 H45       -31.2714  -27.9842  -25.6377 H         1 LP5         0.0266
     94 H46       -32.9804  -30.4701  -25.6662 H         1 LP5         0.0265
     95 H47       -33.0401  -29.0185  -26.7225 H         1 LP5         0.0265
     96 H48       -34.0680  -27.7052  -24.9815 H         1 LP5         0.0265
     97 H49       -33.8156  -29.0100  -23.7729 H         1 LP5         0.0265
     98 H50       -35.7853  -29.9293  -24.3365 H         1 LP5         0.0265
     99 H51       -35.2267  -30.1137  -26.0338 H         1 LP5         0.0265
    100 H52       -35.7582  -27.4607  -26.0444 H         1 LP5         0.0265
    101 H53       -36.9181  -27.9767  -24.7735 H         1 LP5         0.0265
    102 H54       -38.1411  -29.3107  -26.2375 H         1 LP5         0.0265
    103 H55       -36.7508  -29.5509  -27.3493 H         1 LP5         0.0265
    104 H56       -37.2602  -26.7449  -27.2608 H         1 LP5         0.0265
    105 H57       -38.8537  -27.5542  -27.4415 H         1 LP5         0.0265
    106 H58       -38.4176  -27.8849  -29.6162 H         1 LP5         0.0265
    107 H59       -37.0111  -28.9068  -29.1644 H         1 LP5         0.0265
    108 H60       -35.5139  -27.0512  -29.2193 H         1 LP5         0.0263
    109 H61       -36.8624  -25.8650  -29.2506 H         1 LP5         0.0263
    110 H62       -35.8179  -26.0962  -31.4723 H         1 LP5         0.0230
    111 H63       -37.5196  -26.6710  -31.4899 H         1 LP5         0.0230
    112 H64       -36.1711  -27.8573  -31.4586 H         1 LP5         0.0230
@<TRIPOS>BOND
     1    1    2 ar 
     2    2    3 ar 
     3    2    4 ar 
     4    2    5 1  
     5    5    6 1  
     6    6    7 1  
     7    6   28 1  
     8    7    8 1  
     9    7   25 1  
    10    8    9 am 
    11    9   10 1  
    12    9   24 2  
    13   10   11 1  
    14   11   12 1  
    15   11   13 1  
    16   13   14 1  
    17   14   15 1  
    18   15   16 1  
    19   16   17 1  
    20   17   18 1  
    21   18   19 1  
    22   19   20 1  
    23   20   21 1  
    24   21   22 1  
    25   22   23 1  
    26   25   26 1  
    27   25   32 1  
    28   26   27 1  
    29   26   31 1  
    30   27   28 1  
    31   27   29 1  
    32   29   30 1  
    33   32   33 1  
    34   33   34 2  
    35   33   35 1  
    36   35   36 1  
    37   36   37 1  
    38   36   38 1  
    39   38   39 1  
    40   39   40 1  
    41   40   41 1  
    42   41   42 1  
    43   42   43 1  
    44   43   44 1  
    45   44   45 1  
    46   45   46 1  
    47   46   47 1  
    48   47   48 1  
    49    6   49 1  
    50    7   50 1  
    51    8   51 1  
    52   10   52 1  
    53   10   53 1  
    54   11   54 1  
    55   12   55 1  
    56   13   56 1  
    57   13   57 1  
    58   14   58 1  
    59   14   59 1  
    60   15   60 1  
    61   15   61 1  
    62   16   62 1  
    63   16   63 1  
    64   17   64 1  
    65   17   65 1  
    66   18   66 1  
    67   18   67 1  
    68   19   68 1  
    69   19   69 1  
    70   20   70 1  
    71   20   71 1  
    72   21   72 1  
    73   21   73 1  
    74   22   74 1  
    75   22   75 1  
    76   23   76 1  
    77   23   77 1  
    78   23   78 1  
    79   25   79 1  
    80   26   80 1  
    81   27   81 1  
    82   29   82 1  
    83   29   83 1  
    84   30   84 1  
    85   31   85 1  
    86   35   86 1  
    87   35   87 1  
    88   36   88 1  
    89   37   89 1  
    90   38   90 1  
    91   38   91 1  
    92   39   92 1  
    93   39   93 1  
    94   40   94 1  
    95   40   95 1  
    96   41   96 1  
    97   41   97 1  
    98   42   98 1  
    99   42   99 1  
   100   43  100 1  
   101   43  101 1  
   102   44  102 1  
   103   44  103 1  
   104   45  104 1  
   105   45  105 1  
   106   46  106 1  
   107   46  107 1  
   108   47  108 1  
   109   47  109 1  
   110   48  110 1  
   111   48  111 1  
   112   48  112 1  
@<TRIPOS>SUBSTRUCTURE
     1 LP5         1

