2vtn_ligand
  -I-interpret- 

 29 30  0  0  0  0  0  0  0  0999 V2000
   24.2750    6.0400   61.0510 C   0  0  0  0  0
   24.8560    4.9370   61.8700 C   0  0  0  0  0
   24.3790    3.8160   61.8750 O   0  0  0  0  0
   25.9500    5.2560   62.5890 N   0  0  0  0  0
   26.6360    4.4170   63.4520 C   0  0  0  0  0
   26.3900    3.1130   63.7670 C   0  0  0  0  0
   27.3230    2.7500   64.6350 N   0  0  0  0  0
   28.1660    3.7680   64.9080 N   0  0  0  0  0
   27.7600    4.7770   64.1830 C   0  0  0  0  0
   28.4830    6.0710   64.2200 C   0  0  0  0  0
   28.0460    7.0580   63.6490 O   0  0  0  0  0
   29.6540    6.0800   64.8810 N   0  0  0  0  0
   30.5230    7.1520   65.0130 C   0  0  0  0  0
   31.1450    7.4050   66.2340 C   0  0  0  0  0
   32.0030    8.4790   66.3690 C   0  0  0  0  0
   32.2420    9.2910   65.2830 C   0  0  0  0  0
   33.0790   10.3340   65.4190 F   0  0  0  0  0
   31.6430    9.0590   64.0580 C   0  0  0  0  0
   30.7810    7.9880   63.9230 C   0  0  0  0  0
   24.2987    5.7601   59.9978 H   0  0  0  0  0
   23.2440    6.2150   61.3586 H   0  0  0  0  0
   24.8591    6.9481   61.2002 H   0  0  0  0  0
   26.3072    6.2061   62.4883 H   0  0  0  0  0
   25.5831    2.4907   63.3801 H   0  0  0  0  0
   29.9315    5.2081   65.3318 H   0  0  0  0  0
   30.9537    6.7527   67.0861 H   0  0  0  0  0
   32.4857    8.6816   67.3251 H   0  0  0  0  0
   31.8484    9.7127   63.2103 H   0  0  0  0  0
   30.3007    7.7944   62.9639 H   0  0  0  0  0
  1  2  1  0  0  0
  2  3  2  0  0  0
  2  4  1  0  0  0
  4  5  1  0  0  0
  5  6  4  0  0  0
  5  9  4  0  0  0
  6  7  4  0  0  0
  7  8  4  0  0  0
  8  9  4  0  0  0
  9 10  1  0  0  0
 10 11  2  0  0  0
 10 12  1  0  0  0
 12 13  1  0  0  0
 13 14  4  0  0  0
 13 19  4  0  0  0
 14 15  4  0  0  0
 15 16  4  0  0  0
 16 17  1  0  0  0
 16 18  4  0  0  0
 18 19  4  0  0  0
  1 20  1  0  0  0
  1 21  1  0  0  0
  1 22  1  0  0  0
  4 23  1  0  0  0
  6 24  1  0  0  0
 12 25  1  0  0  0
 14 26  1  0  0  0
 15 27  1  0  0  0
 18 28  1  0  0  0
 19 29  1  0  0  0
M  END
$$$$
