6udy_ligand
  -I-interpret- 

 55 59  0  0  0  0  0  0  0  0999 V2000
  -12.0770   10.4930  -15.9690 C   0  0  0  0  0
  -10.7690   10.7950  -16.3440 C   0  0  0  0  0
  -10.2880   10.6010  -17.6270 C   0  0  0  0  0
  -17.2720    6.6340  -19.9460 C   0  0  0  0  0
  -18.5990    6.8990  -19.7210 C   0  0  0  0  0
  -18.9900    8.1040  -19.0370 C   0  0  0  0  0
  -17.9890    8.9830  -18.6090 C   0  0  0  0  0
  -14.7700    9.9780  -19.4360 C   0  0  0  0  0
  -13.8130    7.7050  -18.8920 C   0  0  0  0  0
  -16.2300    7.5000  -19.5250 C   0  0  0  0  0
  -16.6180    8.6870  -18.8540 C   0  0  0  0  0
  -13.4660    9.1360  -19.3430 C   0  0  0  0  0
  -19.5930    5.9480  -20.1380 C   0  0  0  0  0
  -14.6210    4.6670  -19.8620 C   0  0  0  0  0
  -14.2660    3.4280  -20.7190 C   0  0  0  0  0
  -13.6140    2.8150  -19.4710 C   0  0  0  0  0
  -12.8530    9.0220  -20.7590 C   0  0  0  0  0
  -10.5850    9.8240  -19.9770 C   0  0  0  0  0
  -14.8980    7.1500  -19.7500 N   0  0  0  0  0
  -15.7100    9.6410  -18.4250 O   0  0  0  0  0
  -20.8420    6.1840  -19.8600 O   0  0  0  0  0
  -19.2750    4.9370  -20.7360 O   0  0  0  0  0
  -14.4990    6.0050  -20.5820 C   0  0  0  0  0
  -13.6000    4.1960  -18.7980 C   0  0  0  0  0
  -11.1310   10.0720  -18.6020 C   0  0  0  0  0
  -12.5060    9.7350  -18.2910 C   0  0  0  0  0
  -12.9310    9.9700  -16.9380 C   0  0  0  0  0
  -11.3220    8.7300  -20.7700 C   0  0  0  0  0
   -9.6640   11.4180  -15.1520 Cl  0  0  0  0  0
  -12.4215   10.6609  -14.9486 H   0  0  0  0  0
   -9.2581   10.8599  -17.8727 H   0  0  0  0  0
  -17.0062    5.7170  -20.4718 H   0  0  0  0  0
  -20.0417    8.3265  -18.8567 H   0  0  0  0  0
  -18.2603    9.8995  -18.0851 H   0  0  0  0  0
  -15.2308    9.7777  -20.4033 H   0  0  0  0  0
  -14.5022   11.0270  -19.3094 H   0  0  0  0  0
  -14.1507    7.7272  -17.8559 H   0  0  0  0  0
  -12.9274    7.0758  -18.9814 H   0  0  0  0  0
  -15.6257    4.9024  -19.5108 H   0  0  0  0  0
  -13.7115    3.5289  -21.6520 H   0  0  0  0  0
  -15.0333    2.8897  -21.2754 H   0  0  0  0  0
  -12.6894    2.2453  -19.5639 H   0  0  0  0  0
  -14.0857    1.9698  -18.9697 H   0  0  0  0  0
  -13.0010    9.9828  -21.2521 H   0  0  0  0  0
  -13.3438    8.1851  -21.2558 H   0  0  0  0  0
   -9.5547    9.4897  -19.8551 H   0  0  0  0  0
  -10.6966   10.7528  -20.5364 H   0  0  0  0  0
  -20.9119    7.0178  -19.3895 H   0  0  0  0  0
  -15.1637    5.9769  -21.4454 H   0  0  0  0  0
  -13.4513    6.1411  -20.8501 H   0  0  0  0  0
  -13.8050    4.3058  -17.7331 H   0  0  0  0  0
  -12.6661    4.7344  -18.6362 H   0  0  0  0  0
  -13.9575    9.7306  -16.6602 H   0  0  0  0  0
  -10.9612    8.7215  -21.7985 H   0  0  0  0  0
  -11.1340    7.7595  -20.3108 H   0  0  0  0  0
  2  1  4  0  0  0
  1 27  4  0  0  0
  3  2  4  0  0  0
  2 29  1  0  0  0
 25  3  4  0  0  0
  4  5  4  0  0  0
 10  4  4  0  0  0
  5  6  4  0  0  0
  5 13  1  0  0  0
  7  6  4  0  0  0
 11  7  4  0  0  0
 12  8  1  0  0  0
 20  8  1  0  0  0
  9 12  1  0  0  0
 19  9  1  0  0  0
 10 11  4  0  0  0
 19 10  1  0  0  0
 11 20  1  0  0  0
 12 17  1  0  0  0
 12 26  1  0  0  0
 13 21  1  0  0  0
 13 22  2  0  0  0
 14 15  1  0  0  0
 23 14  1  0  0  0
 14 24  1  0  0  0
 15 16  1  0  0  0
 24 16  1  0  0  0
 17 28  1  0  0  0
 18 25  1  0  0  0
 28 18  1  0  0  0
 19 23  1  0  0  0
 25 26  4  0  0  0
 26 27  4  0  0  0
  1 30  1  0  0  0
  3 31  1  0  0  0
  4 32  1  0  0  0
  6 33  1  0  0  0
  7 34  1  0  0  0
  8 35  1  0  0  0
  8 36  1  0  0  0
  9 37  1  0  0  0
  9 38  1  0  0  0
 14 39  1  0  0  0
 15 40  1  0  0  0
 15 41  1  0  0  0
 16 42  1  0  0  0
 16 43  1  0  0  0
 17 44  1  0  0  0
 17 45  1  0  0  0
 18 46  1  0  0  0
 18 47  1  0  0  0
 21 48  1  0  0  0
 23 49  1  0  0  0
 23 50  1  0  0  0
 24 51  1  0  0  0
 24 52  1  0  0  0
 27 53  1  0  0  0
 28 54  1  0  0  0
 28 55  1  0  0  0
M  END
$$$$
