3cf9_ligand
  -I-interpret- 

 30 32  0  0  0  0  0  0  0  0999 V2000
   18.8910   16.4080  -11.9940 C   0  0  0  0  0
   20.2660   16.2300  -12.0070 C   0  0  0  0  0
   20.7720   14.9370  -11.9840 C   0  0  0  0  0
   22.1160   14.7890  -11.9920 O   0  0  0  0  0
   19.9240   13.8240  -11.9580 C   0  0  0  0  0
   18.5390   14.0070  -11.9480 C   0  0  0  0  0
   18.0290   15.3090  -11.9930 C   0  0  0  0  0
   16.6790   15.6290  -11.9380 C   0  0  0  0  0
   16.1770   16.6270  -12.7550 O   0  0  0  0  0
   15.9010   14.9790  -10.9750 C   0  0  0  0  0
   14.5600   15.3120  -10.8450 C   0  0  0  0  0
   13.8680   14.7270  -10.0060 O   0  0  0  0  0
   14.0460   16.3460  -11.6310 C   0  0  0  0  0
   14.8690   17.0080  -12.5540 C   0  0  0  0  0
   14.3460   18.0750  -13.2960 C   0  0  0  0  0
   13.0260   18.5010  -13.1030 C   0  0  0  0  0
   12.5260   19.5440  -13.8320 O   0  0  0  0  0
   12.2180   17.8620  -12.1640 C   0  0  0  0  0
   12.7460   16.8050  -11.4200 C   0  0  0  0  0
   11.9810   16.1860  -10.4890 O   0  0  0  0  0
   18.4782   17.4168  -11.9845 H   0  0  0  0  0
   20.9370   17.0886  -12.0347 H   0  0  0  0  0
   22.3340   13.8542  -11.9742 H   0  0  0  0  0
   20.3427   12.8177  -11.9456 H   0  0  0  0  0
   17.8671   13.1498  -11.9058 H   0  0  0  0  0
   16.3436   14.2179  -10.3324 H   0  0  0  0  0
   14.9732   18.5790  -14.0314 H   0  0  0  0  0
   11.6145   19.7037  -13.5764 H   0  0  0  0  0
   11.1875   18.1832  -12.0125 H   0  0  0  0  0
   11.1186   16.6063  -10.4542 H   0  0  0  0  0
  1  2  4  0  0  0
  1  7  4  0  0  0
  2  3  4  0  0  0
  3  4  1  0  0  0
  3  5  4  0  0  0
  5  6  4  0  0  0
  6  7  4  0  0  0
  7  8  1  0  0  0
  8  9  1  0  0  0
  8 10  2  0  0  0
  9 14  1  0  0  0
 10 11  1  0  0  0
 11 12  2  0  0  0
 11 13  1  0  0  0
 13 14  4  0  0  0
 13 19  4  0  0  0
 14 15  4  0  0  0
 15 16  4  0  0  0
 16 17  1  0  0  0
 16 18  4  0  0  0
 18 19  4  0  0  0
 19 20  1  0  0  0
  1 21  1  0  0  0
  2 22  1  0  0  0
  4 23  1  0  0  0
  5 24  1  0  0  0
  6 25  1  0  0  0
 10 26  1  0  0  0
 15 27  1  0  0  0
 17 28  1  0  0  0
 18 29  1  0  0  0
 20 30  1  0  0  0
M  END
$$$$
