### 
### Created by X-TOOL on Mon Sep 10 21:13:32 2018
### 

@<TRIPOS>MOLECULE
5ksu_ligand
  234   235     1     0     0
SMALL
GAST_HUCK


@<TRIPOS>ATOM
      1 N          -9.0440   32.4190   64.1530 N.4       1 PRO         0.2461
      2 CA         -7.9330   32.8820   63.3530 C.3       1 PRO         0.0670
      3 C          -7.2140   31.6360   63.0990 C.2       1 PRO         0.2268
      4 O          -6.2940   31.5560   62.3410 O.2       1 PRO        -0.3907
      5 CB         -7.1730   33.7370   64.3250 C.3       1 PRO         0.0127
      6 CG         -8.2480   34.3570   65.1400 C.3       1 PRO        -0.0053
      7 CD         -9.2430   33.2660   65.3360 C.3       1 PRO        -0.0313
      8 N          -7.7060   30.6490   63.7820 N.am      1 VAL        -0.2608
      9 CA         -7.4090   29.2290   63.6120 C.3       1 VAL         0.1334
     10 C          -7.9130   28.8310   62.2280 C.2       1 VAL         0.2042
     11 O          -9.0910   29.0260   61.9180 O.2       1 VAL        -0.3944
     12 CB         -8.0260   28.3450   64.7120 C.3       1 VAL        -0.0063
     13 CG1        -7.5650   26.9080   64.5530 C.3       1 VAL        -0.0584
     14 CG2        -7.6500   28.8720   66.0910 C.3       1 VAL        -0.0584
     15 N          -7.0240   28.2850   61.3980 N.am      1 SER        -0.2616
     16 CA         -7.3610   27.9560   60.0090 C.3       1 SER         0.1539
     17 C          -8.1650   26.6650   59.8680 C.2       1 SER         0.2062
     18 O          -8.0300   25.7340   60.6680 O.2       1 SER        -0.3943
     19 CB         -6.0980   27.8920   59.1410 C.3       1 SER         0.0843
     20 OG         -5.3240   29.0740   59.2530 O.3       1 SER        -0.3903
     21 N          -9.0100   26.6360   58.8360 N.am      1 LYS        -0.2637
     22 CA        -10.0150   25.5900   58.6670 C.3       1 LYS         0.1310
     23 C          -9.7700   24.7490   57.4320 C.2       1 LYS         0.2039
     24 O          -9.4820   25.2860   56.3670 O.2       1 LYS        -0.3944
     25 CB        -11.4050   26.2420   58.5480 C.3       1 LYS        -0.0122
     26 CG        -11.4130   27.5710   57.7390 C.3       1 LYS        -0.0440
     27 CD        -12.7950   27.9280   57.1660 C.3       1 LYS        -0.0124
     28 CE        -13.0290   29.4340   57.1440 C.3       1 LYS        -0.0354
     29 NZ        -11.9460   30.1510   56.4360 N.4       1 LYS         0.2185
     30 N          -9.9010   23.4320   57.5720 N.am      1 MET        -0.2637
     31 CA         -9.8820   22.5420   56.4110 C.3       1 MET         0.1317
     32 C         -11.2830   22.4680   55.8150 C.2       1 MET         0.2039
     33 O         -12.2450   22.1140   56.5040 O.2       1 MET        -0.3944
     34 CB         -9.4190   21.1360   56.7800 C.3       1 MET        -0.0034
     35 CG         -7.9590   20.9900   56.9590 C.3       1 MET        -0.0024
     36 SD         -7.0650   20.8440   55.4000 S.3       1 MET        -0.1639
     37 CE         -7.4250   19.1130   54.9910 C.3       1 MET        -0.0181
     38 N         -11.3860   22.7880   54.5280 N.am      1 ARG        -0.2637
     39 CA        -12.6750   22.8160   53.8400 C.3       1 ARG         0.1311
     40 C         -12.9910   21.5130   53.1100 C.2       1 ARG         0.2039
     41 O         -12.1190   20.6890   52.8830 O.2       1 ARG        -0.3944
     42 CB        -12.7320   24.0120   52.8980 C.3       1 ARG        -0.0092
     43 CG        -12.6190   25.3280   53.6270 C.3       1 ARG        -0.0156
     44 CD        -12.6850   26.4930   52.6790 C.3       1 ARG         0.0627
     45 NE        -12.4940   27.7650   53.3620 N.pl3     1 ARG        -0.2723
     46 CZ        -12.3050   28.9170   52.7340 C.cat     1 ARG         0.2882
     47 NH1       -12.2900   28.9500   51.4070 N.pl3     1 ARG        -0.2849
     48 NH2       -12.1470   30.0330   53.4280 N.pl3     1 ARG        -0.2849
     49 N         -14.2410   21.3380   52.7300 N.am      1 MET        -0.2637
     50 CA        -14.6560   20.1060   52.0810 C.3       1 MET         0.1317
     51 C         -15.5710   20.4250   50.9140 C.2       1 MET         0.2039
     52 O         -16.2350   21.4480   50.9200 O.2       1 MET        -0.3944
     53 CB        -15.4170   19.2390   53.0720 C.3       1 MET        -0.0034
     54 CG        -16.6140   19.9850   53.6180 C.3       1 MET        -0.0024
     55 SD        -18.0140   19.0020   54.1330 S.3       1 MET        -0.1639
     56 CE        -19.0960   20.3510   54.5220 C.3       1 MET        -0.0181
     57 N         -15.5750   19.5600   49.9050 N.am      1 ALA        -0.2640
     58 CA        -16.5520   19.6470   48.8260 C.3       1 ALA         0.1282
     59 C         -17.8330   19.0000   49.3190 C.2       1 ALA         0.2037
     60 O         -17.7650   17.9600   49.9720 O.2       1 ALA        -0.3944
     61 CB        -16.0610   18.9140   47.6190 C.3       1 ALA        -0.0244
     62 N         -18.8760   19.6550   48.8730 N.am      1 THR        -0.2613
     63 CA        -20.1440   19.2050   49.3850 C.3       1 THR         0.1567
     64 C         -20.9620   18.4210   48.3160 C.2       1 THR         0.2090
     65 O         -20.9710   18.7720   47.1300 O.2       1 THR        -0.3941
     66 CB        -20.8560   20.4050   50.0140 C.3       1 THR         0.0924
     67 OG1       -21.7360   19.9470   51.0400 O.3       1 THR        -0.3874
     68 CG2       -21.6000   21.2520   48.9800 C.3       1 THR        -0.0346
     69 N         -21.6240   17.3250   48.7350 N.am      1 PRO        -0.2498
     70 CA        -22.4640   16.5340   47.8260 C.3       1 PRO         0.1338
     71 C         -23.7980   17.2020   47.5720 C.2       1 PRO         0.2041
     72 O         -24.2630   18.0280   48.3730 O.2       1 PRO        -0.3944
     73 CB        -22.7010   15.2330   48.5970 C.3       1 PRO        -0.0104
     74 CG        -22.6240   15.6300   50.0170 C.3       1 PRO        -0.0281
     75 CD        -21.6340   16.7780   50.1010 C.3       1 PRO         0.0369
     76 N         -24.4090   16.8250   46.4530 N.am      1 LEU        -0.2637
     77 CA        -25.7240   17.3260   46.0820 C.3       1 LEU         0.1312
     78 C         -26.8610   16.3140   46.2570 C.2       1 LEU         0.2039
     79 O         -26.7080   15.1000   46.0370 O.2       1 LEU        -0.3944
     80 CB        -25.6810   17.8290   44.6480 C.3       1 LEU        -0.0101
     81 CG        -24.7960   19.0610   44.4710 C.3       1 LEU        -0.0425
     82 CD1       -24.6040   19.3780   43.0110 C.3       1 LEU        -0.0625
     83 CD2       -25.4120   20.2520   45.1780 C.3       1 LEU        -0.0625
     84 N         -28.0190   16.8510   46.6410 N.am      1 LEU        -0.2637
     85 CA        -29.2410   16.0670   46.7260 C.3       1 LEU         0.1312
     86 C         -29.7660   15.8740   45.3200 C.2       1 LEU         0.2039
     87 O         -29.8540   16.8270   44.5470 O.2       1 LEU        -0.3944
     88 CB        -30.2810   16.8110   47.5540 C.3       1 LEU        -0.0101
     89 CG        -30.8040   16.2250   48.8670 C.3       1 LEU        -0.0425
     90 CD1       -32.0950   16.9420   49.2690 C.3       1 LEU        -0.0625
     91 CD2       -31.0260   14.7310   48.7600 C.3       1 LEU        -0.0625
     92 N         -30.1480   14.6450   45.0000 N.am      1 MET        -0.2637
     93 CA        -30.8660   14.3770   43.7650 C.3       1 MET         0.1317
     94 C         -32.3190   14.8590   43.9500 C.2       1 MET         0.2034
     95 O         -32.7580   15.0910   45.0790 O.2       1 MET        -0.3944
     96 CB        -30.7760   12.8880   43.4370 C.3       1 MET        -0.0034
     97 CG        -29.4140   12.4590   42.9290 C.3       1 MET        -0.0024
     98 SD        -29.1020   10.6750   42.9610 S.3       1 MET        -0.1639
     99 CE        -27.4600   10.5650   42.2650 C.3       1 MET        -0.0181
    100 N         -33.0640   15.0420   42.8660 N.am      1 GLN        -0.2693
    101 CA        -34.4230   15.5800   42.9910 C.3       1 GLN         0.0964
    102 C         -35.4660   14.5470   43.4230 C.2       1 GLN         0.0602
    103 O         -35.1360   13.3940   43.7160 O.co2     1 GLN        -0.5666
    104 CB        -34.8480   16.2240   41.6800 C.3       1 GLN        -0.0010
    105 CG        -36.1990   16.8890   41.7330 C.3       1 GLN         0.0407
    106 CD        -36.6200   17.4040   40.3750 C.2       1 GLN         0.1737
    107 OE1       -35.8290   17.3990   39.4290 O.2       1 GLN        -0.3973
    108 NE2       -37.8690   17.8470   40.2680 N.am      1 GLN        -0.3009
    109 OXT       -36.6630   14.8410   43.4890 O.co2     1 GLN        -0.5666
    110 H1         -8.8606   31.4744   64.4533 H         1 PRO         0.2035
    111 H2         -9.8816   32.4368   63.5924 H         1 PRO         0.2035
    112 H3         -8.2131   33.4173   62.4338 H         1 PRO         0.1099
    113 H4         -6.5837   34.5033   63.8001 H         1 PRO         0.0347
    114 H5         -6.5057   33.1260   64.9506 H         1 PRO         0.0347
    115 H6         -8.7011   35.2051   64.6057 H         1 PRO         0.0320
    116 H7         -7.8532   34.7016   66.1071 H         1 PRO         0.0320
    117 H8         -9.0391   32.7069   66.2611 H         1 PRO         0.0814
    118 H9        -10.2671   33.6663   65.3676 H         1 PRO         0.0814
    119 H10        -8.3584   30.8856   64.5020 H         1 VAL         0.1885
    120 H11        -6.3180   29.0929   63.6468 H         1 VAL         0.0802
    121 H12        -9.1211   28.3750   64.6124 H         1 VAL         0.0343
    122 H13        -8.0132   26.2895   65.3446 H         1 VAL         0.0234
    123 H14        -6.4686   26.8640   64.6299 H         1 VAL         0.0234
    124 H15        -7.8791   26.5288   63.5694 H         1 VAL         0.0234
    125 H16        -7.9904   29.9132   66.1909 H         1 VAL         0.0234
    126 H17        -6.5578   28.8299   66.2144 H         1 VAL         0.0234
    127 H18        -8.1304   28.2535   66.8634 H         1 VAL         0.0234
    128 H19        -6.1009   28.0943   61.7320 H         1 SER         0.1884
    129 H20        -7.9891   28.7740   59.6264 H         1 SER         0.0823
    130 H21        -6.3942   27.7582   58.0901 H         1 SER         0.0606
    131 H22        -5.4880   27.0348   59.4620 H         1 SER         0.0606
    132 H23        -4.5524   28.9992   58.7039 H         1 SER         0.2097
    133 H24        -8.9528   27.3608   58.1495 H         1 LYS         0.1883
    134 H25        -9.9929   24.9352   59.5506 H         1 LYS         0.0800
    135 H26       -11.7766   26.4519   59.5618 H         1 LYS         0.0312
    136 H27       -12.0797   25.5300   58.0502 H         1 LYS         0.0312
    137 H28       -10.7033   27.4754   56.9040 H         1 LYS         0.0269
    138 H29       -11.0898   28.3859   58.4035 H         1 LYS         0.0269
    139 H30       -13.5704   27.4567   57.7877 H         1 LYS         0.0317
    140 H31       -12.8644   27.5423   56.1382 H         1 LYS         0.0317
    141 H32       -13.0803   29.8010   58.1797 H         1 LYS         0.0813
    142 H33       -13.9825   29.6382   56.6349 H         1 LYS         0.0813
    143 H34       -12.1374   31.1406   56.4435 H         1 LYS         0.1994
    144 H35       -11.8947   29.8260   55.4832 H         1 LYS         0.1994
    145 H36       -11.0680   29.9751   56.8988 H         1 LYS         0.1994
    146 H37       -10.0144   23.0440   58.4867 H         1 MET         0.1883
    147 H38        -9.1909   22.9550   55.6615 H         1 MET         0.0800
    148 H39        -9.7356   20.4507   55.9800 H         1 MET         0.0320
    149 H40        -9.9093   20.8508   57.7225 H         1 MET         0.0320
    150 H41        -7.7684   20.0869   57.5574 H         1 MET         0.0378
    151 H42        -7.5824   21.8725   57.4969 H         1 MET         0.0378
    152 H43        -6.9393   18.8525   54.0390 H         1 MET         0.0340
    153 H44        -8.5125   18.9769   54.8970 H         1 MET         0.0340
    154 H45        -7.0414   18.4602   55.7890 H         1 MET         0.0340
    155 H46       -10.5575   23.0160   54.0165 H         1 ARG         0.1883
    156 H47       -13.4534   22.9549   54.6047 H         1 ARG         0.0800
    157 H48       -13.6895   23.9896   52.3571 H         1 ARG         0.0313
    158 H49       -11.9029   23.9347   52.1793 H         1 ARG         0.0313
    159 H50       -11.6589   25.3579   54.1630 H         1 ARG         0.0301
    160 H51       -13.4449   25.4082   54.3492 H         1 ARG         0.0301
    161 H52       -13.6703   26.4973   52.1899 H         1 ARG         0.0689
    162 H53       -11.8986   26.3769   51.9186 H         1 ARG         0.0689
    163 H54       -12.5065   27.7698   54.3919 H         1 ARG         0.2642
    164 H55       -12.1434   29.8433   50.9157 H         1 ARG         0.2615
    165 H56       -12.4250   28.0823   50.8687 H         1 ARG         0.2615
    166 H57       -12.1589   30.0053   54.4576 H         1 ARG         0.2615
    167 H58       -12.0121   30.9291   52.9385 H         1 ARG         0.2615
    168 H59       -14.9119   22.0620   52.8903 H         1 MET         0.1883
    169 H60       -13.7692   19.5649   51.7193 H         1 MET         0.0800
    170 H61       -14.7494   18.9680   53.9032 H         1 MET         0.0320
    171 H62       -15.7604   18.3254   52.5646 H         1 MET         0.0320
    172 H63       -16.9621   20.6737   52.8341 H         1 MET         0.0378
    173 H64       -16.2754   20.5633   54.4903 H         1 MET         0.0378
    174 H65       -20.0604   19.9573   54.8755 H         1 MET         0.0340
    175 H66       -19.2574   20.9628   53.6222 H         1 MET         0.0340
    176 H67       -18.6418   20.9700   55.3097 H         1 MET         0.0340
    177 H68       -14.8907   18.8311   49.8853 H         1 ALA         0.1883
    178 H69       -16.7341   20.7008   48.5685 H         1 ALA         0.0797
    179 H70       -16.8083   18.9891   46.8153 H         1 ALA         0.0277
    180 H71       -15.9005   17.8558   47.8727 H         1 ALA         0.0277
    181 H72       -15.1131   19.3579   47.2808 H         1 ALA         0.0277
    182 H73       -18.7972   20.4121   48.2244 H         1 THR         0.1884
    183 H74       -19.9407   18.4921   50.1976 H         1 THR         0.0826
    184 H75       -20.0923   21.0458   50.4788 H         1 THR         0.0639
    185 H76       -22.1787   20.6909   51.4313 H         1 THR         0.2101
    186 H77       -22.0916   22.0973   49.4838 H         1 THR         0.0257
    187 H78       -22.3581   20.6340   48.4767 H         1 THR         0.0257
    188 H79       -20.8853   21.6339   48.2361 H         1 THR         0.0257
    189 H80       -21.9482   16.3509   46.8719 H         1 PRO         0.0802
    190 H81       -21.9248   14.4913   48.3574 H         1 PRO         0.0313
    191 H82       -23.6915   14.8161   48.3624 H         1 PRO         0.0313
    192 H83       -22.2752   14.7843   50.6278 H         1 PRO         0.0287
    193 H84       -23.6124   15.9562   50.3727 H         1 PRO         0.0287
    194 H85       -21.9704   17.5348   50.8249 H         1 PRO         0.0524
    195 H86       -20.6354   16.4157   50.3866 H         1 PRO         0.0524
    196 H87       -23.9499   16.1759   45.8464 H         1 LEU         0.1883
    197 H88       -25.9467   18.1801   46.7385 H         1 LEU         0.0800
    198 H89       -26.7042   18.0855   44.3362 H         1 LEU         0.0315
    199 H90       -25.2929   17.0243   44.0063 H         1 LEU         0.0315
    200 H91       -23.8127   18.8533   44.9181 H         1 LEU         0.0298
    201 H92       -23.9645   20.2673   42.9099 H         1 LEU         0.0232
    202 H93       -25.5817   19.5748   42.5468 H         1 LEU         0.0232
    203 H94       -24.1256   18.5235   42.5101 H         1 LEU         0.0232
    204 H95       -25.5499   20.0150   46.2433 H         1 LEU         0.0232
    205 H96       -26.3872   20.4834   44.7247 H         1 LEU         0.0232
    206 H97       -24.7460   21.1219   45.0792 H         1 LEU         0.0232
    207 H98       -28.0484   17.8221   46.8778 H         1 LEU         0.1883
    208 H99       -29.0296   15.0912   47.1877 H         1 LEU         0.0800
    209 H100      -31.1565   16.9531   46.9034 H         1 LEU         0.0315
    210 H101      -29.8441   17.7901   47.7998 H         1 LEU         0.0315
    211 H102      -30.0504   16.4019   49.6485 H         1 LEU         0.0298
    212 H103      -32.4701   16.5199   50.2130 H         1 LEU         0.0232
    213 H104      -32.8504   16.8064   48.4810 H         1 LEU         0.0232
    214 H105      -31.8924   18.0150   49.4020 H         1 LEU         0.0232
    215 H106      -30.0850   14.2403   48.4705 H         1 LEU         0.0232
    216 H107      -31.7944   14.5280   47.9996 H         1 LEU         0.0232
    217 H108      -31.3597   14.3393   49.7322 H         1 LEU         0.0232
    218 H109      -29.9382   13.8888   45.6198 H         1 MET         0.1883
    219 H110      -30.4058   14.9441   42.9425 H         1 MET         0.0800
    220 H111      -31.5239   12.6564   42.6643 H         1 MET         0.0320
    221 H112      -31.0024   12.3168   44.3494 H         1 MET         0.0320
    222 H113      -28.6499   12.9487   43.5505 H         1 MET         0.0378
    223 H114      -29.3158   12.8024   41.8886 H         1 MET         0.0378
    224 H115      -27.1471    9.5111   42.2286 H         1 MET         0.0340
    225 H116      -26.7574   11.1346   42.8910 H         1 MET         0.0340
    226 H117      -27.4646   10.9815   41.2469 H         1 MET         0.0340
    227 H118      -32.6983   14.8129   41.9639 H         1 GLN         0.1875
    228 H119      -34.3959   16.3618   43.7643 H         1 GLN         0.0727
    229 H120      -34.8767   15.4440   40.9049 H         1 GLN         0.0330
    230 H121      -34.0994   16.9830   41.4089 H         1 GLN         0.0330
    231 H122      -36.1539   17.7333   42.4366 H         1 GLN         0.0504
    232 H123      -36.9428   16.1586   42.0840 H         1 GLN         0.0504
    233 H124      -38.2014   18.1991   39.3930 H         1 GLN         0.1814
    234 H125      -38.4760   17.8281   41.0625 H         1 GLN         0.1814
@<TRIPOS>BOND
     1    1    2 1  
     2    1    7 1  
     3    2    3 1  
     4    2    5 1  
     5    3    4 2  
     6    3    8 am 
     7    5    6 1  
     8    6    7 1  
     9    8    9 1  
    10    9   10 1  
    11    9   12 1  
    12   10   11 2  
    13   10   15 am 
    14   12   13 1  
    15   12   14 1  
    16   15   16 1  
    17   16   17 1  
    18   16   19 1  
    19   17   18 2  
    20   17   21 am 
    21   19   20 1  
    22   21   22 1  
    23   22   23 1  
    24   22   25 1  
    25   23   24 2  
    26   23   30 am 
    27   25   26 1  
    28   26   27 1  
    29   27   28 1  
    30   28   29 1  
    31   30   31 1  
    32   31   32 1  
    33   31   34 1  
    34   32   33 2  
    35   32   38 am 
    36   34   35 1  
    37   35   36 1  
    38   36   37 1  
    39   38   39 1  
    40   39   40 1  
    41   39   42 1  
    42   40   41 2  
    43   40   49 am 
    44   42   43 1  
    45   43   44 1  
    46   44   45 1  
    47   45   46 ar 
    48   46   47 ar 
    49   46   48 ar 
    50   49   50 1  
    51   50   51 1  
    52   50   53 1  
    53   51   52 2  
    54   51   57 am 
    55   53   54 1  
    56   54   55 1  
    57   55   56 1  
    58   57   58 1  
    59   58   59 1  
    60   58   61 1  
    61   59   60 2  
    62   59   62 am 
    63   62   63 1  
    64   63   64 1  
    65   63   66 1  
    66   64   65 2  
    67   64   69 am 
    68   66   67 1  
    69   66   68 1  
    70   69   70 1  
    71   69   75 1  
    72   70   71 1  
    73   70   73 1  
    74   71   72 2  
    75   71   76 am 
    76   73   74 1  
    77   74   75 1  
    78   76   77 1  
    79   77   78 1  
    80   77   80 1  
    81   78   79 2  
    82   78   84 am 
    83   80   81 1  
    84   81   82 1  
    85   81   83 1  
    86   84   85 1  
    87   85   86 1  
    88   85   88 1  
    89   86   87 2  
    90   86   92 am 
    91   88   89 1  
    92   89   90 1  
    93   89   91 1  
    94   92   93 1  
    95   93   94 1  
    96   93   96 1  
    97   94   95 2  
    98   94  100 am 
    99   96   97 1  
   100   97   98 1  
   101   98   99 1  
   102  100  101 1  
   103  101  102 1  
   104  101  104 1  
   105  102  103 ar 
   106  102  109 ar 
   107  104  105 1  
   108  105  106 1  
   109  106  107 2  
   110  106  108 am 
   111    1  110 1  
   112    1  111 1  
   113    2  112 1  
   114    5  113 1  
   115    5  114 1  
   116    6  115 1  
   117    6  116 1  
   118    7  117 1  
   119    7  118 1  
   120    8  119 1  
   121    9  120 1  
   122   12  121 1  
   123   13  122 1  
   124   13  123 1  
   125   13  124 1  
   126   14  125 1  
   127   14  126 1  
   128   14  127 1  
   129   15  128 1  
   130   16  129 1  
   131   19  130 1  
   132   19  131 1  
   133   20  132 1  
   134   21  133 1  
   135   22  134 1  
   136   25  135 1  
   137   25  136 1  
   138   26  137 1  
   139   26  138 1  
   140   27  139 1  
   141   27  140 1  
   142   28  141 1  
   143   28  142 1  
   144   29  143 1  
   145   29  144 1  
   146   29  145 1  
   147   30  146 1  
   148   31  147 1  
   149   34  148 1  
   150   34  149 1  
   151   35  150 1  
   152   35  151 1  
   153   37  152 1  
   154   37  153 1  
   155   37  154 1  
   156   38  155 1  
   157   39  156 1  
   158   42  157 1  
   159   42  158 1  
   160   43  159 1  
   161   43  160 1  
   162   44  161 1  
   163   44  162 1  
   164   45  163 1  
   165   47  164 1  
   166   47  165 1  
   167   48  166 1  
   168   48  167 1  
   169   49  168 1  
   170   50  169 1  
   171   53  170 1  
   172   53  171 1  
   173   54  172 1  
   174   54  173 1  
   175   56  174 1  
   176   56  175 1  
   177   56  176 1  
   178   57  177 1  
   179   58  178 1  
   180   61  179 1  
   181   61  180 1  
   182   61  181 1  
   183   62  182 1  
   184   63  183 1  
   185   66  184 1  
   186   67  185 1  
   187   68  186 1  
   188   68  187 1  
   189   68  188 1  
   190   70  189 1  
   191   73  190 1  
   192   73  191 1  
   193   74  192 1  
   194   74  193 1  
   195   75  194 1  
   196   75  195 1  
   197   76  196 1  
   198   77  197 1  
   199   80  198 1  
   200   80  199 1  
   201   81  200 1  
   202   82  201 1  
   203   82  202 1  
   204   82  203 1  
   205   83  204 1  
   206   83  205 1  
   207   83  206 1  
   208   84  207 1  
   209   85  208 1  
   210   88  209 1  
   211   88  210 1  
   212   89  211 1  
   213   90  212 1  
   214   90  213 1  
   215   90  214 1  
   216   91  215 1  
   217   91  216 1  
   218   91  217 1  
   219   92  218 1  
   220   93  219 1  
   221   96  220 1  
   222   96  221 1  
   223   97  222 1  
   224   97  223 1  
   225   99  224 1  
   226   99  225 1  
   227   99  226 1  
   228  100  227 1  
   229  101  228 1  
   230  104  229 1  
   231  104  230 1  
   232  105  231 1  
   233  105  232 1  
   234  108  233 1  
   235  108  234 1  
@<TRIPOS>SUBSTRUCTURE
     1 PRO         1

