5ksu_ligand
  -I-interpret- 

234235  0  0  0  0  0  0  0  0999 V2000
   -9.0440   32.4190   64.1530 N   0  3  0  0  0
   -7.9330   32.8820   63.3530 C   0  0  0  0  0
   -7.2140   31.6360   63.0990 C   0  0  0  0  0
   -6.2940   31.5560   62.3410 O   0  0  0  0  0
   -7.1730   33.7370   64.3250 C   0  0  0  0  0
   -8.2480   34.3570   65.1400 C   0  0  0  0  0
   -9.2430   33.2660   65.3360 C   0  0  0  0  0
   -7.7060   30.6490   63.7820 N   0  0  0  0  0
   -7.4090   29.2290   63.6120 C   0  0  0  0  0
   -7.9130   28.8310   62.2280 C   0  0  0  0  0
   -9.0910   29.0260   61.9180 O   0  0  0  0  0
   -8.0260   28.3450   64.7120 C   0  0  0  0  0
   -7.5650   26.9080   64.5530 C   0  0  0  0  0
   -7.6500   28.8720   66.0910 C   0  0  0  0  0
   -7.0240   28.2850   61.3980 N   0  0  0  0  0
   -7.3610   27.9560   60.0090 C   0  0  0  0  0
   -8.1650   26.6650   59.8680 C   0  0  0  0  0
   -8.0300   25.7340   60.6680 O   0  0  0  0  0
   -6.0980   27.8920   59.1410 C   0  0  0  0  0
   -5.3240   29.0740   59.2530 O   0  0  0  0  0
   -9.0100   26.6360   58.8360 N   0  0  0  0  0
  -10.0150   25.5900   58.6670 C   0  0  0  0  0
   -9.7700   24.7490   57.4320 C   0  0  0  0  0
   -9.4820   25.2860   56.3670 O   0  0  0  0  0
  -11.4050   26.2420   58.5480 C   0  0  0  0  0
  -11.4130   27.5710   57.7390 C   0  0  0  0  0
  -12.7950   27.9280   57.1660 C   0  0  0  0  0
  -13.0290   29.4340   57.1440 C   0  0  0  0  0
  -11.9460   30.1510   56.4360 N   0  3  0  0  0
   -9.9010   23.4320   57.5720 N   0  0  0  0  0
   -9.8820   22.5420   56.4110 C   0  0  0  0  0
  -11.2830   22.4680   55.8150 C   0  0  0  0  0
  -12.2450   22.1140   56.5040 O   0  0  0  0  0
   -9.4190   21.1360   56.7800 C   0  0  0  0  0
   -7.9590   20.9900   56.9590 C   0  0  0  0  0
   -7.0650   20.8440   55.4000 S   0  0  0  0  0
   -7.4250   19.1130   54.9910 C   0  0  0  0  0
  -11.3860   22.7880   54.5280 N   0  0  0  0  0
  -12.6750   22.8160   53.8400 C   0  0  0  0  0
  -12.9910   21.5130   53.1100 C   0  0  0  0  0
  -12.1190   20.6890   52.8830 O   0  0  0  0  0
  -12.7320   24.0120   52.8980 C   0  0  0  0  0
  -12.6190   25.3280   53.6270 C   0  0  0  0  0
  -12.6850   26.4930   52.6790 C   0  0  0  0  0
  -12.4940   27.7650   53.3620 N   0  0  0  0  0
  -12.3050   28.9170   52.7340 C   0  0  0  0  0
  -12.2900   28.9500   51.4070 N   0  0  0  0  0
  -12.1470   30.0330   53.4280 N   0  0  0  0  0
  -14.2410   21.3380   52.7300 N   0  0  0  0  0
  -14.6560   20.1060   52.0810 C   0  0  0  0  0
  -15.5710   20.4250   50.9140 C   0  0  0  0  0
  -16.2350   21.4480   50.9200 O   0  0  0  0  0
  -15.4170   19.2390   53.0720 C   0  0  0  0  0
  -16.6140   19.9850   53.6180 C   0  0  0  0  0
  -18.0140   19.0020   54.1330 S   0  0  0  0  0
  -19.0960   20.3510   54.5220 C   0  0  0  0  0
  -15.5750   19.5600   49.9050 N   0  0  0  0  0
  -16.5520   19.6470   48.8260 C   0  0  0  0  0
  -17.8330   19.0000   49.3190 C   0  0  0  0  0
  -17.7650   17.9600   49.9720 O   0  0  0  0  0
  -16.0610   18.9140   47.6190 C   0  0  0  0  0
  -18.8760   19.6550   48.8730 N   0  0  0  0  0
  -20.1440   19.2050   49.3850 C   0  0  0  0  0
  -20.9620   18.4210   48.3160 C   0  0  0  0  0
  -20.9710   18.7720   47.1300 O   0  0  0  0  0
  -20.8560   20.4050   50.0140 C   0  0  0  0  0
  -21.7360   19.9470   51.0400 O   0  0  0  0  0
  -21.6000   21.2520   48.9800 C   0  0  0  0  0
  -21.6240   17.3250   48.7350 N   0  0  0  0  0
  -22.4640   16.5340   47.8260 C   0  0  0  0  0
  -23.7980   17.2020   47.5720 C   0  0  0  0  0
  -24.2630   18.0280   48.3730 O   0  0  0  0  0
  -22.7010   15.2330   48.5970 C   0  0  0  0  0
  -22.6240   15.6300   50.0170 C   0  0  0  0  0
  -21.6340   16.7780   50.1010 C   0  0  0  0  0
  -24.4090   16.8250   46.4530 N   0  0  0  0  0
  -25.7240   17.3260   46.0820 C   0  0  0  0  0
  -26.8610   16.3140   46.2570 C   0  0  0  0  0
  -26.7080   15.1000   46.0370 O   0  0  0  0  0
  -25.6810   17.8290   44.6480 C   0  0  0  0  0
  -24.7960   19.0610   44.4710 C   0  0  0  0  0
  -24.6040   19.3780   43.0110 C   0  0  0  0  0
  -25.4120   20.2520   45.1780 C   0  0  0  0  0
  -28.0190   16.8510   46.6410 N   0  0  0  0  0
  -29.2410   16.0670   46.7260 C   0  0  0  0  0
  -29.7660   15.8740   45.3200 C   0  0  0  0  0
  -29.8540   16.8270   44.5470 O   0  0  0  0  0
  -30.2810   16.8110   47.5540 C   0  0  0  0  0
  -30.8040   16.2250   48.8670 C   0  0  0  0  0
  -32.0950   16.9420   49.2690 C   0  0  0  0  0
  -31.0260   14.7310   48.7600 C   0  0  0  0  0
  -30.1480   14.6450   45.0000 N   0  0  0  0  0
  -30.8660   14.3770   43.7650 C   0  0  0  0  0
  -32.3190   14.8590   43.9500 C   0  0  0  0  0
  -32.7580   15.0910   45.0790 O   0  0  0  0  0
  -30.7760   12.8880   43.4370 C   0  0  0  0  0
  -29.4140   12.4590   42.9290 C   0  0  0  0  0
  -29.1020   10.6750   42.9610 S   0  0  0  0  0
  -27.4600   10.5650   42.2650 C   0  0  0  0  0
  -33.0640   15.0420   42.8660 N   0  0  0  0  0
  -34.4230   15.5800   42.9910 C   0  0  0  0  0
  -35.4660   14.5470   43.4230 C   0  0  0  0  0
  -35.1360   13.3940   43.7160 O   0  0  0  0  0
  -34.8480   16.2240   41.6800 C   0  0  0  0  0
  -36.1990   16.8890   41.7330 C   0  0  0  0  0
  -36.6200   17.4040   40.3750 C   0  0  0  0  0
  -35.8290   17.3990   39.4290 O   0  0  0  0  0
  -37.8690   17.8470   40.2680 N   0  0  0  0  0
  -36.6630   14.8410   43.4890 O   0  0  0  0  0
   -8.8442   31.4687   64.4652 H   0  0  0  0  0
   -9.8896   32.4542   63.5837 H   0  0  0  0  0
   -8.1394   33.4243   62.4303 H   0  0  0  0  0
   -6.5395   34.4743   63.8319 H   0  0  0  0  0
   -6.4654   33.1653   64.9255 H   0  0  0  0  0
   -8.6853   35.2253   64.6472 H   0  0  0  0  0
   -7.8718   34.7422   66.0877 H   0  0  0  0  0
   -9.0975   32.7254   66.2712 H   0  0  0  0  0
  -10.2643   33.6370   65.4223 H   0  0  0  0  0
   -8.3715   30.8904   64.5164 H   0  0  0  0  0
   -6.3341   29.0710   63.7000 H   0  0  0  0  0
   -9.1111   28.3759   64.6136 H   0  0  0  0  0
   -7.8768   26.5335   63.5780 H   0  0  0  0  0
   -6.4785   26.8658   64.6294 H   0  0  0  0  0
   -8.0097   26.2962   65.3378 H   0  0  0  0  0
   -6.5652   28.8663   66.1974 H   0  0  0  0  0
   -8.0220   29.8904   66.2032 H   0  0  0  0  0
   -8.0947   28.2351   66.8556 H   0  0  0  0  0
   -6.0825   28.0905   61.7387 H   0  0  0  0  0
   -8.0030   28.7635   59.6570 H   0  0  0  0  0
   -6.4020   27.7781   58.1005 H   0  0  0  0  0
   -5.4917   27.0514   59.4786 H   0  0  0  0  0
   -4.5443   28.9984   58.6981 H   0  0  0  0  0
   -8.9517   27.3753   58.1357 H   0  0  0  0  0
   -9.9561   24.9360   59.5370 H   0  0  0  0  0
  -11.7399   26.4764   59.5584 H   0  0  0  0  0
  -12.0483   25.5381   58.0201 H   0  0  0  0  0
  -10.7301   27.4484   56.8983 H   0  0  0  0  0
  -11.1221   28.3717   58.4190 H   0  0  0  0  0
  -13.5559   27.4730   57.8000 H   0  0  0  0  0
  -12.8461   27.5591   56.1416 H   0  0  0  0  0
  -13.0580   29.7902   58.1738 H   0  0  0  0  0
  -13.9653   29.6265   56.6202 H   0  0  0  0  0
  -12.1407   31.1522   56.4442 H   0  0  0  0  0
  -11.0581   29.9722   56.9052 H   0  0  0  0  0
  -11.8950   29.8212   55.4721 H   0  0  0  0  0
  -10.0167   23.0363   58.5050 H   0  0  0  0  0
   -9.1758   22.9485   55.6870 H   0  0  0  0  0
   -9.7031   20.4829   55.9548 H   0  0  0  0  0
   -9.8807   20.8921   57.7368 H   0  0  0  0  0
   -7.7851   20.0760   57.5269 H   0  0  0  0  0
   -7.5967   21.8846   57.4656 H   0  0  0  0  0
   -7.0445   18.4673   55.7824 H   0  0  0  0  0
   -8.5028   18.9795   54.8982 H   0  0  0  0  0
   -6.9432   18.8561   54.0476 H   0  0  0  0  0
  -10.5409   23.0205   54.0063 H   0  0  0  0  0
  -13.4493   22.9224   54.5998 H   0  0  0  0  0
  -13.6948   23.9922   52.3874 H   0  0  0  0  0
  -11.8916   23.9367   52.2079 H   0  0  0  0  0
  -11.6580   25.3559   54.1406 H   0  0  0  0  0
  -13.4505   25.4063   54.3274 H   0  0  0  0  0
  -13.6719   26.4999   52.2162 H   0  0  0  0  0
  -11.8889   26.3787   51.9433 H   0  0  0  0  0
  -12.5064   27.7697   54.3819 H   0  0  0  0  0
  -12.1565   29.8364   50.9204 H   0  0  0  0  0
  -12.4119   28.0889   50.8740 H   0  0  0  0  0
  -12.1706   30.0073   54.4474 H   0  0  0  0  0
  -14.9253   22.0765   52.8935 H   0  0  0  0  0
  -13.7712   19.5781   51.7252 H   0  0  0  0  0
  -14.7543   18.9798   53.8977 H   0  0  0  0  0
  -15.7624   18.3391   52.5631 H   0  0  0  0  0
  -16.9734   20.6108   52.8011 H   0  0  0  0  0
  -16.2631   20.4966   54.5142 H   0  0  0  0  0
  -18.6448   20.9636   55.3025 H   0  0  0  0  0
  -19.2551   20.9564   53.6297 H   0  0  0  0  0
  -20.0512   19.9596   54.8722 H   0  0  0  0  0
  -14.8770   18.8165   49.8849 H   0  0  0  0  0
  -16.7166   20.6889   48.5512 H   0  0  0  0  0
  -15.1217   19.3547   47.2850 H   0  0  0  0  0
  -15.9023   17.8656   47.8717 H   0  0  0  0  0
  -16.8023   18.9891   46.8234 H   0  0  0  0  0
  -18.7957   20.4272   48.2115 H   0  0  0  0  0
  -20.0073   18.4642   50.1728 H   0  0  0  0  0
  -20.1002   21.0583   50.4501 H   0  0  0  0  0
  -22.1833   20.6987   51.4355 H   0  0  0  0  0
  -20.8908   21.6297   48.2435 H   0  0  0  0  0
  -22.3508   20.6385   48.4820 H   0  0  0  0  0
  -22.0867   22.0892   49.4803 H   0  0  0  0  0
  -21.9907   16.4015   46.8531 H   0  0  0  0  0
  -21.9670   14.4676   48.3449 H   0  0  0  0  0
  -23.6606   14.7789   48.3497 H   0  0  0  0  0
  -22.2991   14.7932   50.6354 H   0  0  0  0  0
  -23.6028   15.9357   50.3867 H   0  0  0  0  0
  -21.9186   17.5210   50.8460 H   0  0  0  0  0
  -20.6460   16.4540   50.4281 H   0  0  0  0  0
  -23.9408   16.1629   45.8343 H   0  0  0  0  0
  -25.9525   18.1373   46.7732 H   0  0  0  0  0
  -26.6960   18.1070   44.3641 H   0  0  0  0  0
  -25.2668   17.0323   44.0300 H   0  0  0  0  0
  -23.8218   18.8460   44.9101 H   0  0  0  0  0
  -24.1299   18.5306   42.5158 H   0  0  0  0  0
  -25.5734   19.5727   42.5523 H   0  0  0  0  0
  -23.9702   20.2593   42.9122 H   0  0  0  0  0
  -26.3962   20.4545   44.7556 H   0  0  0  0  0
  -25.5098   20.0312   46.2409 H   0  0  0  0  0
  -24.7714   21.1236   45.0441 H   0  0  0  0  0
  -28.0490   17.8415   46.8825 H   0  0  0  0  0
  -29.0388   15.1065   47.2000 H   0  0  0  0  0
  -31.1594   16.8442   46.9095 H   0  0  0  0  0
  -29.7741   17.7277   47.8556 H   0  0  0  0  0
  -30.0517   16.3819   49.6400 H   0  0  0  0  0
  -31.8929   18.0050   49.4004 H   0  0  0  0  0
  -32.8426   16.8069   48.4874 H   0  0  0  0  0
  -32.4657   16.5229   50.2045 H   0  0  0  0  0
  -31.7564   14.5287   47.9766 H   0  0  0  0  0
  -30.0834   14.2415   48.5149 H   0  0  0  0  0
  -31.3974   14.3511   49.7117 H   0  0  0  0  0
  -29.9340   13.8737   45.6322 H   0  0  0  0  0
  -30.4305   14.9115   42.9207 H   0  0  0  0  0
  -31.4985   12.6834   42.6469 H   0  0  0  0  0
  -30.9688   12.3385   44.3584 H   0  0  0  0  0
  -28.6767   12.9165   43.5887 H   0  0  0  0  0
  -29.3595   12.7665   41.8847 H   0  0  0  0  0
  -27.4659   10.9780   41.2563 H   0  0  0  0  0
  -26.7649   11.1298   42.8862 H   0  0  0  0  0
  -27.1511    9.5203   42.2294 H   0  0  0  0  0
  -32.6910   14.8083   41.9459 H   0  0  0  0  0
  -34.3815   16.3220   43.7884 H   0  0  0  0  0
  -34.1851   13.3010   43.6228 H   0  0  0  0  0
  -34.9072   15.4309   40.9346 H   0  0  0  0  0
  -34.1160   16.9975   41.4477 H   0  0  0  0  0
  -36.1399   17.7343   42.4186 H   0  0  0  0  0
  -36.9319   16.1535   42.0646 H   0  0  0  0  0
  -38.2092   18.2026   39.3746 H   0  0  0  0  0
  -38.4870   17.8313   41.0793 H   0  0  0  0  0
  1  2  1  0  0  0
  1  7  1  0  0  0
  2  3  1  0  0  0
  2  5  1  0  0  0
  3  4  2  0  0  0
  3  8  1  0  0  0
  5  6  1  0  0  0
  6  7  1  0  0  0
  8  9  1  0  0  0
  9 10  1  0  0  0
  9 12  1  0  0  0
 10 11  2  0  0  0
 10 15  1  0  0  0
 12 13  1  0  0  0
 12 14  1  0  0  0
 15 16  1  0  0  0
 16 17  1  0  0  0
 16 19  1  0  0  0
 17 18  2  0  0  0
 17 21  1  0  0  0
 19 20  1  0  0  0
 21 22  1  0  0  0
 22 23  1  0  0  0
 22 25  1  0  0  0
 23 24  2  0  0  0
 23 30  1  0  0  0
 25 26  1  0  0  0
 26 27  1  0  0  0
 27 28  1  0  0  0
 28 29  1  0  0  0
 30 31  1  0  0  0
 31 32  1  0  0  0
 31 34  1  0  0  0
 32 33  2  0  0  0
 32 38  1  0  0  0
 34 35  1  0  0  0
 35 36  1  0  0  0
 36 37  1  0  0  0
 38 39  1  0  0  0
 39 40  1  0  0  0
 39 42  1  0  0  0
 40 41  2  0  0  0
 40 49  1  0  0  0
 42 43  1  0  0  0
 43 44  1  0  0  0
 44 45  1  0  0  0
 45 46  1  0  0  0
 46 47  1  0  0  0
 46 48  2  0  0  0
 49 50  1  0  0  0
 50 51  1  0  0  0
 50 53  1  0  0  0
 51 52  2  0  0  0
 51 57  1  0  0  0
 53 54  1  0  0  0
 54 55  1  0  0  0
 55 56  1  0  0  0
 57 58  1  0  0  0
 58 59  1  0  0  0
 58 61  1  0  0  0
 59 60  2  0  0  0
 59 62  1  0  0  0
 62 63  1  0  0  0
 63 64  1  0  0  0
 63 66  1  0  0  0
 64 65  2  0  0  0
 64 69  1  0  0  0
 66 67  1  0  0  0
 66 68  1  0  0  0
 69 70  1  0  0  0
 69 75  1  0  0  0
 70 71  1  0  0  0
 70 73  1  0  0  0
 71 72  2  0  0  0
 71 76  1  0  0  0
 73 74  1  0  0  0
 74 75  1  0  0  0
 76 77  1  0  0  0
 77 78  1  0  0  0
 77 80  1  0  0  0
 78 79  2  0  0  0
 78 84  1  0  0  0
 80 81  1  0  0  0
 81 82  1  0  0  0
 81 83  1  0  0  0
 84 85  1  0  0  0
 85 86  1  0  0  0
 85 88  1  0  0  0
 86 87  2  0  0  0
 86 92  1  0  0  0
 88 89  1  0  0  0
 89 90  1  0  0  0
 89 91  1  0  0  0
 92 93  1  0  0  0
 93 94  1  0  0  0
 93 96  1  0  0  0
 94 95  2  0  0  0
 94100  1  0  0  0
 96 97  1  0  0  0
 97 98  1  0  0  0
 98 99  1  0  0  0
100101  1  0  0  0
101102  1  0  0  0
101104  1  0  0  0
102103  1  0  0  0
102109  2  0  0  0
104105  1  0  0  0
105106  1  0  0  0
106107  2  0  0  0
106108  1  0  0  0
  1110  1  0  0  0
  1111  1  0  0  0
  2112  1  0  0  0
  5113  1  0  0  0
  5114  1  0  0  0
  6115  1  0  0  0
  6116  1  0  0  0
  7117  1  0  0  0
  7118  1  0  0  0
  8119  1  0  0  0
  9120  1  0  0  0
 12121  1  0  0  0
 13122  1  0  0  0
 13123  1  0  0  0
 13124  1  0  0  0
 14125  1  0  0  0
 14126  1  0  0  0
 14127  1  0  0  0
 15128  1  0  0  0
 16129  1  0  0  0
 19130  1  0  0  0
 19131  1  0  0  0
 20132  1  0  0  0
 21133  1  0  0  0
 22134  1  0  0  0
 25135  1  0  0  0
 25136  1  0  0  0
 26137  1  0  0  0
 26138  1  0  0  0
 27139  1  0  0  0
 27140  1  0  0  0
 28141  1  0  0  0
 28142  1  0  0  0
 29143  1  0  0  0
 29144  1  0  0  0
 29145  1  0  0  0
 30146  1  0  0  0
 31147  1  0  0  0
 34148  1  0  0  0
 34149  1  0  0  0
 35150  1  0  0  0
 35151  1  0  0  0
 37152  1  0  0  0
 37153  1  0  0  0
 37154  1  0  0  0
 38155  1  0  0  0
 39156  1  0  0  0
 42157  1  0  0  0
 42158  1  0  0  0
 43159  1  0  0  0
 43160  1  0  0  0
 44161  1  0  0  0
 44162  1  0  0  0
 45163  1  0  0  0
 47164  1  0  0  0
 47165  1  0  0  0
 48166  1  0  0  0
 49167  1  0  0  0
 50168  1  0  0  0
 53169  1  0  0  0
 53170  1  0  0  0
 54171  1  0  0  0
 54172  1  0  0  0
 56173  1  0  0  0
 56174  1  0  0  0
 56175  1  0  0  0
 57176  1  0  0  0
 58177  1  0  0  0
 61178  1  0  0  0
 61179  1  0  0  0
 61180  1  0  0  0
 62181  1  0  0  0
 63182  1  0  0  0
 66183  1  0  0  0
 67184  1  0  0  0
 68185  1  0  0  0
 68186  1  0  0  0
 68187  1  0  0  0
 70188  1  0  0  0
 73189  1  0  0  0
 73190  1  0  0  0
 74191  1  0  0  0
 74192  1  0  0  0
 75193  1  0  0  0
 75194  1  0  0  0
 76195  1  0  0  0
 77196  1  0  0  0
 80197  1  0  0  0
 80198  1  0  0  0
 81199  1  0  0  0
 82200  1  0  0  0
 82201  1  0  0  0
 82202  1  0  0  0
 83203  1  0  0  0
 83204  1  0  0  0
 83205  1  0  0  0
 84206  1  0  0  0
 85207  1  0  0  0
 88208  1  0  0  0
 88209  1  0  0  0
 89210  1  0  0  0
 90211  1  0  0  0
 90212  1  0  0  0
 90213  1  0  0  0
 91214  1  0  0  0
 91215  1  0  0  0
 91216  1  0  0  0
 92217  1  0  0  0
 93218  1  0  0  0
 96219  1  0  0  0
 96220  1  0  0  0
 97221  1  0  0  0
 97222  1  0  0  0
 99223  1  0  0  0
 99224  1  0  0  0
 99225  1  0  0  0
100226  1  0  0  0
101227  1  0  0  0
103228  1  0  0  0
104229  1  0  0  0
104230  1  0  0  0
105231  1  0  0  0
105232  1  0  0  0
108233  1  0  0  0
108234  1  0  0  0
M  END
$$$$
