### 
### Created by X-TOOL on Mon Sep 10 21:13:19 2018
### 

@<TRIPOS>MOLECULE
4u0u_ligand
   39    41     1     0     0
SMALL
GAST_HUCK


@<TRIPOS>ATOM
      1 PB         87.7570   20.2120   17.7960 P.3       1 ADP         0.2069
      2 O1B        87.0650   19.4070   16.7620 O.co2     1 ADP        -0.5891
      3 O2B        86.6460   20.4790   18.8260 O.co2     1 ADP        -0.5891
      4 O3B        89.0410   19.5790   18.3370 O.co2     1 ADP        -0.5891
      5 PA         89.2540   22.0280   16.1120 P.3       1 ADP         0.3276
      6 O1A        89.6350   23.4280   16.4020 O.co2     1 ADP        -0.5556
      7 O2A        90.4390   21.1300   16.4990 O.co2     1 ADP        -0.5556
      8 O3A        88.0470   21.5920   17.0550 O.3       1 ADP        -0.1548
      9 O5'        88.8990   21.8010   14.5490 O.3       1 ADP        -0.2436
     10 C5'        87.8870   20.9340   13.9930 C.3       1 ADP         0.1132
     11 C4'        86.7420   21.7720   13.4760 C.3       1 ADP         0.1189
     12 O4'        87.2400   22.7380   12.5260 O.3       1 ADP        -0.3364
     13 C3'        85.6640   20.9940   12.7270 C.3       1 ADP         0.1149
     14 O3'        84.6560   20.4900   13.6010 O.3       1 ADP        -0.3864
     15 C2'        85.0750   22.0440   11.7840 C.3       1 ADP         0.1385
     16 O2'        83.9760   22.6770   12.4210 O.3       1 ADP        -0.3836
     17 C1'        86.2620   22.9940   11.5330 C.3       1 ADP         0.2010
     18 N9         86.8870   22.8620   10.2150 N.pl3     1 ADP        -0.1919
     19 C8         87.7870   21.9010    9.8360 C.2       1 ADP         0.1123
     20 N7         88.1920   22.0050    8.5920 N.2       1 ADP        -0.2958
     21 C5         87.5100   23.1140    8.1170 C.ar      1 ADP         0.1045
     22 C6         87.4820   23.7440    6.8570 C.ar      1 ADP         0.1298
     23 N6         88.2170   23.3470    5.8130 N.pl3     1 ADP        -0.3152
     24 N1         86.6750   24.8220    6.7090 N.ar      1 ADP        -0.2698
     25 C2         85.9650   25.2440    7.7600 C.ar      1 ADP         0.0533
     26 N3         85.9190   24.7340    8.9930 N.ar      1 ADP        -0.2714
     27 C4         86.7080   23.6590    9.1080 C.ar      1 ADP         0.1613
     28 H          87.5195   20.2507   14.7727 H         1 ADP         0.0648
     29 H          88.3173   20.3496   13.1664 H         1 ADP         0.0648
     30 H          86.2814   22.2873   14.3318 H         1 ADP         0.0651
     31 H          86.1067   20.1593   12.1637 H         1 ADP         0.0648
     32 H          84.2380   21.2144   14.0515 H         1 ADP         0.2100
     33 H          84.7376   21.5910   10.8401 H         1 ADP         0.0676
     34 H          83.3149   22.0273   12.6292 H         1 ADP         0.2101
     35 H          85.9004   24.0278   11.6350 H         1 ADP         0.0996
     36 H          88.1360   21.1188   10.5086 H         1 ADP         0.1349
     37 H          88.1520   23.8499    4.9165 H         1 ADP         0.1820
     38 H          88.8482   22.5383    5.9053 H         1 ADP         0.1820
     39 H          85.3442   26.1159    7.5885 H         1 ADP         0.0996
@<TRIPOS>BOND
     1    1    2 ar 
     2    1    3 ar 
     3    1    4 ar 
     4    8    1 1  
     5    5    6 ar 
     6    5    7 ar 
     7    5    8 1  
     8    5    9 1  
     9    9   10 1  
    10   10   11 1  
    11   11   12 1  
    12   11   13 1  
    13   12   17 1  
    14   13   14 1  
    15   13   15 1  
    16   15   16 1  
    17   15   17 1  
    18   17   18 1  
    19   18   19 1  
    20   18   27 1  
    21   19   20 2  
    22   20   21 1  
    23   21   22 ar 
    24   21   27 ar 
    25   22   23 1  
    26   22   24 ar 
    27   24   25 ar 
    28   25   26 ar 
    29   26   27 ar 
    30   10   28 1  
    31   10   29 1  
    32   11   30 1  
    33   13   31 1  
    34   14   32 1  
    35   15   33 1  
    36   16   34 1  
    37   17   35 1  
    38   19   36 1  
    39   23   37 1  
    40   23   38 1  
    41   25   39 1  
@<TRIPOS>SUBSTRUCTURE
     1 ADP         1

