4u0u_ligand
  -I-interpret- 

 42 44  0  0  0  0  0  0  0  0999 V2000
   87.7570   20.2120   17.7960 P   0  0  0  0  0
   87.0650   19.4070   16.7620 O   0  0  0  0  0
   86.6460   20.4790   18.8260 O   0  0  0  0  0
   89.0410   19.5790   18.3370 O   0  0  0  0  0
   89.2540   22.0280   16.1120 P   0  0  0  0  0
   89.6350   23.4280   16.4020 O   0  0  0  0  0
   90.4390   21.1300   16.4990 O   0  0  0  0  0
   88.0470   21.5920   17.0550 O   0  0  0  0  0
   88.8990   21.8010   14.5490 O   0  0  0  0  0
   87.8870   20.9340   13.9930 C   0  0  0  0  0
   86.7420   21.7720   13.4760 C   0  0  0  0  0
   87.2400   22.7380   12.5260 O   0  0  0  0  0
   85.6640   20.9940   12.7270 C   0  0  0  0  0
   84.6560   20.4900   13.6010 O   0  0  0  0  0
   85.0750   22.0440   11.7840 C   0  0  0  0  0
   83.9760   22.6770   12.4210 O   0  0  0  0  0
   86.2620   22.9940   11.5330 C   0  0  0  0  0
   86.8870   22.8620   10.2150 N   0  0  0  0  0
   87.7870   21.9010    9.8360 C   0  0  0  0  0
   88.1920   22.0050    8.5920 N   0  0  0  0  0
   87.5100   23.1140    8.1170 C   0  0  0  0  0
   87.4820   23.7440    6.8570 C   0  0  0  0  0
   88.2170   23.3470    5.8130 N   0  0  0  0  0
   86.6750   24.8220    6.7090 N   0  0  0  0  0
   85.9650   25.2440    7.7600 C   0  0  0  0  0
   85.9190   24.7340    8.9930 N   0  0  0  0  0
   86.7080   23.6590    9.1080 C   0  0  0  0  0
   87.0000   21.0029   19.5483 H   0  0  0  0  0
   89.4277   20.1576   18.9982 H   0  0  0  0  0
   90.2164   20.2135   16.3199 H   0  0  0  0  0
   87.5235   20.2554   14.7646 H   0  0  0  0  0
   88.3130   20.3533   13.1748 H   0  0  0  0  0
   86.3017   22.2110   14.3713 H   0  0  0  0  0
   86.0652   20.1165   12.2200 H   0  0  0  0  0
   84.0013   20.0094   13.0891 H   0  0  0  0  0
   84.6791   21.6535   10.8465 H   0  0  0  0  0
   83.6032   23.3372   11.8322 H   0  0  0  0  0
   85.8657   24.0086   11.5744 H   0  0  0  0  0
   88.1363   21.1181   10.5092 H   0  0  0  0  0
   88.8420   22.5461    5.9044 H   0  0  0  0  0
   88.1527   23.8450    4.9252 H   0  0  0  0  0
   85.3408   26.1208    7.5875 H   0  0  0  0  0
  1  2  2  0  0  0
  1  3  1  0  0  0
  1  4  1  0  0  0
  8  1  1  0  0  0
  5  6  2  0  0  0
  5  7  1  0  0  0
  5  8  1  0  0  0
  5  9  1  0  0  0
  9 10  1  0  0  0
 10 11  1  0  0  0
 11 12  1  0  0  0
 11 13  1  0  0  0
 12 17  1  0  0  0
 13 14  1  0  0  0
 13 15  1  0  0  0
 15 16  1  0  0  0
 15 17  1  0  0  0
 17 18  1  0  0  0
 18 19  4  0  0  0
 18 27  4  0  0  0
 19 20  4  0  0  0
 20 21  4  0  0  0
 21 22  4  0  0  0
 21 27  4  0  0  0
 22 23  1  0  0  0
 22 24  4  0  0  0
 24 25  4  0  0  0
 25 26  4  0  0  0
 26 27  4  0  0  0
  3 28  1  0  0  0
  4 29  1  0  0  0
  7 30  1  0  0  0
 10 31  1  0  0  0
 10 32  1  0  0  0
 11 33  1  0  0  0
 13 34  1  0  0  0
 14 35  1  0  0  0
 15 36  1  0  0  0
 16 37  1  0  0  0
 17 38  1  0  0  0
 19 39  1  0  0  0
 23 40  1  0  0  0
 23 41  1  0  0  0
 25 42  1  0  0  0
M  END
$$$$
