5x27_ligand
  -I-interpret- 

 68 73  0  0  0  0  0  0  0  0999 V2000
  -52.4950   -0.1930  -21.7200 C   0  0  0  0  0
  -53.3260    0.4760  -22.5790 C   0  0  0  0  0
  -54.2490    1.3520  -22.0770 C   0  0  0  0  0
  -52.0670   -0.7660  -23.7350 C   0  0  0  0  0
  -54.3130    1.5240  -20.7900 N   0  0  0  0  0
  -53.6510    1.1150  -18.6960 N   0  0  0  0  0
  -52.5990    0.0090  -20.4100 N   0  0  0  0  0
  -49.0880   -1.2950  -14.9700 C   0  0  0  0  0
  -49.0380   -2.4200  -13.9550 C   0  0  0  0  0
  -49.2230   -1.8590  -12.6210 N   0  3  0  0  0
  -49.0350   -2.9170  -11.6320 C   0  0  0  0  0
  -50.5810   -1.3510  -12.5030 C   0  0  0  0  0
  -50.7090   -0.1370  -13.3960 C   0  0  0  0  0
  -50.3040   -0.5100  -14.7470 N   0  0  0  0  0
  -51.1190   -0.1230  -15.7900 C   0  0  0  0  0
  -52.1670    0.7120  -15.4880 C   0  0  0  0  0
  -53.0110    1.1220  -16.4920 C   0  0  0  0  0
  -50.9090   -0.5540  -17.0870 C   0  0  0  0  0
  -51.7620   -0.1390  -18.0960 C   0  0  0  0  0
  -52.8100    0.6970  -17.7850 C   0  0  0  0  0
  -53.5080    0.8710  -19.9690 C   0  0  0  0  0
  -53.0410    0.1080  -23.8120 N   0  0  0  0  0
  -51.7400   -0.9560  -22.4790 N   0  0  0  0  0
  -50.6880   -1.8380  -22.0060 C   0  0  0  0  0
  -51.2340   -2.8350  -21.0090 C   0  0  0  0  0
  -50.0750   -3.1070  -20.0560 C   0  0  0  0  0
  -49.0080   -2.0740  -20.3930 C   0  0  0  0  0
  -49.7660   -1.0070  -21.1460 C   0  0  0  0  0
  -51.5440   -1.3380  -24.7950 N   0  0  0  0  0
  -51.9270   -0.8730  -25.9710 C   0  0  0  0  0
  -52.1280    0.4820  -26.1240 C   0  0  0  0  0
  -52.5310    0.9980  -27.3420 C   0  0  0  0  0
  -52.7390    0.1500  -28.4090 C   0  0  0  0  0
  -52.5450   -1.2080  -28.2520 C   0  0  0  0  0
  -52.1370   -1.7230  -27.0350 C   0  0  0  0  0
  -54.9183    1.8957  -22.7437 H   0  0  0  0  0
  -54.4595    1.6593  -18.3952 H   0  0  0  0  0
  -49.0955   -1.7083  -15.9786 H   0  0  0  0  0
  -48.2113   -0.6572  -14.8572 H   0  0  0  0  0
  -48.0744   -2.9262  -14.0122 H   0  0  0  0  0
  -49.8274   -3.1417  -14.1647 H   0  0  0  0  0
  -48.5517   -1.1067  -12.4665 H   0  0  0  0  0
  -49.7654   -3.7075  -11.8042 H   0  0  0  0  0
  -48.0282   -3.3243  -11.7245 H   0  0  0  0  0
  -49.1716   -2.5060  -10.6317 H   0  0  0  0  0
  -50.7917   -1.0798  -11.4685 H   0  0  0  0  0
  -51.2956   -2.1164  -12.8055 H   0  0  0  0  0
  -50.0718    0.6659  -13.0253 H   0  0  0  0  0
  -51.7410    0.2137  -13.4009 H   0  0  0  0  0
  -52.3275    1.0459  -14.4629 H   0  0  0  0  0
  -53.8436    1.7871  -16.2629 H   0  0  0  0  0
  -50.0751   -1.2180  -17.3144 H   0  0  0  0  0
  -51.6054   -0.4700  -19.1226 H   0  0  0  0  0
  -50.2321   -2.3163  -22.8728 H   0  0  0  0  0
  -51.5820   -3.7463  -21.4953 H   0  0  0  0  0
  -52.1080   -2.4480  -20.4851 H   0  0  0  0  0
  -49.6951   -4.1218  -20.1739 H   0  0  0  0  0
  -50.3902   -3.0260  -19.0157 H   0  0  0  0  0
  -48.1920   -2.4960  -20.9796 H   0  0  0  0  0
  -48.5132   -1.6829  -19.5040 H   0  0  0  0  0
  -50.2907   -0.3059  -20.4969 H   0  0  0  0  0
  -49.1229   -0.3380  -21.7179 H   0  0  0  0  0
  -50.8749   -2.1037  -24.7145 H   0  0  0  0  0
  -51.9681    1.1516  -25.2789 H   0  0  0  0  0
  -52.6836    2.0710  -27.4581 H   0  0  0  0  0
  -53.0552    0.5499  -29.3724 H   0  0  0  0  0
  -52.7147   -1.8794  -29.0937 H   0  0  0  0  0
  -51.9824   -2.7956  -26.9181 H   0  0  0  0  0
  1  2  4  0  0  0
  7  1  4  0  0  0
  1 23  4  0  0  0
  3  2  4  0  0  0
  2 22  4  0  0  0
  5  3  4  0  0  0
  4 22  4  0  0  0
 23  4  4  0  0  0
  4 29  1  0  0  0
 21  5  4  0  0  0
 20  6  1  0  0  0
  6 21  1  0  0  0
 21  7  4  0  0  0
  8  9  1  0  0  0
 14  8  1  0  0  0
  9 10  1  0  0  0
 10 11  1  0  0  0
 12 10  1  0  0  0
 13 12  1  0  0  0
 14 13  1  0  0  0
 15 14  1  0  0  0
 16 15  4  0  0  0
 15 18  4  0  0  0
 17 16  4  0  0  0
 17 20  4  0  0  0
 18 19  4  0  0  0
 19 20  4  0  0  0
 23 24  1  0  0  0
 24 25  1  0  0  0
 24 28  1  0  0  0
 25 26  1  0  0  0
 26 27  1  0  0  0
 27 28  1  0  0  0
 29 30  1  0  0  0
 30 31  4  0  0  0
 30 35  4  0  0  0
 31 32  4  0  0  0
 32 33  4  0  0  0
 33 34  4  0  0  0
 34 35  4  0  0  0
  3 36  1  0  0  0
  6 37  1  0  0  0
  8 38  1  0  0  0
  8 39  1  0  0  0
  9 40  1  0  0  0
  9 41  1  0  0  0
 10 42  1  0  0  0
 11 43  1  0  0  0
 11 44  1  0  0  0
 11 45  1  0  0  0
 12 46  1  0  0  0
 12 47  1  0  0  0
 13 48  1  0  0  0
 13 49  1  0  0  0
 16 50  1  0  0  0
 17 51  1  0  0  0
 18 52  1  0  0  0
 19 53  1  0  0  0
 24 54  1  0  0  0
 25 55  1  0  0  0
 25 56  1  0  0  0
 26 57  1  0  0  0
 26 58  1  0  0  0
 27 59  1  0  0  0
 27 60  1  0  0  0
 28 61  1  0  0  0
 28 62  1  0  0  0
 29 63  1  0  0  0
 31 64  1  0  0  0
 32 65  1  0  0  0
 33 66  1  0  0  0
 34 67  1  0  0  0
 35 68  1  0  0  0
M  END
$$$$
