5nea_ligand
  -I-interpret- 

 26 27  0  0  0  0  0  0  0  0999 V2000
   -3.3130    3.3330   14.8610 C   0  0  0  0  0
   -5.4890    4.3110   14.6280 C   0  0  0  0  0
   -6.0470    3.2550   15.3260 C   0  0  0  0  0
   -3.8620    2.2650   15.5540 C   0  0  0  0  0
   -4.1200    4.3610   14.3760 C   0  0  0  0  0
   -3.5470    5.5010   13.6580 C   0  0  0  0  0
   -4.0270    6.4480   12.8290 C   0  0  0  0  0
   -3.0390    7.3390   12.4830 N   0  0  0  0  0
   -1.9990    6.8790   13.0950 C   0  0  0  0  0
   -2.1740    5.6500   13.6800 O   0  0  0  0  0
   -0.6350    7.4540   13.1420 C   0  0  0  0  0
   -5.2310    2.2330   15.7870 C   0  0  0  0  0
   -5.9430    0.9090   16.7200 S   0  0  0  0  0
   -5.4230    1.0260   18.0520 O   0  0  0  0  0
   -7.3690    0.9950   16.5360 O   0  0  0  0  0
   -5.4370   -0.4810   16.0890 N   0  0  0  0  0
   -2.2366    3.3693   14.6933 H   0  0  0  0  0
   -6.1304    5.1162   14.2698 H   0  0  0  0  0
   -7.1206    3.2265   15.5123 H   0  0  0  0  0
   -3.2245    1.4570   15.9131 H   0  0  0  0  0
   -5.0583    6.5007   12.4801 H   0  0  0  0  0
   -0.2345    7.5191   12.1303 H   0  0  0  0  0
   -0.6770    8.4502   13.5823 H   0  0  0  0  0
    0.0069    6.8144   13.7478 H   0  0  0  0  0
   -4.8444   -1.1043   16.6374 H   0  0  0  0  0
   -5.7087   -0.7393   15.1404 H   0  0  0  0  0
  1  4  4  0  0  0
  5  1  4  0  0  0
  2  3  4  0  0  0
  2  5  4  0  0  0
  3 12  4  0  0  0
  4 12  4  0  0  0
  5  6  1  0  0  0
  6  7  4  0  0  0
  6 10  4  0  0  0
  7  8  4  0  0  0
  8  9  4  0  0  0
  9 10  4  0  0  0
  9 11  1  0  0  0
 12 13  1  0  0  0
 13 14  2  0  0  0
 13 15  2  0  0  0
 13 16  1  0  0  0
  1 17  1  0  0  0
  2 18  1  0  0  0
  3 19  1  0  0  0
  4 20  1  0  0  0
  7 21  1  0  0  0
 11 22  1  0  0  0
 11 23  1  0  0  0
 11 24  1  0  0  0
 16 25  1  0  0  0
 16 26  1  0  0  0
M  END
$$$$
