### 
### Created by X-TOOL on Mon Sep 10 21:13:05 2018
### 

@<TRIPOS>MOLECULE
3sl0_ligand
   29    28     1     0     0
SMALL
GAST_HUCK


@<TRIPOS>ATOM
      1 B1         41.8240  -15.1340   23.7720 B         1 FB5         3.0000
      2 F1         34.6200  -17.6850   26.4660 F         1 FB5        -0.2035
      3 N1         35.6040  -17.4330   22.9480 N.4       1 FB5         0.2270
      4 O1         42.1290  -15.2100   22.4360 O.3       1 FB5        -0.8710
      5 C2         35.1620  -15.9690   24.5850 C.2       1 FB5         0.1016
      6 F2         34.8060  -19.4450   25.1140 F         1 FB5        -0.2035
      7 O2         42.8030  -15.1530   24.7270 O.3       1 FB5        -0.8710
      8 C3         35.7480  -17.3960   24.3990 C.3       1 FB5         0.0934
      9 O3         35.3050  -15.3590   25.6370 O.co2     1 FB5        -0.5421
     10 C4         39.5310  -16.2560   24.4210 C.3       1 FB5        -0.1826
     11 O4         34.4630  -15.3830   23.5470 O.co2     1 FB5        -0.5421
     12 C5         40.3070  -14.9810   24.2320 C.3       1 FB5        -0.3457
     13 C6         37.1500  -17.1320   24.9780 C.3       1 FB5         0.0014
     14 C7         34.6980  -18.1200   25.2120 C.3       1 FB5         0.2886
     15 C8         38.0330  -16.1840   24.1860 C.3       1 FB5        -0.0752
     16 H          34.6294  -17.6154   22.7088 H         1 FB5         0.2001
     17 H          35.8893  -16.5355   22.5562 H         1 FB5         0.2001
     18 H          36.1930  -18.1739   22.5679 H         1 FB5         0.2001
     19 H          42.6883  -14.4683   22.1939 H         1 FB5        -0.1290
     20 H          43.3941  -14.4086   24.5926 H         1 FB5        -0.1290
     21 H          39.6576  -16.5320   25.4678 H         1 FB5        -0.0084
     22 H          39.9178  -16.9554   23.6798 H         1 FB5        -0.0084
     23 H          39.8030  -14.4364   23.4336 H         1 FB5        -0.2101
     24 H          40.3350  -14.4971   25.2083 H         1 FB5        -0.2101
     25 H          37.6634  -18.0935   24.9842 H         1 FB5         0.0317
     26 H          36.9953  -16.6641   25.9502 H         1 FB5         0.0317
     27 H          33.7360  -17.8674   24.7661 H         1 FB5         0.1073
     28 H          37.8878  -16.4542   23.1401 H         1 FB5         0.0242
     29 H          37.7365  -15.1816   24.4947 H         1 FB5         0.0242
@<TRIPOS>BOND
     1    1    4 1  
     2    1    7 1  
     3   12    1 1  
     4   14    2 1  
     5    8    3 1  
     6    8    5 1  
     7    5    9 ar 
     8    5   11 ar 
     9   14    6 1  
    10   13    8 1  
    11    8   14 1  
    12   10   12 1  
    13   15   10 1  
    14   13   15 1  
    15    3   16 1  
    16    3   17 1  
    17    3   18 1  
    18    4   19 1  
    19    7   20 1  
    20   10   21 1  
    21   10   22 1  
    22   12   23 1  
    23   12   24 1  
    24   13   25 1  
    25   13   26 1  
    26   14   27 1  
    27   15   28 1  
    28   15   29 1  
@<TRIPOS>SUBSTRUCTURE
     1 FB5         1

