4zim_ligand
  -I-interpret- 

 50 54  0  0  0  0  0  0  0  0999 V2000
   -1.0590   44.6950    5.4900 C   0  0  0  0  0
   -0.6730   49.1820   -1.6020 C   0  0  0  0  0
   -1.0770   49.1200   -2.9290 C   0  0  0  0  0
   -4.0170   44.8870    1.9450 C   0  0  0  0  0
   -3.3200   44.1890    3.9610 C   0  0  0  0  0
    0.2290   44.9140    6.2210 C   0  0  0  0  0
   -6.1440   44.7270    0.5770 C   0  0  0  0  0
   -0.9250   46.3760    7.9110 C   0  0  0  0  0
    1.3550   45.5980    8.2900 C   0  0  0  0  0
   -1.2980   45.8120    9.2530 C   0  0  0  0  0
    0.9010   45.0650    9.6240 C   0  0  0  0  0
   -2.2390   47.4450   -1.0230 C   0  0  0  0  0
   -2.8780   46.5950    0.0070 C   0  0  0  0  0
   -2.6080   47.3690   -2.3630 C   0  0  0  0  0
   -2.0870   43.8870    5.9880 C   0  0  0  0  0
   -3.2230   43.6250    5.2350 C   0  0  0  0  0
   -2.0390   48.1980   -3.3100 C   0  0  0  0  0
   -2.1730   46.2400    1.1560 C   0  0  0  0  0
   -1.1740   45.2570    4.2230 C   0  0  0  0  0
   -4.1820   46.1110   -0.1560 C   0  0  0  0  0
   -1.2520   48.3580   -0.6570 C   0  0  0  0  0
   -2.7290   45.4220    2.1310 C   0  0  0  0  0
   -2.2930   44.9980    3.4390 C   0  0  0  0  0
   -4.7520   45.2480    0.7920 C   0  0  0  0  0
   -4.3570   44.1280    3.0480 N   0  0  0  0  0
    0.2130   45.6240    7.3670 N   0  0  0  0  0
   -6.7060   44.8640   -0.6510 N   0  0  0  0  0
    1.2530   44.3970    5.8040 O   0  0  0  0  0
   -6.7330   44.1680    1.5040 O   0  0  0  0  0
   -0.1880   45.8340   10.1520 O   0  0  0  0  0
   -0.4650   50.2450   -4.1000 Cl  0  0  0  0  0
    0.5820   50.2690   -1.1020 Cl  0  0  0  0  0
   -0.6501   47.4251    8.0200 H   0  0  0  0  0
   -1.7740   46.2942    7.2323 H   0  0  0  0  0
    2.1374   44.9554    7.8862 H   0  0  0  0  0
    1.7487   46.6069    8.4137 H   0  0  0  0  0
   -1.6153   44.7779    9.1187 H   0  0  0  0  0
   -2.0982   46.4202    9.6747 H   0  0  0  0  0
    1.7361   45.1231   10.3221 H   0  0  0  0  0
    0.5653   44.0367    9.4896 H   0  0  0  0  0
   -3.3597   46.6420   -2.6706 H   0  0  0  0  0
   -1.9940   43.4558    6.9847 H   0  0  0  0  0
   -4.0202   42.9943    5.6284 H   0  0  0  0  0
   -2.3456   48.1273   -4.3536 H   0  0  0  0  0
   -1.1585   46.6143    1.2928 H   0  0  0  0  0
   -0.3832   45.9036    3.8427 H   0  0  0  0  0
   -4.7612   46.4084   -1.0301 H   0  0  0  0  0
   -0.9343   48.4224    0.3837 H   0  0  0  0  0
   -7.6420   44.4990   -0.8271 H   0  0  0  0  0
   -6.1923   45.3319   -1.3977 H   0  0  0  0  0
  1  6  1  0  0  0
 15  1  4  0  0  0
  1 19  4  0  0  0
  2  3  4  0  0  0
 21  2  4  0  0  0
  2 32  1  0  0  0
 17  3  4  0  0  0
  3 31  1  0  0  0
 22  4  4  0  0  0
  4 24  4  0  0  0
  4 25  4  0  0  0
  5 16  4  0  0  0
  5 23  4  0  0  0
 25  5  4  0  0  0
  6 26  1  0  0  0
  6 28  2  0  0  0
 24  7  1  0  0  0
  7 27  1  0  0  0
  7 29  2  0  0  0
  8 10  1  0  0  0
 26  8  1  0  0  0
  9 11  1  0  0  0
 26  9  1  0  0  0
 10 30  1  0  0  0
 11 30  1  0  0  0
 13 12  1  0  0  0
 12 14  4  0  0  0
 12 21  4  0  0  0
 18 13  4  0  0  0
 13 20  4  0  0  0
 14 17  4  0  0  0
 16 15  4  0  0  0
 18 22  4  0  0  0
 19 23  4  0  0  0
 20 24  4  0  0  0
 22 23  4  0  0  0
  8 33  1  0  0  0
  8 34  1  0  0  0
  9 35  1  0  0  0
  9 36  1  0  0  0
 10 37  1  0  0  0
 10 38  1  0  0  0
 11 39  1  0  0  0
 11 40  1  0  0  0
 14 41  1  0  0  0
 15 42  1  0  0  0
 16 43  1  0  0  0
 17 44  1  0  0  0
 18 45  1  0  0  0
 19 46  1  0  0  0
 20 47  1  0  0  0
 21 48  1  0  0  0
 27 49  1  0  0  0
 27 50  1  0  0  0
M  END
$$$$
