1uyi_ligand
  -I-interpret- 

 46 48  0  0  0  0  0  0  0  0999 V2000
    5.1990    7.9820   29.0130 C   0  0  0  0  0
    4.9810    7.6540   27.7770 C   0  0  0  0  0
    4.6800    7.2890   26.3660 C   0  0  0  0  0
    3.3540    7.9330   25.9080 C   0  0  0  0  0
    3.4660    9.4610   26.0310 C   0  0  0  0  0
    2.2830   10.0330   25.3560 N   0  0  0  0  0
    1.0330   10.1470   25.8500 C   0  0  0  0  0
    0.5660    9.7670   27.0420 N   0  0  0  0  0
    0.2250   10.7470   24.9230 C   0  0  0  0  0
   -1.1230   10.9340   25.2300 C   0  0  0  0  0
   -2.0080   11.4920   24.3850 N   0  0  0  0  0
   -1.5600   10.5490   26.4280 N   0  0  0  0  0
   -0.7260    9.9790   27.3070 C   0  0  0  0  0
   -1.1800    9.6000   28.4740 F   0  0  0  0  0
    0.9970   11.0240   23.8410 N   0  0  0  0  0
    2.2460   10.5480   24.1200 C   0  0  0  0  0
    3.4810   10.6170   23.2590 C   0  0  0  0  0
    4.3670   11.7960   23.6460 C   0  0  0  0  0
    5.7400   11.7320   23.3330 C   0  0  0  0  0
    6.2150   10.5960   22.7090 O   0  0  0  0  0
    7.4960   10.0370   23.0230 C   0  0  0  0  0
    6.6110   12.8020   23.6220 C   0  0  0  0  0
    6.0550   13.9340   24.2360 C   0  0  0  0  0
    4.6950   13.9950   24.5770 C   0  0  0  0  0
    3.8370   12.9190   24.2740 C   0  0  0  0  0
    4.1630   15.1080   25.1890 O   0  0  0  0  0
    4.9430   16.2520   25.5770 C   0  0  0  0  0
    4.5893    6.2052   26.2937 H   0  0  0  0  0
    5.4866    7.6507   25.7283 H   0  0  0  0  0
    2.5373    7.5743   26.5344 H   0  0  0  0  0
    3.1549    7.6629   24.8709 H   0  0  0  0  0
    4.3860    9.8199   25.5696 H   0  0  0  0  0
    3.4983    9.7636   27.0777 H   0  0  0  0  0
   -1.7051   11.8049   23.4626 H   0  0  0  0  0
   -2.9822   11.6024   24.6665 H   0  0  0  0  0
    3.1719   10.7434   22.2214 H   0  0  0  0  0
    4.0500    9.6976   23.3972 H   0  0  0  0  0
    8.2729   10.7728   22.8151 H   0  0  0  0  0
    7.5238    9.7657   24.0783 H   0  0  0  0  0
    7.6626    9.1487   22.4136 H   0  0  0  0  0
    7.6723   12.7518   23.3785 H   0  0  0  0  0
    6.6958   14.7884   24.4539 H   0  0  0  0  0
    2.7778   12.9655   24.5269 H   0  0  0  0  0
    5.7079   15.9438   26.2898 H   0  0  0  0  0
    5.4182   16.6821   24.6954 H   0  0  0  0  0
    4.2920   16.9943   26.0389 H   0  0  0  0  0
  1  2  3  0  0  0
  2  3  1  0  0  0
  3  4  1  0  0  0
  4  5  1  0  0  0
  5  6  1  0  0  0
  6  7  4  0  0  0
  6 16  4  0  0  0
  7  8  4  0  0  0
  7  9  4  0  0  0
  8 13  4  0  0  0
  9 10  4  0  0  0
  9 15  4  0  0  0
 10 11  1  0  0  0
 10 12  4  0  0  0
 12 13  4  0  0  0
 13 14  1  0  0  0
 15 16  4  0  0  0
 16 17  1  0  0  0
 17 18  1  0  0  0
 18 19  4  0  0  0
 18 25  4  0  0  0
 19 20  1  0  0  0
 19 22  4  0  0  0
 20 21  1  0  0  0
 22 23  4  0  0  0
 23 24  4  0  0  0
 24 25  4  0  0  0
 24 26  1  0  0  0
 26 27  1  0  0  0
  3 28  1  0  0  0
  3 29  1  0  0  0
  4 30  1  0  0  0
  4 31  1  0  0  0
  5 32  1  0  0  0
  5 33  1  0  0  0
 11 34  1  0  0  0
 11 35  1  0  0  0
 17 36  1  0  0  0
 17 37  1  0  0  0
 21 38  1  0  0  0
 21 39  1  0  0  0
 21 40  1  0  0  0
 22 41  1  0  0  0
 23 42  1  0  0  0
 25 43  1  0  0  0
 27 44  1  0  0  0
 27 45  1  0  0  0
 27 46  1  0  0  0
M  END
$$$$
