6dtn_ligand
  -I-interpret- 

163167  0  0  0  0  0  0  0  0999 V2000
   26.8120  -12.2120   -0.6560 C   0  0  0  0  0
   28.0820  -12.2800    0.2690 C   0  0  0  0  0
   28.1850  -13.6720    0.9330 C   0  0  0  0  0
   29.9680  -13.0440    2.5130 C   0  0  0  0  0
   32.2680  -13.8200    2.8400 C   0  0  0  0  0
   27.6710  -12.8270    3.2390 C   0  0  0  0  0
   27.1370  -14.8210    4.8250 C   0  0  0  0  0
   24.4310  -11.9740    6.6580 C   0  0  0  0  0
   24.7490  -11.0540    8.6140 C   0  0  0  0  0
   28.6040  -13.5580    2.3700 N   0  3  0  0  0
   30.8170  -14.3300    2.7970 C   0  0  0  0  0
   32.3080  -12.4870    3.3480 N   0  3  0  0  0
   32.8630  -13.8830    1.3950 C   0  0  0  0  0
   33.1150  -12.7990    0.7700 O   0  0  0  0  0
   33.1270  -14.9960    0.9010 O   0  0  0  0  0
   27.8040  -13.4290    4.6580 C   0  0  0  0  0
   27.1430  -12.5590    5.4830 O   0  0  0  0  0
   26.4900  -13.4590    6.6050 C   0  0  0  0  0
   26.0130  -14.4760    5.8290 C   0  0  0  0  0
   25.7760  -15.6330    6.6780 O   0  0  0  0  0
   27.9990  -15.7840    5.3210 O   0  0  0  0  0
   25.5700  -12.4820    7.1720 N   0  0  0  0  0
   23.9180  -11.1020    7.5390 N   0  0  0  0  0
   24.7510  -10.3540    9.8080 C   0  0  0  0  0
   23.7720   -9.4480   10.2050 N   0  0  0  0  0
   25.7430  -10.5190   10.6970 N   0  0  0  0  0
   26.7340  -11.3900   10.4560 C   0  0  0  0  0
   26.7800  -12.1040    9.3040 N   0  0  0  0  0
   25.7690  -11.9210    8.3790 C   0  0  0  0  0
   26.9320  -11.3960   -1.8300 N   0  3  0  0  0
   27.8440  -11.5320   -2.9660 C   0  0  0  0  0
   27.9590  -10.2630   -3.8230 C   0  0  0  0  0
   27.1940   -9.3490   -3.6260 O   0  0  0  0  0
   27.1370  -12.5890   -3.8250 C   0  0  0  0  0
   25.6860  -12.3600   -3.5870 C   0  0  0  0  0
   25.5330  -11.5410   -2.2830 C   0  0  0  0  0
   28.8950  -10.2300   -4.7680 N   0  0  0  0  0
   28.7560   -9.2830   -5.8810 C   0  0  0  0  0
   27.4390   -9.5690   -6.5740 C   0  0  0  0  0
   26.9060  -10.6810   -6.4980 O   0  0  0  0  0
   29.9480   -9.6150   -6.7890 C   0  0  0  0  0
   30.2960  -11.0030   -6.4420 C   0  0  0  0  0
   29.9360  -11.2430   -5.0200 C   0  0  0  0  0
   26.8730   -8.5430   -7.2120 N   0  0  0  0  0
   25.5960   -8.8160   -7.8530 C   0  0  0  0  0
   25.3420   -7.9100   -9.0550 C   0  0  0  0  0
   25.8940   -6.8090   -9.1830 O   0  0  0  0  0
   24.4480   -8.7490   -6.8610 C   0  0  0  0  0
   24.4330   -7.4940   -6.0930 C   0  0  0  0  0
   23.3270   -7.5350   -5.0370 C   0  0  0  0  0
   23.5330   -8.6050   -3.9540 C   0  0  0  0  0
   22.4590   -8.5270   -2.9140 N   0  3  0  0  0
   24.4450   -8.3930   -9.9090 N   0  0  0  0  0
   24.0650   -7.6670  -11.1120 C   0  0  0  0  0
   23.3680   -6.3600  -10.7760 C   0  0  0  0  0
   22.4980   -6.2820   -9.8920 O   0  0  0  0  0
   23.0850   -8.5130  -11.9400 C   0  0  0  0  0
   23.6690   -9.6510  -12.7490 C   0  0  0  0  0
   22.5360  -10.4190  -13.5270 C   0  0  0  0  0
   21.2020   -9.8570  -13.2750 N   0  0  0  0  0
   20.3770   -9.3640  -14.2020 C   0  0  0  0  0
   20.7070   -9.3760  -15.4910 N   0  0  0  0  0
   19.2040   -8.8660  -13.8350 N   0  0  0  0  0
   23.7700   -5.3160  -11.4900 N   0  0  0  0  0
   23.1070   -4.0180  -11.4180 C   0  0  0  0  0
   21.6330   -4.2070  -11.7250 C   0  0  0  0  0
   21.2600   -4.6860  -12.8030 O   0  0  0  0  0
   23.8010   -3.0470  -12.3850 C   0  0  0  0  0
   24.9740   -2.3780  -11.6690 C   0  0  0  0  0
   22.8160   -2.0770  -13.0170 C   0  0  0  0  0
   25.9270   -1.6550  -12.6280 C   0  0  0  0  0
   20.7810   -3.8480  -10.7670 N   0  0  0  0  0
   19.3520   -4.1180  -10.8900 C   0  0  0  0  0
   18.7000   -3.0600  -11.7870 C   0  0  0  0  0
   19.0670   -1.8790  -11.7490 O   0  0  0  0  0
   18.6880   -4.1730   -9.5040 C   0  0  0  0  0
   17.7420   -3.4940  -12.6010 N   0  0  0  0  0
   26.0186  -11.7682   -0.0545 H   0  0  0  0  0
   26.6339  -13.2286   -1.0067 H   0  0  0  0  0
   27.9989  -11.5196    1.0455 H   0  0  0  0  0
   28.9727  -12.1059   -0.3346 H   0  0  0  0  0
   28.9321  -14.2583    0.3981 H   0  0  0  0  0
   27.2063  -14.1501    0.8927 H   0  0  0  0  0
   30.0537  -12.3034    3.3081 H   0  0  0  0  0
   30.3069  -12.5075    1.6267 H   0  0  0  0  0
   32.8636  -14.4465    3.5039 H   0  0  0  0  0
   26.6486  -12.9247    2.8740 H   0  0  0  0  0
   27.9078  -11.7631    3.2488 H   0  0  0  0  0
   26.7983  -15.2626    3.8878 H   0  0  0  0  0
   24.0000  -12.2291    5.6899 H   0  0  0  0  0
   28.5824  -14.5213    2.7047 H   0  0  0  0  0
   30.6719  -15.0960    2.0353 H   0  0  0  0  0
   30.5247  -14.8198    3.7258 H   0  0  0  0  0
   33.2746  -12.1620    3.3710 H   0  0  0  0  0
   31.7574  -11.8774    2.7434 H   0  0  0  0  0
   31.9206  -12.4722    4.2914 H   0  0  0  0  0
   32.8433  -12.0509    1.3068 H   0  0  0  0  0
   28.8630  -13.5647    4.8776 H   0  0  0  0  0
   27.0207  -13.9223    7.4368 H   0  0  0  0  0
   25.0894  -14.1992    5.3207 H   0  0  0  0  0
   25.0791  -15.4301    7.3063 H   0  0  0  0  0
   27.5319  -16.6188    5.4019 H   0  0  0  0  0
   22.9758   -9.2583    9.5964 H   0  0  0  0  0
   23.8507   -8.9737   11.1046 H   0  0  0  0  0
   27.5180  -11.5267   11.2009 H   0  0  0  0  0
   27.3925  -10.5365   -1.5305 H   0  0  0  0  0
   28.8531  -11.7626   -2.6246 H   0  0  0  0  0
   27.4388  -13.6009   -3.5548 H   0  0  0  0  0
   27.3959  -12.4956   -4.8797 H   0  0  0  0  0
   25.1666  -13.3137   -3.4935 H   0  0  0  0  0
   25.2503  -11.8154   -4.4247 H   0  0  0  0  0
   25.0324  -10.5849   -2.4356 H   0  0  0  0  0
   24.8938  -12.0272   -1.5460 H   0  0  0  0  0
   28.7537   -8.2325   -5.5902 H   0  0  0  0  0
   30.7835   -8.9322   -6.6346 H   0  0  0  0  0
   29.7015   -9.5061   -7.8452 H   0  0  0  0  0
   31.3644  -11.1640   -6.5858 H   0  0  0  0  0
   29.7492  -11.6935   -7.0841 H   0  0  0  0  0
   29.5897  -12.2602   -4.8371 H   0  0  0  0  0
   30.7880  -11.1508   -4.3465 H   0  0  0  0  0
   27.3097   -7.6219   -7.2482 H   0  0  0  0  0
   25.6510   -9.8365   -8.2319 H   0  0  0  0  0
   24.5670   -9.5714   -6.1556 H   0  0  0  0  0
   23.5161   -8.8082   -7.4233 H   0  0  0  0  0
   24.2475   -6.6619   -6.7722 H   0  0  0  0  0
   25.3955   -7.3672   -5.5973 H   0  0  0  0  0
   22.3970   -7.7735   -5.5531 H   0  0  0  0  0
   23.3227   -6.5666   -4.5368 H   0  0  0  0  0
   24.4975   -8.4372   -3.4748 H   0  0  0  0  0
   23.4966   -9.5887   -4.4221 H   0  0  0  0  0
   22.6180   -9.2459   -2.2081 H   0  0  0  0  0
   22.4793   -7.6068   -2.4744 H   0  0  0  0  0
   21.5505   -8.6753   -3.3534 H   0  0  0  0  0
   24.0117   -9.2960   -9.7162 H   0  0  0  0  0
   24.9791   -7.4605  -11.6687 H   0  0  0  0  0
   22.6430   -7.8298  -12.6653 H   0  0  0  0  0
   22.4113   -8.9766  -11.2194 H   0  0  0  0  0
   24.1653  -10.3463  -12.0720 H   0  0  0  0  0
   24.3777   -9.2435  -13.4700 H   0  0  0  0  0
   22.5353  -11.4542  -13.1857 H   0  0  0  0  0
   22.7419  -10.3324  -14.5939 H   0  0  0  0  0
   20.8780   -9.8422  -12.3079 H   0  0  0  0  0
   20.0601   -9.0043  -16.1865 H   0  0  0  0  0
   21.6069   -9.7569  -15.7835 H   0  0  0  0  0
   18.9374   -8.8614  -12.8505 H   0  0  0  0  0
   24.5714   -5.4248  -12.1116 H   0  0  0  0  0
   23.1809   -3.5856  -10.4202 H   0  0  0  0  0
   24.2131   -3.5972  -13.2309 H   0  0  0  0  0
   25.5418   -3.1578  -11.1615 H   0  0  0  0  0
   24.5651   -1.6351  -10.9841 H   0  0  0  0  0
   22.0642   -2.6360  -13.5742 H   0  0  0  0  0
   22.3307   -1.4929  -12.2350 H   0  0  0  0  0
   23.3492   -1.4089  -13.6934 H   0  0  0  0  0
   26.3375   -2.3717  -13.3393 H   0  0  0  0  0
   25.3806   -0.8800  -13.1655 H   0  0  0  0  0
   26.7381   -1.2011  -12.0586 H   0  0  0  0  0
   21.1327   -3.3766   -9.9336 H   0  0  0  0  0
   19.2103   -5.0935  -11.3551 H   0  0  0  0  0
   19.1474   -4.9658   -8.9136 H   0  0  0  0  0
   18.8243   -3.2167   -8.9990 H   0  0  0  0  0
   17.6233   -4.3754   -9.6204 H   0  0  0  0  0
   17.2744   -2.8425  -13.2313 H   0  0  0  0  0
   17.4749   -4.4784  -12.5950 H   0  0  0  0  0
  2  1  1  0  0  0
  1 30  1  0  0  0
  3  2  1  0  0  0
 10  3  1  0  0  0
 10  4  1  0  0  0
  4 11  1  0  0  0
 11  5  1  0  0  0
  5 12  1  0  0  0
  5 13  1  0  0  0
  6 10  1  0  0  0
 16  6  1  0  0  0
  7 16  1  0  0  0
 19  7  1  0  0  0
  7 21  1  0  0  0
 22  8  4  0  0  0
  8 23  4  0  0  0
 23  9  4  0  0  0
  9 24  4  0  0  0
  9 29  4  0  0  0
 13 14  1  0  0  0
 13 15  2  0  0  0
 17 16  1  0  0  0
 18 17  1  0  0  0
 18 19  1  0  0  0
 18 22  1  0  0  0
 19 20  1  0  0  0
 22 29  4  0  0  0
 24 25  1  0  0  0
 24 26  4  0  0  0
 26 27  4  0  0  0
 27 28  4  0  0  0
 28 29  4  0  0  0
 30 31  1  0  0  0
 30 36  1  0  0  0
 31 32  1  0  0  0
 31 34  1  0  0  0
 32 33  2  0  0  0
 32 37  1  0  0  0
 34 35  1  0  0  0
 35 36  1  0  0  0
 37 38  1  0  0  0
 37 43  1  0  0  0
 38 39  1  0  0  0
 38 41  1  0  0  0
 39 40  2  0  0  0
 39 44  1  0  0  0
 41 42  1  0  0  0
 42 43  1  0  0  0
 44 45  1  0  0  0
 45 46  1  0  0  0
 45 48  1  0  0  0
 46 47  2  0  0  0
 46 53  1  0  0  0
 48 49  1  0  0  0
 49 50  1  0  0  0
 50 51  1  0  0  0
 51 52  1  0  0  0
 53 54  1  0  0  0
 54 55  1  0  0  0
 54 57  1  0  0  0
 55 56  2  0  0  0
 55 64  1  0  0  0
 57 58  1  0  0  0
 58 59  1  0  0  0
 59 60  1  0  0  0
 60 61  1  0  0  0
 61 62  1  0  0  0
 61 63  2  0  0  0
 64 65  1  0  0  0
 65 66  1  0  0  0
 65 68  1  0  0  0
 66 67  2  0  0  0
 66 72  1  0  0  0
 68 69  1  0  0  0
 68 70  1  0  0  0
 69 71  1  0  0  0
 72 73  1  0  0  0
 73 74  1  0  0  0
 73 76  1  0  0  0
 74 75  2  0  0  0
 74 77  1  0  0  0
  1 78  1  0  0  0
  1 79  1  0  0  0
  2 80  1  0  0  0
  2 81  1  0  0  0
  3 82  1  0  0  0
  3 83  1  0  0  0
  4 84  1  0  0  0
  4 85  1  0  0  0
  5 86  1  0  0  0
  6 87  1  0  0  0
  6 88  1  0  0  0
  7 89  1  0  0  0
  8 90  1  0  0  0
 10 91  1  0  0  0
 11 92  1  0  0  0
 11 93  1  0  0  0
 12 94  1  0  0  0
 12 95  1  0  0  0
 12 96  1  0  0  0
 14 97  1  0  0  0
 16 98  1  0  0  0
 18 99  1  0  0  0
 19100  1  0  0  0
 20101  1  0  0  0
 21102  1  0  0  0
 25103  1  0  0  0
 25104  1  0  0  0
 27105  1  0  0  0
 30106  1  0  0  0
 31107  1  0  0  0
 34108  1  0  0  0
 34109  1  0  0  0
 35110  1  0  0  0
 35111  1  0  0  0
 36112  1  0  0  0
 36113  1  0  0  0
 38114  1  0  0  0
 41115  1  0  0  0
 41116  1  0  0  0
 42117  1  0  0  0
 42118  1  0  0  0
 43119  1  0  0  0
 43120  1  0  0  0
 44121  1  0  0  0
 45122  1  0  0  0
 48123  1  0  0  0
 48124  1  0  0  0
 49125  1  0  0  0
 49126  1  0  0  0
 50127  1  0  0  0
 50128  1  0  0  0
 51129  1  0  0  0
 51130  1  0  0  0
 52131  1  0  0  0
 52132  1  0  0  0
 52133  1  0  0  0
 53134  1  0  0  0
 54135  1  0  0  0
 57136  1  0  0  0
 57137  1  0  0  0
 58138  1  0  0  0
 58139  1  0  0  0
 59140  1  0  0  0
 59141  1  0  0  0
 60142  1  0  0  0
 62143  1  0  0  0
 62144  1  0  0  0
 63145  1  0  0  0
 64146  1  0  0  0
 65147  1  0  0  0
 68148  1  0  0  0
 69149  1  0  0  0
 69150  1  0  0  0
 70151  1  0  0  0
 70152  1  0  0  0
 70153  1  0  0  0
 71154  1  0  0  0
 71155  1  0  0  0
 71156  1  0  0  0
 72157  1  0  0  0
 73158  1  0  0  0
 76159  1  0  0  0
 76160  1  0  0  0
 76161  1  0  0  0
 77162  1  0  0  0
 77163  1  0  0  0
M  END
$$$$
