### 
### Created by X-TOOL on Mon Aug  2 16:13:01 2021
### 

@<TRIPOS>MOLECULE
6dtn_ligand
  163   167     1     0     0
SMALL
GAST_HUCK


@<TRIPOS>ATOM
      1 C1         26.8120  -12.2120   -0.6560 C.3       1 MOL        -0.0249
      2 C2         28.0820  -12.2800    0.2690 C.3       1 MOL         0.0277
      3 C3         28.1850  -13.6720    0.9330 C.3       1 MOL        -0.0269
      4 C4         29.9680  -13.0440    2.5130 C.3       1 MOL        -0.0250
      5 C5         32.2680  -13.8200    2.8400 C.3       1 MOL         0.0332
      6 C6         27.6710  -12.8270    3.2390 C.3       1 MOL        -0.0023
      7 C7         27.1370  -14.8210    4.8250 C.3       1 MOL         0.1174
      8 C8         24.4310  -11.9740    6.6580 C.2       1 MOL         0.1123
      9 C9         24.7490  -11.0540    8.6140 C.ar      1 MOL         0.1045
     10 N2         28.6040  -13.5580    2.3700 N.4       1 MOL         0.2375
     11 C10        30.8170  -14.3300    2.7970 C.3       1 MOL         0.0425
     12 N3         32.3080  -12.4870    3.3480 N.4       1 MOL         0.2328
     13 C11        32.8630  -13.8830    1.3950 C.2       1 MOL         0.0846
     14 O1         33.1150  -12.7990    0.7700 O.co2     1 MOL        -0.5643
     15 O2         33.1270  -14.9960    0.9010 O.co2     1 MOL        -0.5643
     16 C12        27.8040  -13.4290    4.6580 C.3       1 MOL         0.1300
     17 O3         27.1430  -12.5590    5.4830 O.3       1 MOL        -0.3338
     18 C13        26.4900  -13.4590    6.6050 C.3       1 MOL         0.2011
     19 C14        26.0130  -14.4760    5.8290 C.3       1 MOL         0.1386
     20 O4         25.7760  -15.6330    6.6780 O.3       1 MOL        -0.3836
     21 O5         27.9990  -15.7840    5.3210 O.3       1 MOL        -0.3863
     22 N4         25.5700  -12.4820    7.1720 N.pl3     1 MOL        -0.1919
     23 N5         23.9180  -11.1020    7.5390 N.2       1 MOL        -0.2958
     24 C15        24.7510  -10.3540    9.8080 C.ar      1 MOL         0.1298
     25 N6         23.7720   -9.4480   10.2050 N.pl3     1 MOL        -0.3152
     26 N7         25.7430  -10.5190   10.6970 N.ar      1 MOL        -0.2698
     27 C16        26.7340  -11.3900   10.4560 C.ar      1 MOL         0.0533
     28 N8         26.7800  -12.1040    9.3040 N.ar      1 MOL        -0.2714
     29 C17        25.7690  -11.9210    8.3790 C.ar      1 MOL         0.1613
     30 N          26.9320  -11.3960   -1.8300 N.4       1 MOL         0.2543
     31 CA         27.8440  -11.5320   -2.9660 C.3       1 MOL         0.0690
     32 C          27.9590  -10.2630   -3.8230 C.2       1 MOL         0.2293
     33 O          27.1940   -9.3490   -3.6260 O.2       1 MOL        -0.3905
     34 CB         27.1370  -12.5890   -3.8250 C.3       1 MOL         0.0128
     35 CG         25.6860  -12.3600   -3.5870 C.3       1 MOL        -0.0052
     36 CD         25.5330  -11.5410   -2.2830 C.3       1 MOL        -0.0295
     37 N          28.8950  -10.2300   -4.7680 N.am      1 MOL        -0.2471
     38 CA         28.7560   -9.2830   -5.8810 C.3       1 MOL         0.1339
     39 C          27.4390   -9.5690   -6.5740 C.2       1 MOL         0.2041
     40 O          26.9060  -10.6810   -6.4980 O.2       1 MOL        -0.3944
     41 CB         29.9480   -9.6150   -6.7890 C.3       1 MOL        -0.0104
     42 CG         30.2960  -11.0030   -6.4420 C.3       1 MOL        -0.0281
     43 CD         29.9360  -11.2430   -5.0200 C.3       1 MOL         0.0371
     44 N          26.8730   -8.5430   -7.2120 N.am      1 MOL        -0.2637
     45 CA         25.5960   -8.8160   -7.8530 C.3       1 MOL         0.1310
     46 C          25.3420   -7.9100   -9.0550 C.2       1 MOL         0.2039
     47 O          25.8940   -6.8090   -9.1830 O.2       1 MOL        -0.3944
     48 CB         24.4480   -8.7490   -6.8610 C.3       1 MOL        -0.0122
     49 CG         24.4330   -7.4940   -6.0930 C.3       1 MOL        -0.0440
     50 CD         23.3270   -7.5350   -5.0370 C.3       1 MOL        -0.0124
     51 CE         23.5330   -8.6050   -3.9540 C.3       1 MOL        -0.0354
     52 NZ         22.4590   -8.5270   -2.9140 N.4       1 MOL         0.2185
     53 N          24.4450   -8.3930   -9.9090 N.am      1 MOL        -0.2637
     54 CA         24.0650   -7.6670  -11.1120 C.3       1 MOL         0.1311
     55 C          23.3680   -6.3600  -10.7760 C.2       1 MOL         0.2039
     56 O          22.4980   -6.2820   -9.8920 O.2       1 MOL        -0.3944
     57 CB         23.0850   -8.5130  -11.9400 C.3       1 MOL        -0.0092
     58 CG         23.6690   -9.6510  -12.7490 C.3       1 MOL        -0.0156
     59 CD         22.5360  -10.4190  -13.5270 C.3       1 MOL         0.0627
     60 NE         21.2020   -9.8570  -13.2750 N.pl3     1 MOL        -0.2723
     61 CZ         20.3770   -9.3640  -14.2020 C.cat     1 MOL         0.2882
     62 NH1        20.7070   -9.3760  -15.4910 N.pl3     1 MOL        -0.2849
     63 NH2        19.2040   -8.8660  -13.8350 N.pl3     1 MOL        -0.2849
     64 N          23.7700   -5.3160  -11.4900 N.am      1 MOL        -0.2635
     65 CA         23.1070   -4.0180  -11.4180 C.3       1 MOL         0.1335
     66 C          21.6330   -4.2070  -11.7250 C.2       1 MOL         0.2041
     67 O          21.2600   -4.6860  -12.8030 O.2       1 MOL        -0.3944
     68 CB         23.8010   -3.0470  -12.3850 C.3       1 MOL        -0.0037
     69 CG1        24.9740   -2.3780  -11.6690 C.3       1 MOL        -0.0491
     70 CG2        22.8160   -2.0770  -13.0170 C.3       1 MOL        -0.0582
     71 CD1        25.9270   -1.6550  -12.6280 C.3       1 MOL        -0.0648
     72 N          20.7810   -3.8480  -10.7670 N.am      1 MOL        -0.2640
     73 CA         19.3520   -4.1180  -10.8900 C.3       1 MOL         0.1279
     74 C          18.7000   -3.0600  -11.7870 C.2       1 MOL         0.1989
     75 O          19.0670   -1.8790  -11.7490 O.2       1 MOL        -0.3947
     76 CB         18.6880   -4.1730   -9.5040 C.3       1 MOL        -0.0244
     77 N          17.7420   -3.4940  -12.6010 N.am      1 MOL        -0.2990
     78 H1         25.9791  -11.8174   -0.0556 H         1 MOL         0.0817
     79 H2         26.5769  -13.2363   -0.9808 H         1 MOL         0.0817
     80 H3         28.0041  -11.5097    1.0503 H         1 MOL         0.0369
     81 H4         28.9824  -12.0987   -0.3362 H         1 MOL         0.0369
     82 H5         28.9274  -14.2748    0.3895 H         1 MOL         0.0816
     83 H6         27.2038  -14.1667    0.8835 H         1 MOL         0.0816
     84 H7         30.0351  -12.3357    3.3519 H         1 MOL         0.0817
     85 H8         30.3007  -12.5498    1.5883 H         1 MOL         0.0817
     86 H9         32.8604  -14.4690    3.5016 H         1 MOL         0.1026
     87 H10        26.6408  -12.9481    2.8729 H         1 MOL         0.0841
     88 H11        27.9306  -11.7582    3.2568 H         1 MOL         0.0841
     89 H12        26.7227  -15.1762    3.8699 H         1 MOL         0.0649
     90 H13        24.0004  -12.2288    5.6907 H         1 MOL         0.1349
     91 H14        28.6200  -14.5028    2.7208 H         1 MOL         0.2034
     92 H15        30.6867  -15.0693    1.9930 H         1 MOL         0.0391
     93 H16        30.5329  -14.7808    3.7593 H         1 MOL         0.0391
     94 H17        33.2628  -12.1648    3.3711 H         1 MOL         0.2010
     95 H18        31.9254  -12.4711    4.2804 H         1 MOL         0.2010
     96 H19        31.7642  -11.8835    2.7513 H         1 MOL         0.2010
     97 H20        28.8672  -13.5015    4.9305 H         1 MOL         0.0678
     98 H21        27.1827  -13.8397    7.3700 H         1 MOL         0.0996
     99 H22        25.0909  -14.1800    5.3074 H         1 MOL         0.0676
    100 H23        26.5911  -15.8941    7.0903 H         1 MOL         0.2101
    101 H24        28.4021  -15.4652    6.1200 H         1 MOL         0.2100
    102 H25        23.8515   -8.9690   11.1134 H         1 MOL         0.1820
    103 H26        22.9679   -9.2564    9.5904 H         1 MOL         0.1820
    104 H27        27.5137  -11.5259   11.1968 H         1 MOL         0.0996
    105 H28        27.0970  -10.4574   -1.5016 H         1 MOL         0.2055
    106 H29        28.8414  -11.8571   -2.6351 H         1 MOL         0.1100
    107 H30        27.4266  -13.6022   -3.5097 H         1 MOL         0.0347
    108 H31        27.3820  -12.4518   -4.8885 H         1 MOL         0.0347
    109 H32        25.1688  -13.3253   -3.4832 H         1 MOL         0.0320
    110 H33        25.2540  -11.8013   -4.4303 H         1 MOL         0.0320
    111 H34        25.0756  -10.5604   -2.4810 H         1 MOL         0.0815
    112 H35        24.9292  -12.0842   -1.5411 H         1 MOL         0.0815
    113 H36        28.7922   -8.2378   -5.5402 H         1 MOL         0.0802
    114 H37        30.7921   -8.9396   -6.5860 H         1 MOL         0.0313
    115 H38        29.6635   -9.5382   -7.8488 H         1 MOL         0.0313
    116 H39        31.3757  -11.1601   -6.5821 H         1 MOL         0.0287
    117 H40        29.7377  -11.6971   -7.0874 H         1 MOL         0.0287
    118 H41        29.5413  -12.2599   -4.8780 H         1 MOL         0.0524
    119 H42        30.8037  -11.0911   -4.3612 H         1 MOL         0.0524
    120 H43        27.3012   -7.6400   -7.2474 H         1 MOL         0.1883
    121 H44        25.6401   -9.8482   -8.2307 H         1 MOL         0.0800
    122 H45        24.5406   -9.5903   -6.1584 H         1 MOL         0.0312
    123 H46        23.5005   -8.8349   -7.4131 H         1 MOL         0.0312
    124 H47        24.2517   -6.6516   -6.7767 H         1 MOL         0.0269
    125 H48        25.4052   -7.3603   -5.5961 H         1 MOL         0.0269
    126 H49        22.3721   -7.7366   -5.5445 H         1 MOL         0.0317
    127 H50        23.2811   -6.5515   -4.5465 H         1 MOL         0.0317
    128 H51        24.5105   -8.4484   -3.4745 H         1 MOL         0.0813
    129 H52        23.5093   -9.6002   -4.4220 H         1 MOL         0.0813
    130 H53        22.6152   -9.2371   -2.2158 H         1 MOL         0.1994
    131 H54        21.5606   -8.6735   -3.3471 H         1 MOL         0.1994
    132 H55        22.4781   -7.6180   -2.4788 H         1 MOL         0.1994
    133 H56        24.0202   -9.2783   -9.7200 H         1 MOL         0.1883
    134 H57        24.9683   -7.4580  -11.7040 H         1 MOL         0.0800
    135 H58        22.5738   -7.8367  -12.6408 H         1 MOL         0.0313
    136 H59        22.3500   -8.9442  -11.2444 H         1 MOL         0.0313
    137 H60        24.1799  -10.3509  -12.0714 H         1 MOL         0.0301
    138 H61        24.3927   -9.2462  -13.4718 H         1 MOL         0.0301
    139 H62        22.5411  -11.4721  -13.2093 H         1 MOL         0.0689
    140 H63        22.7459  -10.3602  -14.6052 H         1 MOL         0.0689
    141 H64        20.8748   -9.8420  -12.2985 H         1 MOL         0.2642
    142 H65        20.0581   -8.9913  -16.1923 H         1 MOL         0.2615
    143 H66        21.6113   -9.7700  -15.7874 H         1 MOL         0.2615
    144 H67        18.9391   -8.8521  -12.8398 H         1 MOL         0.2615
    145 H68        18.5579   -8.4931  -14.5452 H         1 MOL         0.2615
    146 H69        24.5557   -5.4227  -12.0994 H         1 MOL         0.1883
    147 H70        23.2018   -3.6184  -10.3975 H         1 MOL         0.0803
    148 H71        24.2233   -3.6434  -13.2071 H         1 MOL         0.0345
    149 H72        25.5405   -3.1498  -11.1275 H         1 MOL         0.0267
    150 H73        24.5753   -1.6451  -10.9522 H         1 MOL         0.0267
    151 H74        22.0091   -2.6413  -13.5074 H         1 MOL         0.0235
    152 H75        23.3372   -1.4592  -13.7631 H         1 MOL         0.0235
    153 H76        22.3888   -1.4286  -12.2379 H         1 MOL         0.0235
    154 H77        26.7460   -1.1964  -12.0545 H         1 MOL         0.0230
    155 H78        25.3768   -0.8725  -13.1711 H         1 MOL         0.0230
    156 H79        26.3420   -2.3773  -13.3464 H         1 MOL         0.0230
    157 H80        21.1258   -3.3859   -9.9499 H         1 MOL         0.1883
    158 H81        19.2241   -5.1004  -11.3681 H         1 MOL         0.0797
    159 H82        17.6134   -4.3772   -9.6201 H         1 MOL         0.0277
    160 H83        18.8248   -3.2084   -8.9933 H         1 MOL         0.0277
    161 H84        19.1508   -4.9728   -8.9072 H         1 MOL         0.0277
    162 H85        17.2768   -2.8534  -13.2120 H         1 MOL         0.1815
    163 H86        17.4868   -4.4609  -12.6021 H         1 MOL         0.1815
@<TRIPOS>BOND
     1    2    1 1  
     2    1   30 1  
     3    3    2 1  
     4   10    3 1  
     5   10    4 1  
     6    4   11 1  
     7   11    5 1  
     8    5   12 1  
     9    5   13 1  
    10    6   10 1  
    11   16    6 1  
    12    7   16 1  
    13   19    7 1  
    14    7   21 1  
    15   22    8 1  
    16    8   23 2  
    17   23    9 1  
    18    9   24 ar 
    19    9   29 ar 
    20   13   14 ar 
    21   13   15 ar 
    22   17   16 1  
    23   18   17 1  
    24   18   19 1  
    25   18   22 1  
    26   19   20 1  
    27   22   29 1  
    28   24   25 1  
    29   24   26 ar 
    30   26   27 ar 
    31   27   28 ar 
    32   28   29 ar 
    33   30   31 1  
    34   30   36 1  
    35   31   32 1  
    36   31   34 1  
    37   32   33 2  
    38   32   37 am 
    39   34   35 1  
    40   35   36 1  
    41   37   38 1  
    42   37   43 1  
    43   38   39 1  
    44   38   41 1  
    45   39   40 2  
    46   39   44 am 
    47   41   42 1  
    48   42   43 1  
    49   44   45 1  
    50   45   46 1  
    51   45   48 1  
    52   46   47 2  
    53   46   53 am 
    54   48   49 1  
    55   49   50 1  
    56   50   51 1  
    57   51   52 1  
    58   53   54 1  
    59   54   55 1  
    60   54   57 1  
    61   55   56 2  
    62   55   64 am 
    63   57   58 1  
    64   58   59 1  
    65   59   60 1  
    66   60   61 ar 
    67   61   62 ar 
    68   61   63 ar 
    69   64   65 1  
    70   65   66 1  
    71   65   68 1  
    72   66   67 2  
    73   66   72 am 
    74   68   69 1  
    75   68   70 1  
    76   69   71 1  
    77   72   73 1  
    78   73   74 1  
    79   73   76 1  
    80   74   75 2  
    81   74   77 am 
    82    1   78 1  
    83    1   79 1  
    84    2   80 1  
    85    2   81 1  
    86    3   82 1  
    87    3   83 1  
    88    4   84 1  
    89    4   85 1  
    90    5   86 1  
    91    6   87 1  
    92    6   88 1  
    93    7   89 1  
    94    8   90 1  
    95   10   91 1  
    96   11   92 1  
    97   11   93 1  
    98   12   94 1  
    99   12   95 1  
   100   12   96 1  
   101   16   97 1  
   102   18   98 1  
   103   19   99 1  
   104   20  100 1  
   105   21  101 1  
   106   25  102 1  
   107   25  103 1  
   108   27  104 1  
   109   30  105 1  
   110   31  106 1  
   111   34  107 1  
   112   34  108 1  
   113   35  109 1  
   114   35  110 1  
   115   36  111 1  
   116   36  112 1  
   117   38  113 1  
   118   41  114 1  
   119   41  115 1  
   120   42  116 1  
   121   42  117 1  
   122   43  118 1  
   123   43  119 1  
   124   44  120 1  
   125   45  121 1  
   126   48  122 1  
   127   48  123 1  
   128   49  124 1  
   129   49  125 1  
   130   50  126 1  
   131   50  127 1  
   132   51  128 1  
   133   51  129 1  
   134   52  130 1  
   135   52  131 1  
   136   52  132 1  
   137   53  133 1  
   138   54  134 1  
   139   57  135 1  
   140   57  136 1  
   141   58  137 1  
   142   58  138 1  
   143   59  139 1  
   144   59  140 1  
   145   60  141 1  
   146   62  142 1  
   147   62  143 1  
   148   63  144 1  
   149   63  145 1  
   150   64  146 1  
   151   65  147 1  
   152   68  148 1  
   153   69  149 1  
   154   69  150 1  
   155   70  151 1  
   156   70  152 1  
   157   70  153 1  
   158   71  154 1  
   159   71  155 1  
   160   71  156 1  
   161   72  157 1  
   162   73  158 1  
   163   76  159 1  
   164   76  160 1  
   165   76  161 1  
   166   77  162 1  
   167   77  163 1  
@<TRIPOS>SUBSTRUCTURE
     1 MOL         1

