6bgv_ligand
  -I-interpret- 

 53 56  0  0  0  0  0  0  0  0999 V2000
  -29.3370   21.9390    3.8000 C   0  0  0  0  0
  -27.4410   22.9530    5.5210 C   0  0  0  0  0
  -25.3040   24.8860    1.0450 C   0  0  0  0  0
  -21.5440   24.5520    0.9230 C   0  0  0  0  0
  -21.3940   26.0350    0.7760 C   0  0  0  0  0
  -22.2170   26.5240   -0.3750 C   0  0  0  0  0
  -24.6930   20.2180    3.1340 C   0  0  0  0  0
  -23.4080   19.1240    7.6910 C   0  0  0  0  0
  -23.5100   18.7480    6.2560 C   0  0  0  0  0
  -24.0460   19.6030    5.2860 C   0  0  0  0  0
  -24.9860   21.3100    4.1210 C   0  0  0  0  0
  -25.7130   24.4220    2.4120 C   0  0  0  0  0
  -23.0160   24.1430    0.9210 C   0  0  0  0  0
  -23.6850   26.1320   -0.2180 C   0  0  0  0  0
  -24.1000   19.1760    3.9870 C   0  0  0  0  0
  -23.1510   17.1540    4.5130 C   0  0  0  0  0
  -23.0540   17.4950    5.8570 C   0  0  0  0  0
  -24.5750   20.8920    5.3740 N   0  0  0  0  0
  -23.8990   25.3100    0.9740 N   0  3  0  0  0
  -23.6600   17.9660    3.5900 N   0  0  0  0  0
  -24.0730   20.1020    8.1200 O   0  0  0  0  0
  -25.5230   22.9920    2.5230 O   0  0  0  0  0
  -22.6670   18.4630    8.4660 O   0  0  0  0  0
  -25.5700   22.5010    3.8640 C   0  0  0  0  0
  -27.0190   22.4610    4.2970 C   0  0  0  0  0
  -27.9980   21.9690    3.4430 C   0  0  0  0  0
  -29.7290   22.4250    5.0340 C   0  0  0  0  0
  -28.7740   22.9320    5.8950 C   0  0  0  0  0
  -26.3030   23.5970    6.6420 Cl  0  0  0  0  0
  -30.0781   21.5340    3.1109 H   0  0  0  0  0
  -25.9221   25.7467    0.7897 H   0  0  0  0  0
  -25.4311   24.0478    0.3599 H   0  0  0  0  0
  -21.1001   24.2496    1.8715 H   0  0  0  0  0
  -21.0469   24.0670    0.0829 H   0  0  0  0  0
  -20.3460   26.2720    0.5925 H   0  0  0  0  0
  -21.7336   26.5212    1.6905 H   0  0  0  0  0
  -21.8344   26.0723   -1.2903 H   0  0  0  0  0
  -22.1513   27.6115   -0.4098 H   0  0  0  0  0
  -24.8735   20.2011    2.0592 H   0  0  0  0  0
  -26.7648   24.6588    2.5726 H   0  0  0  0  0
  -25.1015   24.9254    3.1608 H   0  0  0  0  0
  -23.2041   23.5282    1.8012 H   0  0  0  0  0
  -23.2209   23.5973   -0.0001 H   0  0  0  0  0
  -23.9824   25.5538   -1.0928 H   0  0  0  0  0
  -24.2758   27.0426   -0.1188 H   0  0  0  0  0
  -22.7925   16.1734    4.1999 H   0  0  0  0  0
  -22.6312   16.7982    6.5807 H   0  0  0  0  0
  -23.6836   25.8551    1.8088 H   0  0  0  0  0
  -22.2384   17.7589    7.9739 H   0  0  0  0  0
  -24.9599   23.1998    4.4363 H   0  0  0  0  0
  -27.7042   21.5951    2.4622 H   0  0  0  0  0
  -30.7795   22.4084    5.3244 H   0  0  0  0  0
  -29.0710   23.3163    6.8708 H   0  0  0  0  0
 26  1  4  0  0  0
  1 27  4  0  0  0
 25  2  4  0  0  0
  2 28  4  0  0  0
  2 29  1  0  0  0
 12  3  1  0  0  0
  3 19  1  0  0  0
  4  5  1  0  0  0
 13  4  1  0  0  0
  6  5  1  0  0  0
 14  6  1  0  0  0
 11  7  4  0  0  0
  7 15  4  0  0  0
  9  8  1  0  0  0
  8 21  2  0  0  0
  8 23  1  0  0  0
 10  9  4  0  0  0
  9 17  4  0  0  0
 10 15  4  0  0  0
 18 10  4  0  0  0
 11 18  4  0  0  0
 24 11  1  0  0  0
 22 12  1  0  0  0
 19 13  1  0  0  0
 19 14  1  0  0  0
 15 20  4  0  0  0
 17 16  4  0  0  0
 20 16  4  0  0  0
 24 22  1  0  0  0
 25 24  1  0  0  0
 25 26  4  0  0  0
 27 28  4  0  0  0
  1 30  1  0  0  0
  3 31  1  0  0  0
  3 32  1  0  0  0
  4 33  1  0  0  0
  4 34  1  0  0  0
  5 35  1  0  0  0
  5 36  1  0  0  0
  6 37  1  0  0  0
  6 38  1  0  0  0
  7 39  1  0  0  0
 12 40  1  0  0  0
 12 41  1  0  0  0
 13 42  1  0  0  0
 13 43  1  0  0  0
 14 44  1  0  0  0
 14 45  1  0  0  0
 16 46  1  0  0  0
 17 47  1  0  0  0
 19 48  1  0  0  0
 23 49  1  0  0  0
 24 50  1  0  0  0
 26 51  1  0  0  0
 27 52  1  0  0  0
 28 53  1  0  0  0
M  END
$$$$
