### 
### Created by X-TOOL on Mon Sep 10 21:12:45 2018
### 

@<TRIPOS>MOLECULE
1tkc_ligand
   45    46     1     0     0
SMALL
GAST_HUCK


@<TRIPOS>ATOM
      1 N1'        -3.1110   60.8210   20.0640 N.ar      1 M6T        -0.2942
      2 C2'        -2.2410   59.8510   20.3770 C.ar      1 M6T         0.0676
      3 CM2        -0.9040   60.2640   20.8210 C.3       1 M6T        -0.0047
      4 N3'        -2.6100   58.6010   20.4550 N.ar      1 M6T        -0.2707
      5 C4'        -3.8200   58.2460   19.9370 C.ar      1 M6T         0.1128
      6 N4'        -4.1140   56.9790   19.9830 N.pl3     1 M6T        -0.3212
      7 C5'        -4.7520   59.2210   19.5070 C.ar      1 M6T         0.0320
      8 C6'        -4.3600   60.5140   19.6490 C.ar      1 M6T         0.0218
      9 C7'        -6.1640   58.8600   19.0910 C.3       1 M6T         0.0529
     10 N3         -6.1310   58.1430   17.7710 N.2       1 M6T        -0.2759
     11 C2         -6.3140   56.8190   17.6510 C.2       1 M6T         0.1351
     12 S1         -6.2360   56.3020   16.0380 S.3       1 M6T         0.1156
     13 C5         -5.7800   57.9030   15.5890 C.2       1 M6T         0.1730
     14 C4         -6.0540   58.7710   16.5980 C.2       1 M6T         0.1307
     15 CM4        -6.0810   60.2520   16.4930 C.3       1 M6T         0.0228
     16 CM6        -5.3130   61.6350   19.5000 C.3       1 M6T        -0.0179
     17 C6         -5.4280   58.2380   14.1720 C.3       1 M6T         0.0829
     18 C7         -5.4060   57.0280   13.2610 C.3       1 M6T         0.1135
     19 O7         -4.8170   57.3960   12.0080 O.3       1 M6T        -0.2401
     20 PA         -3.8790   56.3640   11.3290 P.3       1 M6T         0.3279
     21 O1A        -2.5620   56.2070   11.9780 O.co2     1 M6T        -0.5556
     22 O2A        -3.7860   56.8060    9.8990 O.co2     1 M6T        -0.5556
     23 O3A        -4.5840   54.9270   11.2820 O.3       1 M6T        -0.1548
     24 PB         -5.4840   54.1750   10.2220 P.3       1 M6T         0.2069
     25 O1B        -4.7440   54.4600    8.9500 O.co2     1 M6T        -0.5891
     26 O2B        -6.7200   54.9390   10.3400 O.co2     1 M6T        -0.5891
     27 O3B        -5.5960   52.7730   10.5960 O.co2     1 M6T        -0.5891
     28 H1         -0.7877   61.3480   20.6746 H         1 M6T         0.0448
     29 H2         -0.1417   59.7309   20.2339 H         1 M6T         0.0448
     30 H3         -0.7809   60.0227   21.8871 H         1 M6T         0.0448
     31 H4         -5.0134   56.6451   19.6082 H         1 M6T         0.1781
     32 H5         -3.4473   56.3102   20.3942 H         1 M6T         0.1781
     33 H6         -6.7635   59.7773   18.9948 H         1 M6T         0.0545
     34 H7         -6.6143   58.2058   19.8521 H         1 M6T         0.0545
     35 H8         -6.4923   56.1525   18.4936 H         1 M6T         0.1655
     36 H9         -6.0051   60.5460   15.4357 H         1 M6T         0.0599
     37 H10        -5.2338   60.6748   17.0528 H         1 M6T         0.0599
     38 H11        -7.0241   60.6322   16.9125 H         1 M6T         0.0599
     39 H12        -6.2843   61.2476   19.1589 H         1 M6T         0.0420
     40 H13        -4.9241   62.3512   18.7613 H         1 M6T         0.0420
     41 H14        -5.4396   62.1400   20.4690 H         1 M6T         0.0420
     42 H15        -4.4312   58.7030   14.1598 H         1 M6T         0.0773
     43 H16        -6.1705   58.9523   13.7867 H         1 M6T         0.0773
     44 H17        -6.4338   56.6731   13.0948 H         1 M6T         0.0687
     45 H18        -4.8123   56.2273   13.7261 H         1 M6T         0.0687
@<TRIPOS>BOND
     1    1    2 ar 
     2    1    8 ar 
     3    2    3 1  
     4    2    4 ar 
     5    4    5 ar 
     6    5    6 1  
     7    5    7 ar 
     8    7    8 ar 
     9    7    9 1  
    10    8   16 1  
    11    9   10 1  
    12   10   11 2  
    13   10   14 1  
    14   11   12 1  
    15   12   13 1  
    16   13   14 2  
    17   13   17 1  
    18   14   15 1  
    19   17   18 1  
    20   18   19 1  
    21   19   20 1  
    22   20   21 ar 
    23   20   22 ar 
    24   20   23 1  
    25   23   24 1  
    26   24   25 ar 
    27   24   26 ar 
    28   24   27 ar 
    29    3   28 1  
    30    3   29 1  
    31    3   30 1  
    32    6   31 1  
    33    6   32 1  
    34    9   33 1  
    35    9   34 1  
    36   11   35 1  
    37   15   36 1  
    38   15   37 1  
    39   15   38 1  
    40   16   39 1  
    41   16   40 1  
    42   16   41 1  
    43   17   42 1  
    44   17   43 1  
    45   18   44 1  
    46   18   45 1  
@<TRIPOS>SUBSTRUCTURE
     1 M6T         1

