1tkc_ligand
  -I-interpret- 

 48 49  0  0  0  0  0  0  0  0999 V2000
   -3.1110   60.8210   20.0640 N   0  0  0  0  0
   -2.2410   59.8510   20.3770 C   0  0  0  0  0
   -0.9040   60.2640   20.8210 C   0  0  0  0  0
   -2.6100   58.6010   20.4550 N   0  0  0  0  0
   -3.8200   58.2460   19.9370 C   0  0  0  0  0
   -4.1140   56.9790   19.9830 N   0  0  0  0  0
   -4.7520   59.2210   19.5070 C   0  0  0  0  0
   -4.3600   60.5140   19.6490 C   0  0  0  0  0
   -6.1640   58.8600   19.0910 C   0  0  0  0  0
   -6.1310   58.1430   17.7710 N   0  3  0  0  0
   -6.3140   56.8190   17.6510 C   0  0  0  0  0
   -6.2360   56.3020   16.0380 S   0  0  0  0  0
   -5.7800   57.9030   15.5890 C   0  0  0  0  0
   -6.0540   58.7710   16.5980 C   0  0  0  0  0
   -6.0810   60.2520   16.4930 C   0  0  0  0  0
   -5.3130   61.6350   19.5000 C   0  0  0  0  0
   -5.4280   58.2380   14.1720 C   0  0  0  0  0
   -5.4060   57.0280   13.2610 C   0  0  0  0  0
   -4.8170   57.3960   12.0080 O   0  0  0  0  0
   -3.8790   56.3640   11.3290 P   0  0  0  0  0
   -2.5620   56.2070   11.9780 O   0  0  0  0  0
   -3.7860   56.8060    9.8990 O   0  0  0  0  0
   -4.5840   54.9270   11.2820 O   0  0  0  0  0
   -5.4840   54.1750   10.2220 P   0  0  0  0  0
   -4.7440   54.4600    8.9500 O   0  0  0  0  0
   -6.7200   54.9390   10.3400 O   0  0  0  0  0
   -5.5960   52.7730   10.5960 O   0  0  0  0  0
   -0.4233   60.8427   20.0322 H   0  0  0  0  0
   -0.9935   60.8755   21.7189 H   0  0  0  0  0
   -0.3061   59.3794   21.0404 H   0  0  0  0  0
   -3.4538   56.3167   20.3902 H   0  0  0  0  0
   -5.0047   56.6483   19.6118 H   0  0  0  0  0
   -6.7576   59.7691   18.9953 H   0  0  0  0  0
   -6.6098   58.2114   19.8451 H   0  0  0  0  0
   -6.4925   56.1519   18.4944 H   0  0  0  0  0
   -7.0159   60.6275   16.9090 H   0  0  0  0  0
   -5.2411   60.6697   17.0481 H   0  0  0  0  0
   -6.0058   60.5421   15.4450 H   0  0  0  0  0
   -5.4375   62.1345   20.4608 H   0  0  0  0  0
   -4.9264   62.3439   18.7678 H   0  0  0  0  0
   -6.2750   61.2499   19.1620 H   0  0  0  0  0
   -4.4268   58.6689   14.1732 H   0  0  0  0  0
   -6.1889   58.9215   13.7952 H   0  0  0  0  0
   -6.4236   56.6730   13.0979 H   0  0  0  0  0
   -4.8207   56.2323   13.7219 H   0  0  0  0  0
   -4.6695   56.8900    9.5331 H   0  0  0  0  0
   -4.7276   55.4074    8.7961 H   0  0  0  0  0
   -6.5595   55.8479   10.0758 H   0  0  0  0  0
  1  2  4  0  0  0
  1  8  4  0  0  0
  2  3  1  0  0  0
  2  4  4  0  0  0
  4  5  4  0  0  0
  5  6  1  0  0  0
  5  7  4  0  0  0
  7  8  4  0  0  0
  7  9  1  0  0  0
  8 16  1  0  0  0
  9 10  1  0  0  0
 10 11  4  0  0  0
 10 14  4  0  0  0
 11 12  4  0  0  0
 12 13  4  0  0  0
 13 14  4  0  0  0
 13 17  1  0  0  0
 14 15  1  0  0  0
 17 18  1  0  0  0
 18 19  1  0  0  0
 19 20  1  0  0  0
 20 21  2  0  0  0
 20 22  1  0  0  0
 20 23  1  0  0  0
 23 24  1  0  0  0
 24 25  1  0  0  0
 24 26  1  0  0  0
 24 27  2  0  0  0
  3 28  1  0  0  0
  3 29  1  0  0  0
  3 30  1  0  0  0
  6 31  1  0  0  0
  6 32  1  0  0  0
  9 33  1  0  0  0
  9 34  1  0  0  0
 11 35  1  0  0  0
 15 36  1  0  0  0
 15 37  1  0  0  0
 15 38  1  0  0  0
 16 39  1  0  0  0
 16 40  1  0  0  0
 16 41  1  0  0  0
 17 42  1  0  0  0
 17 43  1  0  0  0
 18 44  1  0  0  0
 18 45  1  0  0  0
 22 46  1  0  0  0
 25 47  1  0  0  0
 26 48  1  0  0  0
M  END
$$$$
