3ap7_ligand
  -I-interpret- 

 82 84  0  0  0  0  0  0  0  0999 V2000
   18.4710   25.1360   42.7310 C   0  0  0  0  0
   18.7550   23.7830   42.1130 C   0  0  0  0  0
   20.0340   23.8210   41.2860 C   0  0  0  0  0
   20.0280   25.0080   40.3260 C   0  0  0  0  0
   19.6720   26.2950   41.0700 C   0  0  0  0  0
   19.6180   27.5110   40.1590 C   0  0  0  0  0
   17.1940   25.0610   43.3670 O   0  0  0  0  0
   18.8530   22.7980   43.1500 O   0  0  0  0  0
   20.1500   22.6110   40.5180 O   0  0  0  0  0
   19.0890   24.7530   39.2690 O   0  0  0  0  0
   18.4170   26.1260   41.7010 O   0  0  0  0  0
   19.3350   28.6600   40.9670 O   0  0  0  0  0
   15.1270   27.4550   46.0830 C   0  0  0  0  0
   14.8590   27.7210   44.6000 C   0  0  0  0  0
   15.3710   26.5670   43.7390 C   0  0  0  0  0
   16.8130   26.2280   44.0980 C   0  0  0  0  0
   16.9500   25.9990   45.6030 C   0  0  0  0  0
   18.3820   25.7180   46.0460 C   0  0  0  0  0
   14.7860   28.6040   46.8750 O   0  0  0  0  0
   13.4570   27.8560   44.3810 O   0  0  0  0  0
   15.2760   26.9020   42.3450 O   0  0  0  0  0
   16.5100   27.1790   46.2790 O   0  0  0  0  0
   19.2210   26.8340   45.7170 O   0  0  0  0  0
   22.5450   22.3780   40.6550 C   0  0  0  0  0
   21.1970   21.7190   40.8830 C   0  0  0  0  0
   21.0170   20.4690   40.0160 C   0  0  0  0  0
   21.8330   19.2770   40.5140 C   0  0  0  0  0
   21.6140   19.0260   42.0040 C   0  0  0  0  0
   21.8800   20.3370   42.7490 C   0  0  0  0  0
   21.6860   20.2490   44.2580 C   0  0  0  0  0
   21.8470   21.6100   44.9320 C   0  0  0  0  0
   22.0650   21.4410   46.4310 C   0  0  0  0  0
   22.0140   16.8390   43.0040 C   0  0  0  0  0
   22.9410   15.7350   43.4200 C   0  0  0  0  0
   22.5100   17.9570   42.4550 N   0  0  0  0  0
   23.0420   22.3960   39.4990 O   0  0  0  0  0
   23.1400   22.8890   41.6400 O   0  0  0  0  0
   21.4600   18.1110   39.7570 O   0  0  0  0  0
   21.0070   21.3690   42.2620 O   0  0  0  0  0
   20.3690   19.7660   44.5390 O   0  0  0  0  0
   22.9490   22.3350   44.3630 O   0  0  0  0  0
   21.8340   22.6920   47.0970 O   0  0  0  0  0
   20.8110   16.7140   43.1660 O   0  0  0  0  0
   19.2497   25.4013   43.4461 H   0  0  0  0  0
   17.9359   23.5200   41.4436 H   0  0  0  0  0
   20.8763   23.9192   41.9708 H   0  0  0  0  0
   21.0224   25.1354   39.8981 H   0  0  0  0  0
   20.4595   26.4795   41.8007 H   0  0  0  0  0
   18.8417   27.3814   39.4049 H   0  0  0  0  0
   20.5709   27.6383   39.6453 H   0  0  0  0  0
   18.0392   22.7890   43.6592 H   0  0  0  0  0
   19.3312   23.9419   38.8161 H   0  0  0  0  0
   19.2966   29.4404   40.4093 H   0  0  0  0  0
   14.5175   26.6045   46.3885 H   0  0  0  0  0
   15.3793   28.6379   44.3230 H   0  0  0  0  0
   14.7493   25.6932   43.9343 H   0  0  0  0  0
   17.4698   27.0567   43.8335 H   0  0  0  0  0
   16.3501   25.1226   45.8481 H   0  0  0  0  0
   18.7492   24.8283   45.5345 H   0  0  0  0  0
   18.4008   25.5589   47.1242 H   0  0  0  0  0
   14.9611   28.4169   47.8002 H   0  0  0  0  0
   13.2943   28.0227   43.4497 H   0  0  0  0  0
   15.6008   26.1684   41.8179 H   0  0  0  0  0
   20.1204   26.6507   45.9984 H   0  0  0  0  0
   21.3597   20.7098   39.0097 H   0  0  0  0  0
   19.9641   20.1891   40.0501 H   0  0  0  0  0
   22.8914   19.4966   40.3738 H   0  0  0  0  0
   20.5917   18.7051   42.2041 H   0  0  0  0  0
   22.9292   20.5630   42.5588 H   0  0  0  0  0
   22.4469   19.5728   44.6479 H   0  0  0  0  0
   20.9307   22.1763   44.7656 H   0  0  0  0  0
   23.0901   21.1182   46.6132 H   0  0  0  0  0
   21.3712   20.6933   46.8153 H   0  0  0  0  0
   22.8337   15.5559   44.4898 H   0  0  0  0  0
   22.6915   14.8267   42.8715 H   0  0  0  0  0
   23.9689   16.0231   43.1999 H   0  0  0  0  0
   23.5189   18.0647   42.3503 H   0  0  0  0  0
   22.6054   22.7758   42.4293 H   0  0  0  0  0
   21.9680   17.3561   40.0631 H   0  0  0  0  0
   20.2459   19.7102   45.4894 H   0  0  0  0  0
   23.0313   23.1854   44.8008 H   0  0  0  0  0
   21.9723   22.5813   48.0405 H   0  0  0  0  0
  2  1  1  0  0  0
  1  7  1  0  0  0
  1 11  1  0  0  0
  3  2  1  0  0  0
  2  8  1  0  0  0
  3  4  1  0  0  0
  9  3  1  0  0  0
  4  5  1  0  0  0
  4 10  1  0  0  0
  5  6  1  0  0  0
  5 11  1  0  0  0
  6 12  1  0  0  0
  7 16  1  0  0  0
 25  9  1  0  0  0
 14 13  1  0  0  0
 13 19  1  0  0  0
 22 13  1  0  0  0
 15 14  1  0  0  0
 14 20  1  0  0  0
 16 15  1  0  0  0
 15 21  1  0  0  0
 16 17  1  0  0  0
 17 18  1  0  0  0
 17 22  1  0  0  0
 18 23  1  0  0  0
 25 24  1  0  0  0
 24 36  2  0  0  0
 24 37  1  0  0  0
 26 25  1  0  0  0
 39 25  1  0  0  0
 27 26  1  0  0  0
 28 27  1  0  0  0
 27 38  1  0  0  0
 28 29  1  0  0  0
 35 28  1  0  0  0
 29 30  1  0  0  0
 29 39  1  0  0  0
 30 31  1  0  0  0
 30 40  1  0  0  0
 31 32  1  0  0  0
 31 41  1  0  0  0
 32 42  1  0  0  0
 33 34  1  0  0  0
 33 35  1  0  0  0
 33 43  2  0  0  0
  1 44  1  0  0  0
  2 45  1  0  0  0
  3 46  1  0  0  0
  4 47  1  0  0  0
  5 48  1  0  0  0
  6 49  1  0  0  0
  6 50  1  0  0  0
  8 51  1  0  0  0
 10 52  1  0  0  0
 12 53  1  0  0  0
 13 54  1  0  0  0
 14 55  1  0  0  0
 15 56  1  0  0  0
 16 57  1  0  0  0
 17 58  1  0  0  0
 18 59  1  0  0  0
 18 60  1  0  0  0
 19 61  1  0  0  0
 20 62  1  0  0  0
 21 63  1  0  0  0
 23 64  1  0  0  0
 26 65  1  0  0  0
 26 66  1  0  0  0
 27 67  1  0  0  0
 28 68  1  0  0  0
 29 69  1  0  0  0
 30 70  1  0  0  0
 31 71  1  0  0  0
 32 72  1  0  0  0
 32 73  1  0  0  0
 34 74  1  0  0  0
 34 75  1  0  0  0
 34 76  1  0  0  0
 35 77  1  0  0  0
 37 78  1  0  0  0
 38 79  1  0  0  0
 40 80  1  0  0  0
 41 81  1  0  0  0
 42 82  1  0  0  0
M  END
$$$$
