4ezl_ligand
  -I-interpret- 

 67 71  0  0  0  0  0  0  0  0999 V2000
   15.5400    2.7060   17.1270 C   0  0  0  0  0
   14.9250    1.3210   16.9080 C   0  0  0  0  0
   15.6120    0.6580   15.7090 C   0  0  0  0  0
   15.1210    0.4450   18.1510 C   0  0  0  0  0
   16.5780   -0.0020   18.2120 C   0  0  0  0  0
   16.6150   -0.9740   19.3780 C   0  0  0  0  0
   16.5400   -0.1260   20.5610 N   0  3  0  0  0
   15.1610    0.3680   20.7070 C   0  0  0  0  0
   14.7440    1.1720   19.4580 C   0  0  0  0  0
   17.0950   -0.7990   21.7460 C   0  0  0  0  0
   18.4680   -1.3940   21.4830 C   0  0  0  0  0
   19.4650   -0.6680   20.8230 C   0  0  0  0  0
   20.6930   -1.2250   20.5890 C   0  0  0  0  0
   20.9270   -2.5300   21.0550 C   0  0  0  0  0
   19.8840   -3.2070   21.7290 C   0  0  0  0  0
   18.7090   -2.6110   21.9100 N   0  0  0  0  0
   20.1500   -4.5680   22.2040 C   0  0  0  0  0
   21.3620   -5.0680   21.9820 N   0  0  0  0  0
   22.2950   -4.3720   21.3300 C   0  0  0  0  0
   22.0990   -3.1480   20.8840 N   0  0  0  0  0
   23.6360   -4.9660   21.0960 C   0  0  0  0  0
   24.3970   -4.5580   19.9940 C   0  0  0  0  0
   25.5900   -5.0930   19.8040 N   0  0  0  0  0
   26.0690   -6.0040   20.6420 C   0  0  0  0  0
   25.3800   -6.4150   21.7010 N   0  0  0  0  0
   24.1760   -5.9280   21.9590 C   0  0  0  0  0
   27.3230   -6.5370   20.4040 N   0  0  0  0  0
   19.1890   -5.2880   22.8940 N   0  0  0  0  0
   19.7610   -6.4180   23.6370 C   0  0  0  0  0
   18.6300   -7.2810   24.2040 C   0  0  0  0  0
   17.4340   -6.5110   24.3620 O   0  0  0  0  0
   16.8820   -5.9750   23.1520 C   0  0  0  0  0
   17.9900   -5.6750   22.1380 C   0  0  0  0  0
   13.5280    1.4410   16.6360 O   0  0  0  0  0
   15.4003    3.3100   16.2305 H   0  0  0  0  0
   15.0508    3.1898   17.9724 H   0  0  0  0  0
   16.6051    2.6007   17.3334 H   0  0  0  0  0
   15.1824   -0.3305   15.5466 H   0  0  0  0  0
   15.4613    1.2714   14.8207 H   0  0  0  0  0
   16.6791    0.5633   15.9100 H   0  0  0  0  0
   14.4540   -0.4126   18.0633 H   0  0  0  0  0
   17.2618    0.8355   18.3502 H   0  0  0  0  0
   16.9088   -0.4612   17.2804 H   0  0  0  0  0
   17.5161   -1.5872   19.3708 H   0  0  0  0  0
   15.7965   -1.6927   19.3374 H   0  0  0  0  0
   17.1338    0.6962   20.4525 H   0  0  0  0  0
   15.1064    1.0162   21.5816 H   0  0  0  0  0
   14.4892   -0.4825   20.8229 H   0  0  0  0  0
   13.6614    1.2969   19.4786 H   0  0  0  0  0
   15.2656    2.1289   19.4786 H   0  0  0  0  0
   16.4217   -1.6115   22.0191 H   0  0  0  0  0
   17.1944   -0.0582   22.5394 H   0  0  0  0  0
   19.2620    0.3505   20.4921 H   0  0  0  0  0
   21.4671   -0.6724   20.0566 H   0  0  0  0  0
   24.0106   -3.8094   19.3024 H   0  0  0  0  0
   23.6145   -6.2700   22.8284 H   0  0  0  0  0
   27.8631   -6.2288   19.5954 H   0  0  0  0  0
   27.7077   -7.2382   21.0371 H   0  0  0  0  0
   20.3756   -6.0414   24.4547 H   0  0  0  0  0
   20.3760   -7.0192   22.9673 H   0  0  0  0  0
   18.9338   -7.6627   25.1787 H   0  0  0  0  0
   18.4321   -8.1000   23.5125 H   0  0  0  0  0
   16.3567   -5.0486   23.3844 H   0  0  0  0  0
   16.1992   -6.7074   22.7215 H   0  0  0  0  0
   18.1932   -6.5531   21.5251 H   0  0  0  0  0
   17.6858   -4.8705   21.4685 H   0  0  0  0  0
   13.4005    1.9890   15.8581 H   0  0  0  0  0
  1  2  1  0  0  0
  2  3  1  0  0  0
  2  4  1  0  0  0
  2 34  1  0  0  0
  4  5  1  0  0  0
  4  9  1  0  0  0
  5  6  1  0  0  0
  6  7  1  0  0  0
  7  8  1  0  0  0
  7 10  1  0  0  0
  8  9  1  0  0  0
 10 11  1  0  0  0
 11 12  4  0  0  0
 11 16  4  0  0  0
 12 13  4  0  0  0
 13 14  4  0  0  0
 14 15  4  0  0  0
 14 20  4  0  0  0
 15 16  4  0  0  0
 15 17  4  0  0  0
 17 18  4  0  0  0
 17 28  1  0  0  0
 18 19  4  0  0  0
 19 20  4  0  0  0
 19 21  1  0  0  0
 21 22  4  0  0  0
 21 26  4  0  0  0
 22 23  4  0  0  0
 23 24  4  0  0  0
 24 25  4  0  0  0
 24 27  1  0  0  0
 25 26  4  0  0  0
 28 29  1  0  0  0
 28 33  1  0  0  0
 29 30  1  0  0  0
 30 31  1  0  0  0
 31 32  1  0  0  0
 32 33  1  0  0  0
  1 35  1  0  0  0
  1 36  1  0  0  0
  1 37  1  0  0  0
  3 38  1  0  0  0
  3 39  1  0  0  0
  3 40  1  0  0  0
  4 41  1  0  0  0
  5 42  1  0  0  0
  5 43  1  0  0  0
  6 44  1  0  0  0
  6 45  1  0  0  0
  7 46  1  0  0  0
  8 47  1  0  0  0
  8 48  1  0  0  0
  9 49  1  0  0  0
  9 50  1  0  0  0
 10 51  1  0  0  0
 10 52  1  0  0  0
 12 53  1  0  0  0
 13 54  1  0  0  0
 22 55  1  0  0  0
 26 56  1  0  0  0
 27 57  1  0  0  0
 27 58  1  0  0  0
 29 59  1  0  0  0
 29 60  1  0  0  0
 30 61  1  0  0  0
 30 62  1  0  0  0
 32 63  1  0  0  0
 32 64  1  0  0  0
 33 65  1  0  0  0
 33 66  1  0  0  0
 34 67  1  0  0  0
M  END
$$$$
