3tcp_ligand
  -I-interpret- 

 59 62  0  0  0  0  0  0  0  0999 V2000
    3.2030  -17.3630   12.9520 C   0  0  0  0  0
    0.7580  -17.4990   10.2840 F   0  0  0  0  0
    4.1910  -17.2690   15.7150 N   0  0  0  0  0
    5.0680  -15.7990   18.4230 C   0  0  0  0  0
    2.9440  -21.2910   19.7400 N   0  0  0  0  0
    3.7640  -20.9110   20.8810 C   0  0  0  0  0
    4.5510  -17.7050   16.9850 N   0  0  0  0  0
    3.4270  -19.5530   21.4960 C   0  0  0  0  0
    4.3200  -19.2500   22.6950 C   0  0  0  0  0
    5.6380  -18.6380   22.2770 C   0  0  0  0  0
    2.5000  -17.9760   13.9940 C   0  0  0  0  0
    1.1950  -18.4260   13.7890 C   0  0  0  0  0
    0.6110  -18.2660   12.5340 C   0  0  0  0  0
    1.3210  -17.6540   11.4940 C   0  0  0  0  0
    2.6200  -17.2060   11.6990 C   0  0  0  0  0
    2.0470  -20.1180   16.4680 C   0  0  0  0  0
    2.0790  -20.8340   17.6070 N   0  0  0  0  0
    2.9430  -20.5580   18.6040 C   0  0  0  0  0
    3.8110  -19.5280   18.4830 N   0  0  0  0  0
    2.9310  -19.0550   16.3330 C   0  0  0  0  0
    3.7690  -18.7820   17.3100 C   0  0  0  0  0
    3.1810  -18.1100   15.3170 C   0  0  0  0  0
    5.5860  -17.1080   17.8270 C   0  0  0  0  0
    3.7350  -15.9770   19.1660 C   0  0  0  0  0
    6.1080  -15.2520   19.3990 C   0  0  0  0  0
    5.6610  -13.9150   19.9980 C   0  0  0  0  0
    4.3100  -14.0260   20.7130 C   0  0  0  0  0
    3.2490  -14.6650   19.8020 C   0  0  0  0  0
    3.9110  -12.6910   21.1150 N   0  3  0  0  0
    4.2180  -17.0047   13.1235 H   0  0  0  0  0
    4.8967  -15.1076   17.5980 H   0  0  0  0  0
    2.3598  -22.1251   19.7985 H   0  0  0  0  0
    4.7914  -20.8475   20.5225 H   0  0  0  0  0
    3.5910  -21.6584   21.6553 H   0  0  0  0  0
    2.3902  -19.5721   21.8318 H   0  0  0  0  0
    3.5854  -18.7819   20.7420 H   0  0  0  0  0
    4.5272  -20.1870   23.2119 H   0  0  0  0  0
    3.8008  -18.5377   23.3362 H   0  0  0  0  0
    6.1676  -19.3307   21.6229 H   0  0  0  0  0
    5.4515  -17.7049   21.7454 H   0  0  0  0  0
    6.2417  -18.4388   23.1624 H   0  0  0  0  0
    0.6396  -18.8966   14.6003 H   0  0  0  0  0
   -0.4054  -18.6197   12.3608 H   0  0  0  0  0
    3.1759  -16.7369   10.8872 H   0  0  0  0  0
    1.3453  -20.3659   15.6716 H   0  0  0  0  0
    5.8410  -17.7973   18.6320 H   0  0  0  0  0
    6.4721  -16.9069   17.2250 H   0  0  0  0  0
    3.8839  -16.7064   19.9622 H   0  0  0  0  0
    2.9851  -16.3044   18.4459 H   0  0  0  0  0
    7.0417  -15.0951   18.8589 H   0  0  0  0  0
    6.2345  -15.9700   20.2093 H   0  0  0  0  0
    5.5573  -13.1962   19.1852 H   0  0  0  0  0
    6.4075  -13.6034   20.7286 H   0  0  0  0  0
    4.4035  -14.6711   21.5866 H   0  0  0  0  0
    2.3733  -14.8898   20.4109 H   0  0  0  0  0
    3.0278  -13.9627   18.9983 H   0  0  0  0  0
    3.0120  -12.7361   21.5948 H   0  0  0  0  0
    4.6140  -12.3021   21.7434 H   0  0  0  0  0
    3.8273  -12.0991   20.2885 H   0  0  0  0  0
 11  1  4  0  0  0
  1 15  4  0  0  0
 14  2  1  0  0  0
  7  3  4  0  0  0
  3 22  4  0  0  0
 23  4  1  0  0  0
  4 24  1  0  0  0
  4 25  1  0  0  0
  5  6  1  0  0  0
 18  5  1  0  0  0
  6  8  1  0  0  0
 21  7  4  0  0  0
  7 23  1  0  0  0
  8  9  1  0  0  0
  9 10  1  0  0  0
 11 12  4  0  0  0
 22 11  1  0  0  0
 12 13  4  0  0  0
 13 14  4  0  0  0
 15 14  4  0  0  0
 17 16  4  0  0  0
 16 20  4  0  0  0
 18 17  4  0  0  0
 19 18  4  0  0  0
 19 21  4  0  0  0
 20 21  4  0  0  0
 20 22  4  0  0  0
 24 28  1  0  0  0
 25 26  1  0  0  0
 26 27  1  0  0  0
 27 28  1  0  0  0
 27 29  1  0  0  0
  1 30  1  0  0  0
  4 31  1  0  0  0
  5 32  1  0  0  0
  6 33  1  0  0  0
  6 34  1  0  0  0
  8 35  1  0  0  0
  8 36  1  0  0  0
  9 37  1  0  0  0
  9 38  1  0  0  0
 10 39  1  0  0  0
 10 40  1  0  0  0
 10 41  1  0  0  0
 12 42  1  0  0  0
 13 43  1  0  0  0
 15 44  1  0  0  0
 16 45  1  0  0  0
 23 46  1  0  0  0
 23 47  1  0  0  0
 24 48  1  0  0  0
 24 49  1  0  0  0
 25 50  1  0  0  0
 25 51  1  0  0  0
 26 52  1  0  0  0
 26 53  1  0  0  0
 27 54  1  0  0  0
 28 55  1  0  0  0
 28 56  1  0  0  0
 29 57  1  0  0  0
 29 58  1  0  0  0
 29 59  1  0  0  0
M  END
$$$$
