3gba_ligand
  -I-interpret- 

 43 44  0  0  0  0  0  0  0  0999 V2000
  -12.9450   56.4700   50.2300 C   0  0  0  0  0
  -13.8240   55.3500   49.8840 N   0  3  0  0  0
  -14.9600   55.2470   50.8370 C   0  0  0  0  0
  -15.7400   53.9760   50.5360 C   0  0  0  0  0
  -16.0210   53.8550   49.1380 O   0  0  0  0  0
  -17.0530   53.9740   51.2990 C   0  0  0  0  0
  -17.8540   55.0610   50.8870 O   0  0  0  0  0
  -17.2750   56.3240   51.2770 C   0  0  0  0  0
  -18.0060   57.4090   50.5200 C   0  0  0  0  0
  -15.8580   56.4880   50.7490 C   0  0  0  0  0
  -16.0140   56.8060   49.3470 O   0  0  0  0  0
  -17.2830   57.4320   49.1600 C   0  0  0  0  0
  -18.1120   56.6590   48.1350 C   0  0  0  0  0
  -17.7430   55.5050   47.8190 O   0  0  0  0  0
  -19.1060   57.2420   47.6900 O   0  0  0  0  0
  -17.0880   58.8910   48.7430 C   0  0  0  0  0
  -16.4560   59.0990   47.3520 C   0  0  0  0  0
  -16.7420   60.5240   46.9100 C   0  0  0  0  0
  -17.9360   60.8930   46.9840 O   0  0  0  0  0
  -15.7810   61.2340   46.5310 O   0  0  0  0  0
  -15.0090   58.8300   47.3170 N   0  3  0  0  0
  -13.5133   57.3996   50.1977 H   0  0  0  0  0
  -12.5465   56.3209   51.2335 H   0  0  0  0  0
  -12.1236   56.5198   49.5152 H   0  0  0  0  0
  -13.2835   54.4860   49.9258 H   0  0  0  0  0
  -14.1968   55.5050   48.9473 H   0  0  0  0  0
  -14.5801   55.1984   51.8575 H   0  0  0  0  0
  -15.1233   53.1328   50.8471 H   0  0  0  0  0
  -15.1967   53.8552   48.6459 H   0  0  0  0  0
  -16.8475   54.0646   52.3656 H   0  0  0  0  0
  -17.5825   53.0426   51.0982 H   0  0  0  0  0
  -17.3205   56.3722   52.3650 H   0  0  0  0  0
  -17.9767   58.3720   51.0297 H   0  0  0  0  0
  -19.0740   57.2121   50.4267 H   0  0  0  0  0
  -15.3656   57.2433   51.3615 H   0  0  0  0  0
  -16.9442   55.2820   48.3026 H   0  0  0  0  0
  -16.4036   59.3339   49.4665 H   0  0  0  0  0
  -18.0803   59.3405   48.7057 H   0  0  0  0  0
  -16.9036   58.3773   46.6687 H   0  0  0  0  0
  -14.9714   60.7192   46.5648 H   0  0  0  0  0
  -14.6581   58.9863   46.3721 H   0  0  0  0  0
  -14.5322   59.4561   47.9659 H   0  0  0  0  0
  -14.8377   57.8619   47.5888 H   0  0  0  0  0
  1  2  1  0  0  0
  2  3  1  0  0  0
  3  4  1  0  0  0
  3 10  1  0  0  0
  4  5  1  0  0  0
  4  6  1  0  0  0
  6  7  1  0  0  0
  7  8  1  0  0  0
  8  9  1  0  0  0
  8 10  1  0  0  0
  9 12  1  0  0  0
 10 11  1  0  0  0
 11 12  1  0  0  0
 12 13  1  0  0  0
 12 16  1  0  0  0
 13 14  1  0  0  0
 13 15  2  0  0  0
 16 17  1  0  0  0
 17 18  1  0  0  0
 17 21  1  0  0  0
 18 19  2  0  0  0
 18 20  1  0  0  0
  1 22  1  0  0  0
  1 23  1  0  0  0
  1 24  1  0  0  0
  2 25  1  0  0  0
  2 26  1  0  0  0
  3 27  1  0  0  0
  4 28  1  0  0  0
  5 29  1  0  0  0
  6 30  1  0  0  0
  6 31  1  0  0  0
  8 32  1  0  0  0
  9 33  1  0  0  0
  9 34  1  0  0  0
 10 35  1  0  0  0
 14 36  1  0  0  0
 16 37  1  0  0  0
 16 38  1  0  0  0
 17 39  1  0  0  0
 20 40  1  0  0  0
 21 41  1  0  0  0
 21 42  1  0  0  0
 21 43  1  0  0  0
M  END
$$$$
