2gbi_ligand
  -I-interpret- 

 53 56  0  0  0  0  0  0  0  0999 V2000
   17.1300   40.5770  -80.0620 C   0  0  0  0  0
   17.2110   40.1610  -78.7820 C   0  0  0  0  0
   15.1770   39.5090  -79.4950 C   0  0  0  0  0
   12.9680   38.9270  -78.3020 C   0  0  0  0  0
   12.9190   36.8660  -80.4650 C   0  0  0  0  0
   13.2730   38.3120  -80.7080 C   0  0  0  0  0
   15.3590   40.4480  -81.9090 C   0  0  0  0  0
   15.7010   39.2370  -85.4790 C   0  0  0  0  0
   16.1870   37.9290  -85.3660 C   0  0  0  0  0
   16.4340   37.3420  -84.1070 C   0  0  0  0  0
   16.4820   37.3370  -81.7400 C   0  0  0  0  0
   19.5390   41.1270  -78.5570 C   0  0  0  0  0
   20.5480   42.2760  -80.5280 C   0  0  0  0  0
   19.4080   41.5380  -79.8820 N   0  0  0  0  0
   18.2960   41.3180  -80.6640 C   0  0  0  0  0
   18.2060   41.6980  -81.8640 O   0  0  0  0  0
   15.9680   39.4680  -78.4160 N   0  0  0  0  0
   13.8260   38.9480  -79.5210 N   0  0  0  0  0
   12.4510   37.4810  -78.0210 C   0  0  0  0  0
   11.8970   36.7990  -79.2950 C   0  0  0  0  0
   12.4350   36.2350  -81.7050 N   0  3  0  0  0
   15.7970   40.1570  -80.5530 N   0  0  0  0  0
   15.6960   39.4350  -83.0060 C   0  0  0  0  0
   15.4650   39.9700  -84.3080 C   0  0  0  0  0
   16.1950   38.0690  -82.9350 C   0  0  0  0  0
   16.6160   36.7420  -80.7750 N   0  0  0  0  0
   18.4430   40.4370  -78.0030 N   0  0  0  0  0
   18.4940   39.9640  -76.6040 C   0  0  0  0  0
   20.5690   41.3330  -77.8680 O   0  0  0  0  0
   12.1128   39.5841  -78.4599 H   0  0  0  0  0
   13.5569   39.2642  -77.4490 H   0  0  0  0  0
   13.7997   36.2948  -80.1714 H   0  0  0  0  0
   12.3622   38.8429  -80.9848 H   0  0  0  0  0
   14.0256   38.3498  -81.4956 H   0  0  0  0  0
   15.8795   41.3633  -82.1908 H   0  0  0  0  0
   14.2703   40.4721  -81.8623 H   0  0  0  0  0
   15.5100   39.6765  -86.4580 H   0  0  0  0  0
   16.3788   37.3515  -86.2703 H   0  0  0  0  0
   16.8114   36.3212  -84.0469 H   0  0  0  0  0
   20.7465   43.1929  -79.9730 H   0  0  0  0  0
   21.4374   41.6459  -80.5212 H   0  0  0  0  0
   20.2835   42.5223  -81.5563 H   0  0  0  0  0
   11.6426   37.5459  -77.2928 H   0  0  0  0  0
   13.2886   36.8868  -77.6557 H   0  0  0  0  0
   11.6988   35.7514  -79.0683 H   0  0  0  0  0
   10.9886   37.3193  -79.5988 H   0  0  0  0  0
   13.1508   36.3144  -82.4273 H   0  0  0  0  0
   12.2359   35.2503  -81.5287 H   0  0  0  0  0
   11.5843   36.7050  -82.0146 H   0  0  0  0  0
   15.0899   40.9897  -84.3957 H   0  0  0  0  0
   19.3273   39.2712  -76.4862 H   0  0  0  0  0
   18.6315   40.8162  -75.9385 H   0  0  0  0  0
   17.5608   39.4569  -76.3590 H   0  0  0  0  0
  1  2  4  0  0  0
  1 15  1  0  0  0
 22  1  4  0  0  0
 17  2  4  0  0  0
  2 27  1  0  0  0
  3 17  4  0  0  0
  3 18  1  0  0  0
 22  3  4  0  0  0
 18  4  1  0  0  0
  4 19  1  0  0  0
  6  5  1  0  0  0
  5 20  1  0  0  0
  5 21  1  0  0  0
 18  6  1  0  0  0
  7 22  1  0  0  0
 23  7  1  0  0  0
  8  9  4  0  0  0
 24  8  4  0  0  0
  9 10  4  0  0  0
 10 25  4  0  0  0
 25 11  1  0  0  0
 11 26  3  0  0  0
 14 12  1  0  0  0
 27 12  1  0  0  0
 12 29  2  0  0  0
 14 13  1  0  0  0
 15 14  1  0  0  0
 15 16  2  0  0  0
 19 20  1  0  0  0
 23 24  4  0  0  0
 23 25  4  0  0  0
 27 28  1  0  0  0
  4 30  1  0  0  0
  4 31  1  0  0  0
  5 32  1  0  0  0
  6 33  1  0  0  0
  6 34  1  0  0  0
  7 35  1  0  0  0
  7 36  1  0  0  0
  8 37  1  0  0  0
  9 38  1  0  0  0
 10 39  1  0  0  0
 13 40  1  0  0  0
 13 41  1  0  0  0
 13 42  1  0  0  0
 19 43  1  0  0  0
 19 44  1  0  0  0
 20 45  1  0  0  0
 20 46  1  0  0  0
 21 47  1  0  0  0
 21 48  1  0  0  0
 21 49  1  0  0  0
 24 50  1  0  0  0
 28 51  1  0  0  0
 28 52  1  0  0  0
 28 53  1  0  0  0
M  END
$$$$
