5zty_ligand
  -I-interpret- 

 66 70  0  0  0  0  0  0  0  0999 V2000
    8.3720    2.4660  -58.8350 C   0  0  0  0  0
    8.6120    3.6560  -59.8510 C   0  0  0  0  0
    8.1910    5.0320  -59.1860 C   0  0  0  0  0
   10.1380    3.7130  -60.2220 C   0  0  0  0  0
   10.9950    3.9750  -58.9300 C   0  0  0  0  0
   10.7450    2.8000  -57.9120 C   0  0  0  0  0
   10.5600    5.3350  -58.2680 C   0  0  0  0  0
    9.0350    5.2890  -57.8850 C   0  0  0  0  0
    8.7870    4.1110  -56.8590 C   0  0  0  0  0
    9.2140    2.7180  -57.5170 C   0  0  0  0  0
    9.0940    1.5820  -56.5630 N   0  0  0  0  0
    8.0070    1.1480  -55.8650 C   0  0  0  0  0
    6.8820    1.6460  -55.9680 O   0  0  0  0  0
    8.2630    0.0750  -55.0700 C   0  0  0  0  0
    7.5030   -0.5250  -54.1430 C   0  0  0  0  0
    6.0740   -0.1680  -53.6860 C   0  0  0  0  0
    9.4250   -0.5950  -55.1040 N   0  0  0  0  0
    9.4140   -1.5360  -54.3150 N   0  0  0  0  0
   10.6450   -2.3980  -54.1720 C   0  0  0  0  0
   10.4720   -3.8010  -54.7670 C   0  0  0  0  0
   10.8830   -3.8040  -56.2370 C   0  0  0  0  0
   11.5600   -5.1340  -56.5780 C   0  0  0  0  0
   12.3020   -5.0050  -57.9130 C   0  0  0  0  0
   13.5850   -4.3970  -57.7050 O   0  0  0  0  0
    8.2340   -1.5340  -53.6690 C   0  0  0  0  0
    7.8620   -2.3960  -52.7040 C   0  0  0  0  0
    8.0090   -2.0590  -51.3460 C   0  0  0  0  0
    7.6270   -2.9650  -50.3500 C   0  0  0  0  0
    7.1080   -4.2170  -50.7030 C   0  0  0  0  0
    6.9650   -4.5660  -52.0490 C   0  0  0  0  0
    7.3340   -3.6510  -53.0450 C   0  0  0  0  0
    8.6867    1.5284  -59.2932 H   0  0  0  0  0
    7.3127    2.4109  -58.5841 H   0  0  0  0  0
    8.0116    3.4906  -60.7456 H   0  0  0  0  0
    7.1341    4.9916  -58.9227 H   0  0  0  0  0
    8.3732    5.8403  -59.8942 H   0  0  0  0  0
   10.3045    4.5219  -60.9334 H   0  0  0  0  0
   10.4358    2.7620  -60.6636 H   0  0  0  0  0
   12.0511    4.0275  -59.1944 H   0  0  0  0  0
   11.3318    2.9828  -57.0118 H   0  0  0  0  0
   11.0391    1.8603  -58.3794 H   0  0  0  0  0
   10.7256    6.1462  -58.9770 H   0  0  0  0  0
   11.1498    5.4976  -57.3659 H   0  0  0  0  0
    8.7384    6.2344  -57.4306 H   0  0  0  0  0
    7.7289    4.0768  -56.5995 H   0  0  0  0  0
    9.3831    4.2831  -55.9628 H   0  0  0  0  0
    9.9508    1.0504  -56.4091 H   0  0  0  0  0
    6.0639    0.8469  -53.2886 H   0  0  0  0  0
    5.3950   -0.2334  -54.5362 H   0  0  0  0  0
    5.7566   -0.8661  -52.9114 H   0  0  0  0  0
   10.8459   -2.5132  -53.1069 H   0  0  0  0  0
   11.4559   -1.9081  -54.7110 H   0  0  0  0  0
    9.4255   -4.0955  -54.6883 H   0  0  0  0  0
   11.1021   -4.5014  -54.2188 H   0  0  0  0  0
   11.5793   -2.9856  -56.4201 H   0  0  0  0  0
    9.9981   -3.6775  -56.8608 H   0  0  0  0  0
   10.8043   -5.9155  -56.6574 H   0  0  0  0  0
   12.2701   -5.3912  -55.7921 H   0  0  0  0  0
   11.7162   -4.3833  -58.5901 H   0  0  0  0  0
   12.4408   -5.9968  -58.3433 H   0  0  0  0  0
   14.0417   -4.3205  -58.5459 H   0  0  0  0  0
    8.4218   -1.0891  -51.0687 H   0  0  0  0  0
    7.7335   -2.6961  -49.2991 H   0  0  0  0  0
    6.8145   -4.9220  -49.9252 H   0  0  0  0  0
    6.5689   -5.5439  -52.3226 H   0  0  0  0  0
    7.2096   -3.9169  -54.0947 H   0  0  0  0  0
  1  2  1  0  0  0
  1 10  1  0  0  0
  2  3  1  0  0  0
  2  4  1  0  0  0
  3  8  1  0  0  0
  4  5  1  0  0  0
  5  6  1  0  0  0
  5  7  1  0  0  0
  6 10  1  0  0  0
  7  8  1  0  0  0
  8  9  1  0  0  0
  9 10  1  0  0  0
 10 11  1  0  0  0
 11 12  1  0  0  0
 12 13  2  0  0  0
 12 14  1  0  0  0
 14 15  4  0  0  0
 14 17  4  0  0  0
 15 16  1  0  0  0
 15 25  4  0  0  0
 17 18  4  0  0  0
 18 19  1  0  0  0
 18 25  4  0  0  0
 19 20  1  0  0  0
 20 21  1  0  0  0
 21 22  1  0  0  0
 22 23  1  0  0  0
 23 24  1  0  0  0
 25 26  1  0  0  0
 26 27  4  0  0  0
 26 31  4  0  0  0
 27 28  4  0  0  0
 28 29  4  0  0  0
 29 30  4  0  0  0
 30 31  4  0  0  0
  1 32  1  0  0  0
  1 33  1  0  0  0
  2 34  1  0  0  0
  3 35  1  0  0  0
  3 36  1  0  0  0
  4 37  1  0  0  0
  4 38  1  0  0  0
  5 39  1  0  0  0
  6 40  1  0  0  0
  6 41  1  0  0  0
  7 42  1  0  0  0
  7 43  1  0  0  0
  8 44  1  0  0  0
  9 45  1  0  0  0
  9 46  1  0  0  0
 11 47  1  0  0  0
 16 48  1  0  0  0
 16 49  1  0  0  0
 16 50  1  0  0  0
 19 51  1  0  0  0
 19 52  1  0  0  0
 20 53  1  0  0  0
 20 54  1  0  0  0
 21 55  1  0  0  0
 21 56  1  0  0  0
 22 57  1  0  0  0
 22 58  1  0  0  0
 23 59  1  0  0  0
 23 60  1  0  0  0
 24 61  1  0  0  0
 27 62  1  0  0  0
 28 63  1  0  0  0
 29 64  1  0  0  0
 30 65  1  0  0  0
 31 66  1  0  0  0
M  END
$$$$
