5ugg_ligand
  -I-interpret- 

 91 94  0  0  0  0  0  0  0  0999 V2000
   24.7810  -15.8460   52.6080 C   0  0  0  0  0
   25.0400  -14.7500   51.5650 C   0  0  0  0  0
   23.8300  -13.8080   51.5180 C   0  0  0  0  0
   24.1680  -12.5660   50.6900 C   0  0  0  0  0
   24.3090  -11.3430   51.6090 C   0  0  0  0  0
   25.7090  -10.7320   51.4880 C   0  0  0  0  0
   25.7620   -9.7770   50.2820 C   0  0  0  0  0
   27.2180   -9.4080   49.9710 C   0  0  0  0  0
   27.3310   -9.0760   48.5340 N   0  0  0  0  0
   28.3130   -9.5440   47.7620 C   0  0  0  0  0
   29.2370  -10.2800   48.1600 O   0  0  0  0  0
   28.1980   -9.1540   46.2950 C   0  0  0  0  0
   29.4460   -8.5510   45.7910 N   0  0  0  0  0
   29.7730   -7.2910   46.1270 C   0  0  0  0  0
   29.1100   -6.6020   46.9020 O   0  0  0  0  0
   31.0460   -6.7610   45.4810 C   0  0  0  0  0
   30.9840   -5.2220   45.2470 C   0  0  0  0  0
   32.2910   -4.7430   44.5740 C   0  0  0  0  0
   33.5030   -5.1000   45.4620 C   0  0  0  0  0
   34.8090   -4.6580   44.8160 C   0  0  0  0  0
   34.9210   -3.2020   44.6640 N   0  3  0  0  0
   33.5730   -6.6100   45.7240 C   0  0  0  0  0
   32.2720   -7.1110   46.3690 C   0  0  0  0  0
   27.7880  -10.3770   45.4720 C   0  0  0  0  0
   26.5190  -10.9080   45.8920 C   0  0  0  0  0
   25.3690  -10.1060   45.7970 C   0  0  0  0  0
   24.1130  -10.6040   46.1570 C   0  0  0  0  0
   26.3860  -12.2320   46.3750 C   0  0  0  0  0
   25.1270  -12.7210   46.7650 C   0  0  0  0  0
   23.9880  -11.9140   46.6300 C   0  0  0  0  0
   22.7140  -12.2910   46.9950 O   0  0  0  0  0
   22.3960  -13.6460   47.4490 C   0  0  0  0  0
   20.9920  -13.8210   47.4580 C   0  0  0  0  0
   20.4760  -15.0680   47.6020 N   0  0  0  0  0
   19.1440  -15.3280   47.5280 C   0  0  0  0  0
   18.6600  -16.6300   47.7210 C   0  0  0  0  0
   17.2920  -16.9050   47.6200 C   0  0  0  0  0
   16.3770  -15.8620   47.4150 C   0  0  0  0  0
   16.8450  -14.5450   47.2760 C   0  0  0  0  0
   18.2290  -14.2870   47.3070 C   0  0  0  0  0
   18.7310  -12.9830   47.2260 C   0  0  0  0  0
   20.1110  -12.7620   47.2340 C   0  0  0  0  0
   24.6335  -15.3876   53.5859 H   0  0  0  0  0
   23.8887  -16.4069   52.3299 H   0  0  0  0  0
   25.6375  -16.5190   52.6463 H   0  0  0  0  0
   25.1906  -15.2035   50.5853 H   0  0  0  0  0
   25.9330  -14.1875   51.8374 H   0  0  0  0  0
   23.5715  -13.5042   52.5324 H   0  0  0  0  0
   22.9881  -14.3271   51.0599 H   0  0  0  0  0
   23.3674  -12.3848   49.9728 H   0  0  0  0  0
   25.1092  -12.7304   50.1655 H   0  0  0  0  0
   24.1501  -11.6575   52.6405 H   0  0  0  0  0
   23.5720  -10.5954   51.3156 H   0  0  0  0  0
   26.4382  -11.5298   51.3469 H   0  0  0  0  0
   25.9381  -10.1759   52.3970 H   0  0  0  0  0
   25.2039   -8.8706   50.5167 H   0  0  0  0  0
   25.3230  -10.2694   49.4143 H   0  0  0  0  0
   27.8700  -10.2488   50.2075 H   0  0  0  0  0
   27.5173   -8.5496   50.5724 H   0  0  0  0  0
   26.6296   -8.4644   48.1165 H   0  0  0  0  0
   27.4262   -8.3907   46.1958 H   0  0  0  0  0
   30.0633   -9.0919   45.1853 H   0  0  0  0  0
   31.1460   -7.2388   44.5064 H   0  0  0  0  0
   30.8648   -4.7158   46.2049 H   0  0  0  0  0
   30.1384   -4.9891   44.5998 H   0  0  0  0  0
   32.2504   -3.6620   44.4399 H   0  0  0  0  0
   32.3976   -5.2343   43.6069 H   0  0  0  0  0
   33.3679   -4.5725   46.4063 H   0  0  0  0  0
   34.8470   -5.0963   43.8187 H   0  0  0  0  0
   35.6228   -4.9842   45.4637 H   0  0  0  0  0
   35.8143   -2.9747   44.2273 H   0  0  0  0  0
   34.1584   -2.8629   44.0776 H   0  0  0  0  0
   34.8678   -2.7604   45.5819 H   0  0  0  0  0
   34.4024   -6.8116   46.4019 H   0  0  0  0  0
   33.7165   -7.1257   44.7745 H   0  0  0  0  0
   32.3286   -8.1939   46.4793 H   0  0  0  0  0
   32.1523   -6.6291   47.3393 H   0  0  0  0  0
   28.5438  -11.1501   45.6105 H   0  0  0  0  0
   27.7018  -10.0727   44.4289 H   0  0  0  0  0
   25.4574   -9.0808   45.4375 H   0  0  0  0  0
   23.2304   -9.9704   46.0689 H   0  0  0  0  0
   27.2634  -12.8750   46.4448 H   0  0  0  0  0
   25.0360  -13.7279   47.1725 H   0  0  0  0  0
   22.7878  -13.7941   48.4553 H   0  0  0  0  0
   22.8490  -14.3719   46.7738 H   0  0  0  0  0
   19.3567  -17.4358   47.9520 H   0  0  0  0  0
   16.9365  -17.9322   47.7008 H   0  0  0  0  0
   15.3087  -16.0723   47.3638 H   0  0  0  0  0
   16.1390  -13.7251   47.1445 H   0  0  0  0  0
   18.0449  -12.1389   47.1566 H   0  0  0  0  0
   20.5009  -11.7583   47.0646 H   0  0  0  0  0
  1  2  1  0  0  0
  2  3  1  0  0  0
  3  4  1  0  0  0
  4  5  1  0  0  0
  5  6  1  0  0  0
  6  7  1  0  0  0
  7  8  1  0  0  0
  8  9  1  0  0  0
  9 10  1  0  0  0
 10 11  2  0  0  0
 10 12  1  0  0  0
 12 13  1  0  0  0
 12 24  1  0  0  0
 13 14  1  0  0  0
 14 15  2  0  0  0
 14 16  1  0  0  0
 16 17  1  0  0  0
 16 23  1  0  0  0
 17 18  1  0  0  0
 18 19  1  0  0  0
 19 20  1  0  0  0
 19 22  1  0  0  0
 20 21  1  0  0  0
 22 23  1  0  0  0
 24 25  1  0  0  0
 25 26  4  0  0  0
 25 28  4  0  0  0
 26 27  4  0  0  0
 27 30  4  0  0  0
 28 29  4  0  0  0
 29 30  4  0  0  0
 30 31  1  0  0  0
 31 32  1  0  0  0
 32 33  1  0  0  0
 33 34  4  0  0  0
 33 42  4  0  0  0
 34 35  4  0  0  0
 35 36  4  0  0  0
 35 40  4  0  0  0
 36 37  4  0  0  0
 37 38  4  0  0  0
 38 39  4  0  0  0
 39 40  4  0  0  0
 40 41  4  0  0  0
 41 42  4  0  0  0
  1 43  1  0  0  0
  1 44  1  0  0  0
  1 45  1  0  0  0
  2 46  1  0  0  0
  2 47  1  0  0  0
  3 48  1  0  0  0
  3 49  1  0  0  0
  4 50  1  0  0  0
  4 51  1  0  0  0
  5 52  1  0  0  0
  5 53  1  0  0  0
  6 54  1  0  0  0
  6 55  1  0  0  0
  7 56  1  0  0  0
  7 57  1  0  0  0
  8 58  1  0  0  0
  8 59  1  0  0  0
  9 60  1  0  0  0
 12 61  1  0  0  0
 13 62  1  0  0  0
 16 63  1  0  0  0
 17 64  1  0  0  0
 17 65  1  0  0  0
 18 66  1  0  0  0
 18 67  1  0  0  0
 19 68  1  0  0  0
 20 69  1  0  0  0
 20 70  1  0  0  0
 21 71  1  0  0  0
 21 72  1  0  0  0
 21 73  1  0  0  0
 22 74  1  0  0  0
 22 75  1  0  0  0
 23 76  1  0  0  0
 23 77  1  0  0  0
 24 78  1  0  0  0
 24 79  1  0  0  0
 26 80  1  0  0  0
 27 81  1  0  0  0
 28 82  1  0  0  0
 29 83  1  0  0  0
 32 84  1  0  0  0
 32 85  1  0  0  0
 36 86  1  0  0  0
 37 87  1  0  0  0
 38 88  1  0  0  0
 39 89  1  0  0  0
 41 90  1  0  0  0
 42 91  1  0  0  0
M  END
$$$$
