### 
### Created by X-TOOL on Mon Sep 10 21:13:11 2018
### 

@<TRIPOS>MOLECULE
3rwh_ligand
  145   147     1     0     0
SMALL
GAST_HUCK


@<TRIPOS>ATOM
      1 N          12.8390   13.2800   -0.7800 N.4       1 MET         0.2379
      2 CA         12.4770   14.6120   -0.3130 C.3       1 MET         0.0658
      3 C          11.0290   14.9400   -0.6650 C.2       1 MET         0.2267
      4 O          10.5660   14.6450   -1.7670 O.2       1 MET        -0.3907
      5 CB         13.4170   15.6620   -0.9070 C.3       1 MET         0.0168
      6 CG         13.1860   17.0700   -0.3860 C.3       1 MET         0.0007
      7 SD         13.3670   17.1870    1.4040 S.3       1 MET        -0.1638
      8 CE         15.0480   16.6060    1.6150 C.3       1 MET        -0.0181
      9 N          10.3210   15.5530    0.2780 N.am      1 ARG        -0.2610
     10 CA          8.9080   15.8690    0.0990 C.3       1 ARG         0.1312
     11 C           8.6980   17.1380   -0.7210 C.2       1 ARG         0.2040
     12 O           9.6220   17.9260   -0.9180 O.2       1 ARG        -0.3944
     13 CB          8.2220   16.0130    1.4600 C.3       1 ARG        -0.0092
     14 CG          8.2360   14.7500    2.3030 C.3       1 ARG        -0.0156
     15 CD          7.7490   15.0280    3.7160 C.3       1 ARG         0.0627
     16 NE          7.6450   13.8080    4.5120 N.pl3     1 ARG        -0.2723
     17 CZ          6.5220   13.1170    4.6730 C.cat     1 ARG         0.2882
     18 NH1         5.4020   13.5280    4.0950 N.pl3     1 ARG        -0.2849
     19 NH2         6.5150   12.0170    5.4150 N.pl3     1 ARG        -0.2849
     20 N           7.4710   17.3240   -1.1960 N.am      1 HIS        -0.2625
     21 CA          7.0910   18.5290   -1.9200 C.3       1 HIS         0.1369
     22 C           6.2560   19.4400   -1.0290 C.2       1 HIS         0.2054
     23 O           5.3710   18.9760   -0.3110 O.2       1 HIS        -0.3942
     24 CB          6.3010   18.1710   -3.1800 C.3       1 HIS         0.0145
     25 CG          5.4630   19.2950   -3.7070 C.2       1 HIS        -0.0027
     26 ND1         6.0060   20.4550   -4.2160 N.2       1 HIS        -0.3252
     27 CD2         4.1200   19.4360   -3.8000 C.2       1 HIS         0.0291
     28 CE1         5.0340   21.2620   -4.6020 C.2       1 HIS         0.0907
     29 NE2         3.8790   20.6670   -4.3610 N.pl3     1 HIS        -0.2752
     30 N           6.5440   20.7360   -1.0750 N.am      1 VAL        -0.2634
     31 CA          5.8000   21.7090   -0.2870 C.3       1 VAL         0.1333
     32 C           4.3590   21.8060   -0.7760 C.2       1 VAL         0.2041
     33 O           4.0770   22.4530   -1.7840 O.2       1 VAL        -0.3944
     34 CB          6.4520   23.1020   -0.3460 C.3       1 VAL        -0.0063
     35 CG1         5.6680   24.0900    0.5020 C.3       1 VAL        -0.0584
     36 CG2         7.9000   23.0270    0.1160 C.3       1 VAL        -0.0584
     37 N           3.4500   21.1550   -0.0570 N.am      1 LEU        -0.2637
     38 CA          2.0410   21.1350   -0.4340 C.3       1 LEU         0.1312
     39 C           1.4010   22.5120   -0.2970 C.2       1 LEU         0.2039
     40 O           1.8920   23.3650    0.4410 O.2       1 LEU        -0.3944
     41 CB          1.2740   20.1180    0.4130 C.3       1 LEU        -0.0101
     42 CG          1.6970   18.6560    0.2660 C.3       1 LEU        -0.0425
     43 CD1         0.9130   17.7780    1.2280 C.3       1 LEU        -0.0625
     44 CD2         1.5140   18.1860   -1.1690 C.3       1 LEU        -0.0625
     45 N           0.3010   22.7190   -1.0140 N.am      1 GLU        -0.2636
     46 CA         -0.4200   23.9850   -0.9600 C.3       1 GLU         0.1327
     47 C          -1.9170   23.7600   -0.7440 C.2       1 GLU         0.2065
     48 O          -2.4800   22.7850   -1.2370 O.2       1 GLU        -0.3942
     49 CB         -0.1600   24.8040   -2.2270 C.3       1 GLU        -0.0008
     50 CG          1.3010   25.1980   -2.4020 C.3       1 GLU         0.0044
     51 CD          1.5310   26.0980   -3.6000 C.2       1 GLU         0.0350
     52 OE1         0.5380   26.5800   -4.1850 O.co2     1 GLU        -0.5690
     53 OE2         2.7070   26.3230   -3.9560 O.co2     1 GLU        -0.5690
     54 N          -2.5630   24.6690    0.0020 N.am      1 PRO        -0.2498
     55 CA         -3.9600   24.5300    0.4390 C.3       1 PRO         0.1337
     56 C          -4.9640   24.4610   -0.7130 C.2       1 PRO         0.2037
     57 O          -4.6550   24.8830   -1.8260 O.2       1 PRO        -0.3944
     58 CB         -4.1980   25.8060    1.2580 C.3       1 PRO        -0.0104
     59 CG         -2.8330   26.2820    1.6450 C.3       1 PRO        -0.0281
     60 CD         -1.9530   25.9140    0.4980 C.3       1 PRO         0.0369
     61 N          -6.1520   23.9270   -0.4350 N.am      1 PHE        -0.2677
     62 CA         -7.2460   23.9060   -1.4040 C.3       1 PHE         0.1039
     63 C          -7.8860   25.2850   -1.5030 C.2       1 PHE         0.0621
     64 O          -8.7060   25.5410   -2.3830 O.co2     1 PHE        -0.5664
     65 CB         -8.3320   22.9100   -0.9900 C.3       1 PHE         0.0159
     66 CG         -7.9030   21.4670   -1.0270 C.ar      1 PHE        -0.0392
     67 CD1        -6.8240   21.0520   -1.7920 C.ar      1 PHE        -0.0602
     68 CD2        -8.5990   20.5220   -0.2920 C.ar      1 PHE        -0.0602
     69 CE1        -6.4480   19.7180   -1.8130 C.ar      1 PHE        -0.0686
     70 CE2        -8.2310   19.1940   -0.3080 C.ar      1 PHE        -0.0686
     71 CZ         -7.1540   18.7890   -1.0690 C.ar      1 PHE        -0.0687
     72 OXT        -7.6280   26.1690   -0.6860 O.co2     1 PHE        -0.5664
     73 H          12.2024   12.5941   -0.3743 H         1 MET         0.2015
     74 H          12.7720   13.2478   -1.7973 H         1 MET         0.2015
     75 H          13.7951   13.0690   -0.4942 H         1 MET         0.2015
     76 H          12.5763   14.6265    0.7724 H         1 MET         0.1098
     77 H          13.2375   15.6832   -1.9819 H         1 MET         0.0354
     78 H          14.4323   15.3788   -0.6293 H         1 MET         0.0354
     79 H          12.1655   17.3575   -0.6390 H         1 MET         0.0380
     80 H          13.9313   17.7221   -0.8414 H         1 MET         0.0380
     81 H          15.1297   15.5879    1.2343 H         1 MET         0.0340
     82 H          15.7277   17.2566    1.0648 H         1 MET         0.0340
     83 H          15.3061   16.6211    2.6739 H         1 MET         0.0340
     84 H          10.7789   15.8101    1.1524 H         1 ARG         0.1884
     85 H           8.4619   15.0422   -0.4537 H         1 ARG         0.0800
     86 H           7.1776   16.2595    1.2685 H         1 ARG         0.0313
     87 H           8.7679   16.7756    2.0154 H         1 ARG         0.0313
     88 H           9.2588   14.3768    2.3542 H         1 ARG         0.0301
     89 H           7.5724   14.0173    1.8437 H         1 ARG         0.0301
     90 H           6.7579   15.4771    3.6516 H         1 ARG         0.0689
     91 H           8.4685   15.6888    4.1995 H         1 ARG         0.0689
     92 H           8.4876   13.4650    4.9733 H         1 ARG         0.2642
     93 H           5.4025   14.3749    3.5266 H         1 ARG         0.2615
     94 H           4.5398   12.9973    4.2187 H         1 ARG         0.2615
     95 H           7.3739   11.6993    5.8641 H         1 ARG         0.2615
     96 H           5.6507   11.4891    5.5363 H         1 ARG         0.2615
     97 H           6.7707   16.5972   -1.0483 H         1 HIS         0.1885
     98 H           8.0006   19.0537   -2.2124 H         1 HIS         0.0817
     99 H           5.6256   17.3560   -2.9199 H         1 HIS         0.0420
    100 H           7.0233   17.9129   -3.9545 H         1 HIS         0.0420
    101 H           3.3700   18.7091   -3.4882 H         1 HIS         0.0729
    102 H           5.1627   22.2501   -5.0439 H         1 HIS         0.1199
    103 H           2.9580   21.0580   -4.5592 H         1 HIS         0.2361
    104 H           7.3033   21.0569   -1.6757 H         1 VAL         0.1883
    105 H           5.8122   21.3638    0.7468 H         1 VAL         0.0802
    106 H           6.4381   23.4511   -1.3785 H         1 VAL         0.0343
    107 H           4.6470   24.1590    0.1266 H         1 VAL         0.0234
    108 H           5.6537   23.7475    1.5367 H         1 VAL         0.0234
    109 H           6.1430   25.0696    0.4487 H         1 VAL         0.0234
    110 H           7.9342   22.6605    1.1420 H         1 VAL         0.0234
    111 H           8.4523   22.3471   -0.5327 H         1 VAL         0.0234
    112 H           8.3471   24.0200    0.0685 H         1 VAL         0.0234
    113 H           3.7460   20.6556    0.7817 H         1 LEU         0.1883
    114 H           1.9890   20.8420   -1.4826 H         1 LEU         0.0800
    115 H           0.2368   20.1683    0.0817 H         1 LEU         0.0315
    116 H           1.4631   20.3852    1.4527 H         1 LEU         0.0315
    117 H           2.7552   18.5753    0.5147 H         1 LEU         0.0298
    118 H           1.1035   18.1021    2.2511 H         1 LEU         0.0232
    119 H          -0.1517   17.8636    1.0106 H         1 LEU         0.0232
    120 H           1.2270   16.7410    1.1096 H         1 LEU         0.0232
    121 H           0.4650   18.2802   -1.4498 H         1 LEU         0.0232
    122 H           2.1252   18.7989   -1.8315 H         1 LEU         0.0232
    123 H           1.8211   17.1433   -1.2504 H         1 LEU         0.0232
    124 H          -0.0473   21.9736   -1.6169 H         1 GLU         0.1883
    125 H          -0.0488   24.5520   -0.1063 H         1 GLU         0.0801
    126 H          -0.7415   25.7227   -2.1500 H         1 GLU         0.0330
    127 H          -0.4388   24.1865   -3.0809 H         1 GLU         0.0330
    128 H           1.8754   24.2847   -2.5571 H         1 GLU         0.0433
    129 H           1.6066   25.7461   -1.5108 H         1 GLU         0.0433
    130 H          -4.1067   23.5984    0.9855 H         1 PRO         0.0802
    131 H          -4.8202   25.6134    2.1320 H         1 PRO         0.0313
    132 H          -4.7390   26.5581    0.6838 H         1 PRO         0.0313
    133 H          -2.4953   25.8244    2.5749 H         1 PRO         0.0287
    134 H          -2.8194   27.3552    1.8351 H         1 PRO         0.0287
    135 H          -1.9016   26.6927   -0.2630 H         1 PRO         0.0524
    136 H          -0.9099   25.7881    0.7881 H         1 PRO         0.0524
    137 H          -6.3038   23.5181    0.4870 H         1 PHE         0.1877
    138 H          -6.8246   23.6088   -2.3643 H         1 PHE         0.0749
    139 H          -9.1512   23.0175   -1.7010 H         1 PHE         0.0467
    140 H          -8.5967   23.1377    0.0426 H         1 PHE         0.0467
    141 H          -6.2670   21.7803   -2.3815 H         1 PHE         0.0557
    142 H          -9.4527   20.8339    0.3096 H         1 PHE         0.0557
    143 H          -5.5966   19.4009   -2.4153 H         1 PHE         0.0599
    144 H          -8.7897   18.4653    0.2793 H         1 PHE         0.0599
    145 H          -6.8598   17.7396   -1.0842 H         1 PHE         0.0559
@<TRIPOS>BOND
     1    1    2 1  
     2    2    3 1  
     3    2    5 1  
     4    3    4 2  
     5    3    9 am 
     6    5    6 1  
     7    6    7 1  
     8    7    8 1  
     9    9   10 1  
    10   10   11 1  
    11   10   13 1  
    12   11   12 2  
    13   11   20 am 
    14   13   14 1  
    15   14   15 1  
    16   15   16 1  
    17   16   17 ar 
    18   17   18 ar 
    19   17   19 ar 
    20   20   21 1  
    21   21   22 1  
    22   21   24 1  
    23   22   23 2  
    24   22   30 am 
    25   24   25 1  
    26   25   26 1  
    27   25   27 2  
    28   26   28 2  
    29   27   29 1  
    30   28   29 1  
    31   30   31 1  
    32   31   32 1  
    33   31   34 1  
    34   32   33 2  
    35   32   37 am 
    36   34   35 1  
    37   34   36 1  
    38   37   38 1  
    39   38   39 1  
    40   38   41 1  
    41   39   40 2  
    42   39   45 am 
    43   41   42 1  
    44   42   43 1  
    45   42   44 1  
    46   45   46 1  
    47   46   47 1  
    48   46   49 1  
    49   47   48 2  
    50   47   54 am 
    51   49   50 1  
    52   50   51 1  
    53   51   52 ar 
    54   51   53 ar 
    55   54   55 1  
    56   54   60 1  
    57   55   56 1  
    58   55   58 1  
    59   56   57 2  
    60   56   61 am 
    61   58   59 1  
    62   59   60 1  
    63   61   62 1  
    64   62   63 1  
    65   62   65 1  
    66   63   64 ar 
    67   63   72 ar 
    68   65   66 1  
    69   66   67 ar 
    70   66   68 ar 
    71   67   69 ar 
    72   68   70 ar 
    73   69   71 ar 
    74   70   71 ar 
    75    1   73 1  
    76    1   74 1  
    77    1   75 1  
    78    2   76 1  
    79    5   77 1  
    80    5   78 1  
    81    6   79 1  
    82    6   80 1  
    83    8   81 1  
    84    8   82 1  
    85    8   83 1  
    86    9   84 1  
    87   10   85 1  
    88   13   86 1  
    89   13   87 1  
    90   14   88 1  
    91   14   89 1  
    92   15   90 1  
    93   15   91 1  
    94   16   92 1  
    95   18   93 1  
    96   18   94 1  
    97   19   95 1  
    98   19   96 1  
    99   20   97 1  
   100   21   98 1  
   101   24   99 1  
   102   24  100 1  
   103   27  101 1  
   104   28  102 1  
   105   29  103 1  
   106   30  104 1  
   107   31  105 1  
   108   34  106 1  
   109   35  107 1  
   110   35  108 1  
   111   35  109 1  
   112   36  110 1  
   113   36  111 1  
   114   36  112 1  
   115   37  113 1  
   116   38  114 1  
   117   41  115 1  
   118   41  116 1  
   119   42  117 1  
   120   43  118 1  
   121   43  119 1  
   122   43  120 1  
   123   44  121 1  
   124   44  122 1  
   125   44  123 1  
   126   45  124 1  
   127   46  125 1  
   128   49  126 1  
   129   49  127 1  
   130   50  128 1  
   131   50  129 1  
   132   55  130 1  
   133   58  131 1  
   134   58  132 1  
   135   59  133 1  
   136   59  134 1  
   137   60  135 1  
   138   60  136 1  
   139   61  137 1  
   140   62  138 1  
   141   65  139 1  
   142   65  140 1  
   143   67  141 1  
   144   68  142 1  
   145   69  143 1  
   146   70  144 1  
   147   71  145 1  
@<TRIPOS>SUBSTRUCTURE
     1 MET         1

