3rwh_ligand
  -I-interpret- 

145147  0  0  0  0  0  0  0  0999 V2000
   12.8390   13.2800   -0.7800 N   0  3  0  0  0
   12.4770   14.6120   -0.3130 C   0  0  0  0  0
   11.0290   14.9400   -0.6650 C   0  0  0  0  0
   10.5660   14.6450   -1.7670 O   0  0  0  0  0
   13.4170   15.6620   -0.9070 C   0  0  0  0  0
   13.1860   17.0700   -0.3860 C   0  0  0  0  0
   13.3670   17.1870    1.4040 S   0  0  0  0  0
   15.0480   16.6060    1.6150 C   0  0  0  0  0
   10.3210   15.5530    0.2780 N   0  0  0  0  0
    8.9080   15.8690    0.0990 C   0  0  0  0  0
    8.6980   17.1380   -0.7210 C   0  0  0  0  0
    9.6220   17.9260   -0.9180 O   0  0  0  0  0
    8.2220   16.0130    1.4600 C   0  0  0  0  0
    8.2360   14.7500    2.3030 C   0  0  0  0  0
    7.7490   15.0280    3.7160 C   0  0  0  0  0
    7.6450   13.8080    4.5120 N   0  0  0  0  0
    6.5220   13.1170    4.6730 C   0  0  0  0  0
    5.4020   13.5280    4.0950 N   0  0  0  0  0
    6.5150   12.0170    5.4150 N   0  0  0  0  0
    7.4710   17.3240   -1.1960 N   0  0  0  0  0
    7.0910   18.5290   -1.9200 C   0  0  0  0  0
    6.2560   19.4400   -1.0290 C   0  0  0  0  0
    5.3710   18.9760   -0.3110 O   0  0  0  0  0
    6.3010   18.1710   -3.1800 C   0  0  0  0  0
    5.4630   19.2950   -3.7070 C   0  0  0  0  0
    6.0060   20.4550   -4.2160 N   0  0  0  0  0
    4.1200   19.4360   -3.8000 C   0  0  0  0  0
    5.0340   21.2620   -4.6020 C   0  0  0  0  0
    3.8790   20.6670   -4.3610 N   0  0  0  0  0
    6.5440   20.7360   -1.0750 N   0  0  0  0  0
    5.8000   21.7090   -0.2870 C   0  0  0  0  0
    4.3590   21.8060   -0.7760 C   0  0  0  0  0
    4.0770   22.4530   -1.7840 O   0  0  0  0  0
    6.4520   23.1020   -0.3460 C   0  0  0  0  0
    5.6680   24.0900    0.5020 C   0  0  0  0  0
    7.9000   23.0270    0.1160 C   0  0  0  0  0
    3.4500   21.1550   -0.0570 N   0  0  0  0  0
    2.0410   21.1350   -0.4340 C   0  0  0  0  0
    1.4010   22.5120   -0.2970 C   0  0  0  0  0
    1.8920   23.3650    0.4410 O   0  0  0  0  0
    1.2740   20.1180    0.4130 C   0  0  0  0  0
    1.6970   18.6560    0.2660 C   0  0  0  0  0
    0.9130   17.7780    1.2280 C   0  0  0  0  0
    1.5140   18.1860   -1.1690 C   0  0  0  0  0
    0.3010   22.7190   -1.0140 N   0  0  0  0  0
   -0.4200   23.9850   -0.9600 C   0  0  0  0  0
   -1.9170   23.7600   -0.7440 C   0  0  0  0  0
   -2.4800   22.7850   -1.2370 O   0  0  0  0  0
   -0.1600   24.8040   -2.2270 C   0  0  0  0  0
    1.3010   25.1980   -2.4020 C   0  0  0  0  0
    1.5310   26.0980   -3.6000 C   0  0  0  0  0
    0.5380   26.5800   -4.1850 O   0  0  0  0  0
    2.7070   26.3230   -3.9560 O   0  0  0  0  0
   -2.5630   24.6690    0.0020 N   0  0  0  0  0
   -3.9600   24.5300    0.4390 C   0  0  0  0  0
   -4.9640   24.4610   -0.7130 C   0  0  0  0  0
   -4.6550   24.8830   -1.8260 O   0  0  0  0  0
   -4.1980   25.8060    1.2580 C   0  0  0  0  0
   -2.8330   26.2820    1.6450 C   0  0  0  0  0
   -1.9530   25.9140    0.4980 C   0  0  0  0  0
   -6.1520   23.9270   -0.4350 N   0  0  0  0  0
   -7.2460   23.9060   -1.4040 C   0  0  0  0  0
   -7.8860   25.2850   -1.5030 C   0  0  0  0  0
   -8.7060   25.5410   -2.3830 O   0  0  0  0  0
   -8.3320   22.9100   -0.9900 C   0  0  0  0  0
   -7.9030   21.4670   -1.0270 C   0  0  0  0  0
   -6.8240   21.0520   -1.7920 C   0  0  0  0  0
   -8.5990   20.5220   -0.2920 C   0  0  0  0  0
   -6.4480   19.7180   -1.8130 C   0  0  0  0  0
   -8.2310   19.1940   -0.3080 C   0  0  0  0  0
   -7.1540   18.7890   -1.0690 C   0  0  0  0  0
   -7.6280   26.1690   -0.6860 O   0  0  0  0  0
   12.2024   12.5941   -0.3743 H   0  0  0  0  0
   12.7720   13.2478   -1.7973 H   0  0  0  0  0
   13.7951   13.0690   -0.4942 H   0  0  0  0  0
   12.5763   14.6265    0.7724 H   0  0  0  0  0
   13.2375   15.6832   -1.9819 H   0  0  0  0  0
   14.4323   15.3788   -0.6293 H   0  0  0  0  0
   12.1655   17.3575   -0.6390 H   0  0  0  0  0
   13.9313   17.7221   -0.8414 H   0  0  0  0  0
   15.1297   15.5879    1.2343 H   0  0  0  0  0
   15.7277   17.2566    1.0648 H   0  0  0  0  0
   15.3061   16.6211    2.6739 H   0  0  0  0  0
   10.7789   15.8101    1.1524 H   0  0  0  0  0
    8.4619   15.0422   -0.4537 H   0  0  0  0  0
    7.1776   16.2595    1.2685 H   0  0  0  0  0
    8.7679   16.7756    2.0154 H   0  0  0  0  0
    9.2588   14.3768    2.3542 H   0  0  0  0  0
    7.5724   14.0173    1.8437 H   0  0  0  0  0
    6.7579   15.4771    3.6516 H   0  0  0  0  0
    8.4685   15.6888    4.1995 H   0  0  0  0  0
    8.4876   13.4650    4.9733 H   0  0  0  0  0
    5.4025   14.3749    3.5266 H   0  0  0  0  0
    5.6500   11.4909    5.5390 H   0  0  0  0  0
    7.3747   11.6975    5.8614 H   0  0  0  0  0
    6.7707   16.5972   -1.0483 H   0  0  0  0  0
    8.0006   19.0537   -2.2124 H   0  0  0  0  0
    5.6256   17.3560   -2.9199 H   0  0  0  0  0
    7.0233   17.9129   -3.9545 H   0  0  0  0  0
    3.3700   18.7091   -3.4882 H   0  0  0  0  0
    5.1627   22.2501   -5.0439 H   0  0  0  0  0
    7.3033   21.0569   -1.6757 H   0  0  0  0  0
    5.8122   21.3638    0.7468 H   0  0  0  0  0
    6.4381   23.4511   -1.3785 H   0  0  0  0  0
    4.6470   24.1590    0.1266 H   0  0  0  0  0
    5.6537   23.7475    1.5367 H   0  0  0  0  0
    6.1430   25.0696    0.4487 H   0  0  0  0  0
    7.9342   22.6605    1.1420 H   0  0  0  0  0
    8.4523   22.3471   -0.5327 H   0  0  0  0  0
    8.3471   24.0200    0.0685 H   0  0  0  0  0
    3.7460   20.6556    0.7817 H   0  0  0  0  0
    1.9890   20.8420   -1.4826 H   0  0  0  0  0
    0.2368   20.1683    0.0817 H   0  0  0  0  0
    1.4631   20.3852    1.4527 H   0  0  0  0  0
    2.7552   18.5753    0.5147 H   0  0  0  0  0
    1.1035   18.1021    2.2511 H   0  0  0  0  0
   -0.1517   17.8636    1.0106 H   0  0  0  0  0
    1.2270   16.7410    1.1096 H   0  0  0  0  0
    0.4650   18.2802   -1.4498 H   0  0  0  0  0
    2.1252   18.7989   -1.8315 H   0  0  0  0  0
    1.8211   17.1433   -1.2504 H   0  0  0  0  0
   -0.0473   21.9736   -1.6169 H   0  0  0  0  0
   -0.0488   24.5520   -0.1063 H   0  0  0  0  0
   -0.7415   25.7227   -2.1500 H   0  0  0  0  0
   -0.4388   24.1865   -3.0809 H   0  0  0  0  0
    1.8754   24.2847   -2.5571 H   0  0  0  0  0
    1.6066   25.7461   -1.5108 H   0  0  0  0  0
   -0.2642   26.2811   -3.7505 H   0  0  0  0  0
   -4.1067   23.5984    0.9855 H   0  0  0  0  0
   -4.8202   25.6134    2.1320 H   0  0  0  0  0
   -4.7390   26.5581    0.6838 H   0  0  0  0  0
   -2.4953   25.8244    2.5749 H   0  0  0  0  0
   -2.8194   27.3552    1.8351 H   0  0  0  0  0
   -1.9016   26.6927   -0.2630 H   0  0  0  0  0
   -0.9099   25.7881    0.7881 H   0  0  0  0  0
   -6.3038   23.5181    0.4870 H   0  0  0  0  0
   -6.8246   23.6088   -2.3643 H   0  0  0  0  0
   -9.1512   23.0175   -1.7010 H   0  0  0  0  0
   -8.5967   23.1377    0.0426 H   0  0  0  0  0
   -6.2670   21.7803   -2.3815 H   0  0  0  0  0
   -9.4527   20.8339    0.3096 H   0  0  0  0  0
   -5.5966   19.4009   -2.4153 H   0  0  0  0  0
   -8.7897   18.4653    0.2793 H   0  0  0  0  0
   -6.8598   17.7396   -1.0842 H   0  0  0  0  0
   -6.9788   25.8434   -0.0582 H   0  0  0  0  0
  1  2  1  0  0  0
  2  3  1  0  0  0
  2  5  1  0  0  0
  3  4  2  0  0  0
  3  9  1  0  0  0
  5  6  1  0  0  0
  6  7  1  0  0  0
  7  8  1  0  0  0
  9 10  1  0  0  0
 10 11  1  0  0  0
 10 13  1  0  0  0
 11 12  2  0  0  0
 11 20  1  0  0  0
 13 14  1  0  0  0
 14 15  1  0  0  0
 15 16  1  0  0  0
 16 17  1  0  0  0
 17 18  2  0  0  0
 17 19  1  0  0  0
 20 21  1  0  0  0
 21 22  1  0  0  0
 21 24  1  0  0  0
 22 23  2  0  0  0
 22 30  1  0  0  0
 24 25  1  0  0  0
 25 26  4  0  0  0
 25 27  4  0  0  0
 26 28  4  0  0  0
 27 29  4  0  0  0
 28 29  4  0  0  0
 30 31  1  0  0  0
 31 32  1  0  0  0
 31 34  1  0  0  0
 32 33  2  0  0  0
 32 37  1  0  0  0
 34 35  1  0  0  0
 34 36  1  0  0  0
 37 38  1  0  0  0
 38 39  1  0  0  0
 38 41  1  0  0  0
 39 40  2  0  0  0
 39 45  1  0  0  0
 41 42  1  0  0  0
 42 43  1  0  0  0
 42 44  1  0  0  0
 45 46  1  0  0  0
 46 47  1  0  0  0
 46 49  1  0  0  0
 47 48  2  0  0  0
 47 54  1  0  0  0
 49 50  1  0  0  0
 50 51  1  0  0  0
 51 52  1  0  0  0
 51 53  2  0  0  0
 54 55  1  0  0  0
 54 60  1  0  0  0
 55 56  1  0  0  0
 55 58  1  0  0  0
 56 57  2  0  0  0
 56 61  1  0  0  0
 58 59  1  0  0  0
 59 60  1  0  0  0
 61 62  1  0  0  0
 62 63  1  0  0  0
 62 65  1  0  0  0
 63 64  2  0  0  0
 63 72  1  0  0  0
 65 66  1  0  0  0
 66 67  4  0  0  0
 66 68  4  0  0  0
 67 69  4  0  0  0
 68 70  4  0  0  0
 69 71  4  0  0  0
 70 71  4  0  0  0
  1 73  1  0  0  0
  1 74  1  0  0  0
  1 75  1  0  0  0
  2 76  1  0  0  0
  5 77  1  0  0  0
  5 78  1  0  0  0
  6 79  1  0  0  0
  6 80  1  0  0  0
  8 81  1  0  0  0
  8 82  1  0  0  0
  8 83  1  0  0  0
  9 84  1  0  0  0
 10 85  1  0  0  0
 13 86  1  0  0  0
 13 87  1  0  0  0
 14 88  1  0  0  0
 14 89  1  0  0  0
 15 90  1  0  0  0
 15 91  1  0  0  0
 16 92  1  0  0  0
 18 93  1  0  0  0
 19 94  1  0  0  0
 19 95  1  0  0  0
 20 96  1  0  0  0
 21 97  1  0  0  0
 24 98  1  0  0  0
 24 99  1  0  0  0
 27100  1  0  0  0
 28101  1  0  0  0
 30102  1  0  0  0
 31103  1  0  0  0
 34104  1  0  0  0
 35105  1  0  0  0
 35106  1  0  0  0
 35107  1  0  0  0
 36108  1  0  0  0
 36109  1  0  0  0
 36110  1  0  0  0
 37111  1  0  0  0
 38112  1  0  0  0
 41113  1  0  0  0
 41114  1  0  0  0
 42115  1  0  0  0
 43116  1  0  0  0
 43117  1  0  0  0
 43118  1  0  0  0
 44119  1  0  0  0
 44120  1  0  0  0
 44121  1  0  0  0
 45122  1  0  0  0
 46123  1  0  0  0
 49124  1  0  0  0
 49125  1  0  0  0
 50126  1  0  0  0
 50127  1  0  0  0
 52128  1  0  0  0
 55129  1  0  0  0
 58130  1  0  0  0
 58131  1  0  0  0
 59132  1  0  0  0
 59133  1  0  0  0
 60134  1  0  0  0
 60135  1  0  0  0
 61136  1  0  0  0
 62137  1  0  0  0
 65138  1  0  0  0
 65139  1  0  0  0
 67140  1  0  0  0
 68141  1  0  0  0
 69142  1  0  0  0
 70143  1  0  0  0
 71144  1  0  0  0
 72145  1  0  0  0
M  END
$$$$
