### 
### Created by X-TOOL on Mon Sep 10 21:13:06 2018
### 

@<TRIPOS>MOLECULE
3tl0_ligand
  109   109     1     0     0
SMALL
GAST_HUCK


@<TRIPOS>ATOM
      1 N          20.5420   11.6500    8.2340 N.4       1 LEU         0.2379
      2 CA         20.0110   11.3080    9.5910 C.3       1 LEU         0.0652
      3 C          18.8350   12.2100    9.8170 C.2       1 LEU         0.2268
      4 O          18.9290   13.4370    9.6160 O.2       1 LEU        -0.3907
      5 CB         21.0810   11.5240   10.6860 C.3       1 LEU         0.0102
      6 CG         22.4400   10.8620   10.4580 C.3       1 LEU        -0.0394
      7 CD1        23.2080   10.8100   11.7480 C.3       1 LEU        -0.0623
      8 CD2        22.3190    9.4680    9.9550 C.3       1 LEU        -0.0623
      9 N          17.7270   11.6140   10.2400 N.am      1 ASN        -0.2589
     10 CA         16.5300   12.3590   10.5430 C.3       1 ASN         0.1477
     11 C          16.5140   12.8280   12.0370 C.2       1 ASN         0.2065
     12 O          16.3970   11.9690   12.9500 O.2       1 ASN        -0.3942
     13 CB         15.3350   11.4740   10.2390 C.3       1 ASN         0.0773
     14 CG         14.0200   12.0720   10.7440 C.2       1 ASN         0.1780
     15 OD1        13.7410   13.2800   10.5550 O.2       1 ASN        -0.3970
     16 ND2        13.2050   11.2420   11.4110 N.am      1 ASN        -0.3007
     17 N          16.6150   14.1490   12.2710 N.am      1 PTR        -0.2606
     18 CA         16.5840   14.7650   13.6030 C.3       1 PTR         0.1468
     19 C          15.1750   15.2240   13.8890 C.2       1 PTR         0.2074
     20 O          14.6380   15.9870   13.1100 O.2       1 PTR        -0.3941
     21 CB         17.5770   15.9730   13.7280 C.3       1 PTR         0.0400
     22 CG         18.9580   15.5090   14.0460 C.ar      1 PTR        -0.0004
     23 CD1        19.7620   14.9800   13.0670 C.ar      1 PTR        -0.0239
     24 CD2        19.4390   15.5240   15.3760 C.ar      1 PTR        -0.0239
     25 CE1        21.0240   14.4850   13.3550 C.ar      1 PTR         0.0115
     26 CE2        20.6870   15.0270   15.6740 C.ar      1 PTR         0.0115
     27 CZ         21.5000   14.5480   14.6770 C.ar      1 PTR         0.1728
     28 OH         22.6320   14.0620   14.9310 O.3       1 PTR        -0.2040
     29 P          23.9860   14.8460   15.4210 P.3       1 PTR         0.1348
     30 O1P        23.5790   15.4440   16.7420 O.co2     1 PTR        -0.6653
     31 O2P        25.2660   13.9560   15.4890 O.co2     1 PTR        -0.6653
     32 O3P        24.1370   16.0720   14.4920 O.co2     1 PTR        -0.6653
     33 N          14.5510   14.7750   14.9760 N.am      1 ALA        -0.2638
     34 CA         13.1680   15.1680   15.2720 C.3       1 ALA         0.1282
     35 C          13.0860   16.6210   15.6510 C.2       1 ALA         0.2036
     36 O          14.0140   17.1490   16.2700 O.2       1 ALA        -0.3944
     37 CB         12.5780   14.3360   16.4260 C.3       1 ALA        -0.0244
     38 N          11.9430   17.2390   15.3410 N.am      1 GLN        -0.2640
     39 CA         11.6270   18.6000   15.7720 C.3       1 GLN         0.1282
     40 C          10.5340   18.4510   16.8570 C.2       1 GLN         0.2036
     41 O           9.4330   17.9590   16.5560 O.2       1 GLN        -0.3944
     42 CB         11.1720   19.4520   14.5400 C.3       1 GLN        -0.0244
     43 N          10.8360   18.8440   18.1060 N.am      1 LEU        -0.2637
     44 CA          9.9650   18.5600   19.2770 C.3       1 LEU         0.1312
     45 C           8.8490   19.5970   19.6880 C.2       1 LEU         0.2033
     46 O           8.8970   20.7410   19.2710 O.2       1 LEU        -0.3944
     47 CB         10.8650   18.2120   20.4930 C.3       1 LEU        -0.0101
     48 CG         11.3610   16.7660   20.7670 C.3       1 LEU        -0.0425
     49 CD1        11.2010   15.7330   19.6270 C.3       1 LEU        -0.0625
     50 CD2        12.8000   16.7510   21.2770 C.3       1 LEU        -0.0625
     51 N           7.8640   19.1720   20.4920 N.am      1 TRP        -0.2698
     52 CA          6.9110   20.0360   21.2690 C.3       1 TRP         0.0916
     53 C           5.4950   20.1650   20.6570 C.2       1 TRP         0.0598
     54 O           4.5020   19.6440   21.2060 O.co2     1 TRP        -0.5666
     55 CB          7.4780   21.4300   21.6320 C.3       1 TRP        -0.0300
     56 H          19.8135   11.4970    7.5367 H         1 LEU         0.2015
     57 H          20.8284   12.6288    8.2191 H         1 LEU         0.2015
     58 H          21.3447   11.0564    8.0248 H         1 LEU         0.2015
     59 H          19.7267   10.2570    9.6426 H         1 LEU         0.1098
     60 H          20.6769   11.0752   11.5934 H         1 LEU         0.0348
     61 H          21.2705   12.5971   10.7131 H         1 LEU         0.0348
     62 H          22.9535   11.4650    9.7091 H         1 LEU         0.0299
     63 H          22.6695   10.1905   12.4652 H         1 LEU         0.0232
     64 H          24.1941   10.3829   11.5653 H         1 LEU         0.0232
     65 H          23.3157   11.8189   12.1462 H         1 LEU         0.0232
     66 H          23.3141    9.0547    9.7907 H         1 LEU         0.0232
     67 H          21.7896    8.8624   10.6905 H         1 LEU         0.0232
     68 H          21.7649    9.4686    9.0164 H         1 LEU         0.0232
     69 H          17.7220   10.6004   10.3540 H         1 ASN         0.1886
     70 H          16.4934   13.2601    9.9308 H         1 ASN         0.0826
     71 H          15.4862   10.5196   10.7433 H         1 ASN         0.0551
     72 H          15.2623   11.3669    9.1567 H         1 ASN         0.0551
     73 H          12.3214   11.5870   11.7860 H         1 ASN         0.1814
     74 H          13.4686   10.2656   11.5434 H         1 ASN         0.1814
     75 H          16.7206   14.7662   11.4658 H         1 PTR         0.1886
     76 H          16.9027   14.0187   14.3307 H         1 PTR         0.0840
     77 H          17.2346   16.6214   14.5345 H         1 PTR         0.0584
     78 H          17.5999   16.5031   12.7759 H         1 PTR         0.0584
     79 H          19.3994   14.9486   12.0395 H         1 PTR         0.0703
     80 H          18.8159   15.9327   16.1715 H         1 PTR         0.0703
     81 H          21.6400   14.0522   12.5668 H         1 PTR         0.0736
     82 H          21.0321   15.0136   16.7078 H         1 PTR         0.0736
     83 H          15.0418   14.1479   15.6133 H         1 ALA         0.1883
     84 H          12.5943   14.9881   14.3628 H         1 ALA         0.0797
     85 H          12.5859   13.2809   16.1526 H         1 ALA         0.0277
     86 H          13.1786   14.4846   17.3234 H         1 ALA         0.0277
     87 H          11.5534   14.6558   16.6159 H         1 ALA         0.0277
     88 H          11.2576   16.7372   14.7764 H         1 GLN         0.1883
     89 H          12.4835   19.1296   16.1893 H         1 GLN         0.0797
     90 H          11.9758   19.4829   13.8045 H         1 GLN         0.0277
     91 H          10.2866   18.9991   14.0937 H         1 GLN         0.0277
     92 H          10.9378   20.4651   14.8670 H         1 GLN         0.0277
     93 H          11.7023   19.3607   18.2576 H         1 LEU         0.1883
     94 H           9.3524   17.7260   18.9346 H         1 LEU         0.0800
     95 H          10.2297   18.4306   21.3513 H         1 LEU         0.0315
     96 H          11.7841   18.7639   20.2962 H         1 LEU         0.0315
     97 H          10.6690   16.4286   21.5386 H         1 LEU         0.0298
     98 H          10.1456   15.6350   19.3727 H         1 LEU         0.0232
     99 H          11.7570   16.0702   18.7522 H         1 LEU         0.0232
    100 H          11.5880   14.7684   19.9555 H         1 LEU         0.0232
    101 H          13.4533   17.2033   20.5309 H         1 LEU         0.0232
    102 H          12.8607   17.3175   22.2062 H         1 LEU         0.0232
    103 H          13.1097   15.7215   21.4567 H         1 LEU         0.0232
    104 H           7.7502   18.1627   20.5856 H         1 TRP         0.1875
    105 H           6.7937   19.4763   22.1969 H         1 TRP         0.0723
    106 O           5.3416   20.8081   19.5844 O.co2     1 TRP        -0.5666
    107 H           8.3736   21.3091   22.2414 H         1 TRP         0.0270
    108 H           7.7289   21.9681   20.7179 H         1 TRP         0.0270
    109 H           6.7293   21.9909   22.1914 H         1 TRP         0.0270
@<TRIPOS>BOND
     1    1    2 1  
     2    2    3 1  
     3    2    5 1  
     4    3    4 2  
     5    3    9 am 
     6    5    6 1  
     7    6    7 1  
     8    6    8 1  
     9    9   10 1  
    10   10   11 1  
    11   10   13 1  
    12   11   12 2  
    13   11   17 am 
    14   13   14 1  
    15   14   15 2  
    16   14   16 am 
    17   17   18 1  
    18   18   19 1  
    19   18   21 1  
    20   19   20 2  
    21   19   33 am 
    22   21   22 1  
    23   22   23 ar 
    24   22   24 ar 
    25   23   25 ar 
    26   24   26 ar 
    27   25   27 ar 
    28   26   27 ar 
    29   27   28 1  
    30   28   29 1  
    31   29   30 ar 
    32   29   31 ar 
    33   29   32 ar 
    34   33   34 1  
    35   34   35 1  
    36   34   37 1  
    37   35   36 2  
    38   35   38 am 
    39   38   39 1  
    40   39   40 1  
    41   39   42 1  
    42   40   41 2  
    43   40   43 am 
    44   43   44 1  
    45   44   45 1  
    46   44   47 1  
    47   45   46 2  
    48   45   51 am 
    49   47   48 1  
    50   48   49 1  
    51   48   50 1  
    52   51   52 1  
    53   52   53 1  
    54   52   55 1  
    55   53   54 ar 
    56    1   56 1  
    57    1   57 1  
    58    1   58 1  
    59    2   59 1  
    60    5   60 1  
    61    5   61 1  
    62    6   62 1  
    63    7   63 1  
    64    7   64 1  
    65    7   65 1  
    66    8   66 1  
    67    8   67 1  
    68    8   68 1  
    69    9   69 1  
    70   10   70 1  
    71   13   71 1  
    72   13   72 1  
    73   16   73 1  
    74   16   74 1  
    75   17   75 1  
    76   18   76 1  
    77   21   77 1  
    78   21   78 1  
    79   23   79 1  
    80   24   80 1  
    81   25   81 1  
    82   26   82 1  
    83   33   83 1  
    84   34   84 1  
    85   37   85 1  
    86   37   86 1  
    87   37   87 1  
    88   38   88 1  
    89   39   89 1  
    90   42   90 1  
    91   42   91 1  
    92   42   92 1  
    93   43   93 1  
    94   44   94 1  
    95   47   95 1  
    96   47   96 1  
    97   48   97 1  
    98   49   98 1  
    99   49   99 1  
   100   49  100 1  
   101   50  101 1  
   102   50  102 1  
   103   50  103 1  
   104   51  104 1  
   105   52  105 1  
   106   53  106 ar 
   107   55  107 1  
   108   55  108 1  
   109   55  109 1  
@<TRIPOS>SUBSTRUCTURE
     1 LEU         1

