3tl0_ligand
  -I-interpret- 

112112  0  0  0  0  0  0  0  0999 V2000
   20.5420   11.6500    8.2340 N   0  3  0  0  0
   20.0110   11.3080    9.5910 C   0  0  0  0  0
   18.8350   12.2100    9.8170 C   0  0  0  0  0
   18.9290   13.4370    9.6160 O   0  0  0  0  0
   21.0810   11.5240   10.6860 C   0  0  0  0  0
   22.4400   10.8620   10.4580 C   0  0  0  0  0
   23.2080   10.8100   11.7480 C   0  0  0  0  0
   22.3190    9.4680    9.9550 C   0  0  0  0  0
   17.7270   11.6140   10.2400 N   0  0  0  0  0
   16.5300   12.3590   10.5430 C   0  0  0  0  0
   16.5140   12.8280   12.0370 C   0  0  0  0  0
   16.3970   11.9690   12.9500 O   0  0  0  0  0
   15.3350   11.4740   10.2390 C   0  0  0  0  0
   14.0200   12.0720   10.7440 C   0  0  0  0  0
   13.7410   13.2800   10.5550 O   0  0  0  0  0
   13.2050   11.2420   11.4110 N   0  0  0  0  0
   16.6150   14.1490   12.2710 N   0  0  0  0  0
   16.5840   14.7650   13.6030 C   0  0  0  0  0
   15.1750   15.2240   13.8890 C   0  0  0  0  0
   14.6380   15.9870   13.1100 O   0  0  0  0  0
   17.5770   15.9730   13.7280 C   0  0  0  0  0
   18.9580   15.5090   14.0460 C   0  0  0  0  0
   19.7620   14.9800   13.0670 C   0  0  0  0  0
   19.4390   15.5240   15.3760 C   0  0  0  0  0
   21.0240   14.4850   13.3550 C   0  0  0  0  0
   20.6870   15.0270   15.6740 C   0  0  0  0  0
   21.5000   14.5480   14.6770 C   0  0  0  0  0
   22.6320   14.0620   14.9310 O   0  0  0  0  0
   23.9860   14.8460   15.4210 P   0  0  0  0  0
   23.5790   15.4440   16.7420 O   0  0  0  0  0
   25.2660   13.9560   15.4890 O   0  0  0  0  0
   24.1370   16.0720   14.4920 O   0  0  0  0  0
   14.5510   14.7750   14.9760 N   0  0  0  0  0
   13.1680   15.1680   15.2720 C   0  0  0  0  0
   13.0860   16.6210   15.6510 C   0  0  0  0  0
   14.0140   17.1490   16.2700 O   0  0  0  0  0
   12.5780   14.3360   16.4260 C   0  0  0  0  0
   11.9430   17.2390   15.3410 N   0  0  0  0  0
   11.6270   18.6000   15.7720 C   0  0  0  0  0
   10.5340   18.4510   16.8570 C   0  0  0  0  0
    9.4330   17.9590   16.5560 O   0  0  0  0  0
   11.1720   19.4520   14.5400 C   0  0  0  0  0
   10.8360   18.8440   18.1060 N   0  0  0  0  0
    9.9650   18.5600   19.2770 C   0  0  0  0  0
    8.8490   19.5970   19.6880 C   0  0  0  0  0
    8.8970   20.7410   19.2710 O   0  0  0  0  0
   10.8650   18.2120   20.4930 C   0  0  0  0  0
   11.3610   16.7660   20.7670 C   0  0  0  0  0
   11.2010   15.7330   19.6270 C   0  0  0  0  0
   12.8000   16.7510   21.2770 C   0  0  0  0  0
    7.8640   19.1720   20.4920 N   0  0  0  0  0
    6.9110   20.0360   21.2690 C   0  0  0  0  0
    5.4950   20.1650   20.6570 C   0  0  0  0  0
    4.5020   19.6440   21.2060 O   0  0  0  0  0
    7.4780   21.4300   21.6320 C   0  0  0  0  0
    5.3416   20.8081   19.5844 O   0  0  0  0  0
   19.8135   11.4970    7.5367 H   0  0  0  0  0
   20.8284   12.6288    8.2191 H   0  0  0  0  0
   21.3447   11.0564    8.0248 H   0  0  0  0  0
   19.7267   10.2570    9.6426 H   0  0  0  0  0
   20.6769   11.0752   11.5934 H   0  0  0  0  0
   21.2705   12.5971   10.7131 H   0  0  0  0  0
   22.9535   11.4650    9.7091 H   0  0  0  0  0
   22.6695   10.1905   12.4652 H   0  0  0  0  0
   24.1941   10.3829   11.5653 H   0  0  0  0  0
   23.3157   11.8189   12.1462 H   0  0  0  0  0
   23.3141    9.0547    9.7907 H   0  0  0  0  0
   21.7896    8.8624   10.6905 H   0  0  0  0  0
   21.7649    9.4686    9.0164 H   0  0  0  0  0
   17.7220   10.6004   10.3540 H   0  0  0  0  0
   16.4934   13.2601    9.9308 H   0  0  0  0  0
   15.4862   10.5196   10.7433 H   0  0  0  0  0
   15.2623   11.3669    9.1567 H   0  0  0  0  0
   12.3214   11.5870   11.7860 H   0  0  0  0  0
   13.4686   10.2656   11.5434 H   0  0  0  0  0
   16.7206   14.7662   11.4658 H   0  0  0  0  0
   16.9027   14.0187   14.3307 H   0  0  0  0  0
   17.2346   16.6214   14.5345 H   0  0  0  0  0
   17.5999   16.5031   12.7759 H   0  0  0  0  0
   19.3994   14.9486   12.0395 H   0  0  0  0  0
   18.8159   15.9327   16.1715 H   0  0  0  0  0
   21.6400   14.0522   12.5668 H   0  0  0  0  0
   21.0321   15.0136   16.7078 H   0  0  0  0  0
   25.4621   13.6120   14.6144 H   0  0  0  0  0
   24.3984   15.7782   13.6162 H   0  0  0  0  0
   15.0418   14.1479   15.6133 H   0  0  0  0  0
   12.5943   14.9881   14.3628 H   0  0  0  0  0
   12.5859   13.2809   16.1526 H   0  0  0  0  0
   13.1786   14.4846   17.3234 H   0  0  0  0  0
   11.5534   14.6558   16.6159 H   0  0  0  0  0
   11.2576   16.7372   14.7764 H   0  0  0  0  0
   12.4835   19.1296   16.1893 H   0  0  0  0  0
   11.9758   19.4829   13.8045 H   0  0  0  0  0
   10.2866   18.9991   14.0937 H   0  0  0  0  0
   10.9378   20.4651   14.8670 H   0  0  0  0  0
   11.7023   19.3607   18.2576 H   0  0  0  0  0
    9.3524   17.7260   18.9346 H   0  0  0  0  0
   10.2297   18.4306   21.3513 H   0  0  0  0  0
   11.7841   18.7639   20.2962 H   0  0  0  0  0
   10.6690   16.4286   21.5386 H   0  0  0  0  0
   10.1456   15.6350   19.3727 H   0  0  0  0  0
   11.7570   16.0702   18.7522 H   0  0  0  0  0
   11.5880   14.7684   19.9555 H   0  0  0  0  0
   13.4533   17.2033   20.5309 H   0  0  0  0  0
   12.8607   17.3175   22.2062 H   0  0  0  0  0
   13.1097   15.7215   21.4567 H   0  0  0  0  0
    7.7502   18.1627   20.5856 H   0  0  0  0  0
    6.7937   19.4763   22.1969 H   0  0  0  0  0
    8.3736   21.3091   22.2414 H   0  0  0  0  0
    7.7289   21.9681   20.7179 H   0  0  0  0  0
    6.7293   21.9909   22.1914 H   0  0  0  0  0
    6.1912   21.1443   19.2899 H   0  0  0  0  0
  1  2  1  0  0  0
  2  3  1  0  0  0
  2  5  1  0  0  0
  3  4  2  0  0  0
  3  9  1  0  0  0
  5  6  1  0  0  0
  6  7  1  0  0  0
  6  8  1  0  0  0
  9 10  1  0  0  0
 10 11  1  0  0  0
 10 13  1  0  0  0
 11 12  2  0  0  0
 11 17  1  0  0  0
 13 14  1  0  0  0
 14 15  2  0  0  0
 14 16  1  0  0  0
 17 18  1  0  0  0
 18 19  1  0  0  0
 18 21  1  0  0  0
 19 20  2  0  0  0
 19 33  1  0  0  0
 21 22  1  0  0  0
 22 23  4  0  0  0
 22 24  4  0  0  0
 23 25  4  0  0  0
 24 26  4  0  0  0
 25 27  4  0  0  0
 26 27  4  0  0  0
 27 28  1  0  0  0
 28 29  1  0  0  0
 29 30  2  0  0  0
 29 31  1  0  0  0
 29 32  1  0  0  0
 33 34  1  0  0  0
 34 35  1  0  0  0
 34 37  1  0  0  0
 35 36  2  0  0  0
 35 38  1  0  0  0
 38 39  1  0  0  0
 39 40  1  0  0  0
 39 42  1  0  0  0
 40 41  2  0  0  0
 40 43  1  0  0  0
 43 44  1  0  0  0
 44 45  1  0  0  0
 44 47  1  0  0  0
 45 46  2  0  0  0
 45 51  1  0  0  0
 47 48  1  0  0  0
 48 49  1  0  0  0
 48 50  1  0  0  0
 51 52  1  0  0  0
 52 53  1  0  0  0
 52 55  1  0  0  0
 53 54  2  0  0  0
 53 56  1  0  0  0
  1 57  1  0  0  0
  1 58  1  0  0  0
  1 59  1  0  0  0
  2 60  1  0  0  0
  5 61  1  0  0  0
  5 62  1  0  0  0
  6 63  1  0  0  0
  7 64  1  0  0  0
  7 65  1  0  0  0
  7 66  1  0  0  0
  8 67  1  0  0  0
  8 68  1  0  0  0
  8 69  1  0  0  0
  9 70  1  0  0  0
 10 71  1  0  0  0
 13 72  1  0  0  0
 13 73  1  0  0  0
 16 74  1  0  0  0
 16 75  1  0  0  0
 17 76  1  0  0  0
 18 77  1  0  0  0
 21 78  1  0  0  0
 21 79  1  0  0  0
 23 80  1  0  0  0
 24 81  1  0  0  0
 25 82  1  0  0  0
 26 83  1  0  0  0
 31 84  1  0  0  0
 32 85  1  0  0  0
 33 86  1  0  0  0
 34 87  1  0  0  0
 37 88  1  0  0  0
 37 89  1  0  0  0
 37 90  1  0  0  0
 38 91  1  0  0  0
 39 92  1  0  0  0
 42 93  1  0  0  0
 42 94  1  0  0  0
 42 95  1  0  0  0
 43 96  1  0  0  0
 44 97  1  0  0  0
 47 98  1  0  0  0
 47 99  1  0  0  0
 48100  1  0  0  0
 49101  1  0  0  0
 49102  1  0  0  0
 49103  1  0  0  0
 50104  1  0  0  0
 50105  1  0  0  0
 50106  1  0  0  0
 51107  1  0  0  0
 52108  1  0  0  0
 55109  1  0  0  0
 55110  1  0  0  0
 55111  1  0  0  0
 56112  1  0  0  0
M  END
$$$$
