3qvu_ligand
  -I-interpret- 

 15 15  0  0  0  0  0  0  0  0999 V2000
  -26.2640   -0.0260   -5.0270 C   0  0  0  0  0
  -25.8850    1.2380   -4.5840 C   0  0  0  0  0
  -24.5370    1.5610   -4.4690 C   0  0  0  0  0
  -23.5670    0.6200   -4.7990 C   0  0  0  0  0
  -23.9450   -0.6430   -5.2430 C   0  0  0  0  0
  -25.2930   -0.9650   -5.3560 C   0  0  0  0  0
  -22.2460    0.9340   -4.6880 O   0  0  0  0  0
  -27.6210   -0.3590   -5.1420 N   0  0  0  0  0
  -28.4850    0.4690   -4.9050 O   0  0  0  0  0
  -27.9420   -1.4880   -5.4760 O   0  0  0  0  0
  -26.6454    1.9755   -4.3270 H   0  0  0  0  0
  -24.2409    2.5505   -4.1206 H   0  0  0  0  0
  -23.1848   -1.3799   -5.5022 H   0  0  0  0  0
  -25.5888   -1.9550   -5.7030 H   0  0  0  0  0
  -21.7154    0.1791   -4.9529 H   0  0  0  0  0
  1  2  4  0  0  0
  1  6  4  0  0  0
  1  8  1  0  0  0
  2  3  4  0  0  0
  3  4  4  0  0  0
  4  5  4  0  0  0
  4  7  1  0  0  0
  5  6  4  0  0  0
  8  9  2  0  0  0
  8 10  2  0  0  0
  2 11  1  0  0  0
  3 12  1  0  0  0
  5 13  1  0  0  0
  6 14  1  0  0  0
  7 15  1  0  0  0
M  END
$$$$
