6o6g_ligand
  -I-interpret- 

 48 51  0  0  0  0  0  0  0  0999 V2000
   19.7960   -5.8930   19.3360 C   0  0  0  0  0
   20.0350   -5.1700   18.1660 C   0  0  0  0  0
   19.3800   -3.9600   17.9100 C   0  0  0  0  0
   15.3270   -0.0380   23.2200 C   0  0  0  0  0
   14.2930    0.8110   22.8120 C   0  0  0  0  0
   13.8580    0.8240   21.4910 C   0  0  0  0  0
   14.4670   -0.0580   20.5920 C   0  0  0  0  0
   15.8900   -3.1560   20.4200 C   0  0  0  0  0
   18.0240   -2.3870   21.8440 C   0  0  0  0  0
   15.9740   -0.9440   22.3350 C   0  0  0  0  0
   15.4990   -0.9370   20.9850 C   0  0  0  0  0
   17.2940   -3.5250   21.0750 C   0  0  0  0  0
   13.6660    1.6370   23.7850 C   0  0  0  0  0
   18.2840   -0.4760   24.6320 C   0  0  0  0  0
   19.1660   -0.5230   25.8660 C   0  0  0  0  0
   20.3910   -0.6570   24.9380 C   0  0  0  0  0
   17.0510   -1.7860   22.7830 N   0  0  0  0  0
   15.9110   -1.8110   19.9780 O   0  0  0  0  0
   13.2380    2.6570   23.4220 O   0  0  0  0  0
   13.5970    1.1830   25.0640 O   0  0  0  0  0
   17.4960   -1.7330   24.2100 C   0  0  0  0  0
   19.5300   -0.1580   23.7920 C   0  0  0  0  0
   18.4820   -3.4530   18.8600 C   0  0  0  0  0
   18.2320   -4.1510   20.0790 C   0  0  0  0  0
   18.9130   -5.3810   20.2800 C   0  0  0  0  0
   18.7880   -6.3390   21.7180 Cl  0  0  0  0  0
   21.2460   -5.5840   16.9640 Cl  0  0  0  0  0
   20.2952   -6.8467   19.5073 H   0  0  0  0  0
   19.5658   -3.4180   16.9828 H   0  0  0  0  0
   15.6506   -0.0038   24.2603 H   0  0  0  0  0
   13.0672    1.5003   21.1663 H   0  0  0  0  0
   14.1337   -0.0667   19.5543 H   0  0  0  0  0
   15.1005   -3.2815   21.1610 H   0  0  0  0  0
   15.7024   -3.8134   19.5710 H   0  0  0  0  0
   18.3950   -1.6348   21.1478 H   0  0  0  0  0
   18.8813   -2.7844   22.3874 H   0  0  0  0  0
   17.0147   -4.2488   21.8406 H   0  0  0  0  0
   17.4014    0.1636   24.6393 H   0  0  0  0  0
   18.9820   -1.2503   26.6567 H   0  0  0  0  0
   19.1179    0.2652   26.6173 H   0  0  0  0  0
   20.9324   -1.5998   24.8604 H   0  0  0  0  0
   21.3335   -0.1672   25.1829 H   0  0  0  0  0
   14.0168    0.3214   25.1196 H   0  0  0  0  0
   16.5876   -1.7389   24.8123 H   0  0  0  0  0
   18.1719   -2.5767   24.3494 H   0  0  0  0  0
   19.6809    0.8379   23.3755 H   0  0  0  0  0
   19.6450   -0.5699   22.7894 H   0  0  0  0  0
   17.9675   -2.5122   18.6645 H   0  0  0  0  0
  2  1  4  0  0  0
  1 25  4  0  0  0
  3  2  4  0  0  0
  2 27  1  0  0  0
 23  3  4  0  0  0
  4  5  4  0  0  0
 10  4  4  0  0  0
  5  6  4  0  0  0
  5 13  1  0  0  0
  7  6  4  0  0  0
 11  7  4  0  0  0
 12  8  1  0  0  0
  8 18  1  0  0  0
 12  9  1  0  0  0
  9 17  1  0  0  0
 10 11  4  0  0  0
 17 10  1  0  0  0
 18 11  1  0  0  0
 24 12  1  0  0  0
 13 19  2  0  0  0
 13 20  1  0  0  0
 14 15  1  0  0  0
 21 14  1  0  0  0
 14 22  1  0  0  0
 15 16  1  0  0  0
 22 16  1  0  0  0
 17 21  1  0  0  0
 23 24  4  0  0  0
 24 25  4  0  0  0
 25 26  1  0  0  0
  1 28  1  0  0  0
  3 29  1  0  0  0
  4 30  1  0  0  0
  6 31  1  0  0  0
  7 32  1  0  0  0
  8 33  1  0  0  0
  8 34  1  0  0  0
  9 35  1  0  0  0
  9 36  1  0  0  0
 12 37  1  0  0  0
 14 38  1  0  0  0
 15 39  1  0  0  0
 15 40  1  0  0  0
 16 41  1  0  0  0
 16 42  1  0  0  0
 20 43  1  0  0  0
 21 44  1  0  0  0
 21 45  1  0  0  0
 22 46  1  0  0  0
 22 47  1  0  0  0
 23 48  1  0  0  0
M  END
$$$$
