2ooz_ligand
  -I-interpret- 

 17 17  0  0  0  0  0  0  0  0999 V2000
   26.9660   36.1730   28.9960 O   0  0  0  0  0
   27.0530   37.0070   27.9390 C   0  0  0  0  0
   27.0980   38.4130   28.1510 C   0  0  0  0  0
   27.1920   39.2790   27.0550 C   0  0  0  0  0
   27.2440   38.7470   25.7310 C   0  0  0  0  0
   27.1960   37.3470   25.5220 C   0  0  0  0  0
   27.1010   36.4790   26.6240 C   0  0  0  0  0
   27.3450   39.6420   24.6020 C   0  0  0  0  0
   26.4310   40.4930   24.4480 N   0  0  0  0  0
   26.4690   41.3810   23.4100 O   0  0  0  0  0
   26.9458   35.2650   28.6849 H   0  0  0  0  0
   27.0594   38.8148   29.1635 H   0  0  0  0  0
   27.2254   40.3571   27.2121 H   0  0  0  0  0
   27.2326   36.9437   24.5100 H   0  0  0  0  0
   27.0643   35.4009   26.4675 H   0  0  0  0  0
   28.1833   39.5824   23.9079 H   0  0  0  0  0
   25.6970   41.9503   23.4490 H   0  0  0  0  0
  1  2  1  0  0  0
  2  3  4  0  0  0
  2  7  4  0  0  0
  3  4  4  0  0  0
  4  5  4  0  0  0
  5  6  4  0  0  0
  5  8  1  0  0  0
  6  7  4  0  0  0
  8  9  2  0  0  0
  9 10  1  0  0  0
  1 11  1  0  0  0
  3 12  1  0  0  0
  4 13  1  0  0  0
  6 14  1  0  0  0
  7 15  1  0  0  0
  8 16  1  0  0  0
 10 17  1  0  0  0
M  END
$$$$
