5fjw_ligand
  -I-interpret- 

152155  0  0  0  0  0  0  0  0999 V2000
   66.3410    5.9040  138.6030 N   0  3  0  0  0
   66.5440    4.4600  138.3360 C   0  0  0  0  0
   65.2110    3.6930  138.4310 C   0  0  0  0  0
   64.6650    3.5020  139.5350 O   0  0  0  0  0
   67.5800    3.9030  139.3320 C   0  0  0  0  0
   68.1980    2.5810  138.8780 C   0  0  0  0  0
   68.1210    2.2250  137.6780 O   0  0  0  0  0
   68.7800    1.8900  139.7400 O   0  0  0  0  0
   64.6970    3.2530  137.2750 N   0  0  0  0  0
   63.5370    2.3330  137.2380 C   0  0  0  0  0
   63.8400    0.9490  137.8910 C   0  0  0  0  0
   62.9300    0.1940  138.2390 O   0  0  0  0  0
   62.9710    2.1910  135.7890 C   0  0  0  0  0
   63.6830    1.0880  134.9230 C   0  0  0  0  0
   64.6350    0.4210  135.3820 O   0  0  0  0  0
   63.2700    0.8800  133.7550 O   0  0  0  0  0
   65.1270    0.6460  138.0530 N   0  0  0  0  0
   65.6210   -0.6380  138.5190 C   0  0  0  0  0
   65.9620   -0.6680  140.0180 C   0  0  0  0  0
   66.6180   -1.6020  140.4760 O   0  0  0  0  0
   66.8720   -0.9660  137.7050 C   0  0  0  0  0
   67.0990   -2.3810  137.4480 C   0  0  0  0  0
   68.0940   -3.1400  137.9490 C   0  0  0  0  0
   66.3350   -3.2260  136.5830 C   0  0  0  0  0
   68.0010   -4.4240  137.4670 N   0  0  0  0  0
   66.9240   -4.5050  136.6250 C   0  0  0  0  0
   65.2010   -3.0310  135.7890 C   0  0  0  0  0
   66.4180   -5.5920  135.9000 C   0  0  0  0  0
   64.7050   -4.1080  135.0560 C   0  0  0  0  0
   65.3160   -5.3700  135.1190 C   0  0  0  0  0
   65.5640    0.3570  140.7730 N   0  0  0  0  0
   65.5490    0.2800  142.2410 C   0  0  0  0  0
   64.1590    0.6200  142.7820 C   0  0  0  0  0
   63.6530    1.7430  142.6320 O   0  0  0  0  0
   66.6190    1.1890  142.8720 C   0  0  0  0  0
   67.9200    0.4470  143.1600 C   0  0  0  0  0
   68.1990    0.0750  144.2990 O   0  0  0  0  0
   68.7040    0.1970  142.1140 N   0  0  0  0  0
   63.5360   -0.3780  143.3820 N   0  0  0  0  0
   62.2200   -0.2330  143.9880 C   0  0  0  0  0
   62.1260   -1.3520  145.0290 C   0  0  0  0  0
   62.8060   -2.3620  144.8670 O   0  0  0  0  0
   61.1290   -0.3280  142.9110 C   0  0  0  0  0
   61.1640   -1.5840  142.0530 C   0  0  0  0  0
   61.8120   -1.7640  140.8560 C   0  0  0  0  0
   60.5190   -2.7990  142.3350 C   0  0  0  0  0
   61.6110   -3.0270  140.3940 N   0  0  0  0  0
   60.8180   -3.6860  141.2880 C   0  0  0  0  0
   59.7360   -3.2400  143.3890 C   0  0  0  0  0
   60.3420   -4.9810  141.2600 C   0  0  0  0  0
   59.2700   -4.5180  143.3690 C   0  0  0  0  0
   59.5690   -5.3840  142.3120 C   0  0  0  0  0
   61.3690   -1.1810  146.1160 N   0  0  0  0  0
   61.3940   -2.2190  147.1700 C   0  0  0  0  0
   60.0690   -2.9030  147.2420 C   0  0  0  0  0
   59.0560   -2.2960  146.9840 O   0  0  0  0  0
   61.8660   -1.7200  148.5760 C   0  0  0  0  0
   63.3900   -1.7360  148.8650 C   0  0  0  0  0
   64.2150   -2.8550  148.1620 C   0  0  0  0  0
   63.7410   -4.0150  147.9510 O   0  0  0  0  0
   65.3890   -2.5770  147.8170 O   0  0  0  0  0
   60.1020   -4.1850  147.5820 N   0  0  0  0  0
   58.8850   -4.9350  147.7630 C   0  0  0  0  0
   58.2910   -4.3580  149.0230 C   0  0  0  0  0
   59.0080   -4.0640  149.9870 O   0  0  0  0  0
   59.1310   -6.4230  147.9330 C   0  0  0  0  0
   60.1290   -7.0310  146.9600 C   0  0  0  0  0
   59.9810   -9.0010  147.0500 Se  0  0  0  0  0
   61.8170   -9.5360  147.5500 C   0  0  0  0  0
   56.9790   -4.1750  149.0150 N   0  0  0  0  0
   56.2580   -3.6130  150.1420 C   0  0  0  0  0
   55.5160   -4.7200  150.9030 C   0  0  0  0  0
   55.7700   -5.8980  150.6440 O   0  0  0  0  0
   55.3840   -2.4670  149.6420 C   0  0  0  0  0
   56.2510   -1.2800  149.2200 C   0  0  0  0  0
   55.4760    0.0000  148.8850 C   0  0  0  0  0
   54.2180    0.0190  148.8570 O   0  0  0  0  0
   56.1490    1.0200  148.6300 O   0  0  0  0  0
   54.6740   -4.3430  151.8790 N   0  0  0  0  0
   54.0570   -5.2620  152.8770 C   0  0  0  0  0
   55.1090   -5.9620  153.7820 C   0  0  0  0  0
   56.3160   -5.6940  153.7330 O   0  0  0  0  0
   53.0970   -6.2930  152.2190 C   0  0  0  0  0
   51.6500   -5.7920  152.1030 C   0  0  0  0  0
   51.4270   -4.5950  151.8000 O   0  0  0  0  0
   50.7350   -6.6250  152.2920 O   0  0  0  0  0
   54.7920   -6.8160  154.6180 O   0  0  0  0  0
   65.6558    6.2770  137.9459 H   0  0  0  0  0
   66.0015    6.0277  139.5568 H   0  0  0  0  0
   67.2265    6.3973  138.4893 H   0  0  0  0  0
   66.9208    4.3287  137.3217 H   0  0  0  0  0
   67.0671    3.7216  140.2765 H   0  0  0  0  0
   68.3848    4.6333  139.4157 H   0  0  0  0  0
   67.6379    2.8878  137.1791 H   0  0  0  0  0
   65.1156    3.5597  136.3969 H   0  0  0  0  0
   62.7576    2.7852  137.8513 H   0  0  0  0  0
   63.1296    3.1455  135.2871 H   0  0  0  0  0
   61.9240    1.9018  135.8800 H   0  0  0  0  0
   62.5403    1.4739  133.5643 H   0  0  0  0  0
   65.8146    1.3670  137.8342 H   0  0  0  0  0
   64.8284   -1.3735  138.3816 H   0  0  0  0  0
   67.7231   -0.6161  138.2891 H   0  0  0  0  0
   66.7433   -0.4906  136.7326 H   0  0  0  0  0
   68.8618   -2.7865  138.6372 H   0  0  0  0  0
   64.7145   -2.0566  135.7440 H   0  0  0  0  0
   66.8837   -6.5759  135.9557 H   0  0  0  0  0
   63.8284   -3.9678  134.4236 H   0  0  0  0  0
   64.9038   -6.1915  134.5330 H   0  0  0  0  0
   65.2614    1.2188  140.3189 H   0  0  0  0  0
   65.7900   -0.7458  142.5197 H   0  0  0  0  0
   66.2278    1.5617  143.8187 H   0  0  0  0  0
   66.8381    1.9903  142.1663 H   0  0  0  0  0
   69.5734   -0.3212  142.2406 H   0  0  0  0  0
   68.4355    0.5236  141.1858 H   0  0  0  0  0
   63.9956   -1.2877  143.4226 H   0  0  0  0  0
   62.0763    0.7371  144.4637 H   0  0  0  0  0
   61.2847    0.5136  142.2361 H   0  0  0  0  0
   60.1740   -0.3372  143.4363 H   0  0  0  0  0
   62.4037   -1.0024  140.3481 H   0  0  0  0  0
   59.4975   -2.5753  144.2193 H   0  0  0  0  0
   60.5729   -5.6536  140.4339 H   0  0  0  0  0
   58.6515   -4.8741  144.1928 H   0  0  0  0  0
   59.1773   -6.4011  142.3280 H   0  0  0  0  0
   60.7850   -0.3509  146.2175 H   0  0  0  0  0
   62.1607   -2.9342  146.8719 H   0  0  0  0  0
   61.4229   -2.4079  149.2961 H   0  0  0  0  0
   61.5670   -0.6733  148.6322 H   0  0  0  0  0
   63.4937   -1.9102  149.9360 H   0  0  0  0  0
   63.7799   -0.7901  148.4890 H   0  0  0  0  0
   62.8381   -4.0542  148.2747 H   0  0  0  0  0
   61.0016   -4.6463  147.7172 H   0  0  0  0  0
   58.2355   -4.8531  146.8915 H   0  0  0  0  0
   58.1775   -6.9198  147.7538 H   0  0  0  0  0
   59.5458   -6.5590  148.9318 H   0  0  0  0  0
   61.1403   -6.7228  147.2255 H   0  0  0  0  0
   59.9147   -6.6892  145.9474 H   0  0  0  0  0
   62.5144   -9.1959  146.7844 H   0  0  0  0  0
   62.0777   -9.0844  148.5072 H   0  0  0  0  0
   61.8678  -10.6216  147.6331 H   0  0  0  0  0
   56.4536   -4.4402  148.1819 H   0  0  0  0  0
   56.9352   -3.1805  150.8785 H   0  0  0  0  0
   54.7178   -2.1521  150.4452 H   0  0  0  0  0
   54.8078   -2.8091  148.7823 H   0  0  0  0  0
   56.7738   -1.5788  148.3115 H   0  0  0  0  0
   56.8970   -1.0450  150.0659 H   0  0  0  0  0
   53.8809   -0.8520  149.0791 H   0  0  0  0  0
   54.4389   -3.3525  151.9420 H   0  0  0  0  0
   53.4537   -4.6289  153.5276 H   0  0  0  0  0
   56.4673   -5.0259  153.0604 H   0  0  0  0  0
   53.0872   -7.1818  152.8499 H   0  0  0  0  0
   53.4609   -6.4826  151.2092 H   0  0  0  0  0
   52.2612   -4.1303  151.7012 H   0  0  0  0  0
  1  2  1  0  0  0
  2  3  1  0  0  0
  2  5  1  0  0  0
  3  4  2  0  0  0
  3  9  1  0  0  0
  5  6  1  0  0  0
  6  7  1  0  0  0
  6  8  2  0  0  0
  9 10  1  0  0  0
 10 11  1  0  0  0
 10 13  1  0  0  0
 11 12  2  0  0  0
 11 17  1  0  0  0
 13 14  1  0  0  0
 14 15  2  0  0  0
 14 16  1  0  0  0
 17 18  1  0  0  0
 18 19  1  0  0  0
 18 21  1  0  0  0
 19 20  2  0  0  0
 19 31  1  0  0  0
 21 22  1  0  0  0
 22 23  4  0  0  0
 22 24  4  0  0  0
 23 25  4  0  0  0
 24 26  4  0  0  0
 24 27  4  0  0  0
 25 26  4  0  0  0
 26 28  4  0  0  0
 27 29  4  0  0  0
 28 30  4  0  0  0
 29 30  4  0  0  0
 31 32  1  0  0  0
 32 33  1  0  0  0
 32 35  1  0  0  0
 33 34  2  0  0  0
 33 39  1  0  0  0
 35 36  1  0  0  0
 36 37  2  0  0  0
 36 38  1  0  0  0
 39 40  1  0  0  0
 40 41  1  0  0  0
 40 43  1  0  0  0
 41 42  2  0  0  0
 41 53  1  0  0  0
 43 44  1  0  0  0
 44 45  4  0  0  0
 44 46  4  0  0  0
 45 47  4  0  0  0
 46 48  4  0  0  0
 46 49  4  0  0  0
 47 48  4  0  0  0
 48 50  4  0  0  0
 49 51  4  0  0  0
 50 52  4  0  0  0
 51 52  4  0  0  0
 53 54  1  0  0  0
 54 55  1  0  0  0
 54 57  1  0  0  0
 55 56  2  0  0  0
 55 62  1  0  0  0
 57 58  1  0  0  0
 58 59  1  0  0  0
 59 60  1  0  0  0
 59 61  2  0  0  0
 62 63  1  0  0  0
 63 64  1  0  0  0
 63 66  1  0  0  0
 64 65  2  0  0  0
 64 70  1  0  0  0
 66 67  1  0  0  0
 67 68  1  0  0  0
 68 69  1  0  0  0
 70 71  1  0  0  0
 71 72  1  0  0  0
 71 74  1  0  0  0
 72 73  2  0  0  0
 72 79  1  0  0  0
 74 75  1  0  0  0
 75 76  1  0  0  0
 76 77  1  0  0  0
 76 78  2  0  0  0
 79 80  1  0  0  0
 80 81  1  0  0  0
 80 83  1  0  0  0
 81 82  1  0  0  0
 81 87  2  0  0  0
 83 84  1  0  0  0
 84 85  1  0  0  0
 84 86  2  0  0  0
  1 88  1  0  0  0
  1 89  1  0  0  0
  1 90  1  0  0  0
  2 91  1  0  0  0
  5 92  1  0  0  0
  5 93  1  0  0  0
  7 94  1  0  0  0
  9 95  1  0  0  0
 10 96  1  0  0  0
 13 97  1  0  0  0
 13 98  1  0  0  0
 16 99  1  0  0  0
 17100  1  0  0  0
 18101  1  0  0  0
 21102  1  0  0  0
 21103  1  0  0  0
 23104  1  0  0  0
 27105  1  0  0  0
 28106  1  0  0  0
 29107  1  0  0  0
 30108  1  0  0  0
 31109  1  0  0  0
 32110  1  0  0  0
 35111  1  0  0  0
 35112  1  0  0  0
 38113  1  0  0  0
 38114  1  0  0  0
 39115  1  0  0  0
 40116  1  0  0  0
 43117  1  0  0  0
 43118  1  0  0  0
 45119  1  0  0  0
 49120  1  0  0  0
 50121  1  0  0  0
 51122  1  0  0  0
 52123  1  0  0  0
 53124  1  0  0  0
 54125  1  0  0  0
 57126  1  0  0  0
 57127  1  0  0  0
 58128  1  0  0  0
 58129  1  0  0  0
 60130  1  0  0  0
 62131  1  0  0  0
 63132  1  0  0  0
 66133  1  0  0  0
 66134  1  0  0  0
 67135  1  0  0  0
 67136  1  0  0  0
 69137  1  0  0  0
 69138  1  0  0  0
 69139  1  0  0  0
 70140  1  0  0  0
 71141  1  0  0  0
 74142  1  0  0  0
 74143  1  0  0  0
 75144  1  0  0  0
 75145  1  0  0  0
 77146  1  0  0  0
 79147  1  0  0  0
 80148  1  0  0  0
 82149  1  0  0  0
 83150  1  0  0  0
 83151  1  0  0  0
 85152  1  0  0  0
M  END
$$$$
