3u3u_ligand
  -I-interpret- 

 55 54  0  0  0  0  0  0  0  0999 V2000
   23.6920  -16.9320   16.1770 O   0  0  0  0  0
   23.0880  -15.9740   16.6820 C   0  0  0  0  0
   21.8460  -15.9580   16.8070 O   0  0  0  0  0
   23.9030  -14.7990   17.1620 C   0  0  0  0  0
   25.1420  -14.6560   16.2850 C   0  0  0  0  0
   25.4400  -13.1950   15.9650 C   0  0  0  0  0
   26.1010  -12.4020   17.1010 C   0  0  0  0  0
   26.7600  -13.2660   18.0400 O   0  0  0  0  0
   25.1250  -11.4870   17.8400 C   0  0  0  0  0
   24.0660  -10.9500   16.9120 C   0  0  0  0  0
   24.3310  -10.3380   15.7380 C   0  0  0  0  0
   23.1750   -9.8790   14.9760 C   0  0  0  0  0
   23.1430   -9.3560   13.7450 C   0  0  0  0  0
   21.7610   -9.0410   13.4020 C   0  0  0  0  0
   21.1890   -8.4960   12.3340 C   0  0  0  0  0
   21.7570   -7.9760   11.0440 C   0  0  0  0  0
   20.5040   -7.8790   10.1890 C   0  0  0  0  0
   20.1770   -6.8680    9.3780 C   0  0  0  0  0
   21.0650   -5.6600    9.1920 C   0  0  0  0  0
   20.6380   -4.5580   10.1420 C   0  0  0  0  0
   21.5200   -3.3260    9.9590 C   0  0  0  0  0
   21.4470   -2.4540   11.2090 C   0  0  0  0  0
   21.8640   -1.0330   10.9310 C   0  0  0  0  0
   21.5775  -15.1331   17.2181 H   0  0  0  0  0
   24.2043  -14.9613   18.1969 H   0  0  0  0  0
   23.3049  -13.8898   17.1009 H   0  0  0  0  0
   24.9627  -15.1834   15.3481 H   0  0  0  0  0
   25.9941  -15.0706   16.8237 H   0  0  0  0  0
   24.4819  -12.7159   15.7637 H   0  0  0  0  0
   26.1417  -13.1930   15.1309 H   0  0  0  0  0
   26.8447  -11.7690   16.6169 H   0  0  0  0  0
   27.3717  -13.8386   17.5715 H   0  0  0  0  0
   25.6829  -10.6463   18.2524 H   0  0  0  0  0
   24.6370  -12.0635   18.6258 H   0  0  0  0  0
   23.0226  -11.0625   17.2065 H   0  0  0  0  0
   25.3506  -10.1951   15.3801 H   0  0  0  0  0
   22.2107   -9.9747   15.4750 H   0  0  0  0  0
   24.0086   -9.1921   13.1032 H   0  0  0  0  0
   21.0501   -9.3081   14.1839 H   0  0  0  0  0
   20.1049   -8.4100   12.4073 H   0  0  0  0  0
   22.5324   -8.6121   10.6170 H   0  0  0  0  0
   22.2923   -7.0322   11.1482 H   0  0  0  0  0
   19.8052   -8.7138   10.2423 H   0  0  0  0  0
   19.2355   -6.9169    8.8310 H   0  0  0  0  0
   20.9793   -5.3042    8.1653 H   0  0  0  0  0
   22.0983   -5.9364    9.4016 H   0  0  0  0  0
   20.7358   -4.9154   11.1671 H   0  0  0  0  0
   19.6033   -4.2883    9.9305 H   0  0  0  0  0
   21.1710   -2.7553    9.0984 H   0  0  0  0  0
   22.5511   -3.6397    9.7960 H   0  0  0  0  0
   22.1258   -2.8689   11.9541 H   0  0  0  0  0
   20.4144   -2.4442   11.5579 H   0  0  0  0  0
   22.8913   -1.0218   10.5669 H   0  0  0  0  0
   21.2051   -0.6033   10.1765 H   0  0  0  0  0
   21.7962   -0.4496   11.8492 H   0  0  0  0  0
  1  2  2  0  0  0
  2  3  1  0  0  0
  2  4  1  0  0  0
  4  5  1  0  0  0
  5  6  1  0  0  0
  6  7  1  0  0  0
  7  8  1  0  0  0
  7  9  1  0  0  0
  9 10  1  0  0  0
 10 11  2  0  0  0
 11 12  1  0  0  0
 12 13  2  0  0  0
 13 14  1  0  0  0
 14 15  2  0  0  0
 15 16  1  0  0  0
 16 17  1  0  0  0
 17 18  2  0  0  0
 18 19  1  0  0  0
 19 20  1  0  0  0
 20 21  1  0  0  0
 21 22  1  0  0  0
 22 23  1  0  0  0
  3 24  1  0  0  0
  4 25  1  0  0  0
  4 26  1  0  0  0
  5 27  1  0  0  0
  5 28  1  0  0  0
  6 29  1  0  0  0
  6 30  1  0  0  0
  7 31  1  0  0  0
  8 32  1  0  0  0
  9 33  1  0  0  0
  9 34  1  0  0  0
 10 35  1  0  0  0
 11 36  1  0  0  0
 12 37  1  0  0  0
 13 38  1  0  0  0
 14 39  1  0  0  0
 15 40  1  0  0  0
 16 41  1  0  0  0
 16 42  1  0  0  0
 17 43  1  0  0  0
 18 44  1  0  0  0
 19 45  1  0  0  0
 19 46  1  0  0  0
 20 47  1  0  0  0
 20 48  1  0  0  0
 21 49  1  0  0  0
 21 50  1  0  0  0
 22 51  1  0  0  0
 22 52  1  0  0  0
 23 53  1  0  0  0
 23 54  1  0  0  0
 23 55  1  0  0  0
M  END
$$$$
