5fhn_ligand
  -I-interpret- 

 42 44  0  0  0  0  0  0  0  0999 V2000
  -16.1390  -11.2640    8.5770 C   0  0  0  0  0
  -16.5350  -10.7010    9.7270 C   0  0  0  0  0
  -16.3060  -11.5010   10.7990 O   0  0  0  0  0
  -15.7100  -12.7300   10.1990 N   0  0  0  0  0
  -15.6090  -12.5500    8.8620 C   0  0  0  0  0
  -17.0800   -9.3700    9.9000 C   0  0  0  0  0
  -17.2640   -8.8940   11.1640 N   0  0  0  0  0
  -17.7010   -7.6940   10.9950 N   0  0  0  0  0
  -17.7670   -7.5140    9.6560 N   0  0  0  0  0
  -17.3790   -8.5620    8.8840 N   0  0  0  0  0
  -18.2230   -6.2880    9.0580 C   0  0  0  0  0
  -21.3690   -4.3710   11.2850 C   0  0  0  0  0
  -20.0530   -3.8960   11.3740 C   0  0  0  0  0
  -19.0300   -4.5480   10.6480 C   0  0  0  0  0
  -19.3480   -5.6320    9.8340 C   0  0  0  0  0
  -20.6680   -6.1280    9.7460 C   0  0  0  0  0
  -21.6880   -5.4890   10.4920 C   0  0  0  0  0
  -15.1600  -13.2810    7.9530 O   0  0  0  0  0
  -16.1660  -10.7530    7.1360 C   0  0  0  0  0
  -14.8730  -10.0460    6.6660 C   0  0  0  0  0
  -14.4600  -10.4170    5.2310 C   0  0  0  0  0
  -14.0650   -9.5030    4.4780 O   0  0  0  0  0
  -14.5350  -11.6250    4.9200 O   0  0  0  0  0
  -14.8900   -8.5580    6.7750 N   0  3  0  0  0
  -19.7160   -2.6950   12.2460 C   0  0  0  0  0
  -15.4264  -13.5655   10.7108 H   0  0  0  0  0
  -18.6001   -6.5244    8.0630 H   0  0  0  0  0
  -17.3825   -5.5941    9.0418 H   0  0  0  0  0
  -22.1592   -3.8654   11.8399 H   0  0  0  0  0
  -17.9985   -4.2042   10.7250 H   0  0  0  0  0
  -20.8971   -6.9870    9.1153 H   0  0  0  0  0
  -22.7121   -5.8601   10.4523 H   0  0  0  0  0
  -16.9656  -10.0143    7.0800 H   0  0  0  0  0
  -16.2968  -11.6256    6.4961 H   0  0  0  0  0
  -14.1362  -10.4267    7.3733 H   0  0  0  0  0
  -14.8665  -12.1269    5.6682 H   0  0  0  0  0
  -14.0007   -8.1839    6.4440 H   0  0  0  0  0
  -15.6500   -8.1853    6.2059 H   0  0  0  0  0
  -15.0309   -8.2913    7.7494 H   0  0  0  0  0
  -20.2789   -1.8277   11.9010 H   0  0  0  0  0
  -19.9804   -2.9132   13.2807 H   0  0  0  0  0
  -18.6482   -2.4869   12.1787 H   0  0  0  0  0
  2  1  2  0  0  0
  1  5  1  0  0  0
  1 19  1  0  0  0
  2  3  1  0  0  0
  6  2  1  0  0  0
  3  4  1  0  0  0
  4  5  1  0  0  0
  5 18  2  0  0  0
  6  7  4  0  0  0
 10  6  4  0  0  0
  8  7  4  0  0  0
  9  8  4  0  0  0
  9 10  4  0  0  0
 11  9  1  0  0  0
 15 11  1  0  0  0
 13 12  4  0  0  0
 12 17  4  0  0  0
 14 13  4  0  0  0
 13 25  1  0  0  0
 14 15  4  0  0  0
 15 16  4  0  0  0
 16 17  4  0  0  0
 19 20  1  0  0  0
 20 21  1  0  0  0
 20 24  1  0  0  0
 21 22  2  0  0  0
 21 23  1  0  0  0
  4 26  1  0  0  0
 11 27  1  0  0  0
 11 28  1  0  0  0
 12 29  1  0  0  0
 14 30  1  0  0  0
 16 31  1  0  0  0
 17 32  1  0  0  0
 19 33  1  0  0  0
 19 34  1  0  0  0
 20 35  1  0  0  0
 23 36  1  0  0  0
 24 37  1  0  0  0
 24 38  1  0  0  0
 24 39  1  0  0  0
 25 40  1  0  0  0
 25 41  1  0  0  0
 25 42  1  0  0  0
M  END
$$$$
