1m21_ligand
  -I-interpret- 

 87 89  0  0  0  0  0  0  0  0999 V2000
    5.3470   -8.3030   58.7690 C   0  0  0  0  0
    6.1820   -8.1490   59.9080 C   0  0  0  0  0
    5.9090   -7.1230   60.8490 C   0  0  0  0  0
    4.8180   -6.2600   60.6580 C   0  0  0  0  0
    3.9610   -6.4060   59.5020 C   0  0  0  0  0
    4.2340   -7.4380   58.5560 C   0  0  0  0  0
    4.5830   -5.1770   61.7020 C   0  0  0  0  0
    4.6590   -3.7930   61.0960 C   0  0  0  0  0
    4.6010   -2.6460   62.1610 C   0  0  0  0  0
    6.2770   -2.5190   59.6240 C   0  0  0  0  0
    7.6230   -2.4520   58.8180 C   0  0  0  0  0
    7.5020   -1.1980   57.9180 C   0  0  0  0  0
    8.7270   -0.9430   57.0230 C   0  0  0  0  0
    8.5640    0.2870   56.1310 C   0  0  0  0  0
   10.0160   -0.6960   57.8150 C   0  0  0  0  0
    7.1060   -4.3160   57.2380 C   0  0  0  0  0
    7.7860   -5.4150   56.4160 C   0  0  0  0  0
    8.3200   -4.7420   55.1160 C   0  0  0  0  0
    7.2210   -3.9720   54.3500 C   0  0  0  0  0
    7.8400   -3.3930   53.1030 C   0  0  0  0  0
    9.1670   -5.4790   52.9450 C   0  0  0  0  0
    7.2360   -7.7290   55.8330 C   0  0  0  0  0
    7.0100   -9.9850   55.2560 C   0  0  0  0  0
    6.6860  -10.2180   53.7560 C   0  0  0  0  0
    6.3800  -10.9810   56.2860 C   0  0  0  0  0
    4.8360  -11.0710   56.5080 C   0  0  0  0  0
    3.8750  -10.7100   55.5050 C   0  0  0  0  0
    2.4820  -10.8230   55.7700 C   0  0  0  0  0
    2.0310  -11.2960   57.0370 C   0  0  0  0  0
    2.9730  -11.6560   58.0370 C   0  0  0  0  0
    4.3690  -11.5450   57.7730 C   0  0  0  0  0
    5.9530   -3.6430   60.3090 N   0  0  0  0  0
    7.9530   -3.6080   57.9530 N   0  0  0  0  0
    9.0110   -5.7990   54.2830 N   0  0  0  0  0
   10.0080   -6.2990   52.2900 N   0  0  0  0  0
    8.5230   -4.4420   52.3320 N   0  0  0  0  0
    6.8460   -6.5000   56.0920 N   0  0  0  0  0
    6.3440   -8.6730   55.5330 N   0  0  0  0  0
    5.4740   -1.5650   59.6400 O   0  0  0  0  0
    5.8780   -4.1350   57.1760 O   0  0  0  0  0
    8.4570   -7.9720   55.8720 O   0  0  0  0  0
    6.8600   -9.2900   52.9190 O   0  0  0  0  0
    6.3120  -11.1840   53.3980 O   0  0  0  0  0
    4.2160   -2.8030   63.7410 O   0  0  0  0  0
    5.5601   -9.0928   58.0486 H   0  0  0  0  0
    7.0299   -8.8172   60.0585 H   0  0  0  0  0
    6.5486   -7.0042   61.7236 H   0  0  0  0  0
    3.1152   -5.7343   59.3553 H   0  0  0  0  0
    3.5984   -7.5639   57.6795 H   0  0  0  0  0
    5.3562   -5.2614   62.4656 H   0  0  0  0  0
    3.5868   -5.3145   62.1224 H   0  0  0  0  0
    3.7856   -3.6968   60.4510 H   0  0  0  0  0
    3.7713   -2.0437   61.7910 H   0  0  0  0  0
    5.6472   -2.3454   62.2181 H   0  0  0  0  0
    8.4270   -2.4370   59.5538 H   0  0  0  0  0
    7.4016   -0.3368   58.5785 H   0  0  0  0  0
    6.6492   -1.3571   57.2580 H   0  0  0  0  0
    8.7979   -1.8578   56.4346 H   0  0  0  0  0
    7.6992    0.1512   55.4815 H   0  0  0  0  0
    8.4171    1.1692   56.7541 H   0  0  0  0  0
    9.4598    0.4149   55.5234 H   0  0  0  0  0
    9.8871    0.1784   58.4529 H   0  0  0  0  0
   10.2349   -1.5679   58.4314 H   0  0  0  0  0
   10.8394   -0.5235   57.1219 H   0  0  0  0  0
    8.5985   -5.8676   56.9845 H   0  0  0  0  0
    9.0471   -3.9722   55.3743 H   0  0  0  0  0
    6.8153   -3.1754   54.9736 H   0  0  0  0  0
    6.4039   -4.6440   54.0875 H   0  0  0  0  0
    8.5675   -2.6333   53.3888 H   0  0  0  0  0
    7.0536   -2.9564   52.4873 H   0  0  0  0  0
    8.0888  -10.0768   55.3820 H   0  0  0  0  0
    6.7581  -10.6311   57.2466 H   0  0  0  0  0
    6.6403  -11.9617   55.8878 H   0  0  0  0  0
    4.2144  -10.3472   54.5348 H   0  0  0  0  0
    1.7582  -10.5475   55.0030 H   0  0  0  0  0
    0.9631  -11.3813   57.2382 H   0  0  0  0  0
    2.6284  -12.0170   59.0060 H   0  0  0  0  0
    5.0877  -11.8243   58.5434 H   0  0  0  0  0
    6.6074   -4.4253   60.2964 H   0  0  0  0  0
    8.9344   -3.8823   57.9072 H   0  0  0  0  0
    9.3375   -6.6812   54.6774 H   0  0  0  0  0
   10.1860   -6.1585   51.2955 H   0  0  0  0  0
    8.5158   -4.3942   51.3131 H   0  0  0  0  0
    5.8482   -6.2896   56.0672 H   0  0  0  0  0
    5.3361   -8.5209   55.4968 H   0  0  0  0  0
    7.1878   -8.5095   53.3718 H   0  0  0  0  0
    4.2574   -1.9433   64.1663 H   0  0  0  0  0
  1  6  4  0  0  0
  1  2  4  0  0  0
  2  3  4  0  0  0
  3  4  4  0  0  0
  4  7  1  0  0  0
  4  5  4  0  0  0
  5  6  4  0  0  0
  7  8  1  0  0  0
  8 32  1  0  0  0
  8  9  1  0  0  0
  9 44  1  0  0  0
 32 10  1  0  0  0
 10 39  2  0  0  0
 10 11  1  0  0  0
 11 33  1  0  0  0
 11 12  1  0  0  0
 12 13  1  0  0  0
 13 15  1  0  0  0
 13 14  1  0  0  0
 33 16  1  0  0  0
 16 40  2  0  0  0
 16 17  1  0  0  0
 17 37  1  0  0  0
 17 18  1  0  0  0
 18 34  1  0  0  0
 18 19  1  0  0  0
 19 20  1  0  0  0
 20 36  1  0  0  0
 36 21  1  0  0  0
 21 34  1  0  0  0
 21 35  2  0  0  0
 37 22  1  0  0  0
 22 38  1  0  0  0
 22 41  2  0  0  0
 38 23  1  0  0  0
 23 25  1  0  0  0
 23 24  1  0  0  0
 24 42  1  0  0  0
 24 43  2  0  0  0
 25 26  1  0  0  0
 26 31  4  0  0  0
 26 27  4  0  0  0
 27 28  4  0  0  0
 28 29  4  0  0  0
 29 30  4  0  0  0
 30 31  4  0  0  0
  1 45  1  0  0  0
  2 46  1  0  0  0
  3 47  1  0  0  0
  5 48  1  0  0  0
  6 49  1  0  0  0
  7 50  1  0  0  0
  7 51  1  0  0  0
  8 52  1  0  0  0
  9 53  1  0  0  0
  9 54  1  0  0  0
 11 55  1  0  0  0
 12 56  1  0  0  0
 12 57  1  0  0  0
 13 58  1  0  0  0
 14 59  1  0  0  0
 14 60  1  0  0  0
 14 61  1  0  0  0
 15 62  1  0  0  0
 15 63  1  0  0  0
 15 64  1  0  0  0
 17 65  1  0  0  0
 18 66  1  0  0  0
 19 67  1  0  0  0
 19 68  1  0  0  0
 20 69  1  0  0  0
 20 70  1  0  0  0
 23 71  1  0  0  0
 25 72  1  0  0  0
 25 73  1  0  0  0
 27 74  1  0  0  0
 28 75  1  0  0  0
 29 76  1  0  0  0
 30 77  1  0  0  0
 31 78  1  0  0  0
 32 79  1  0  0  0
 33 80  1  0  0  0
 34 81  1  0  0  0
 35 82  1  0  0  0
 36 83  1  0  0  0
 37 84  1  0  0  0
 38 85  1  0  0  0
 42 86  1  0  0  0
 44 87  1  0  0  0
M  END
$$$$
