4h5e_ligand
  -I-interpret- 

 28 27  0  0  0  0  0  0  0  0999 V2000
    8.0710   34.9140   -1.9750 P   0  0  0  0  0
    6.7420   35.4970   -2.3550 O   0  0  0  0  0
    9.0050   35.7950   -1.2870 O   0  0  0  0  0
    8.0620   33.4930   -1.5860 O   0  0  0  0  0
    8.8470   34.8560   -3.4290 O   0  0  0  0  0
    8.2690   34.7350   -4.8620 P   0  0  0  0  0
    8.5680   35.8470   -5.7450 O   0  0  0  0  0
    7.1710   33.7430   -5.0930 O   0  0  0  0  0
    9.3320   33.7040   -5.5150 O   0  0  0  0  0
   10.8060   33.9930   -5.6380 C   0  0  0  0  0
   11.5710   32.8420   -6.3810 C   0  0  0  0  0
   11.0770   32.8620   -7.7910 C   0  0  0  0  0
   10.6880   31.6030   -8.4610 C   0  0  0  0  0
   10.8470   34.2070   -8.4890 C   0  0  0  0  0
    6.2156   34.8281   -2.7990 H   0  0  0  0  0
    7.4081   33.0234   -2.1089 H   0  0  0  0  0
    7.1655   33.1014   -4.3789 H   0  0  0  0  0
   11.2202   34.0846   -4.6339 H   0  0  0  0  0
   10.9265   34.9099   -6.2149 H   0  0  0  0  0
   11.3842   31.8764   -5.9110 H   0  0  0  0  0
   12.6496   32.9934   -6.3385 H   0  0  0  0  0
   12.0709   32.7117   -8.2126 H   0  0  0  0  0
   11.5450   30.9302   -8.4932 H   0  0  0  0  0
    9.8763   31.1332   -7.9056 H   0  0  0  0  0
   10.3569   31.8206   -9.4765 H   0  0  0  0  0
   10.1041   34.7803   -7.9345 H   0  0  0  0  0
   11.7845   34.7620   -8.5235 H   0  0  0  0  0
   10.4894   34.0319   -9.5037 H   0  0  0  0  0
  1  2  1  0  0  0
  1  3  2  0  0  0
  1  4  1  0  0  0
  1  5  1  0  0  0
  5  6  1  0  0  0
  6  7  2  0  0  0
  6  8  1  0  0  0
  6  9  1  0  0  0
  9 10  1  0  0  0
 10 11  1  0  0  0
 11 12  1  0  0  0
 12 13  1  0  0  0
 12 14  1  0  0  0
  2 15  1  0  0  0
  4 16  1  0  0  0
  8 17  1  0  0  0
 10 18  1  0  0  0
 10 19  1  0  0  0
 11 20  1  0  0  0
 11 21  1  0  0  0
 12 22  1  0  0  0
 13 23  1  0  0  0
 13 24  1  0  0  0
 13 25  1  0  0  0
 14 26  1  0  0  0
 14 27  1  0  0  0
 14 28  1  0  0  0
M  END
$$$$
