### 
### Created by X-TOOL on Mon Sep 10 21:13:10 2018
### 

@<TRIPOS>MOLECULE
4h5e_ligand
   25    24     1     0     0
SMALL
GAST_HUCK


@<TRIPOS>ATOM
      1 P11         8.0710   34.9140   -1.9750 P.3       1 IPR         0.2069
      2 O14         6.7420   35.4970   -2.3550 O.co2     1 IPR        -0.5891
      3 O12         9.0050   35.7950   -1.2870 O.co2     1 IPR        -0.5891
      4 O13         8.0620   33.4930   -1.5860 O.co2     1 IPR        -0.5891
      5 O10         8.8470   34.8560   -3.4290 O.3       1 IPR        -0.1548
      6 P7          8.2690   34.7350   -4.8620 P.3       1 IPR         0.3275
      7 O8          8.5680   35.8470   -5.7450 O.co2     1 IPR        -0.5556
      8 O9          7.1710   33.7430   -5.0930 O.co2     1 IPR        -0.5556
      9 O6          9.3320   33.7040   -5.5150 O.3       1 IPR        -0.2463
     10 C5         10.8060   33.9930   -5.6380 C.3       1 IPR         0.0847
     11 C4         11.5710   32.8420   -6.3810 C.3       1 IPR        -0.0220
     12 C2         11.0770   32.8620   -7.7910 C.3       1 IPR        -0.0443
     13 C1         10.6880   31.6030   -8.4610 C.3       1 IPR        -0.0626
     14 C3         10.8470   34.2070   -8.4890 C.3       1 IPR        -0.0626
     15 H          11.2202   34.0846   -4.6339 H         1 IPR         0.0621
     16 H          10.9265   34.9099   -6.2149 H         1 IPR         0.0621
     17 H          11.3842   31.8764   -5.9110 H         1 IPR         0.0294
     18 H          12.6496   32.9934   -6.3385 H         1 IPR         0.0294
     19 H          12.0709   32.7117   -8.2126 H         1 IPR         0.0296
     20 H          11.5450   30.9302   -8.4932 H         1 IPR         0.0232
     21 H           9.8763   31.1332   -7.9056 H         1 IPR         0.0232
     22 H          10.3569   31.8206   -9.4765 H         1 IPR         0.0232
     23 H          10.1041   34.7803   -7.9345 H         1 IPR         0.0232
     24 H          11.7845   34.7620   -8.5235 H         1 IPR         0.0232
     25 H          10.4894   34.0319   -9.5037 H         1 IPR         0.0232
@<TRIPOS>BOND
     1    1    2 ar 
     2    1    3 ar 
     3    1    4 ar 
     4    1    5 1  
     5    5    6 1  
     6    6    7 ar 
     7    6    8 ar 
     8    6    9 1  
     9    9   10 1  
    10   10   11 1  
    11   11   12 1  
    12   12   13 1  
    13   12   14 1  
    14   10   15 1  
    15   10   16 1  
    16   11   17 1  
    17   11   18 1  
    18   12   19 1  
    19   13   20 1  
    20   13   21 1  
    21   13   22 1  
    22   14   23 1  
    23   14   24 1  
    24   14   25 1  
@<TRIPOS>SUBSTRUCTURE
     1 IPR         1

