6sd9_ligand
  -I-interpret- 

 79 84  0  0  0  0  0  0  0  0999 V2000
   -7.2670   21.7140  -31.1090 C   0  0  0  0  0
   -8.3450   22.6380  -31.0330 C   0  0  0  0  0
   -9.6320   22.1900  -30.9560 C   0  0  0  0  0
   -9.9090   20.8060  -30.9510 C   0  0  0  0  0
   -8.8360   19.8840  -31.0260 C   0  0  0  0  0
   -7.5100   20.3700  -31.1050 C   0  0  0  0  0
  -11.2220   20.4110  -30.8670 N   0  0  0  0  0
  -11.4630   19.1070  -30.8600 C   0  0  0  0  0
  -10.4950   18.1130  -30.9320 C   0  0  0  0  0
   -9.1730   18.5060  -31.0120 C   0  0  0  0  0
   -6.0260   22.2890  -31.1820 O   0  0  0  0  0
   -4.8850   21.4280  -31.2080 C   0  0  0  0  0
   -7.9680   23.9550  -31.0470 O   0  0  0  0  0
   -8.1060   17.6140  -31.0840 O   0  0  0  0  0
   -8.3020   16.3190  -30.6320 C   0  0  0  0  0
   -8.2750   16.0080  -29.2800 C   0  0  0  0  0
   -8.4790   14.6990  -28.8710 C   0  0  0  0  0
   -8.7150   13.6930  -29.8050 C   0  0  0  0  0
   -8.7440   14.0040  -31.1590 C   0  0  0  0  0
   -8.5390   15.3040  -31.5370 C   0  0  0  0  0
   -8.5710   15.6150  -32.8500 F   0  0  0  0  0
   -8.9100   12.3960  -29.2790 N   0  0  0  0  0
   -8.9780   24.9450  -31.3040 C   0  0  0  0  0
   -8.3020   26.1960  -31.7980 C   0  0  0  0  0
   -7.5920   26.9410  -30.6870 C   0  0  0  0  0
   -6.8880   28.1460  -31.1340 N   0  3  0  0  0
   -5.4460   27.8780  -31.2770 C   0  0  0  0  0
   -4.7500   29.0710  -31.8940 C   0  0  0  0  0
   -5.2660   30.3100  -31.3860 O   0  0  0  0  0
   -5.8660   30.1190  -30.0970 C   0  0  0  0  0
   -7.0990   29.2490  -30.1800 C   0  0  0  0  0
   -9.1510   11.2190  -29.9000 C   0  0  0  0  0
   -9.3230    9.9880  -28.9820 C   0  0  0  0  0
   -9.6660   10.2920  -27.4890 C   0  0  0  0  0
  -10.0270    9.2480  -26.7040 N   0  0  0  0  0
   -9.2270   11.1070  -31.1130 O   0  0  0  0  0
   -9.6120   11.4260  -27.0330 O   0  0  0  0  0
  -10.2140    9.3440  -25.3080 C   0  0  0  0  0
   -9.3970    8.6450  -24.4270 C   0  0  0  0  0
   -9.5870    8.7560  -23.0590 C   0  0  0  0  0
  -10.5940    9.5700  -22.6060 C   0  0  0  0  0
  -11.4170   10.2750  -23.4420 C   0  0  0  0  0
  -11.2230   10.1600  -24.8070 C   0  0  0  0  0
  -10.7860    9.6810  -21.2720 F   0  0  0  0  0
   -9.7060    8.6710  -29.6610 C   0  0  0  0  0
   -8.3070    8.8660  -29.2160 C   0  0  0  0  0
  -10.4517   22.9061  -30.8980 H   0  0  0  0  0
   -6.6779   19.6683  -31.1630 H   0  0  0  0  0
  -12.5036   18.7897  -30.7924 H   0  0  0  0  0
  -10.7695   17.0581  -30.9256 H   0  0  0  0  0
   -4.8648   20.8262  -30.2994 H   0  0  0  0  0
   -4.9450   20.7736  -32.0776 H   0  0  0  0  0
   -3.9783   22.0301  -31.2667 H   0  0  0  0  0
   -8.0941   16.7898  -28.5423 H   0  0  0  0  0
   -8.4545   14.4550  -27.8090 H   0  0  0  0  0
   -8.9260   13.2297  -31.9042 H   0  0  0  0  0
   -8.8608   12.3378  -28.2618 H   0  0  0  0  0
   -9.5335   25.1570  -30.3905 H   0  0  0  0  0
   -9.6778   24.5778  -32.0547 H   0  0  0  0  0
   -9.0667   26.8534  -32.2117 H   0  0  0  0  0
   -7.5588   25.9083  -32.5416 H   0  0  0  0  0
   -6.8450   26.2655  -30.2701 H   0  0  0  0  0
   -8.3516   27.2564  -29.9718 H   0  0  0  0  0
   -7.2648   28.4174  -32.0422 H   0  0  0  0  0
   -5.3071   27.0112  -31.9231 H   0  0  0  0  0
   -5.0198   27.6870  -30.2921 H   0  0  0  0  0
   -4.9168   29.0460  -32.9709 H   0  0  0  0  0
   -3.6897   29.0145  -31.6476 H   0  0  0  0  0
   -6.1581   31.0934  -29.7055 H   0  0  0  0  0
   -5.1405   29.6269  -29.4492 H   0  0  0  0  0
   -7.3048   28.8309  -29.1946 H   0  0  0  0  0
   -7.9386   29.8556  -30.5195 H   0  0  0  0  0
  -10.1719    8.3408  -27.1472 H   0  0  0  0  0
   -8.6030    8.0065  -24.8142 H   0  0  0  0  0
   -8.9525    8.2104  -22.3606 H   0  0  0  0  0
  -12.2062   10.9117  -23.0420 H   0  0  0  0  0
  -11.8646   10.7120  -25.4939 H   0  0  0  0  0
  -10.4623    8.0430  -30.1320 H   0  0  0  0  0
   -7.2897    8.4859  -29.1226 H   0  0  0  0  0
  1  2  4  0  0  0
  1  6  4  0  0  0
  1 11  1  0  0  0
  2  3  4  0  0  0
  2 13  1  0  0  0
  3  4  4  0  0  0
  4  5  4  0  0  0
  4  7  4  0  0  0
  5  6  4  0  0  0
  5 10  4  0  0  0
  7  8  4  0  0  0
  8  9  4  0  0  0
  9 10  4  0  0  0
 10 14  1  0  0  0
 11 12  1  0  0  0
 13 23  1  0  0  0
 14 15  1  0  0  0
 15 16  4  0  0  0
 15 20  4  0  0  0
 16 17  4  0  0  0
 17 18  4  0  0  0
 18 19  4  0  0  0
 18 22  1  0  0  0
 19 20  4  0  0  0
 20 21  1  0  0  0
 22 32  1  0  0  0
 23 24  1  0  0  0
 24 25  1  0  0  0
 25 26  1  0  0  0
 26 27  1  0  0  0
 26 31  1  0  0  0
 27 28  1  0  0  0
 28 29  1  0  0  0
 29 30  1  0  0  0
 30 31  1  0  0  0
 32 33  1  0  0  0
 32 36  2  0  0  0
 33 34  1  0  0  0
 33 45  1  0  0  0
 33 46  1  0  0  0
 34 35  1  0  0  0
 34 37  2  0  0  0
 35 38  1  0  0  0
 38 39  4  0  0  0
 38 43  4  0  0  0
 39 40  4  0  0  0
 40 41  4  0  0  0
 41 42  4  0  0  0
 41 44  1  0  0  0
 42 43  4  0  0  0
 45 46  2  0  0  0
  3 47  1  0  0  0
  6 48  1  0  0  0
  8 49  1  0  0  0
  9 50  1  0  0  0
 12 51  1  0  0  0
 12 52  1  0  0  0
 12 53  1  0  0  0
 16 54  1  0  0  0
 17 55  1  0  0  0
 19 56  1  0  0  0
 22 57  1  0  0  0
 23 58  1  0  0  0
 23 59  1  0  0  0
 24 60  1  0  0  0
 24 61  1  0  0  0
 25 62  1  0  0  0
 25 63  1  0  0  0
 26 64  1  0  0  0
 27 65  1  0  0  0
 27 66  1  0  0  0
 28 67  1  0  0  0
 28 68  1  0  0  0
 30 69  1  0  0  0
 30 70  1  0  0  0
 31 71  1  0  0  0
 31 72  1  0  0  0
 35 73  1  0  0  0
 39 74  1  0  0  0
 40 75  1  0  0  0
 42 76  1  0  0  0
 43 77  1  0  0  0
 45 78  1  0  0  0
 46 79  1  0  0  0
M  END
$$$$
