2c57_ligand
  -I-interpret- 

 22 22  0  0  0  0  0  0  0  0999 V2000
    1.2830   19.0930   65.7970 C   0  0  0  0  0
    1.9790   18.5890   67.0520 C   0  0  0  0  0
    1.2850   19.0590   68.2040 O   0  0  0  0  0
    1.9990   17.0420   67.0360 C   0  0  0  0  0
    2.9940   16.7650   68.0200 O   0  0  0  0  0
    2.3060   16.4170   65.6770 C   0  0  0  0  0
    2.3730   17.1620   64.5820 C   0  0  0  0  0
    1.3230   18.9890   63.4400 C   0  0  0  0  0
    0.1260   19.3570   63.6490 O   0  0  0  0  0
    3.3630   19.4710   64.5890 O   0  0  0  0  0
    1.8320   18.9590   62.2870 O   0  0  0  0  0
    2.1580   18.6510   64.6140 C   0  0  0  0  0
    1.1704   20.1770   65.8188 H   0  0  0  0  0
    0.2760   18.6838   65.7151 H   0  0  0  0  0
    3.0031   18.9611   67.0815 H   0  0  0  0  0
    1.2791   20.0190   68.2031 H   0  0  0  0  0
    1.0226   16.6050   67.2453 H   0  0  0  0  0
    2.7474   17.1818   68.8489 H   0  0  0  0  0
    2.4726   15.3422   65.6059 H   0  0  0  0  0
    2.5907   16.6806   63.6286 H   0  0  0  0  0
   -0.0634   19.3074   64.5888 H   0  0  0  0  0
    3.1178   20.3989   64.6125 H   0  0  0  0  0
  1  2  1  0  0  0
 12  1  1  0  0  0
  2  3  1  0  0  0
  2  4  1  0  0  0
  4  5  1  0  0  0
  6  4  1  0  0  0
  7  6  2  0  0  0
 12  7  1  0  0  0
  8  9  1  0  0  0
  8 11  2  0  0  0
  8 12  1  0  0  0
 12 10  1  0  0  0
  1 13  1  0  0  0
  1 14  1  0  0  0
  2 15  1  0  0  0
  3 16  1  0  0  0
  4 17  1  0  0  0
  5 18  1  0  0  0
  6 19  1  0  0  0
  7 20  1  0  0  0
  9 21  1  0  0  0
 10 22  1  0  0  0
M  END
$$$$
