5orx_ligand
  -I-interpret- 

 24 25  0  0  0  0  0  0  0  0999 V2000
  -12.6910   15.4900  -20.6800 C   0  0  0  0  0
  -12.3450   13.4120  -16.3120 C   0  0  0  0  0
  -12.2530   12.0740  -15.9820 C   0  0  0  0  0
  -11.1550   11.3520  -16.3970 C   0  0  0  0  0
  -11.3660   14.0400  -17.0580 C   0  0  0  0  0
  -10.2740   13.2920  -17.4590 C   0  0  0  0  0
  -10.1600   11.9530  -17.1350 C   0  0  0  0  0
  -11.9250   15.8840  -18.5760 C   0  0  0  0  0
  -12.0110   17.2600  -18.7410 C   0  0  0  0  0
  -12.4640   17.7440  -19.9340 C   0  0  0  0  0
  -13.7170   14.3250  -15.7980 Cl  0  0  0  0  0
   -9.0260   14.0480  -18.3870 Cl  0  0  0  0  0
  -11.4850   15.4290  -17.3650 O   0  0  0  0  0
  -12.2540   15.0140  -19.5110 N   0  0  0  0  0
  -12.8130   16.8420  -20.9270 C   0  0  0  0  0
  -13.2690   17.2580  -22.1220 N   0  0  0  0  0
  -12.9608   14.7854  -21.4667 H   0  0  0  0  0
  -13.0400   11.5945  -15.3999 H   0  0  0  0  0
  -11.0735   10.2962  -16.1388 H   0  0  0  0  0
   -9.2921   11.3793  -17.4601 H   0  0  0  0  0
  -11.7236   17.9375  -17.9369 H   0  0  0  0  0
  -12.5496   18.8175  -20.1024 H   0  0  0  0  0
  -13.5215   16.5759  -22.8371 H   0  0  0  0  0
  -13.3623   18.2556  -22.3131 H   0  0  0  0  0
 14  1  4  0  0  0
  1 15  4  0  0  0
  2  3  4  0  0  0
  5  2  4  0  0  0
  2 11  1  0  0  0
  3  4  4  0  0  0
  7  4  4  0  0  0
  5  6  4  0  0  0
 13  5  1  0  0  0
  6  7  4  0  0  0
  6 12  1  0  0  0
  8  9  4  0  0  0
  8 13  1  0  0  0
  8 14  4  0  0  0
  9 10  4  0  0  0
 10 15  4  0  0  0
 15 16  1  0  0  0
  1 17  1  0  0  0
  3 18  1  0  0  0
  4 19  1  0  0  0
  7 20  1  0  0  0
  9 21  1  0  0  0
 10 22  1  0  0  0
 16 23  1  0  0  0
 16 24  1  0  0  0
M  END
$$$$
