3h9f_ligand
  -I-interpret- 

 68 72  0  0  0  0  0  0  0  0999 V2000
    1.6090   20.6110   45.9040 C   0  0  0  0  0
    1.8790   21.9360   45.6240 C   0  0  0  0  0
    1.2690   22.9260   46.3810 C   0  0  0  0  0
    0.4480   22.5690   47.3450 N   0  0  0  0  0
    0.7640   20.3120   46.8930 N   0  0  0  0  0
   -1.4920   15.7290   52.2680 C   0  0  0  0  0
   -0.9510   14.3240   52.5500 C   0  0  0  0  0
   -1.9180   13.2920   51.9240 C   0  0  0  0  0
   -1.4230   11.9460   52.0620 O   0  0  0  0  0
   -2.1450   13.6240   50.4300 C   0  0  0  0  0
   -1.2330   14.7570   49.9320 C   0  0  0  0  0
   -1.2910   15.9400   50.8220 N   0  0  0  0  0
   -1.1280   17.2140   50.2810 C   0  0  0  0  0
   -0.9550   18.3300   51.1020 C   0  0  0  0  0
   -0.7650   19.5860   50.5150 C   0  0  0  0  0
   -0.5740   20.6930   51.2570 O   0  0  0  0  0
   -0.6490   20.4830   52.6490 C   0  0  0  0  0
   -1.1220   17.3800   48.8970 C   0  0  0  0  0
   -0.9540   18.6400   48.3170 C   0  0  0  0  0
   -0.7570   19.7480   49.1280 C   0  0  0  0  0
   -0.6220   20.9750   48.6210 N   0  0  0  0  0
    0.1970   21.2740   47.6160 C   0  0  0  0  0
    2.6780   22.4160   44.6830 N   0  0  0  0  0
    3.4690   23.6240   44.9780 C   0  0  0  0  0
    2.8320   21.8590   43.4870 C   0  0  0  0  0
    3.6150   22.3740   42.6770 O   0  0  0  0  0
    2.0740   20.6290   43.1080 C   0  0  0  0  0
    2.6030   19.4570   43.9370 C   0  0  0  0  0
    2.0550   19.5140   45.2920 N   0  0  0  0  0
    1.8300   18.1950   45.9350 C   0  0  0  0  0
    3.0620   17.2880   45.8280 C   0  0  0  0  0
    2.5320   15.8760   45.7360 C   0  0  0  0  0
    1.1410   15.9930   45.1520 C   0  0  0  0  0
    0.7850   17.4870   45.1300 C   0  0  0  0  0
    1.4662   23.9792   46.1808 H   0  0  0  0  0
   -0.9748   16.4844   52.8596 H   0  0  0  0  0
   -2.5427   15.8175   52.5443 H   0  0  0  0  0
   -0.8785   14.1618   53.6254 H   0  0  0  0  0
    0.0430   14.2137   52.1164 H   0  0  0  0  0
   -2.8652   13.3524   52.4599 H   0  0  0  0  0
   -2.0466   11.3345   51.6636 H   0  0  0  0  0
   -3.1788   13.9485   50.3115 H   0  0  0  0  0
   -1.9177   12.7301   49.8491 H   0  0  0  0  0
   -1.5698   15.0574   48.9398 H   0  0  0  0  0
   -0.2069   14.3896   49.9163 H   0  0  0  0  0
   -0.9678   18.2242   52.1868 H   0  0  0  0  0
   -1.6354   20.0955   52.9041 H   0  0  0  0  0
    0.1137   19.7641   52.9483 H   0  0  0  0  0
   -0.4831   21.4275   53.1671 H   0  0  0  0  0
   -1.2510   16.5092   48.2542 H   0  0  0  0  0
   -0.9776   18.7517   47.2330 H   0  0  0  0  0
   -1.1787   21.7269   49.0273 H   0  0  0  0  0
    4.5307   23.3887   44.9035 H   0  0  0  0  0
    3.2176   24.4055   44.2609 H   0  0  0  0  0
    3.2417   23.9681   45.9870 H   0  0  0  0  0
    2.2068   20.4230   42.0459 H   0  0  0  0  0
    1.0112   20.7724   43.3029 H   0  0  0  0  0
    3.6902   19.5157   43.9875 H   0  0  0  0  0
    2.3010   18.5208   43.4675 H   0  0  0  0  0
    1.5722   18.3715   46.9793 H   0  0  0  0  0
    3.7174   17.4085   46.6906 H   0  0  0  0  0
    3.6646   17.5414   44.9558 H   0  0  0  0  0
    2.5114   15.3964   46.7146 H   0  0  0  0  0
    3.1723   15.2528   45.1117 H   0  0  0  0  0
    0.4230   15.4351   45.7531 H   0  0  0  0  0
    1.1096   15.5750   44.1458 H   0  0  0  0  0
    0.7630   17.8643   44.1076 H   0  0  0  0  0
   -0.2065   17.6545   45.5507 H   0  0  0  0  0
  1  2  4  0  0  0
  5  1  4  0  0  0
  1 29  1  0  0  0
  3  2  4  0  0  0
  2 23  1  0  0  0
  4  3  4  0  0  0
 22  4  4  0  0  0
 22  5  4  0  0  0
  6  7  1  0  0  0
 12  6  1  0  0  0
  7  8  1  0  0  0
  8  9  1  0  0  0
 10  8  1  0  0  0
 11 10  1  0  0  0
 12 11  1  0  0  0
 13 12  1  0  0  0
 14 13  4  0  0  0
 18 13  4  0  0  0
 15 14  4  0  0  0
 15 16  1  0  0  0
 20 15  4  0  0  0
 16 17  1  0  0  0
 19 18  4  0  0  0
 20 19  4  0  0  0
 21 20  1  0  0  0
 21 22  1  0  0  0
 23 24  1  0  0  0
 23 25  1  0  0  0
 25 26  2  0  0  0
 25 27  1  0  0  0
 27 28  1  0  0  0
 28 29  1  0  0  0
 29 30  1  0  0  0
 30 31  1  0  0  0
 30 34  1  0  0  0
 31 32  1  0  0  0
 32 33  1  0  0  0
 33 34  1  0  0  0
  3 35  1  0  0  0
  6 36  1  0  0  0
  6 37  1  0  0  0
  7 38  1  0  0  0
  7 39  1  0  0  0
  8 40  1  0  0  0
  9 41  1  0  0  0
 10 42  1  0  0  0
 10 43  1  0  0  0
 11 44  1  0  0  0
 11 45  1  0  0  0
 14 46  1  0  0  0
 17 47  1  0  0  0
 17 48  1  0  0  0
 17 49  1  0  0  0
 18 50  1  0  0  0
 19 51  1  0  0  0
 21 52  1  0  0  0
 24 53  1  0  0  0
 24 54  1  0  0  0
 24 55  1  0  0  0
 27 56  1  0  0  0
 27 57  1  0  0  0
 28 58  1  0  0  0
 28 59  1  0  0  0
 30 60  1  0  0  0
 31 61  1  0  0  0
 31 62  1  0  0  0
 32 63  1  0  0  0
 32 64  1  0  0  0
 33 65  1  0  0  0
 33 66  1  0  0  0
 34 67  1  0  0  0
 34 68  1  0  0  0
M  END
$$$$
