2op9_ligand
  -I-interpret- 

 55 56  0  0  0  0  0  0  0  0999 V2000
   -6.5520   28.5150   71.1060 O   0  0  0  0  0
   -6.5250   27.8900   72.1570 C   0  0  0  0  0
   -6.2310   26.4680   72.1340 O   0  0  0  0  0
   -5.5160   25.8180   71.0780 C   0  0  0  0  0
   -4.1610   26.4210   70.7410 C   0  0  0  0  0
   -3.4620   25.9000   69.6440 C   0  0  0  0  0
   -2.2190   26.4200   69.2890 C   0  0  0  0  0
   -1.6640   27.4620   70.0320 C   0  0  0  0  0
   -2.3460   27.9720   71.1330 C   0  0  0  0  0
   -3.5920   27.4590   71.4880 C   0  0  0  0  0
   -6.6950   28.3820   73.3840 N   0  0  0  0  0
   -6.9660   29.7610   73.7370 C   0  0  0  0  0
   -8.1050   29.7830   74.7610 C   0  0  0  0  0
   -9.3070   29.0590   74.1810 C   0  0  0  0  0
   -9.4620   27.6780   74.3360 C   0  0  0  0  0
  -10.5700   27.0350   73.7840 C   0  0  0  0  0
  -11.5180   27.7770   73.0800 C   0  0  0  0  0
  -11.3540   29.1540   72.9310 C   0  0  0  0  0
  -10.2570   29.7940   73.4820 C   0  0  0  0  0
   -5.7340   30.4410   74.3020 C   0  0  0  0  0
   -4.6870   29.8150   74.4860 O   0  0  0  0  0
   -5.8250   31.7550   74.5470 N   0  0  0  0  0
   -4.6800   32.5560   74.9540 C   0  0  0  0  0
   -5.1140   33.7280   75.8440 C   0  0  0  0  0
   -3.8920   33.0250   73.7460 C   0  0  0  0  0
   -3.2570   34.0880   73.8110 O   0  0  0  0  0
   -3.8880   32.1160   72.5040 C   0  0  0  0  0
   -3.0880   32.6100   71.2980 C   0  0  0  0  0
   -2.5760   31.4720   70.6260 O   0  0  0  0  0
   -6.1301   25.9117   70.1823 H   0  0  0  0  0
   -5.3285   24.7972   71.4110 H   0  0  0  0  0
   -3.8931   25.0833   69.0650 H   0  0  0  0  0
   -1.6814   26.0134   68.4324 H   0  0  0  0  0
   -0.6962   27.8769   69.7504 H   0  0  0  0  0
   -1.9033   28.7765   71.7203 H   0  0  0  0  0
   -4.1239   27.8663   72.3479 H   0  0  0  0  0
   -6.6272   27.7182   74.1554 H   0  0  0  0  0
   -7.2536   30.3105   72.8407 H   0  0  0  0  0
   -8.3730   30.8145   74.9899 H   0  0  0  0  0
   -7.7846   29.2870   75.6772 H   0  0  0  0  0
   -8.7174   27.1042   74.8879 H   0  0  0  0  0
  -10.6942   25.9586   73.9023 H   0  0  0  0  0
  -12.3865   27.2811   72.6465 H   0  0  0  0  0
  -12.0948   29.7304   72.3768 H   0  0  0  0  0
  -10.1387   30.8715   73.3679 H   0  0  0  0  0
   -6.7314   32.2115   74.4444 H   0  0  0  0  0
   -4.0187   31.9275   75.5504 H   0  0  0  0  0
   -5.8068   34.3639   75.2929 H   0  0  0  0  0
   -5.6052   33.3418   76.7371 H   0  0  0  0  0
   -4.2372   34.3080   76.1320 H   0  0  0  0  0
   -4.9246   32.0535   72.1729 H   0  0  0  0  0
   -3.4188   31.1827   72.8151 H   0  0  0  0  0
   -2.2735   33.2577   71.6223 H   0  0  0  0  0
   -3.7260   33.1896   70.6309 H   0  0  0  0  0
   -2.0678   31.7546   69.8621 H   0  0  0  0  0
  1  2  2  0  0  0
  2  3  1  0  0  0
  2 11  1  0  0  0
  3  4  1  0  0  0
  4  5  1  0  0  0
  5  6  4  0  0  0
  5 10  4  0  0  0
  6  7  4  0  0  0
  7  8  4  0  0  0
  8  9  4  0  0  0
  9 10  4  0  0  0
 11 12  1  0  0  0
 12 13  1  0  0  0
 12 20  1  0  0  0
 13 14  1  0  0  0
 14 15  4  0  0  0
 14 19  4  0  0  0
 15 16  4  0  0  0
 16 17  4  0  0  0
 17 18  4  0  0  0
 18 19  4  0  0  0
 20 21  2  0  0  0
 20 22  1  0  0  0
 22 23  1  0  0  0
 23 24  1  0  0  0
 23 25  1  0  0  0
 25 26  2  0  0  0
 25 27  1  0  0  0
 27 28  1  0  0  0
 28 29  1  0  0  0
  4 30  1  0  0  0
  4 31  1  0  0  0
  6 32  1  0  0  0
  7 33  1  0  0  0
  8 34  1  0  0  0
  9 35  1  0  0  0
 10 36  1  0  0  0
 11 37  1  0  0  0
 12 38  1  0  0  0
 13 39  1  0  0  0
 13 40  1  0  0  0
 15 41  1  0  0  0
 16 42  1  0  0  0
 17 43  1  0  0  0
 18 44  1  0  0  0
 19 45  1  0  0  0
 22 46  1  0  0  0
 23 47  1  0  0  0
 24 48  1  0  0  0
 24 49  1  0  0  0
 24 50  1  0  0  0
 27 51  1  0  0  0
 27 52  1  0  0  0
 28 53  1  0  0  0
 28 54  1  0  0  0
 29 55  1  0  0  0
M  END
$$$$
