3mn8_ligand
  -I-interpret- 

 28 27  0  0  0  0  0  0  0  0999 V2000
    3.7030  -15.2060  -29.7450 C   0  0  0  0  0
    4.0450  -14.8320  -28.0480 S   0  0  0  0  0
    3.8220  -13.0760  -28.0520 C   0  0  0  0  0
    2.4710  -12.6290  -28.6060 C   0  0  0  0  0
    1.4510  -13.0280  -27.6490 N   0  0  0  0  0
    0.1340  -12.9850  -27.8200 C   0  0  0  0  0
   -0.6810  -13.3850  -26.8520 N   0  0  0  0  0
   -0.3750  -12.5450  -28.9660 N   0  0  0  0  0
    3.6060  -16.7040  -29.8610 C   0  0  0  0  0
    3.8700  -17.3920  -28.8500 O   0  0  0  0  0
    3.2590  -17.2080  -30.9500 O   0  0  0  0  0
    4.7390  -14.6190  -30.7180 C   0  0  0  0  0
    6.1430  -15.2090  -30.6690 C   0  0  0  0  0
    7.1050  -14.4050  -30.6030 O   0  0  0  0  0
    6.3030  -16.4550  -30.7330 O   0  0  0  0  0
    2.7638  -14.7354  -30.0357 H   0  0  0  0  0
    4.5937  -12.6513  -28.6940 H   0  0  0  0  0
    3.8773  -12.7385  -27.0171 H   0  0  0  0  0
    2.2852  -13.0914  -29.5754 H   0  0  0  0  0
    2.4569  -11.5485  -28.7492 H   0  0  0  0  0
    1.7822  -13.3784  -26.7502 H   0  0  0  0  0
   -1.6911  -13.3535  -26.9902 H   0  0  0  0  0
   -1.3861  -12.5163  -29.0973 H   0  0  0  0  0
    0.2454  -12.2360  -29.7143 H   0  0  0  0  0
    4.1134  -16.8123  -28.1245 H   0  0  0  0  0
    4.8465  -13.5700  -30.4422 H   0  0  0  0  0
    4.3615  -14.8299  -31.7186 H   0  0  0  0  0
    5.4457  -16.8848  -30.7762 H   0  0  0  0  0
  1  2  1  0  0  0
  1  9  1  0  0  0
  1 12  1  0  0  0
  2  3  1  0  0  0
  3  4  1  0  0  0
  4  5  1  0  0  0
  5  6  1  0  0  0
  6  7  2  0  0  0
  6  8  1  0  0  0
  9 10  1  0  0  0
  9 11  2  0  0  0
 12 13  1  0  0  0
 13 14  2  0  0  0
 13 15  1  0  0  0
  1 16  1  0  0  0
  3 17  1  0  0  0
  3 18  1  0  0  0
  4 19  1  0  0  0
  4 20  1  0  0  0
  5 21  1  0  0  0
  7 22  1  0  0  0
  8 23  1  0  0  0
  8 24  1  0  0  0
 10 25  1  0  0  0
 12 26  1  0  0  0
 12 27  1  0  0  0
 15 28  1  0  0  0
M  END
$$$$
