5l9l_ligand
  -I-interpret- 

 44 43  0  0  0  0  0  0  0  0999 V2000
   77.1940   28.6990   -4.9970 O   0  0  0  0  0
   78.0280   29.3410   -4.1460 C   0  0  0  0  0
   79.1670   28.3750   -3.9400 C   0  0  0  0  0
   80.2790   28.8220   -4.5800 O   0  0  0  0  0
   79.2770   28.1350   -2.4460 C   0  0  0  0  0
   78.1510   27.6270   -1.8890 O   0  0  0  0  0
   80.5130   27.5250   -1.8730 C   0  0  0  0  0
   81.5550   28.1490   -2.3990 O   0  0  0  0  0
   80.5590   26.0350   -2.0520 C   0  0  0  0  0
   80.6580   25.6860   -3.3200 O   0  0  0  0  0
   81.5500   25.2270   -1.1990 C   0  0  0  0  0
   82.9430   25.6210   -1.2760 N   0  3  0  0  0
   83.6880   25.3280   -0.0640 C   0  0  0  0  0
   84.0230   26.5460    0.7320 C   0  0  0  0  0
   83.7130   27.6320    0.2840 O   0  0  0  0  0
   84.9900   24.5950   -0.3880 C   0  0  0  0  0
   86.0770   25.4010   -0.9990 C   0  0  0  0  0
   87.0460   24.4490   -1.6090 C   0  0  0  0  0
   88.0190   24.1170   -1.0600 O   0  0  0  0  0
   86.7370   23.9280   -2.9050 N   0  0  0  0  0
   84.6080   26.4620    1.8070 O   0  0  0  0  0
   76.4340   29.2563   -5.1797 H   0  0  0  0  0
   77.5365   29.6015   -3.2086 H   0  0  0  0  0
   78.3676   30.2960   -4.5470 H   0  0  0  0  0
   79.0039   27.3976   -4.3941 H   0  0  0  0  0
   80.0859   28.9350   -5.5136 H   0  0  0  0  0
   79.4020   29.1711   -2.1315 H   0  0  0  0  0
   77.3828   28.0452   -2.2848 H   0  0  0  0  0
   80.5252   27.6599   -0.7914 H   0  0  0  0  0
   81.4681   29.0938   -2.2528 H   0  0  0  0  0
   79.5878   25.7502   -1.6472 H   0  0  0  0  0
   80.6840   24.7286   -3.3861 H   0  0  0  0  0
   81.5051   24.2041   -1.5729 H   0  0  0  0  0
   81.2503   25.3807   -0.1623 H   0  0  0  0  0
   82.9713   26.6304   -1.4200 H   0  0  0  0  0
   83.3716   25.0946   -2.0373 H   0  0  0  0  0
   83.0300   24.6992    0.5358 H   0  0  0  0  0
   84.7304   23.8348   -1.1248 H   0  0  0  0  0
   85.3799   24.2409    0.5663 H   0  0  0  0  0
   86.5679   26.0157   -0.2445 H   0  0  0  0  0
   85.6748   26.0748   -1.7555 H   0  0  0  0  0
   87.3691   23.2637   -3.3516 H   0  0  0  0  0
   85.8845   24.2209   -3.3824 H   0  0  0  0  0
   84.7746   25.5382    2.0080 H   0  0  0  0  0
  1  2  1  0  0  0
  2  3  1  0  0  0
  3  4  1  0  0  0
  3  5  1  0  0  0
  5  6  1  0  0  0
  5  7  1  0  0  0
  7  8  1  0  0  0
  7  9  1  0  0  0
  9 10  1  0  0  0
  9 11  1  0  0  0
 11 12  1  0  0  0
 12 13  1  0  0  0
 13 14  1  0  0  0
 13 16  1  0  0  0
 14 15  2  0  0  0
 14 21  1  0  0  0
 16 17  1  0  0  0
 17 18  1  0  0  0
 18 19  2  0  0  0
 18 20  1  0  0  0
  1 22  1  0  0  0
  2 23  1  0  0  0
  2 24  1  0  0  0
  3 25  1  0  0  0
  4 26  1  0  0  0
  5 27  1  0  0  0
  6 28  1  0  0  0
  7 29  1  0  0  0
  8 30  1  0  0  0
  9 31  1  0  0  0
 10 32  1  0  0  0
 11 33  1  0  0  0
 11 34  1  0  0  0
 12 35  1  0  0  0
 12 36  1  0  0  0
 13 37  1  0  0  0
 16 38  1  0  0  0
 16 39  1  0  0  0
 17 40  1  0  0  0
 17 41  1  0  0  0
 20 42  1  0  0  0
 20 43  1  0  0  0
 21 44  1  0  0  0
M  END
$$$$
