5he4_ligand
  -I-interpret- 

 49 52  0  0  0  0  0  0  0  0999 V2000
   16.1430    9.4560   21.1910 C   0  0  0  0  0
   18.4030    9.6340   20.8760 C   0  0  0  0  0
   24.3940    8.9430   21.9840 F   0  0  0  0  0
   17.2890    8.1230   19.5930 C   0  0  0  0  0
   18.5370    6.4990   18.3800 C   0  0  0  0  0
   20.8000    9.7740   20.5290 C   0  0  0  0  0
   21.9040   10.3710   21.4130 C   0  0  0  0  0
   22.4240   10.0860   23.8240 C   0  0  0  0  0
   18.4350    8.7030   19.9020 N   0  0  0  0  0
   19.5960   10.1790   21.2500 N   0  0  0  0  0
   21.9870    9.5840   22.6580 N   0  0  0  0  0
   22.7820    9.3250   24.8070 N   0  0  0  0  0
   23.1300   12.0270   25.1900 C   0  0  0  0  0
   21.2810   11.7360   21.8480 C   0  0  0  0  0
   24.4250    9.7890   20.9420 C   0  0  0  0  0
   25.5980    9.8980   20.2310 C   0  0  0  0  0
   25.6290   10.7400   19.1300 C   0  0  0  0  0
   24.4990   11.4430   18.7340 C   0  0  0  0  0
   23.3440   11.3000   19.4670 C   0  0  0  0  0
   22.2300   11.9190   19.0320 F   0  0  0  0  0
   23.2240   10.4860   20.6230 C   0  0  0  0  0
   21.9100   12.3300   23.0990 C   0  0  0  0  0
   21.8800   13.5310   23.3090 O   0  0  0  0  0
   22.5260   11.4560   23.9730 N   0  0  0  0  0
   19.7910   11.3990   22.0540 C   0  0  0  0  0
   17.3060   10.0290   21.5490 N   0  0  0  0  0
   14.9120    9.9040   21.9240 C   0  0  0  0  0
   16.0940    8.4820   20.1870 C   0  0  0  0  0
   14.9390    7.9490   19.7550 F   0  0  0  0  0
   17.2720    7.0580   18.7650 O   0  0  0  0  0
   19.1259    7.2573   17.8640 H   0  0  0  0  0
   19.0712    6.1654   19.2696 H   0  0  0  0  0
   18.3710    5.6514   17.7151 H   0  0  0  0  0
   20.8851    8.6957   20.3944 H   0  0  0  0  0
   20.8295   10.1262   19.4979 H   0  0  0  0  0
   21.6970    8.6065   22.6316 H   0  0  0  0  0
   23.1316    9.7388   25.6713 H   0  0  0  0  0
   22.5566   11.7108   26.0614 H   0  0  0  0  0
   24.1578   11.6762   25.2829 H   0  0  0  0  0
   23.1207   13.1149   25.1226 H   0  0  0  0  0
   21.4513   12.5105   21.1002 H   0  0  0  0  0
   26.4832    9.3349   20.5268 H   0  0  0  0  0
   26.5552   10.8519   18.5663 H   0  0  0  0  0
   24.5267   12.0945   17.8606 H   0  0  0  0  0
   19.5390   11.2505   23.1040 H   0  0  0  0  0
   19.1336   12.2114   21.7442 H   0  0  0  0  0
   15.0281    9.6960   22.9876 H   0  0  0  0  0
   14.7714   10.9746   21.7751 H   0  0  0  0  0
   14.0457    9.3656   21.5397 H   0  0  0  0  0
 26  1  4  0  0  0
  1 27  1  0  0  0
  1 28  4  0  0  0
  2  9  4  0  0  0
 10  2  1  0  0  0
  2 26  4  0  0  0
 15  3  1  0  0  0
  9  4  4  0  0  0
  4 28  4  0  0  0
  4 30  1  0  0  0
 30  5  1  0  0  0
  7  6  1  0  0  0
  6 10  1  0  0  0
  7 11  1  0  0  0
  7 14  1  0  0  0
 21  7  1  0  0  0
 11  8  1  0  0  0
  8 12  2  0  0  0
  8 24  4  0  0  0
 25 10  1  0  0  0
 24 13  1  0  0  0
 14 22  1  0  0  0
 14 25  1  0  0  0
 15 16  4  0  0  0
 15 21  4  0  0  0
 16 17  4  0  0  0
 17 18  4  0  0  0
 18 19  4  0  0  0
 19 20  1  0  0  0
 19 21  4  0  0  0
 22 23  2  0  0  0
 22 24  1  0  0  0
 28 29  1  0  0  0
  5 31  1  0  0  0
  5 32  1  0  0  0
  5 33  1  0  0  0
  6 34  1  0  0  0
  6 35  1  0  0  0
 11 36  1  0  0  0
 12 37  1  0  0  0
 13 38  1  0  0  0
 13 39  1  0  0  0
 13 40  1  0  0  0
 14 41  1  0  0  0
 16 42  1  0  0  0
 17 43  1  0  0  0
 18 44  1  0  0  0
 25 45  1  0  0  0
 25 46  1  0  0  0
 27 47  1  0  0  0
 27 48  1  0  0  0
 27 49  1  0  0  0
M  END
$$$$
