3u15_ligand
  -I-interpret- 

 41 44  0  0  0  0  0  0  0  0999 V2000
  -10.1830  -34.3510    1.6740 C   0  0  0  0  0
   -8.0530  -37.1220    0.5890 C   0  0  0  0  0
   -9.2640  -36.5010    0.6750 C   0  0  0  0  0
   -9.2280  -35.3140    1.3560 C   0  0  0  0  0
  -10.4630  -36.9840    0.0160 C   0  0  0  0  0
   -9.7710  -39.0810   -1.2730 N   0  0  0  0  0
  -10.5630  -39.8700   -2.0390 C   0  0  0  0  0
  -11.9750  -38.4190   -1.4440 C   0  0  0  0  0
  -15.0410  -40.8860   -1.6330 C   0  0  0  0  0
  -15.7810  -41.8660   -0.9540 C   0  0  0  0  0
  -15.3550  -43.2060   -0.9660 C   0  0  0  0  0
  -13.4170  -42.5540   -2.2720 C   0  0  0  0  0
   -9.7660  -33.2810    2.4220 C   0  0  0  0  0
   -8.4360  -33.1820    2.8070 C   0  0  0  0  0
   -7.4970  -34.1130    2.4680 C   0  0  0  0  0
   -7.2530  -36.2880    1.2880 N   0  0  0  0  0
   -7.9050  -35.2080    1.7540 C   0  0  0  0  0
  -10.6750  -38.1460   -0.8290 C   0  0  0  0  0
  -11.8990  -39.5090   -2.2160 N   0  0  0  0  0
  -10.0200  -40.8770   -2.6500 O   0  0  0  0  0
  -13.0060  -37.6760   -1.1760 O   0  0  0  0  0
  -12.9700  -40.1810   -3.0040 C   0  0  0  0  0
  -13.8200  -41.2180   -2.2690 C   0  0  0  0  0
  -14.1610  -43.5220   -1.6120 C   0  0  0  0  0
  -13.7230  -44.7900   -1.6240 F   0  0  0  0  0
  -16.0480  -44.1980   -0.3160 F   0  0  0  0  0
   -6.0640  -33.9890    2.9150 C   0  0  0  0  0
   -8.0200  -31.7770    3.7790 Cl  0  0  0  0  0
  -11.2171  -34.4444    1.3423 H   0  0  0  0  0
   -7.7962  -38.0536    0.0848 H   0  0  0  0  0
  -11.3510  -36.3742    0.1826 H   0  0  0  0  0
   -8.7728  -39.1599   -1.0784 H   0  0  0  0  0
  -15.4090  -39.8607   -1.6712 H   0  0  0  0  0
  -16.6875  -41.5881   -0.4164 H   0  0  0  0  0
  -12.5070  -42.8407   -2.7990 H   0  0  0  0  0
  -10.4777  -32.5088    2.7142 H   0  0  0  0  0
  -12.4600  -40.7227   -3.8006 H   0  0  0  0  0
  -13.6577  -39.3918   -3.3079 H   0  0  0  0  0
   -5.6432  -33.0607    2.5286 H   0  0  0  0  0
   -6.0238  -33.9819    4.0042 H   0  0  0  0  0
   -5.4916  -34.8350    2.5345 H   0  0  0  0  0
  4  1  4  0  0  0
  1 13  4  0  0  0
  3  2  4  0  0  0
  2 16  4  0  0  0
  3  4  4  0  0  0
  5  3  1  0  0  0
  4 17  4  0  0  0
 18  5  2  0  0  0
  7  6  1  0  0  0
 18  6  1  0  0  0
 19  7  1  0  0  0
  7 20  2  0  0  0
  8 18  1  0  0  0
 19  8  1  0  0  0
  8 21  2  0  0  0
  9 10  4  0  0  0
 23  9  4  0  0  0
 10 11  4  0  0  0
 24 11  4  0  0  0
 11 26  1  0  0  0
 23 12  4  0  0  0
 12 24  4  0  0  0
 13 14  4  0  0  0
 15 14  4  0  0  0
 14 28  1  0  0  0
 17 15  4  0  0  0
 15 27  1  0  0  0
 17 16  4  0  0  0
 22 19  1  0  0  0
 22 23  1  0  0  0
 24 25  1  0  0  0
  1 29  1  0  0  0
  2 30  1  0  0  0
  5 31  1  0  0  0
  6 32  1  0  0  0
  9 33  1  0  0  0
 10 34  1  0  0  0
 12 35  1  0  0  0
 13 36  1  0  0  0
 22 37  1  0  0  0
 22 38  1  0  0  0
 27 39  1  0  0  0
 27 40  1  0  0  0
 27 41  1  0  0  0
M  END
$$$$
