2vwz_ligand
  -I-interpret- 

 45 48  0  0  0  0  0  0  0  0999 V2000
   13.6440    7.4540   11.6170 N   0  0  0  0  0
   13.0090    6.2490   11.8950 C   0  0  0  0  0
   13.8960    5.2800   12.1850 N   0  0  0  0  0
   13.3820    4.0620   12.4540 C   0  0  0  0  0
   12.0160    3.8610   12.4040 C   0  0  0  0  0
   11.1920    4.9240   12.0710 C   0  0  0  0  0
    9.7940    4.7930   12.0020 N   0  0  0  0  0
    9.1300    3.5770   12.3000 C   0  0  0  0  0
    9.0560    3.1010   13.5970 C   0  0  0  0  0
    9.6260    3.7260   14.6940 O   0  0  0  0  0
    9.4080    2.7060   15.7110 C   0  0  0  0  0
    8.4610    1.7000   15.2850 O   0  0  0  0  0
    8.3970    1.9480   13.9370 C   0  0  0  0  0
    7.7790    1.1560   13.0030 C   0  0  0  0  0
    7.8520    1.6090   11.6820 C   0  0  0  0  0
    8.5030    2.8030   11.3300 C   0  0  0  0  0
    8.5590    3.3520    9.6570 Cl  0  0  0  0  0
   11.6830    6.1270   11.8280 N   0  0  0  0  0
    9.4280    8.4370    8.1980 C   0  0  0  0  0
    8.7140    9.0380    9.7100 S   0  0  0  0  0
    8.6090    7.8620   10.5640 O   0  0  0  0  0
    7.5060    9.7720    9.3450 O   0  0  0  0  0
    9.8050   10.2680   10.2030 N   0  0  0  0  0
   11.1830    9.9940   10.5020 C   0  0  0  0  0
   12.0320   11.0760   10.3620 C   0  0  0  0  0
   13.3790   10.9380   10.6190 C   0  0  0  0  0
   13.8790    9.7270   11.0370 C   0  0  0  0  0
   13.0190    8.6390   11.1860 C   0  0  0  0  0
   11.6650    8.7590   10.9310 C   0  0  0  0  0
   14.6566    7.4819   11.7365 H   0  0  0  0  0
   14.0449    3.2358   12.7110 H   0  0  0  0  0
   11.5928    2.8807   12.6233 H   0  0  0  0  0
    9.2374    5.6025   11.7275 H   0  0  0  0  0
    9.0063    3.1942   16.5989 H   0  0  0  0  0
   10.3606    2.2131   15.9052 H   0  0  0  0  0
    7.2646    0.2337   13.2729 H   0  0  0  0  0
    7.3866    1.0136   10.8965 H   0  0  0  0  0
   10.4044    8.0001    8.4073 H   0  0  0  0  0
    8.7747    7.6793    7.7652 H   0  0  0  0  0
    9.5413    9.2642    7.4972 H   0  0  0  0  0
    9.4634   11.2255   10.2864 H   0  0  0  0  0
   11.6349   12.0411   10.0474 H   0  0  0  0  0
   14.0481   11.7889   10.4909 H   0  0  0  0  0
   14.9422    9.6179   11.2508 H   0  0  0  0  0
   10.9933    7.9107   11.0620 H   0  0  0  0  0
  1  2  1  0  0  0
 28  1  1  0  0  0
  2  3  4  0  0  0
  2 18  4  0  0  0
  3  4  4  0  0  0
  4  5  4  0  0  0
  6  5  4  0  0  0
  6  7  1  0  0  0
 18  6  4  0  0  0
  7  8  1  0  0  0
  8  9  4  0  0  0
  8 16  4  0  0  0
  9 10  1  0  0  0
  9 13  4  0  0  0
 10 11  1  0  0  0
 12 11  1  0  0  0
 13 12  1  0  0  0
 13 14  4  0  0  0
 15 14  4  0  0  0
 16 15  4  0  0  0
 16 17  1  0  0  0
 20 19  1  0  0  0
 20 21  2  0  0  0
 20 22  2  0  0  0
 23 20  1  0  0  0
 24 23  1  0  0  0
 25 24  4  0  0  0
 24 29  4  0  0  0
 26 25  4  0  0  0
 27 26  4  0  0  0
 27 28  4  0  0  0
 28 29  4  0  0  0
  1 30  1  0  0  0
  4 31  1  0  0  0
  5 32  1  0  0  0
  7 33  1  0  0  0
 11 34  1  0  0  0
 11 35  1  0  0  0
 14 36  1  0  0  0
 15 37  1  0  0  0
 19 38  1  0  0  0
 19 39  1  0  0  0
 19 40  1  0  0  0
 23 41  1  0  0  0
 25 42  1  0  0  0
 26 43  1  0  0  0
 27 44  1  0  0  0
 29 45  1  0  0  0
M  END
$$$$
