1z4u_ligand
  -I-interpret- 

 58 62  0  0  0  0  0  0  0  0999 V2000
  -10.8320   55.7820   47.6710 C   0  0  0  0  0
  -11.8860   56.1380   46.7730 C   0  0  0  0  0
  -13.1200   56.6640   47.2650 C   0  0  0  0  0
  -13.3020   56.8460   48.6600 C   0  0  0  0  0
  -12.2210   56.4890   49.5260 C   0  0  0  0  0
  -11.0330   55.9750   49.0310 C   0  0  0  0  0
   -8.4160   54.7970   47.8060 C   0  0  0  0  0
   -9.5390   55.2420   47.1870 C   0  0  0  0  0
   -8.1930   54.7080   49.2050 N   0  0  0  0  0
   -7.9010   55.7510   50.0280 C   0  0  0  0  0
   -7.2790   54.3120   46.9520 C   0  0  0  0  0
   -7.7860   56.9390   49.6670 O   0  0  0  0  0
   -7.3810   54.5290   45.7200 O   0  0  0  0  0
   -6.3080   53.7140   47.4700 O   0  0  0  0  0
  -14.4880   57.3690   49.1480 O   0  0  0  0  0
  -14.7360   57.6270   50.4940 C   0  0  0  0  0
  -14.6250   58.9820   50.9660 C   0  0  0  0  0
  -14.8730   59.2790   52.3570 C   0  0  0  0  0
  -15.2180   58.2270   53.2740 C   0  0  0  0  0
  -15.3290   56.8760   52.8170 C   0  0  0  0  0
  -15.0850   56.5850   51.4410 C   0  0  0  0  0
  -14.1610   60.3490   49.7070 Br  0  0  0  0  0
   -8.5850   55.4740   54.3960 C   0  0  0  0  0
   -7.2410   56.1230   53.9180 C   0  0  0  0  0
   -8.9010   54.2060   53.5190 C   0  0  0  0  0
   -7.4020   56.5610   52.4290 C   0  0  0  0  0
   -9.0480   54.6570   52.0300 C   0  0  0  0  0
   -7.7300   55.3330   51.5000 C   0  0  0  0  0
   -7.7220   53.1640   53.6250 C   0  0  0  0  0
   -6.3920   53.8240   53.1410 C   0  0  0  0  0
   -6.0800   55.0760   54.0270 C   0  0  0  0  0
   -6.5710   54.2770   51.6570 C   0  0  0  0  0
  -11.7465   56.0065   45.7000 H   0  0  0  0  0
  -13.9189   56.9246   46.5707 H   0  0  0  0  0
  -12.3344   56.6245   50.6016 H   0  0  0  0  0
  -10.2358   55.7155   49.7275 H   0  0  0  0  0
   -9.4767   55.1914   46.1000 H   0  0  0  0  0
   -8.2572   53.7828   49.6295 H   0  0  0  0  0
   -8.1998   54.9989   45.5457 H   0  0  0  0  0
  -14.7982   60.3063   52.7137 H   0  0  0  0  0
  -15.3961   58.4602   54.3238 H   0  0  0  0  0
  -15.5965   56.0789   53.5107 H   0  0  0  0  0
  -15.1628   55.5548   51.0934 H   0  0  0  0  0
   -9.3936   56.1973   54.2911 H   0  0  0  0  0
   -8.4923   55.1775   55.4408 H   0  0  0  0  0
   -7.0044   56.9852   54.5415 H   0  0  0  0  0
   -9.8205   53.7394   53.8724 H   0  0  0  0  0
   -6.4641   57.0056   52.0961 H   0  0  0  0  0
   -8.2252   57.2725   52.3650 H   0  0  0  0  0
   -9.8581   55.3836   51.9675 H   0  0  0  0  0
   -9.2536   53.7766   51.4211 H   0  0  0  0  0
   -7.9456   52.3001   52.9990 H   0  0  0  0  0
   -7.6118   52.8470   54.6620 H   0  0  0  0  0
   -5.5719   53.1104   53.2203 H   0  0  0  0  0
   -5.9815   54.7610   55.0658 H   0  0  0  0  0
   -5.1537   55.5347   53.6810 H   0  0  0  0  0
   -5.6408   54.7391   51.3264 H   0  0  0  0  0
   -6.8244   53.4006   51.0606 H   0  0  0  0  0
  1  2  4  0  0  0
  1  6  4  0  0  0
  8  1  1  0  0  0
  2  3  4  0  0  0
  3  4  4  0  0  0
  5  4  4  0  0  0
  4 15  1  0  0  0
  6  5  4  0  0  0
  7  8  2  0  0  0
  9  7  1  0  0  0
  7 11  1  0  0  0
 10  9  1  0  0  0
 10 12  2  0  0  0
 28 10  1  0  0  0
 11 13  1  0  0  0
 11 14  2  0  0  0
 15 16  1  0  0  0
 16 17  4  0  0  0
 16 21  4  0  0  0
 17 18  4  0  0  0
 17 22  1  0  0  0
 18 19  4  0  0  0
 20 19  4  0  0  0
 21 20  4  0  0  0
 24 23  1  0  0  0
 23 25  1  0  0  0
 26 24  1  0  0  0
 24 31  1  0  0  0
 25 27  1  0  0  0
 25 29  1  0  0  0
 26 28  1  0  0  0
 27 28  1  0  0  0
 28 32  1  0  0  0
 29 30  1  0  0  0
 30 31  1  0  0  0
 30 32  1  0  0  0
  2 33  1  0  0  0
  3 34  1  0  0  0
  5 35  1  0  0  0
  6 36  1  0  0  0
  8 37  1  0  0  0
  9 38  1  0  0  0
 13 39  1  0  0  0
 18 40  1  0  0  0
 19 41  1  0  0  0
 20 42  1  0  0  0
 21 43  1  0  0  0
 23 44  1  0  0  0
 23 45  1  0  0  0
 24 46  1  0  0  0
 25 47  1  0  0  0
 26 48  1  0  0  0
 26 49  1  0  0  0
 27 50  1  0  0  0
 27 51  1  0  0  0
 29 52  1  0  0  0
 29 53  1  0  0  0
 30 54  1  0  0  0
 31 55  1  0  0  0
 31 56  1  0  0  0
 32 57  1  0  0  0
 32 58  1  0  0  0
M  END
$$$$
