6gbe_ligand
  -I-interpret- 

207211  0  0  0  0  0  0  0  0999 V2000
    5.6290  -25.0960   16.0050 N   0  3  0  0  0
    4.7000  -24.2850   16.8410 C   0  0  0  0  0
    5.5050  -23.4880   17.8620 C   0  0  0  0  0
    6.0660  -24.0510   18.8010 O   0  0  0  0  0
    3.7200  -25.2150   17.5590 C   0  0  0  0  0
    2.8070  -25.8870   16.5310 C   0  0  0  0  0
    1.8260  -27.1720   17.3460 S   0  0  0  0  0
    1.1020  -27.8860   15.8490 C   0  0  0  0  0
    5.5560  -22.1730   17.6720 N   0  0  0  0  0
    6.2960  -21.3090   18.5850 C   0  0  0  0  0
    7.6660  -21.9030   18.8900 C   0  0  0  0  0
    8.1770  -21.7710   20.0030 O   0  0  0  0  0
    5.5130  -21.1300   19.8860 C   0  0  0  0  0
    6.2040  -20.1050   20.7530 C   0  0  0  0  0
    6.8550  -20.5050   21.9270 C   0  0  0  0  0
    6.1960  -18.7550   20.3820 C   0  0  0  0  0
    7.4960  -19.5550   22.7300 C   0  0  0  0  0
    6.8380  -17.8050   21.1860 C   0  0  0  0  0
    7.4880  -18.2050   22.3590 C   0  0  0  0  0
    8.2560  -22.5590   17.8960 N   0  0  0  0  0
    9.5680  -23.1710   18.0700 C   0  0  0  0  0
   10.2440  -23.3810   16.7190 C   0  0  0  0  0
    9.6250  -23.1970   15.6700 O   0  0  0  0  0
    9.4260  -24.5150   18.7870 C   0  0  0  0  0
   10.4740  -24.6160   19.8970 C   0  0  0  0  0
   10.2720  -25.9190   20.6730 C   0  0  0  0  0
   11.5600  -26.4790   21.0660 N   0  0  0  0  0
   12.3810  -27.0110   20.1660 C   0  0  0  0  0
   12.0400  -27.0370   18.9060 N   0  0  0  0  0
   13.5270  -27.5090   20.5420 N   0  0  0  0  0
   11.5150  -23.7670   16.7520 N   0  0  0  0  0
   12.2640  -23.9990   15.5220 C   0  0  0  0  0
   13.3800  -25.0100   15.7570 C   0  0  0  0  0
   13.3190  -25.8140   16.6880 O   0  0  0  0  0
   12.8630  -22.6840   15.0190 C   0  0  0  0  0
   12.8080  -22.6350   13.4960 C   0  0  0  0  0
   13.7900  -23.0060   12.8750 O   0  0  0  0  0
   11.7840  -22.2280   12.9720 O   0  0  0  0  0
   14.3990  -24.9660   14.9050 N   0  0  0  0  0
   15.5260  -25.8840   15.0280 C   0  0  0  0  0
   16.8450  -25.1340   14.8780 C   0  0  0  0  0
   17.7210  -25.2200   15.7390 O   0  0  0  0  0
   15.4300  -26.9730   13.9570 C   0  0  0  0  0
   15.8780  -28.2930   14.5390 C   0  0  0  0  0
   14.9540  -29.1200   15.1880 C   0  0  0  0  0
   17.2160  -28.6880   14.4290 C   0  0  0  0  0
   15.3690  -30.3450   15.7270 C   0  0  0  0  0
   17.6310  -29.9120   14.9680 C   0  0  0  0  0
   16.7080  -30.7400   15.6170 C   0  0  0  0  0
   16.9820  -24.4010   13.7790 N   0  0  0  0  0
   18.2000  -23.6390   13.5270 C   0  0  0  0  0
   17.8630  -22.2060   13.1250 C   0  0  0  0  0
   16.7690  -21.9310   12.6340 O   0  0  0  0  0
   19.0120  -24.3050   12.4150 C   0  0  0  0  0
   20.0070  -25.2910   13.0150 C   0  0  0  0  0
   19.6290  -26.0000   13.9330 O   0  0  0  0  0
   21.1350  -25.3230   12.5490 O   0  0  0  0  0
   18.8110  -21.2990   13.3370 N   0  0  0  0  0
   18.6030  -19.8970   12.9940 C   0  0  0  0  0
   19.8000  -19.3510   12.2210 C   0  0  0  0  0
   20.8010  -20.0430   12.0390 O   0  0  0  0  0
   18.3950  -19.0730   14.2660 C   0  0  0  0  0
   17.4860  -19.8250   15.2100 C   0  0  0  0  0
   17.9750  -20.9300   15.9190 C   0  0  0  0  0
   16.1570  -19.4180   15.3750 C   0  0  0  0  0
   17.1330  -21.6260   16.7940 C   0  0  0  0  0
   15.3160  -20.1150   16.2500 C   0  0  0  0  0
   15.8030  -21.2200   16.9590 C   0  0  0  0  0
   14.9730  -21.9070   17.8220 O   0  0  0  0  0
   19.6880  -18.1050   11.7700 N   0  0  0  0  0
   20.7670  -17.4770   11.0180 C   0  0  0  0  0
   21.0100  -16.0550   11.5150 C   0  0  0  0  0
   20.1020  -15.4060   12.0330 O   0  0  0  0  0
   20.4160  -17.4450    9.5290 C   0  0  0  0  0
   21.3010  -16.4170    8.8190 C   0  0  0  0  0
   18.9480  -17.0530    9.3580 C   0  0  0  0  0
   21.2630  -16.6660    7.3110 C   0  0  0  0  0
   22.2400  -15.5780   11.3550 N   0  0  0  0  0
   22.5880  -14.2310   11.7940 C   0  0  0  0  0
   23.9660  -13.8370   11.2710 C   0  0  0  0  0
   24.7230  -13.1430   11.9500 O   0  0  0  0  0
   22.5810  -14.1610   13.3210 C   0  0  0  0  0
   24.2840  -14.2820   10.0600 N   0  0  0  0  0
   25.5750  -13.9680    9.4560 C   0  0  0  0  0
   25.3830  -13.2080    8.1490 C   0  0  0  0  0
   24.5050  -13.5370    7.3510 O   0  0  0  0  0
   26.3550  -15.2580    9.1900 C   0  0  0  0  0
   26.8380  -15.8550   10.5070 C   0  0  0  0  0
   26.0770  -15.8330   11.4600 O   0  0  0  0  0
   27.9630  -16.3260   10.5440 O   0  0  0  0  0
   26.2110  -12.1900    7.9360 N   0  0  0  0  0
   26.1240  -11.3890    6.7200 C   0  0  0  0  0
   27.5130  -10.9520    6.2670 C   0  0  0  0  0
   28.5200  -11.3340    6.8630 O   0  0  0  0  0
   25.2550  -10.1550    6.9710 C   0  0  0  0  0
   25.4390   -9.6950    8.3810 C   0  0  0  0  0
   26.5480   -9.0880    8.8620 C   0  0  0  0  0
   24.5080   -9.7960    9.4990 C   0  0  0  0  0
   26.3570   -8.8090   10.2050 N   0  0  0  0  0
   25.1160   -9.2260   10.6430 C   0  0  0  0  0
   23.2100  -10.3190    9.6300 C   0  0  0  0  0
   24.4590   -9.1780   11.8720 C   0  0  0  0  0
   22.5460  -10.2720   10.8670 C   0  0  0  0  0
   23.1690   -9.7020   11.9850 C   0  0  0  0  0
   27.5600  -10.1500    5.2090 N   0  0  0  0  0
   28.8340   -9.6680    4.6840 C   0  0  0  0  0
   28.7460   -8.1840    4.3430 C   0  0  0  0  0
   27.7870   -7.8010    3.6940 O   0  0  0  0  0
   29.2160  -10.4600    3.4320 C   0  0  0  0  0
   31.0120  -10.4180    3.2170 S   0  0  0  0  0
   29.6380   -7.4520    4.7370 O   0  0  0  0  0
    6.2825  -24.4763   15.5262 H   0  0  0  0  0
    6.1460  -25.7415   16.6020 H   0  0  0  0  0
    5.0923  -25.6235   15.3165 H   0  0  0  0  0
    4.1406  -23.5957   16.2085 H   0  0  0  0  0
    3.1159  -24.6363   18.2577 H   0  0  0  0  0
    4.2762  -25.9777   18.1040 H   0  0  0  0  0
    3.4134  -26.3363   15.7446 H   0  0  0  0  0
    2.1409  -25.1427   16.0946 H   0  0  0  0  0
    0.5259  -27.1227   15.3259 H   0  0  0  0  0
    1.8983  -28.2504   15.2000 H   0  0  0  0  0
    0.4473  -28.7134   16.1226 H   0  0  0  0  0
    5.0699  -21.7618   16.8751 H   0  0  0  0  0
    6.4312  -20.3383   18.1080 H   0  0  0  0  0
    5.4664  -22.0815   20.4156 H   0  0  0  0  0
    4.5025  -20.7908   19.6579 H   0  0  0  0  0
    6.8623  -21.5562   22.2151 H   0  0  0  0  0
    5.6904  -18.4436   19.4679 H   0  0  0  0  0
    8.0015  -19.8660   23.6443 H   0  0  0  0  0
    6.8314  -16.7537   20.8981 H   0  0  0  0  0
    7.9882  -17.4653   22.9840 H   0  0  0  0  0
    7.7827  -22.6357   16.9957 H   0  0  0  0  0
   10.1839  -22.5023   18.6714 H   0  0  0  0  0
    9.5750  -25.3247   18.0727 H   0  0  0  0  0
    8.4292  -24.5909   19.2213 H   0  0  0  0  0
   10.3674  -23.7693   20.5751 H   0  0  0  0  0
   11.4711  -24.6064   19.4569 H   0  0  0  0  0
    9.7519  -26.6351   20.0368 H   0  0  0  0  0
    9.6856  -25.7127   21.5684 H   0  0  0  0  0
   11.8355  -26.4622   22.0480 H   0  0  0  0  0
   12.6694  -27.4466   18.2157 H   0  0  0  0  0
   11.1442  -26.6478   18.6119 H   0  0  0  0  0
   13.7929  -27.4901   21.5266 H   0  0  0  0  0
   11.9745  -23.9033   17.6523 H   0  0  0  0  0
   11.5800  -24.3971   14.7725 H   0  0  0  0  0
   13.9016  -22.6159   15.3428 H   0  0  0  0  0
   12.2905  -21.8503   15.4256 H   0  0  0  0  0
   11.1491  -21.9930   13.6527 H   0  0  0  0  0
   14.3930  -24.2782   14.1518 H   0  0  0  0  0
   15.4927  -26.3427   16.0162 H   0  0  0  0  0
   16.0704  -26.7114   13.1146 H   0  0  0  0  0
   14.3980  -27.0577   13.6166 H   0  0  0  0  0
   13.9122  -28.8113   15.2741 H   0  0  0  0  0
   17.9350  -28.0430   13.9239 H   0  0  0  0  0
   14.6499  -30.9902   16.2317 H   0  0  0  0  0
   18.6731  -30.2199   14.8821 H   0  0  0  0  0
   17.0314  -31.6925   16.0369 H   0  0  0  0  0
   16.2222  -24.3704   13.0992 H   0  0  0  0  0
   18.7888  -23.6179   14.4441 H   0  0  0  0  0
   19.5554  -23.5400   11.8604 H   0  0  0  0  0
   18.3356  -24.8394   11.7479 H   0  0  0  0  0
   21.2049  -24.6811   11.8386 H   0  0  0  0  0
   19.6992  -21.5885   13.7466 H   0  0  0  0  0
   17.7154  -19.8241   12.3656 H   0  0  0  0  0
   17.9405  -18.1162   14.0089 H   0  0  0  0  0
   19.3570  -18.9002   14.7484 H   0  0  0  0  0
   19.0097  -21.2472   15.7894 H   0  0  0  0  0
   15.7772  -18.5587   14.8223 H   0  0  0  0  0
   17.5128  -22.4848   17.3475 H   0  0  0  0  0
   14.2813  -19.7975   16.3797 H   0  0  0  0  0
   14.1026  -21.5020   17.8174 H   0  0  0  0  0
   18.8328  -17.5802   11.9534 H   0  0  0  0  0
   21.6750  -18.0618   11.1652 H   0  0  0  0  0
   20.5821  -18.4316    9.0965 H   0  0  0  0  0
   22.3262  -16.5115    9.1769 H   0  0  0  0  0
   20.9329  -15.4131    9.0307 H   0  0  0  0  0
   18.3169  -17.7833    9.8645 H   0  0  0  0  0
   18.7839  -16.0664    9.7913 H   0  0  0  0  0
   18.7004  -17.0309    8.2967 H   0  0  0  0  0
   21.6311  -17.6701    7.1005 H   0  0  0  0  0
   20.2374  -16.5714    6.9541 H   0  0  0  0  0
   21.8935  -15.9334    6.8071 H   0  0  0  0  0
   22.9522  -16.1631   10.9182 H   0  0  0  0  0
   21.8480  -13.5368   11.3958 H   0  0  0  0  0
   21.5872  -14.4139   13.6905 H   0  0  0  0  0
   23.3088  -14.8680   13.7192 H   0  0  0  0  0
   22.8420  -13.1514   13.6384 H   0  0  0  0  0
   23.6145  -14.8527    9.5438 H   0  0  0  0  0
   26.1367  -13.3410   10.1484 H   0  0  0  0  0
   27.2160  -15.0335    8.5604 H   0  0  0  0  0
   25.7041  -15.9742    8.6885 H   0  0  0  0  0
   28.3759  -16.2334    9.6823 H   0  0  0  0  0
   26.9192  -11.9652    8.6348 H   0  0  0  0  0
   25.6736  -11.9977    5.9360 H   0  0  0  0  0
   24.2079  -10.4080    6.8049 H   0  0  0  0  0
   25.5489   -9.3584    6.2875 H   0  0  0  0  0
   27.4446   -8.8565    8.2871 H   0  0  0  0  0
   22.7156  -10.7638    8.7664 H   0  0  0  0  0
   24.9488   -8.7345   12.7389 H   0  0  0  0  0
   21.5399  -10.6815   10.9576 H   0  0  0  0  0
   22.6478   -9.6675   12.9417 H   0  0  0  0  0
   26.6913   -9.8662    4.7559 H   0  0  0  0  0
   29.5975   -9.8083    5.4492 H   0  0  0  0  0
   27.2171   -8.5478    3.4961 H   0  0  0  0  0
   28.7351  -10.0161    2.5603 H   0  0  0  0  0
   28.8871  -11.4934    3.5412 H   0  0  0  0  0
   31.3428  -11.1068    2.1284 H   0  0  0  0  0
  1  2  1  0  0  0
  2  3  1  0  0  0
  2  5  1  0  0  0
  3  4  2  0  0  0
  3  9  1  0  0  0
  5  6  1  0  0  0
  6  7  1  0  0  0
  7  8  1  0  0  0
  9 10  1  0  0  0
 10 11  1  0  0  0
 10 13  1  0  0  0
 11 12  2  0  0  0
 11 20  1  0  0  0
 13 14  1  0  0  0
 14 15  4  0  0  0
 14 16  4  0  0  0
 15 17  4  0  0  0
 16 18  4  0  0  0
 17 19  4  0  0  0
 18 19  4  0  0  0
 20 21  1  0  0  0
 21 22  1  0  0  0
 21 24  1  0  0  0
 22 23  2  0  0  0
 22 31  1  0  0  0
 24 25  1  0  0  0
 25 26  1  0  0  0
 26 27  1  0  0  0
 27 28  1  0  0  0
 28 29  1  0  0  0
 28 30  2  0  0  0
 31 32  1  0  0  0
 32 33  1  0  0  0
 32 35  1  0  0  0
 33 34  2  0  0  0
 33 39  1  0  0  0
 35 36  1  0  0  0
 36 37  2  0  0  0
 36 38  1  0  0  0
 39 40  1  0  0  0
 40 41  1  0  0  0
 40 43  1  0  0  0
 41 42  2  0  0  0
 41 50  1  0  0  0
 43 44  1  0  0  0
 44 45  4  0  0  0
 44 46  4  0  0  0
 45 47  4  0  0  0
 46 48  4  0  0  0
 47 49  4  0  0  0
 48 49  4  0  0  0
 50 51  1  0  0  0
 51 52  1  0  0  0
 51 54  1  0  0  0
 52 53  2  0  0  0
 52 58  1  0  0  0
 54 55  1  0  0  0
 55 56  2  0  0  0
 55 57  1  0  0  0
 58 59  1  0  0  0
 59 60  1  0  0  0
 59 62  1  0  0  0
 60 61  2  0  0  0
 60 70  1  0  0  0
 62 63  1  0  0  0
 63 64  4  0  0  0
 63 65  4  0  0  0
 64 66  4  0  0  0
 65 67  4  0  0  0
 66 68  4  0  0  0
 67 68  4  0  0  0
 68 69  1  0  0  0
 70 71  1  0  0  0
 71 72  1  0  0  0
 71 74  1  0  0  0
 72 73  2  0  0  0
 72 78  1  0  0  0
 74 75  1  0  0  0
 74 76  1  0  0  0
 75 77  1  0  0  0
 78 79  1  0  0  0
 79 80  1  0  0  0
 79 82  1  0  0  0
 80 81  2  0  0  0
 80 83  1  0  0  0
 83 84  1  0  0  0
 84 85  1  0  0  0
 84 87  1  0  0  0
 85 86  2  0  0  0
 85 91  1  0  0  0
 87 88  1  0  0  0
 88 89  2  0  0  0
 88 90  1  0  0  0
 91 92  1  0  0  0
 92 93  1  0  0  0
 92 95  1  0  0  0
 93 94  2  0  0  0
 93105  1  0  0  0
 95 96  1  0  0  0
 96 97  4  0  0  0
 96 98  4  0  0  0
 97 99  4  0  0  0
 98100  4  0  0  0
 98101  4  0  0  0
 99100  4  0  0  0
100102  4  0  0  0
101103  4  0  0  0
102104  4  0  0  0
103104  4  0  0  0
105106  1  0  0  0
106107  1  0  0  0
106109  1  0  0  0
107108  1  0  0  0
107111  2  0  0  0
109110  1  0  0  0
  1112  1  0  0  0
  1113  1  0  0  0
  1114  1  0  0  0
  2115  1  0  0  0
  5116  1  0  0  0
  5117  1  0  0  0
  6118  1  0  0  0
  6119  1  0  0  0
  8120  1  0  0  0
  8121  1  0  0  0
  8122  1  0  0  0
  9123  1  0  0  0
 10124  1  0  0  0
 13125  1  0  0  0
 13126  1  0  0  0
 15127  1  0  0  0
 16128  1  0  0  0
 17129  1  0  0  0
 18130  1  0  0  0
 19131  1  0  0  0
 20132  1  0  0  0
 21133  1  0  0  0
 24134  1  0  0  0
 24135  1  0  0  0
 25136  1  0  0  0
 25137  1  0  0  0
 26138  1  0  0  0
 26139  1  0  0  0
 27140  1  0  0  0
 29141  1  0  0  0
 29142  1  0  0  0
 30143  1  0  0  0
 31144  1  0  0  0
 32145  1  0  0  0
 35146  1  0  0  0
 35147  1  0  0  0
 38148  1  0  0  0
 39149  1  0  0  0
 40150  1  0  0  0
 43151  1  0  0  0
 43152  1  0  0  0
 45153  1  0  0  0
 46154  1  0  0  0
 47155  1  0  0  0
 48156  1  0  0  0
 49157  1  0  0  0
 50158  1  0  0  0
 51159  1  0  0  0
 54160  1  0  0  0
 54161  1  0  0  0
 57162  1  0  0  0
 58163  1  0  0  0
 59164  1  0  0  0
 62165  1  0  0  0
 62166  1  0  0  0
 64167  1  0  0  0
 65168  1  0  0  0
 66169  1  0  0  0
 67170  1  0  0  0
 69171  1  0  0  0
 70172  1  0  0  0
 71173  1  0  0  0
 74174  1  0  0  0
 75175  1  0  0  0
 75176  1  0  0  0
 76177  1  0  0  0
 76178  1  0  0  0
 76179  1  0  0  0
 77180  1  0  0  0
 77181  1  0  0  0
 77182  1  0  0  0
 78183  1  0  0  0
 79184  1  0  0  0
 82185  1  0  0  0
 82186  1  0  0  0
 82187  1  0  0  0
 83188  1  0  0  0
 84189  1  0  0  0
 87190  1  0  0  0
 87191  1  0  0  0
 90192  1  0  0  0
 91193  1  0  0  0
 92194  1  0  0  0
 95195  1  0  0  0
 95196  1  0  0  0
 97197  1  0  0  0
101198  1  0  0  0
102199  1  0  0  0
103200  1  0  0  0
104201  1  0  0  0
105202  1  0  0  0
106203  1  0  0  0
108204  1  0  0  0
109205  1  0  0  0
109206  1  0  0  0
110207  1  0  0  0
M  END
$$$$
