### 
### Created by X-TOOL on Wed Jan  1 15:39:38 2020
### 

@<TRIPOS>MOLECULE
6gbe_ligand
  205   209     1     0     0
SMALL
GAST_HUCK


@<TRIPOS>ATOM
      1 N           5.6290  -25.0960   16.0050 N.4       1 MET         0.2379
      2 CA          4.7000  -24.2850   16.8410 C.3       1 MET         0.0658
      3 C           5.5050  -23.4880   17.8620 C.2       1 MET         0.2268
      4 O           6.0660  -24.0510   18.8010 O.2       1 MET        -0.3907
      5 CB          3.7200  -25.2150   17.5590 C.3       1 MET         0.0168
      6 CG          2.8070  -25.8870   16.5310 C.3       1 MET         0.0007
      7 SD          1.8260  -27.1720   17.3460 S.3       1 MET        -0.1638
      8 CE          1.1020  -27.8860   15.8490 C.3       1 MET        -0.0181
      9 N           5.5560  -22.1730   17.6720 N.am      1 PHE        -0.2592
     10 CA          6.2960  -21.3090   18.5850 C.3       1 PHE         0.1406
     11 C           7.6660  -21.9030   18.8900 C.2       1 PHE         0.2060
     12 O           8.1770  -21.7710   20.0030 O.2       1 PHE        -0.3942
     13 CB          5.5130  -21.1300   19.8860 C.3       1 PHE         0.0214
     14 CG          6.2040  -20.1050   20.7530 C.ar      1 PHE        -0.0386
     15 CD1         6.8550  -20.5050   21.9270 C.ar      1 PHE        -0.0601
     16 CD2         6.1960  -18.7550   20.3820 C.ar      1 PHE        -0.0601
     17 CE1         7.4960  -19.5550   22.7300 C.ar      1 PHE        -0.0686
     18 CE2         6.8380  -17.8050   21.1860 C.ar      1 PHE        -0.0686
     19 CZ          7.4880  -18.2050   22.3590 C.ar      1 PHE        -0.0687
     20 N           8.2560  -22.5590   17.8960 N.am      1 ARG        -0.2636
     21 CA          9.5680  -23.1710   18.0700 C.3       1 ARG         0.1311
     22 C          10.2440  -23.3810   16.7190 C.2       1 ARG         0.2040
     23 O           9.6250  -23.1970   15.6700 O.2       1 ARG        -0.3944
     24 CB          9.4260  -24.5150   18.7870 C.3       1 ARG        -0.0092
     25 CG         10.4740  -24.6160   19.8970 C.3       1 ARG        -0.0156
     26 CD         10.2720  -25.9190   20.6730 C.3       1 ARG         0.0627
     27 NE         11.5600  -26.4790   21.0660 N.pl3     1 ARG        -0.2723
     28 CZ         12.3810  -27.0110   20.1660 C.cat     1 ARG         0.2882
     29 NH1        12.0400  -27.0370   18.9060 N.pl3     1 ARG        -0.2849
     30 NH2        13.5270  -27.5090   20.5420 N.pl3     1 ARG        -0.2849
     31 N          11.5150  -23.7670   16.7520 N.am      1 ASP        -0.2622
     32 CA         12.2640  -23.9990   15.5220 C.3       1 ASP         0.1423
     33 C          13.3800  -25.0100   15.7570 C.2       1 ASP         0.2057
     34 O          13.3190  -25.8140   16.6880 O.2       1 ASP        -0.3943
     35 CB         12.8630  -22.6840   15.0190 C.3       1 ASP         0.0406
     36 CG         12.8080  -22.6350   13.4960 C.2       1 ASP         0.0393
     37 OD1        13.7900  -23.0060   12.8750 O.co2     1 ASP        -0.5688
     38 OD2        11.7840  -22.2280   12.9720 O.co2     1 ASP        -0.5688
     39 N          14.3990  -24.9660   14.9050 N.am      1 PHE        -0.2618
     40 CA         15.5260  -25.8840   15.0280 C.3       1 PHE         0.1404
     41 C          16.8450  -25.1340   14.8780 C.2       1 PHE         0.2060
     42 O          17.7210  -25.2200   15.7390 O.2       1 PHE        -0.3942
     43 CB         15.4300  -26.9730   13.9570 C.3       1 PHE         0.0214
     44 CG         15.8780  -28.2930   14.5390 C.ar      1 PHE        -0.0386
     45 CD1        14.9540  -29.1200   15.1880 C.ar      1 PHE        -0.0601
     46 CD2        17.2160  -28.6880   14.4290 C.ar      1 PHE        -0.0601
     47 CE1        15.3690  -30.3450   15.7270 C.ar      1 PHE        -0.0686
     48 CE2        17.6310  -29.9120   14.9680 C.ar      1 PHE        -0.0686
     49 CZ         16.7080  -30.7400   15.6170 C.ar      1 PHE        -0.0687
     50 N          16.9820  -24.4010   13.7790 N.am      1 ASP        -0.2620
     51 CA         18.2000  -23.6390   13.5270 C.3       1 ASP         0.1423
     52 C          17.8630  -22.2060   13.1250 C.2       1 ASP         0.2057
     53 O          16.7690  -21.9310   12.6340 O.2       1 ASP        -0.3943
     54 CB         19.0120  -24.3050   12.4150 C.3       1 ASP         0.0406
     55 CG         20.0070  -25.2910   13.0150 C.2       1 ASP         0.0393
     56 OD1        19.6290  -26.0000   13.9330 O.co2     1 ASP        -0.5688
     57 OD2        21.1350  -25.3230   12.5490 O.co2     1 ASP        -0.5688
     58 N          18.8110  -21.2990   13.3370 N.am      1 TYR        -0.2620
     59 CA         18.6030  -19.8970   12.9940 C.3       1 TYR         0.1390
     60 C          19.8000  -19.3510   12.2210 C.2       1 TYR         0.2057
     61 O          20.8010  -20.0430   12.0390 O.2       1 TYR        -0.3942
     62 CB         18.3950  -19.0730   14.2660 C.3       1 TYR         0.0163
     63 CG         17.4860  -19.8250   15.2100 C.ar      1 TYR        -0.0493
     64 CD1        17.9750  -20.9300   15.9190 C.ar      1 TYR        -0.0685
     65 CD2        16.1570  -19.4180   15.3750 C.ar      1 TYR        -0.0685
     66 CE1        17.1330  -21.6260   16.7940 C.ar      1 TYR        -0.0398
     67 CE2        15.3160  -20.1150   16.2500 C.ar      1 TYR        -0.0398
     68 CZ         15.8030  -21.2200   16.9590 C.ar      1 TYR         0.0805
     69 OH         14.9730  -21.9070   17.8220 O.3       1 TYR        -0.3376
     70 N          19.6880  -18.1050   11.7700 N.am      1 ILE        -0.2633
     71 CA         20.7670  -17.4770   11.0180 C.3       1 ILE         0.1335
     72 C          21.0100  -16.0550   11.5150 C.2       1 ILE         0.2041
     73 O          20.1020  -15.4060   12.0330 O.2       1 ILE        -0.3944
     74 CB         20.4160  -17.4450    9.5290 C.3       1 ILE        -0.0037
     75 CG1        21.3010  -16.4170    8.8190 C.3       1 ILE        -0.0491
     76 CG2        18.9480  -17.0530    9.3580 C.3       1 ILE        -0.0582
     77 CD1        21.2630  -16.6660    7.3110 C.3       1 ILE        -0.0648
     78 N          22.2400  -15.5780   11.3550 N.am      1 ALA        -0.2640
     79 CA         22.5880  -14.2310   11.7940 C.3       1 ALA         0.1282
     80 C          23.9660  -13.8370   11.2710 C.2       1 ALA         0.2037
     81 O          24.7230  -13.1430   11.9500 O.2       1 ALA        -0.3944
     82 CB         22.5810  -14.1610   13.3210 C.3       1 ALA        -0.0244
     83 N          24.2840  -14.2820   10.0600 N.am      1 ASP        -0.2622
     84 CA         25.5750  -13.9680    9.4560 C.3       1 ASP         0.1423
     85 C          25.3830  -13.2080    8.1490 C.2       1 ASP         0.2057
     86 O          24.5050  -13.5370    7.3510 O.2       1 ASP        -0.3943
     87 CB         26.3550  -15.2580    9.1900 C.3       1 ASP         0.0406
     88 CG         26.8380  -15.8550   10.5070 C.2       1 ASP         0.0393
     89 OD1        26.0770  -15.8330   11.4600 O.co2     1 ASP        -0.5688
     90 OD2        27.9630  -16.3260   10.5440 O.co2     1 ASP        -0.5688
     91 N          26.2110  -12.1900    7.9360 N.am      1 TRP        -0.2626
     92 CA         26.1240  -11.3890    6.7200 C.3       1 TRP         0.1351
     93 C          27.5130  -10.9520    6.2670 C.2       1 TRP         0.2046
     94 O          28.5200  -11.3340    6.8630 O.2       1 TRP        -0.3943
     95 CB         25.2550  -10.1550    6.9710 C.3       1 TRP         0.0042
     96 CG         25.4390   -9.6950    8.3810 C.2       1 TRP        -0.0418
     97 CD1        26.5480   -9.0880    8.8620 C.2       1 TRP         0.0167
     98 CD2        24.5080   -9.7960    9.4990 C.ar      1 TRP        -0.0214
     99 NE1        26.3570   -8.8090   10.2050 N.pl3     1 TRP        -0.2890
    100 CE2        25.1160   -9.2260   10.6430 C.ar      1 TRP         0.0603
    101 CE3        23.2100  -10.3190    9.6300 C.ar      1 TRP        -0.0747
    102 CZ2        24.4590   -9.1780   11.8720 C.ar      1 TRP        -0.0443
    103 CZ3        22.5460  -10.2720   10.8670 C.ar      1 TRP        -0.0792
    104 CH2        23.1690   -9.7020   11.9850 C.ar      1 TRP        -0.0768
    105 N          27.5600  -10.1500    5.2090 N.am      1 CYS        -0.2686
    106 CA         28.8340   -9.6680    4.6840 C.3       1 CYS         0.1031
    107 C          28.7460   -8.1840    4.3430 C.2       1 CYS         0.0609
    108 O          27.7870   -7.8010    3.6940 O.co2     1 CYS        -0.5666
    109 CB         29.2160  -10.4600    3.4320 C.3       1 CYS         0.0256
    110 SG         31.0120  -10.4180    3.2170 S.3       1 CYS        -0.1742
    111 OXT        29.6380   -7.4520    4.7370 O.co2     1 CYS        -0.5666
    112 H1          5.0990  -25.6238   15.3293 H         1 MET         0.2015
    113 H2          6.1462  -25.7290   16.5949 H         1 MET         0.2015
    114 H3          6.2703  -24.4840   15.5252 H         1 MET         0.2015
    115 H4          4.1388  -23.5913   16.1977 H         1 MET         0.1098
    116 H5          3.1104  -24.6311   18.2643 H         1 MET         0.0354
    117 H6          4.2812  -25.9846   18.1092 H         1 MET         0.0354
    118 H7          3.4192  -26.3407   15.7377 H         1 MET         0.0380
    119 H8          2.1346  -25.1359   16.0910 H         1 MET         0.0380
    120 H9          0.4410  -28.7212   16.1238 H         1 MET         0.0340
    121 H10         1.9046  -28.2542   15.1931 H         1 MET         0.0340
    122 H11         0.5202  -27.1167   15.3202 H         1 MET         0.0340
    123 H12         5.0794  -21.7699   16.8907 H         1 PHE         0.1886
    124 H13         6.4318  -20.3257   18.1110 H         1 PHE         0.0823
    125 H14         5.4658  -22.0902   20.4205 H         1 PHE         0.0474
    126 H15         4.4932  -20.7878   19.6560 H         1 PHE         0.0474
    127 H16         6.8622  -21.5504   22.2135 H         1 PHE         0.0557
    128 H17         5.6932  -18.4453   19.4730 H         1 PHE         0.0557
    129 H18         7.9987  -19.8643   23.6392 H         1 PHE         0.0599
    130 H19         6.8315  -16.7595   20.8997 H         1 PHE         0.0599
    131 H20         7.9855  -17.4693   22.9806 H         1 PHE         0.0559
    132 H21         7.7920  -22.6342   17.0133 H         1 ARG         0.1883
    133 H22        10.1930  -22.5032   18.6811 H         1 ARG         0.0800
    134 H23         9.5758  -25.3324   18.0663 H         1 ARG         0.0313
    135 H24         8.4199  -24.5921   19.2250 H         1 ARG         0.0313
    136 H25        10.3667  -23.7615   20.5813 H         1 ARG         0.0301
    137 H26        11.4803  -24.6061   19.4530 H         1 ARG         0.0301
    138 H27         9.7411  -26.6420   20.0363 H         1 ARG         0.0689
    139 H28         9.6746  -25.7159   21.5740 H         1 ARG         0.0689
    140 H29        11.8382  -26.4620   22.0576 H         1 ARG         0.2642
    141 H30        12.6762  -27.4492   18.2087 H         1 ARG         0.2615
    142 H31        11.1348  -26.6453   18.6093 H         1 ARG         0.2615
    143 H32        13.7961  -27.4886   21.5360 H         1 ARG         0.2615
    144 H33        14.1624  -27.9225   19.8448 H         1 ARG         0.2615
    145 H34        11.9655  -23.9007   17.6347 H         1 ASP         0.1884
    146 H35        11.5785  -24.3959   14.7587 H         1 ASP         0.0819
    147 H36        13.9100  -22.6111   15.3482 H         1 ASP         0.0478
    148 H37        12.2893  -21.8410   15.4315 H         1 ASP         0.0478
    149 H38        14.3931  -24.2917   14.1666 H         1 PHE         0.1885
    150 H39        15.4944  -26.3545   16.0218 H         1 PHE         0.0823
    151 H40        16.0762  -26.7091   13.1068 H         1 PHE         0.0474
    152 H41        14.3886  -27.0585   13.6134 H         1 PHE         0.0474
    153 H42        13.9179  -28.8130   15.2736 H         1 PHE         0.0557
    154 H43        17.9310  -28.0466   13.9266 H         1 PHE         0.0557
    155 H44        14.6539  -30.9867   16.2289 H         1 PHE         0.0599
    156 H45        18.6673  -30.2182   14.8826 H         1 PHE         0.0599
    157 H46        17.0296  -31.6872   16.0346 H         1 PHE         0.0559
    158 H47        16.2370  -24.3710   13.1126 H         1 ASP         0.1884
    159 H48        18.8022  -23.6184   14.4473 H         1 ASP         0.0819
    160 H49        19.5580  -23.5344   11.8511 H         1 ASP         0.0478
    161 H50        18.3310  -24.8414   11.7379 H         1 ASP         0.0478
    162 H51        19.6818  -21.5828   13.7386 H         1 TYR         0.1885
    163 H52        17.7051  -19.8156   12.3638 H         1 TYR         0.0821
    164 H53        17.9363  -18.1075   14.0066 H         1 TYR         0.0453
    165 H54        19.3658  -18.8987   14.7529 H         1 TYR         0.0453
    166 H55        19.0040  -21.2455   15.7901 H         1 TYR         0.0530
    167 H56        15.7793  -18.5634   14.8254 H         1 TYR         0.0530
    168 H57        17.5108  -22.4801   17.3444 H         1 TYR         0.0525
    169 H58        14.2870  -19.7993   16.3789 H         1 TYR         0.0525
    170 H59        15.4543  -22.6230   18.2196 H         1 TYR         0.2458
    171 H60        18.8496  -17.5904   11.9498 H         1 ILE         0.1883
    172 H61        21.6859  -18.0653   11.1573 H         1 ILE         0.0803
    173 H62        20.5839  -18.4399    9.0909 H         1 ILE         0.0345
    174 H63        22.3356  -16.5122    9.1802 H         1 ILE         0.0267
    175 H64        20.9297  -15.4038    9.0327 H         1 ILE         0.0267
    176 H65        18.3099  -17.7902    9.8673 H         1 ILE         0.0235
    177 H66        18.6973  -17.0287    8.2872 H         1 ILE         0.0235
    178 H67        18.7806  -16.0582    9.7965 H         1 ILE         0.0235
    179 H68        21.8989  -15.9272    6.8013 H         1 ILE         0.0230
    180 H69        20.2285  -16.5707    6.9496 H         1 ILE         0.0230
    181 H70        21.6343  -17.6791    7.0971 H         1 ILE         0.0230
    182 H71        22.9383  -16.1516   10.9268 H         1 ALA         0.1883
    183 H72        21.8420  -13.5254   11.3996 H         1 ALA         0.0797
    184 H73        22.8443  -13.1425   13.6425 H         1 ALA         0.0277
    185 H74        23.3152  -14.8740   13.7241 H         1 ALA         0.0277
    186 H75        21.5785  -14.4159   13.6952 H         1 ALA         0.0277
    187 H76        23.6276  -14.8415    9.5539 H         1 ASP         0.1884
    188 H77        26.1492  -13.3394   10.1525 H         1 ASP         0.0819
    189 H78        27.2223  -15.0344    8.5514 H         1 ASP         0.0478
    190 H79        25.7010  -15.9809    8.6803 H         1 ASP         0.0478
    191 H80        26.9053  -11.9696    8.6211 H         1 TRP         0.1884
    192 H81        25.6645  -11.9963    5.9262 H         1 TRP         0.0815
    193 H82        24.1983  -10.4104    6.8036 H         1 TRP         0.0397
    194 H83        25.5517   -9.3511    6.2813 H         1 TRP         0.0397
    195 H84        27.4438   -8.8567    8.2876 H         1 TRP         0.0795
    196 H85        27.0558   -8.3467   10.8041 H         1 TRP         0.2216
    197 H86        22.7183  -10.7614    8.7712 H         1 TRP         0.0540
    198 H87        24.9461   -8.7369   12.7341 H         1 TRP         0.0541
    199 H88        21.5455  -10.6792   10.9571 H         1 TRP         0.0510
    200 H89        22.6507   -9.6676   12.9364 H         1 TRP         0.0530
    201 H90        26.7084   -9.8718    4.7648 H         1 CYS         0.1876
    202 H91        29.6105   -9.8120    5.4497 H         1 CYS         0.0734
    203 H92        28.7308  -10.0119    2.5523 H         1 CYS         0.0415
    204 H93        28.8842  -11.5029    3.5423 H         1 CYS         0.0415
    205 H94        31.3149   -9.4619    3.1161 H         1 CYS         0.1018
@<TRIPOS>BOND
     1    1    2 1  
     2    2    3 1  
     3    2    5 1  
     4    3    4 2  
     5    3    9 am 
     6    5    6 1  
     7    6    7 1  
     8    7    8 1  
     9    9   10 1  
    10   10   11 1  
    11   10   13 1  
    12   11   12 2  
    13   11   20 am 
    14   13   14 1  
    15   14   15 ar 
    16   14   16 ar 
    17   15   17 ar 
    18   16   18 ar 
    19   17   19 ar 
    20   18   19 ar 
    21   20   21 1  
    22   21   22 1  
    23   21   24 1  
    24   22   23 2  
    25   22   31 am 
    26   24   25 1  
    27   25   26 1  
    28   26   27 1  
    29   27   28 ar 
    30   28   29 ar 
    31   28   30 ar 
    32   31   32 1  
    33   32   33 1  
    34   32   35 1  
    35   33   34 2  
    36   33   39 am 
    37   35   36 1  
    38   36   37 ar 
    39   36   38 ar 
    40   39   40 1  
    41   40   41 1  
    42   40   43 1  
    43   41   42 2  
    44   41   50 am 
    45   43   44 1  
    46   44   45 ar 
    47   44   46 ar 
    48   45   47 ar 
    49   46   48 ar 
    50   47   49 ar 
    51   48   49 ar 
    52   50   51 1  
    53   51   52 1  
    54   51   54 1  
    55   52   53 2  
    56   52   58 am 
    57   54   55 1  
    58   55   56 ar 
    59   55   57 ar 
    60   58   59 1  
    61   59   60 1  
    62   59   62 1  
    63   60   61 2  
    64   60   70 am 
    65   62   63 1  
    66   63   64 ar 
    67   63   65 ar 
    68   64   66 ar 
    69   65   67 ar 
    70   66   68 ar 
    71   67   68 ar 
    72   68   69 1  
    73   70   71 1  
    74   71   72 1  
    75   71   74 1  
    76   72   73 2  
    77   72   78 am 
    78   74   75 1  
    79   74   76 1  
    80   75   77 1  
    81   78   79 1  
    82   79   80 1  
    83   79   82 1  
    84   80   81 2  
    85   80   83 am 
    86   83   84 1  
    87   84   85 1  
    88   84   87 1  
    89   85   86 2  
    90   85   91 am 
    91   87   88 1  
    92   88   89 ar 
    93   88   90 ar 
    94   91   92 1  
    95   92   93 1  
    96   92   95 1  
    97   93   94 2  
    98   93  105 am 
    99   95   96 1  
   100   96   97 2  
   101   96   98 1  
   102   97   99 1  
   103   98  100 ar 
   104   98  101 ar 
   105   99  100 1  
   106  100  102 ar 
   107  101  103 ar 
   108  102  104 ar 
   109  103  104 ar 
   110  105  106 1  
   111  106  107 1  
   112  106  109 1  
   113  107  108 ar 
   114  107  111 ar 
   115  109  110 1  
   116    1  112 1  
   117    1  113 1  
   118    1  114 1  
   119    2  115 1  
   120    5  116 1  
   121    5  117 1  
   122    6  118 1  
   123    6  119 1  
   124    8  120 1  
   125    8  121 1  
   126    8  122 1  
   127    9  123 1  
   128   10  124 1  
   129   13  125 1  
   130   13  126 1  
   131   15  127 1  
   132   16  128 1  
   133   17  129 1  
   134   18  130 1  
   135   19  131 1  
   136   20  132 1  
   137   21  133 1  
   138   24  134 1  
   139   24  135 1  
   140   25  136 1  
   141   25  137 1  
   142   26  138 1  
   143   26  139 1  
   144   27  140 1  
   145   29  141 1  
   146   29  142 1  
   147   30  143 1  
   148   30  144 1  
   149   31  145 1  
   150   32  146 1  
   151   35  147 1  
   152   35  148 1  
   153   39  149 1  
   154   40  150 1  
   155   43  151 1  
   156   43  152 1  
   157   45  153 1  
   158   46  154 1  
   159   47  155 1  
   160   48  156 1  
   161   49  157 1  
   162   50  158 1  
   163   51  159 1  
   164   54  160 1  
   165   54  161 1  
   166   58  162 1  
   167   59  163 1  
   168   62  164 1  
   169   62  165 1  
   170   64  166 1  
   171   65  167 1  
   172   66  168 1  
   173   67  169 1  
   174   69  170 1  
   175   70  171 1  
   176   71  172 1  
   177   74  173 1  
   178   75  174 1  
   179   75  175 1  
   180   76  176 1  
   181   76  177 1  
   182   76  178 1  
   183   77  179 1  
   184   77  180 1  
   185   77  181 1  
   186   78  182 1  
   187   79  183 1  
   188   82  184 1  
   189   82  185 1  
   190   82  186 1  
   191   83  187 1  
   192   84  188 1  
   193   87  189 1  
   194   87  190 1  
   195   91  191 1  
   196   92  192 1  
   197   95  193 1  
   198   95  194 1  
   199   97  195 1  
   200   99  196 1  
   201  101  197 1  
   202  102  198 1  
   203  103  199 1  
   204  104  200 1  
   205  105  201 1  
   206  106  202 1  
   207  109  203 1  
   208  109  204 1  
   209  110  205 1  
@<TRIPOS>SUBSTRUCTURE
     1 MET         1

