1rp7_ligand
  -I-interpret- 

 45 46  0  0  0  0  0  0  0  0999 V2000
   26.8550  -36.6420    7.9760 N   0  0  0  0  0
   27.5730  -37.5100    8.7760 C   0  0  0  0  0
   27.5250  -38.9560    8.4210 C   0  0  0  0  0
   28.3060  -37.1010    9.8140 N   0  0  0  0  0
   28.3570  -35.7320   10.1070 C   0  0  0  0  0
   29.1190  -35.3850   11.1210 N   0  0  0  0  0
   27.5980  -34.7660    9.2700 C   0  0  0  0  0
   26.8740  -35.2860    8.2260 C   0  0  0  0  0
   27.5830  -33.2690    9.4980 C   0  0  0  0  0
   26.9290  -32.8530   10.8070 N   0  0  0  0  0
   27.6390  -32.5760   11.9350 C   0  0  0  0  0
   28.8740  -32.6730   12.0850 O   0  0  0  0  0
   26.5460  -32.0710   13.2170 S   0  0  0  0  0
   25.1530  -32.2660   12.1810 C   0  0  0  0  0
   25.5170  -32.6810   10.9290 C   0  0  0  0  0
   24.5980  -32.9440    9.7640 C   0  0  0  0  0
   23.7660  -32.0640   12.7000 C   0  0  0  0  0
   23.5580  -32.7590   14.0120 C   0  0  0  0  0
   22.1430  -32.8900   14.2210 O   0  0  0  0  0
   21.5720  -33.7640   15.4290 P   0  0  0  0  0
   22.3700  -33.2020   16.6960 O   0  0  0  0  0
   20.1370  -33.4400   15.5840 O   0  0  0  0  0
   21.9760  -35.1850   15.2240 O   0  0  0  0  0
   22.3160  -31.8670   17.5750 P   0  0  0  0  0
   22.3320  -32.3180   19.0680 O   0  0  0  0  0
   23.5540  -31.1030   17.2820 O   0  0  0  0  0
   21.0240  -31.2100   17.2810 O   0  0  0  0  0
   26.4932  -39.3049    8.4625 H   0  0  0  0  0
   27.9165  -39.0946    7.4132 H   0  0  0  0  0
   28.1303  -39.5228    9.1285 H   0  0  0  0  0
   29.6297  -36.0975   11.6425 H   0  0  0  0  0
   29.1994  -34.4033   11.3861 H   0  0  0  0  0
   26.3040  -34.6151    7.5832 H   0  0  0  0  0
   27.0037  -32.8232    8.6895 H   0  0  0  0  0
   28.6201  -32.9354    9.5327 H   0  0  0  0  0
   23.8896  -33.7280   10.0315 H   0  0  0  0  0
   24.0557  -32.0312    9.5174 H   0  0  0  0  0
   25.1863  -33.2624    8.9034 H   0  0  0  0  0
   23.0647  -32.4795   11.9764 H   0  0  0  0  0
   23.6070  -30.9959   12.8482 H   0  0  0  0  0
   24.0079  -32.1828   14.8205 H   0  0  0  0  0
   24.0307  -33.7411   13.9987 H   0  0  0  0  0
   22.9310  -35.2362   15.1408 H   0  0  0  0  0
   23.1693  -32.7451   19.2631 H   0  0  0  0  0
   24.3191  -31.6341   17.5147 H   0  0  0  0  0
  1  2  4  0  0  0
  1  8  4  0  0  0
  2  3  1  0  0  0
  2  4  4  0  0  0
  4  5  4  0  0  0
  5  6  1  0  0  0
  5  7  4  0  0  0
  7  8  4  0  0  0
  7  9  1  0  0  0
  9 10  1  0  0  0
 10 11  1  0  0  0
 10 15  1  0  0  0
 11 12  2  0  0  0
 11 13  1  0  0  0
 13 14  1  0  0  0
 14 15  2  0  0  0
 14 17  1  0  0  0
 15 16  1  0  0  0
 17 18  1  0  0  0
 18 19  1  0  0  0
 19 20  1  0  0  0
 20 21  1  0  0  0
 20 22  2  0  0  0
 20 23  1  0  0  0
 21 24  1  0  0  0
 24 25  1  0  0  0
 24 26  1  0  0  0
 24 27  2  0  0  0
  3 28  1  0  0  0
  3 29  1  0  0  0
  3 30  1  0  0  0
  6 31  1  0  0  0
  6 32  1  0  0  0
  8 33  1  0  0  0
  9 34  1  0  0  0
  9 35  1  0  0  0
 16 36  1  0  0  0
 16 37  1  0  0  0
 16 38  1  0  0  0
 17 39  1  0  0  0
 17 40  1  0  0  0
 18 41  1  0  0  0
 18 42  1  0  0  0
 23 43  1  0  0  0
 25 44  1  0  0  0
 26 45  1  0  0  0
M  END
$$$$
