6d4s_ligand
  -I-interpret- 

 48 51  0  0  0  0  0  0  0  0999 V2000
  133.3620   76.8090   -6.3090 C   0  0  0  0  0
  132.9570   75.9750   -7.4750 N   0  0  0  0  0
  131.8580   76.3540   -8.2890 C   0  0  0  0  0
  133.6160   74.7730   -7.8160 C   0  0  0  0  0
  129.2160   72.3380   -8.1200 C   0  0  0  0  0
  129.4380   71.2780   -7.1570 C   0  0  0  0  0
  130.8110   69.5510   -6.1190 C   0  0  0  0  0
  128.6380   69.8760   -5.3310 C   0  0  0  0  0
  127.2140   71.5950   -6.3250 C   0  0  0  0  0
  135.6190   76.2920   -0.5350 Cl  0  0  0  0  0
  135.4770   77.1970   -2.0560 C   0  0  0  0  0
  135.8110   78.5420   -2.1500 C   0  0  0  0  0
  135.6830   79.1830   -3.3780 C   0  0  0  0  0
  135.2200   78.4530   -4.5380 C   0  0  0  0  0
  134.9010   77.1340   -4.4200 C   0  0  0  0  0
  135.0280   76.4850   -3.1760 C   0  0  0  0  0
  134.6060   74.7970   -3.0200 Cl  0  0  0  0  0
  134.4630   76.3770   -5.5200 N   0  0  0  0  0
  132.7290   77.8710   -6.0290 O   0  0  0  0  0
  130.8010   75.2740   -8.2030 C   0  0  0  0  0
  131.4050   74.0070   -8.5400 N   0  0  0  0  0
  132.6020   73.6390   -7.7760 C   0  0  0  0  0
  130.4460   72.8540   -9.2750 S   0  0  0  0  0
  129.7950   73.4330  -10.4410 O   0  0  0  0  0
  131.2390   71.8020   -9.7690 O   0  0  0  0  0
  130.6580   70.5690   -7.0590 C   0  0  0  0  0
  129.8030   69.2260   -5.2730 N   0  0  0  0  0
  128.4430   70.9300   -6.2950 C   0  0  0  0  0
  127.0040   72.6190   -7.2510 C   0  0  0  0  0
  128.0210   72.9780   -8.1400 C   0  0  0  0  0
  132.1842   76.4736   -9.3221 H   0  0  0  0  0
  131.4488   77.3032   -7.9430 H   0  0  0  0  0
  134.4220   74.5768   -7.1089 H   0  0  0  0  0
  134.0448   74.8539   -8.8148 H   0  0  0  0  0
  131.7548   69.0085   -6.0635 H   0  0  0  0  0
  127.8321   69.6089   -4.6474 H   0  0  0  0  0
  126.4232   71.3156   -5.6289 H   0  0  0  0  0
  136.1676   79.0864   -1.2757 H   0  0  0  0  0
  135.9327   80.2403   -3.4666 H   0  0  0  0  0
  135.1270   78.9555   -5.5008 H   0  0  0  0  0
  134.9408   75.5071   -5.7552 H   0  0  0  0  0
  129.9899   75.4937   -8.8973 H   0  0  0  0  0
  130.3948   75.2333   -7.1923 H   0  0  0  0  0
  132.3208   73.4466   -6.7406 H   0  0  0  0  0
  133.0464   72.7457   -8.2150 H   0  0  0  0  0
  131.4847   70.8205   -7.7234 H   0  0  0  0  0
  126.0463   73.1387   -7.2805 H   0  0  0  0  0
  127.8515   73.7812   -8.8571 H   0  0  0  0  0
  2  1  1  0  0  0
  1 18  1  0  0  0
  1 19  2  0  0  0
  3  2  1  0  0  0
  4  2  1  0  0  0
 20  3  1  0  0  0
 22  4  1  0  0  0
  5  6  4  0  0  0
 23  5  1  0  0  0
  5 30  4  0  0  0
  6 26  4  0  0  0
  6 28  4  0  0  0
 26  7  4  0  0  0
  7 27  4  0  0  0
  8 27  4  0  0  0
 28  8  4  0  0  0
 28  9  4  0  0  0
  9 29  4  0  0  0
 11 10  1  0  0  0
 11 12  4  0  0  0
 16 11  4  0  0  0
 13 12  4  0  0  0
 14 13  4  0  0  0
 15 14  4  0  0  0
 15 16  4  0  0  0
 18 15  1  0  0  0
 16 17  1  0  0  0
 21 20  1  0  0  0
 21 22  1  0  0  0
 21 23  1  0  0  0
 23 24  2  0  0  0
 23 25  2  0  0  0
 29 30  4  0  0  0
  3 31  1  0  0  0
  3 32  1  0  0  0
  4 33  1  0  0  0
  4 34  1  0  0  0
  7 35  1  0  0  0
  8 36  1  0  0  0
  9 37  1  0  0  0
 12 38  1  0  0  0
 13 39  1  0  0  0
 14 40  1  0  0  0
 18 41  1  0  0  0
 20 42  1  0  0  0
 20 43  1  0  0  0
 22 44  1  0  0  0
 22 45  1  0  0  0
 26 46  1  0  0  0
 29 47  1  0  0  0
 30 48  1  0  0  0
M  END
$$$$
