4qkx_ligand
  -I-interpret- 

 52 53  0  0  0  0  0  0  0  0999 V2000
    0.5780  -21.6680  -48.7310 C   0  0  0  0  0
   -0.6380  -22.1000  -48.2160 C   0  0  0  0  0
   -1.8080  -21.9430  -48.8930 O   0  0  0  0  0
   -0.7100  -22.7180  -46.9720 C   0  0  0  0  0
   -1.9390  -23.1080  -46.5420 O   0  0  0  0  0
    0.4310  -22.9200  -46.2130 C   0  0  0  0  0
    1.6470  -22.4900  -46.7280 C   0  0  0  0  0
    1.7240  -21.8820  -47.9770 C   0  0  0  0  0
    2.9650  -21.4610  -48.4410 C   0  0  0  0  0
    3.9410  -21.3690  -47.3910 O   0  0  0  0  0
    3.5300  -22.3030  -49.5950 C   0  0  0  0  0
    4.8300  -21.6600  -49.7810 N   0  3  0  0  0
    5.8110  -21.9220  -50.8440 C   0  0  0  0  0
    5.2770  -21.6450  -52.2570 C   0  0  0  0  0
    6.3590  -21.7330  -53.1380 C   0  0  0  0  0
    7.5840  -21.2580  -52.6780 C   0  0  0  0  0
    8.6930  -21.2740  -53.5010 C   0  0  0  0  0
    9.9210  -20.8530  -53.0970 O   0  0  0  0  0
    9.9250  -20.4050  -51.7350 C   0  0  0  0  0
    6.2480  -22.2190  -54.4420 C   0  0  0  0  0
    7.3690  -22.2420  -55.2670 C   0  0  0  0  0
    8.5870  -21.7750  -54.7910 C   0  0  0  0  0
    9.7290  -21.7700  -55.5310 O   0  0  0  0  0
    9.4850  -22.3090  -56.8330 C   0  0  0  0  0
   10.7450  -23.0220  -57.3390 C   0  0  0  0  0
   12.1790  -21.8920  -57.4270 S   0  0  0  0  0
    0.6308  -21.1742  -49.7013 H   0  0  0  0  0
   -2.5288  -22.3044  -48.3720 H   0  0  0  0  0
   -1.8591  -23.5183  -45.6778 H   0  0  0  0  0
    0.3759  -23.4035  -45.2377 H   0  0  0  0  0
    2.5563  -22.6312  -46.1438 H   0  0  0  0  0
    2.7694  -20.4648  -48.8379 H   0  0  0  0  0
    4.7780  -21.0758  -47.7585 H   0  0  0  0  0
    2.9051  -22.3123  -50.4880 H   0  0  0  0  0
    3.5867  -23.3705  -49.3821 H   0  0  0  0  0
    5.3350  -21.9868  -48.9572 H   0  0  0  0  0
    4.5512  -20.7029  -49.9970 H   0  0  0  0  0
    6.0710  -22.9794  -50.7948 H   0  0  0  0  0
    6.6574  -21.2555  -50.6785 H   0  0  0  0  0
    4.8237  -20.6550  -52.3066 H   0  0  0  0  0
    4.5077  -22.3698  -52.5234 H   0  0  0  0  0
    7.6684  -20.8712  -51.6624 H   0  0  0  0  0
    9.2304  -19.5721  -51.6258 H   0  0  0  0  0
    9.6182  -21.2234  -51.0838 H   0  0  0  0  0
   10.9294  -20.0801  -51.4637 H   0  0  0  0  0
    5.2881  -22.5788  -54.8124 H   0  0  0  0  0
    7.2909  -22.6257  -56.2842 H   0  0  0  0  0
    9.2269  -21.5006  -57.5171 H   0  0  0  0  0
    8.6616  -23.0214  -56.7816 H   0  0  0  0  0
   10.5449  -23.3988  -58.3420 H   0  0  0  0  0
   10.9855  -23.8258  -56.6431 H   0  0  0  0  0
   13.2407  -22.5593  -57.8701 H   0  0  0  0  0
  1  2  4  0  0  0
  1  8  4  0  0  0
  2  3  1  0  0  0
  2  4  4  0  0  0
  4  5  1  0  0  0
  4  6  4  0  0  0
  6  7  4  0  0  0
  7  8  4  0  0  0
  8  9  1  0  0  0
  9 10  1  0  0  0
  9 11  1  0  0  0
 11 12  1  0  0  0
 12 13  1  0  0  0
 13 14  1  0  0  0
 14 15  1  0  0  0
 15 16  4  0  0  0
 15 20  4  0  0  0
 16 17  4  0  0  0
 17 18  1  0  0  0
 17 22  4  0  0  0
 18 19  1  0  0  0
 20 21  4  0  0  0
 21 22  4  0  0  0
 22 23  1  0  0  0
 23 24  1  0  0  0
 24 25  1  0  0  0
 25 26  1  0  0  0
  1 27  1  0  0  0
  3 28  1  0  0  0
  5 29  1  0  0  0
  6 30  1  0  0  0
  7 31  1  0  0  0
  9 32  1  0  0  0
 10 33  1  0  0  0
 11 34  1  0  0  0
 11 35  1  0  0  0
 12 36  1  0  0  0
 12 37  1  0  0  0
 13 38  1  0  0  0
 13 39  1  0  0  0
 14 40  1  0  0  0
 14 41  1  0  0  0
 16 42  1  0  0  0
 19 43  1  0  0  0
 19 44  1  0  0  0
 19 45  1  0  0  0
 20 46  1  0  0  0
 21 47  1  0  0  0
 24 48  1  0  0  0
 24 49  1  0  0  0
 25 50  1  0  0  0
 25 51  1  0  0  0
 26 52  1  0  0  0
M  END
$$$$
