### 
### Created by X-TOOL on Mon Sep 10 21:13:10 2018
### 

@<TRIPOS>MOLECULE
4abi_ligand
  185   188     1     0     0
SMALL
GAST_HUCK


@<TRIPOS>ATOM
      1 N         -26.2040  -11.0820  -10.9260 N.4       1 GLY         0.2357
      2 CA        -24.9670  -11.9150  -11.0180 C.3       1 GLY         0.0545
      3 C         -23.6990  -11.1210  -10.7510 C.2       1 GLY         0.2236
      4 O         -23.7000   -9.8840  -10.8320 O.2       1 GLY        -0.3910
      5 N         -22.6250  -11.8380  -10.4240 N.am      1 ARG        -0.2613
      6 CA        -21.3360  -11.2240  -10.1350 C.3       1 ARG         0.1312
      7 C         -20.6990  -10.7180  -11.4180 C.2       1 ARG         0.2039
      8 O         -20.6520  -11.4290  -12.4230 O.2       1 ARG        -0.3944
      9 CB        -20.3860  -12.2190   -9.4710 C.3       1 ARG        -0.0092
     10 CG        -19.5460  -13.0170  -10.4570 C.3       1 ARG        -0.0156
     11 CD        -18.2250  -13.4590   -9.8450 C.3       1 ARG         0.0627
     12 NE        -17.6570  -14.6060  -10.5520 N.pl3     1 ARG        -0.2723
     13 CZ        -17.8780  -15.8710  -10.2100 C.cat     1 ARG         0.2882
     14 NH1       -18.6510  -16.1510   -9.1680 N.pl3     1 ARG        -0.2849
     15 NH2       -17.3270  -16.8570  -10.9060 N.pl3     1 ARG        -0.2849
     16 N         -20.2130   -9.4830  -11.3740 N.am      1 CYS        -0.2629
     17 CA        -19.5620   -8.8760  -12.5210 C.3       1 CYS         0.1406
     18 C         -18.3620   -8.0690  -12.0670 C.2       1 CYS         0.2048
     19 O         -18.3710   -7.5020  -10.9680 O.2       1 CYS        -0.3944
     20 CB        -20.5340   -7.9360  -13.2300 C.3       1 CYS         0.0443
     21 SG        -22.0730   -8.7180  -13.7800 S.3       1 CYS        -0.0882
     22 N         -17.3480   -8.0040  -12.9260 N.am      1 THR        -0.2613
     23 CA        -16.2210   -7.0880  -12.7140 C.3       1 THR         0.1565
     24 C         -16.7370   -5.6730  -12.9010 C.2       1 THR         0.2065
     25 O         -17.8040   -5.4610  -13.5020 O.2       1 THR        -0.3943
     26 CB        -15.0910   -7.3210  -13.7330 C.3       1 THR         0.0924
     27 OG1       -15.5640   -7.0130  -15.0510 O.3       1 THR        -0.3874
     28 CG2       -14.5940   -8.7560  -13.6800 C.3       1 THR        -0.0346
     29 N         -15.9840   -4.6910  -12.4170 N.am      1 LYS        -0.2637
     30 CA        -16.4420   -3.3020  -12.4640 C.3       1 LYS         0.1310
     31 C         -15.6710   -2.4880  -13.5020 C.2       1 LYS         0.2040
     32 O         -15.3310   -1.3230  -13.2720 O.2       1 LYS        -0.3944
     33 CB        -16.3790   -2.6610  -11.0650 C.3       1 LYS        -0.0122
     34 CG        -17.5320   -3.1090  -10.1970 C.3       1 LYS        -0.0440
     35 CD        -17.3510   -2.7860   -8.7260 C.3       1 LYS        -0.0124
     36 CE        -18.4910   -3.4110   -7.9290 C.3       1 LYS        -0.0354
     37 NZ        -18.4390   -2.9820   -6.5030 N.4       1 LYS         0.2185
     38 N         -15.4030   -3.1190  -14.6410 N.am      1 SER        -0.2616
     39 CA        -14.7000   -2.4620  -15.7390 C.3       1 SER         0.1539
     40 C         -15.7090   -1.9220  -16.7480 C.2       1 SER         0.2062
     41 O         -16.9100   -2.2170  -16.6560 O.2       1 SER        -0.3943
     42 CB        -13.7610   -3.4620  -16.4130 C.3       1 SER         0.0843
     43 OG        -14.4730   -4.6320  -16.8070 O.3       1 SER        -0.3903
     44 N         -15.2230   -1.1060  -17.6860 N.am      1 ILE        -0.2634
     45 CA        -16.0100   -0.7020  -18.8530 C.3       1 ILE         0.1337
     46 C         -15.4730   -1.4820  -20.0540 C.2       1 ILE         0.2060
     47 O         -14.2680   -1.5120  -20.2620 O.2       1 ILE        -0.3942
     48 CB        -15.9260    0.8200  -19.0900 C.3       1 ILE        -0.0037
     49 CG1       -16.7690    1.5600  -18.0470 C.3       1 ILE        -0.0491
     50 CG2       -16.3790    1.1880  -20.5010 C.3       1 ILE        -0.0582
     51 CD1       -16.3470    2.9930  -17.8240 C.3       1 ILE        -0.0648
     52 O         -18.9070   -7.2010  -18.7280 O.2       1 PLF        -0.3933
     53 C1        -18.2570   -6.9280  -17.7230 C.2       1 PLF         0.2148
     54 CA1       -18.3970   -5.5840  -17.0500 C.3       1 PLF         0.1708
     55 CB1       -19.6170   -5.6140  -16.1270 C.3       1 PLF        -0.0140
     56 N2        -18.5330   -4.5050  -18.0500 N.pl3     1 PLF        -0.1594
     57 C2        -17.6600   -3.9830  -18.9670 C.2       1 PLF         0.0746
     58 N3        -19.7190   -3.7720  -18.1970 N.2       1 PLF        -0.0993
     59 N1        -19.5800   -2.8880  -19.1270 N.2       1 PLF        -0.2240
     60 C         -18.3300   -2.9700  -19.6360 C.2       1 PLF         0.0624
     61 CA        -17.7930   -2.0740  -20.7360 C.3       1 PLF         0.0795
     62 CB        -18.3220   -2.5310  -22.0900 C.3       1 PLF        -0.0209
     63 CG        -17.2370   -3.4360  -22.6450 C.3       1 PLF        -0.0290
     64 CD        -15.9320   -3.0430  -21.9540 C.3       1 PLF         0.0360
     65 N         -16.3310   -2.1570  -20.8600 N.am      1 PLF        -0.2604
     66 N         -17.4010   -7.7660  -17.1500 N.am      1 ILE        -0.2626
     67 CA        -17.4090   -9.1920  -17.3910 C.3       1 ILE         0.1335
     68 C         -18.2000   -9.8870  -16.2800 C.2       1 ILE         0.2042
     69 O         -17.8420   -9.7950  -15.1010 O.2       1 ILE        -0.3944
     70 CB        -15.9700   -9.7410  -17.4540 C.3       1 ILE        -0.0037
     71 CG1       -15.1240   -8.9110  -18.4370 C.3       1 ILE        -0.0491
     72 CG2       -15.9730  -11.2170  -17.8300 C.3       1 ILE        -0.0582
     73 CD1       -13.7880   -8.4590  -17.8770 C.3       1 ILE        -0.0648
     74 N         -19.2640  -10.5900  -16.6700 N.am      1 CYS        -0.2629
     75 CA        -20.2060  -11.1910  -15.7160 C.3       1 CYS         0.1406
     76 C         -20.1920  -12.7200  -15.7000 C.2       1 CYS         0.2043
     77 O         -19.8980  -13.3570  -16.7150 O.2       1 CYS        -0.3944
     78 CB        -21.6210  -10.6880  -15.9990 C.3       1 CYS         0.0443
     79 SG        -21.8330   -8.9080  -15.7850 S.3       1 CYS        -0.0882
     80 N         -20.5190  -13.2980  -14.5410 N.am      1 PHE        -0.2677
     81 CA        -20.5590  -14.7570  -14.3610 C.3       1 PHE         0.1039
     82 C         -21.8480  -15.2540  -13.7090 C.2       1 PHE         0.0621
     83 O         -22.6960  -14.4620  -13.2950 O.co2     1 PHE        -0.5664
     84 CB        -19.3470  -15.2340  -13.5560 C.3       1 PHE         0.0159
     85 CG        -18.0340  -14.9820  -14.2410 C.ar      1 PHE        -0.0392
     86 CD1       -17.5820  -15.8390  -15.2450 C.ar      1 PHE        -0.0602
     87 CD2       -17.2510  -13.8850  -13.8900 C.ar      1 PHE        -0.0602
     88 CE1       -16.3720  -15.6060  -15.8840 C.ar      1 PHE        -0.0686
     89 CE2       -16.0420  -13.6470  -14.5250 C.ar      1 PHE        -0.0686
     90 CZ        -15.6050  -14.5070  -15.5250 C.ar      1 PHE        -0.0687
     91 OXT       -22.0710  -16.4590  -13.5810 O.co2     1 PHE        -0.5664
     92 H1        -27.0109  -11.6571  -11.1112 H         1 GLY         0.2012
     93 H2        -26.1591  -10.3377  -11.6043 H         1 GLY         0.2012
     94 H3        -26.2766  -10.6893  -10.0005 H         1 GLY         0.2012
     95 H4        -24.9066  -12.3434  -12.0293 H         1 GLY         0.1061
     96 H5        -25.0348  -12.7271  -10.2792 H         1 GLY         0.1061
     97 H6        -22.7065  -12.8335  -10.3752 H         1 ARG         0.1884
     98 H7        -21.4958  -10.3755   -9.4535 H         1 ARG         0.0800
     99 H8        -20.9835  -12.9239   -8.8744 H         1 ARG         0.0313
    100 H9        -19.7073  -11.6616   -8.8087 H         1 ARG         0.0313
    101 H10       -19.3388  -12.3905  -11.3371 H         1 ARG         0.0301
    102 H11       -20.1111  -13.9086  -10.7664 H         1 ARG         0.0301
    103 H12       -18.3943  -13.7365   -8.7941 H         1 ARG         0.0689
    104 H13       -17.5124  -12.6224   -9.8931 H         1 ARG         0.0689
    105 H14       -17.0495  -14.4226  -11.3633 H         1 ARG         0.2642
    106 H15       -18.8225  -17.1313   -8.9027 H         1 ARG         0.2615
    107 H16       -19.0794  -15.3879   -8.6247 H         1 ARG         0.2615
    108 H17       -16.7266  -16.6433  -11.7152 H         1 ARG         0.2615
    109 H18       -17.4996  -17.8362  -10.6372 H         1 ARG         0.2615
    110 H19       -20.2977   -8.9568  -10.5279 H         1 CYS         0.1884
    111 H20       -19.2363   -9.6646  -13.2153 H         1 CYS         0.0808
    112 H21       -20.0264   -7.5193  -14.1124 H         1 CYS         0.0432
    113 H22       -20.7915   -7.1219  -12.5366 H         1 CYS         0.0432
    114 H23       -17.3539   -8.5926  -13.7344 H         1 THR         0.1884
    115 H24       -15.8277   -7.2193  -11.6952 H         1 THR         0.0826
    116 H25       -14.2533   -6.6509  -13.4896 H         1 THR         0.0639
    117 H26       -14.8656   -7.1573  -15.6786 H         1 THR         0.2101
    118 H27       -13.7889   -8.8926  -14.4170 H         1 THR         0.0257
    119 H28       -15.4235   -9.4402  -13.9120 H         1 THR         0.0257
    120 H29       -14.2097   -8.9740  -12.6726 H         1 THR         0.0257
    121 H30       -15.0932   -4.9038  -12.0156 H         1 LYS         0.1883
    122 H31       -17.4970   -3.3117  -12.7751 H         1 LYS         0.0800
    123 H32       -16.4161   -1.5668  -11.1714 H         1 LYS         0.0312
    124 H33       -15.4344   -2.9506  -10.5815 H         1 LYS         0.0312
    125 H34       -17.6426   -4.1984  -10.3020 H         1 LYS         0.0269
    126 H35       -18.4469   -2.6117  -10.5514 H         1 LYS         0.0269
    127 H36       -17.3594   -1.6950   -8.5855 H         1 LYS         0.0317
    128 H37       -16.3912   -3.1934   -8.3757 H         1 LYS         0.0317
    129 H38       -18.4073   -4.5067   -7.9789 H         1 LYS         0.0813
    130 H39       -19.4505   -3.0963   -8.3652 H         1 LYS         0.0813
    131 H40       -19.2002   -3.4064   -5.9965 H         1 LYS         0.1994
    132 H41       -18.5188   -1.9785   -6.4509 H         1 LYS         0.1994
    133 H42       -17.5628   -3.2709   -6.0969 H         1 LYS         0.1994
    134 H43       -15.6911   -4.0705  -14.7487 H         1 SER         0.1884
    135 H44       -14.1082   -1.6249  -15.3402 H         1 SER         0.0823
    136 H45       -12.9657   -3.7435  -15.7071 H         1 SER         0.0606
    137 H46       -13.3134   -2.9946  -17.3025 H         1 SER         0.0606
    138 H47       -15.1591   -4.3928  -17.4189 H         1 SER         0.2097
    139 H48       -14.2902   -0.7590  -17.5885 H         1 ILE         0.1883
    140 H49       -17.0641   -0.9701  -18.6889 H         1 ILE         0.0803
    141 H50       -14.8770    1.1302  -18.9740 H         1 ILE         0.0345
    142 H51       -16.6875    1.0222  -17.0909 H         1 ILE         0.0267
    143 H52       -17.8167    1.5557  -18.3820 H         1 ILE         0.0267
    144 H53       -15.7638    0.6483  -21.2360 H         1 ILE         0.0235
    145 H54       -16.2645    2.2715  -20.6520 H         1 ILE         0.0235
    146 H55       -17.4350    0.9092  -20.6315 H         1 ILE         0.0235
    147 H56       -16.9973    3.4529  -17.0653 H         1 ILE         0.0230
    148 H57       -16.4328    3.5516  -18.7677 H         1 ILE         0.0230
    149 H58       -15.3036    3.0182  -17.4765 H         1 ILE         0.0230
    150 H59       -17.4971   -5.3922  -16.4473 H         1 PLF         0.0927
    151 H60       -19.4993   -6.4219  -15.3899 H         1 PLF         0.0286
    152 H61       -20.5239   -5.7914  -16.7236 H         1 PLF         0.0286
    153 H62       -19.7048   -4.6504  -15.6039 H         1 PLF         0.0286
    154 H63       -16.6333   -4.3031  -19.1384 H         1 PLF         0.0901
    155 H64       -18.0965   -1.0363  -20.5333 H         1 PLF         0.0675
    156 H65       -18.4844   -1.6689  -22.7536 H         1 PLF         0.0304
    157 H66       -19.2649   -3.0848  -21.9708 H         1 PLF         0.0304
    158 H67       -17.1464   -3.2947  -23.7321 H         1 PLF         0.0287
    159 H68       -17.4761   -4.4881  -22.4307 H         1 PLF         0.0287
    160 H69       -15.2676   -2.5161  -22.6547 H         1 PLF         0.0524
    161 H70       -15.4193   -3.9337  -21.5619 H         1 PLF         0.0524
    162 H71       -16.7181   -7.3932  -16.5217 H         1 ILE         0.1884
    163 H72       -17.9018   -9.3872  -18.3549 H         1 ILE         0.0803
    164 H73       -15.5217   -9.6462  -16.4540 H         1 ILE         0.0345
    165 H74       -15.7001   -8.0175  -18.7194 H         1 ILE         0.0267
    166 H75       -14.9344   -9.5228  -19.3313 H         1 ILE         0.0267
    167 H76       -16.5852  -11.7779  -17.1085 H         1 ILE         0.0235
    168 H77       -14.9426  -11.6017  -17.8137 H         1 ILE         0.0235
    169 H78       -16.3935  -11.3374  -18.8393 H         1 ILE         0.0235
    170 H79       -13.2497   -7.8756  -18.6385 H         1 ILE         0.0230
    171 H80       -13.1900   -9.3395  -17.5993 H         1 ILE         0.0230
    172 H81       -13.9558   -7.8342  -16.9874 H         1 ILE         0.0230
    173 H82       -19.4269  -10.7128  -17.6490 H         1 CYS         0.1884
    174 H83       -19.9156  -10.8508  -14.7111 H         1 CYS         0.0808
    175 H84       -22.3126  -11.2020  -15.3153 H         1 CYS         0.0432
    176 H85       -21.8759  -10.9428  -17.0383 H         1 CYS         0.0432
    177 H86       -20.7464  -12.7134  -13.7622 H         1 PHE         0.1877
    178 H87       -20.5010  -15.2108  -15.3613 H         1 PHE         0.0749
    179 H88       -19.4475  -16.3158  -13.3839 H         1 PHE         0.0467
    180 H89       -19.3420  -14.7079  -12.5900 H         1 PHE         0.0467
    181 H90       -18.1822  -16.6959  -15.5290 H         1 PHE         0.0557
    182 H91       -17.5905  -13.2104  -13.1123 H         1 PHE         0.0557
    183 H92       -16.0278  -16.2798  -16.6602 H         1 PHE         0.0599
    184 H93       -15.4389  -12.7919  -14.2420 H         1 PHE         0.0599
    185 H94       -14.6623  -14.3188  -16.0260 H         1 PHE         0.0559
@<TRIPOS>BOND
     1    2    1 1  
     2    3    2 1  
     3    3    4 2  
     4    5    3 am 
     5    6    5 1  
     6    7    6 1  
     7    6    9 1  
     8    7    8 2  
     9   16    7 am 
    10    9   10 1  
    11   10   11 1  
    12   11   12 1  
    13   12   13 ar 
    14   13   14 ar 
    15   13   15 ar 
    16   17   16 1  
    17   18   17 1  
    18   17   20 1  
    19   18   19 2  
    20   22   18 am 
    21   20   21 1  
    22   21   79 1  
    23   23   22 1  
    24   24   23 1  
    25   23   26 1  
    26   24   25 2  
    27   29   24 am 
    28   26   27 1  
    29   26   28 1  
    30   30   29 1  
    31   31   30 1  
    32   30   33 1  
    33   31   32 2  
    34   38   31 am 
    35   33   34 1  
    36   34   35 1  
    37   35   36 1  
    38   36   37 1  
    39   39   38 1  
    40   40   39 1  
    41   39   42 1  
    42   40   41 2  
    43   44   40 am 
    44   42   43 1  
    45   45   44 1  
    46   46   45 1  
    47   45   48 1  
    48   46   47 2  
    49   65   46 am 
    50   48   49 1  
    51   48   50 1  
    52   49   51 1  
    53   53   52 2  
    54   54   53 1  
    55   53   66 am 
    56   54   55 1  
    57   56   54 1  
    58   57   56 1  
    59   58   56 1  
    60   60   57 2  
    61   59   58 2  
    62   60   59 1  
    63   61   60 1  
    64   61   62 1  
    65   61   65 1  
    66   62   63 1  
    67   63   64 1  
    68   64   65 1  
    69   66   67 1  
    70   67   68 1  
    71   67   70 1  
    72   68   69 2  
    73   68   74 am 
    74   70   71 1  
    75   70   72 1  
    76   71   73 1  
    77   74   75 1  
    78   75   76 1  
    79   75   78 1  
    80   76   77 2  
    81   76   80 am 
    82   78   79 1  
    83   80   81 1  
    84   81   82 1  
    85   81   84 1  
    86   82   83 ar 
    87   82   91 ar 
    88   84   85 1  
    89   85   86 ar 
    90   85   87 ar 
    91   86   88 ar 
    92   87   89 ar 
    93   88   90 ar 
    94   89   90 ar 
    95    1   92 1  
    96    1   93 1  
    97    1   94 1  
    98    2   95 1  
    99    2   96 1  
   100    5   97 1  
   101    6   98 1  
   102    9   99 1  
   103    9  100 1  
   104   10  101 1  
   105   10  102 1  
   106   11  103 1  
   107   11  104 1  
   108   12  105 1  
   109   14  106 1  
   110   14  107 1  
   111   15  108 1  
   112   15  109 1  
   113   16  110 1  
   114   17  111 1  
   115   20  112 1  
   116   20  113 1  
   117   22  114 1  
   118   23  115 1  
   119   26  116 1  
   120   27  117 1  
   121   28  118 1  
   122   28  119 1  
   123   28  120 1  
   124   29  121 1  
   125   30  122 1  
   126   33  123 1  
   127   33  124 1  
   128   34  125 1  
   129   34  126 1  
   130   35  127 1  
   131   35  128 1  
   132   36  129 1  
   133   36  130 1  
   134   37  131 1  
   135   37  132 1  
   136   37  133 1  
   137   38  134 1  
   138   39  135 1  
   139   42  136 1  
   140   42  137 1  
   141   43  138 1  
   142   44  139 1  
   143   45  140 1  
   144   48  141 1  
   145   49  142 1  
   146   49  143 1  
   147   50  144 1  
   148   50  145 1  
   149   50  146 1  
   150   51  147 1  
   151   51  148 1  
   152   51  149 1  
   153   54  150 1  
   154   55  151 1  
   155   55  152 1  
   156   55  153 1  
   157   57  154 1  
   158   61  155 1  
   159   62  156 1  
   160   62  157 1  
   161   63  158 1  
   162   63  159 1  
   163   64  160 1  
   164   64  161 1  
   165   66  162 1  
   166   67  163 1  
   167   70  164 1  
   168   71  165 1  
   169   71  166 1  
   170   72  167 1  
   171   72  168 1  
   172   72  169 1  
   173   73  170 1  
   174   73  171 1  
   175   73  172 1  
   176   74  173 1  
   177   75  174 1  
   178   78  175 1  
   179   78  176 1  
   180   80  177 1  
   181   81  178 1  
   182   84  179 1  
   183   84  180 1  
   184   86  181 1  
   185   87  182 1  
   186   88  183 1  
   187   89  184 1  
   188   90  185 1  
@<TRIPOS>SUBSTRUCTURE
     1 GLY         1

