4abi_ligand
  -I-interpret- 

185188  0  0  0  0  0  0  0  0999 V2000
  -26.2040  -11.0820  -10.9260 N   0  3  0  0  0
  -24.9670  -11.9150  -11.0180 C   0  0  0  0  0
  -23.6990  -11.1210  -10.7510 C   0  0  0  0  0
  -23.7000   -9.8840  -10.8320 O   0  0  0  0  0
  -22.6250  -11.8380  -10.4240 N   0  0  0  0  0
  -21.3360  -11.2240  -10.1350 C   0  0  0  0  0
  -20.6990  -10.7180  -11.4180 C   0  0  0  0  0
  -20.6520  -11.4290  -12.4230 O   0  0  0  0  0
  -20.3860  -12.2190   -9.4710 C   0  0  0  0  0
  -19.5460  -13.0170  -10.4570 C   0  0  0  0  0
  -18.2250  -13.4590   -9.8450 C   0  0  0  0  0
  -17.6570  -14.6060  -10.5520 N   0  0  0  0  0
  -17.8780  -15.8710  -10.2100 C   0  0  0  0  0
  -18.6510  -16.1510   -9.1680 N   0  0  0  0  0
  -17.3270  -16.8570  -10.9060 N   0  0  0  0  0
  -20.2130   -9.4830  -11.3740 N   0  0  0  0  0
  -19.5620   -8.8760  -12.5210 C   0  0  0  0  0
  -18.3620   -8.0690  -12.0670 C   0  0  0  0  0
  -18.3710   -7.5020  -10.9680 O   0  0  0  0  0
  -20.5340   -7.9360  -13.2300 C   0  0  0  0  0
  -22.0730   -8.7180  -13.7800 S   0  0  0  0  0
  -17.3480   -8.0040  -12.9260 N   0  0  0  0  0
  -16.2210   -7.0880  -12.7140 C   0  0  0  0  0
  -16.7370   -5.6730  -12.9010 C   0  0  0  0  0
  -17.8040   -5.4610  -13.5020 O   0  0  0  0  0
  -15.0910   -7.3210  -13.7330 C   0  0  0  0  0
  -15.5640   -7.0130  -15.0510 O   0  0  0  0  0
  -14.5940   -8.7560  -13.6800 C   0  0  0  0  0
  -15.9840   -4.6910  -12.4170 N   0  0  0  0  0
  -16.4420   -3.3020  -12.4640 C   0  0  0  0  0
  -15.6710   -2.4880  -13.5020 C   0  0  0  0  0
  -15.3310   -1.3230  -13.2720 O   0  0  0  0  0
  -16.3790   -2.6610  -11.0650 C   0  0  0  0  0
  -17.5320   -3.1090  -10.1970 C   0  0  0  0  0
  -17.3510   -2.7860   -8.7260 C   0  0  0  0  0
  -18.4910   -3.4110   -7.9290 C   0  0  0  0  0
  -18.4390   -2.9820   -6.5030 N   0  3  0  0  0
  -15.4030   -3.1190  -14.6410 N   0  0  0  0  0
  -14.7000   -2.4620  -15.7390 C   0  0  0  0  0
  -15.7090   -1.9220  -16.7480 C   0  0  0  0  0
  -16.9100   -2.2170  -16.6560 O   0  0  0  0  0
  -13.7610   -3.4620  -16.4130 C   0  0  0  0  0
  -14.4730   -4.6320  -16.8070 O   0  0  0  0  0
  -15.2230   -1.1060  -17.6860 N   0  0  0  0  0
  -16.0100   -0.7020  -18.8530 C   0  0  0  0  0
  -15.4730   -1.4820  -20.0540 C   0  0  0  0  0
  -14.2680   -1.5120  -20.2620 O   0  0  0  0  0
  -15.9260    0.8200  -19.0900 C   0  0  0  0  0
  -16.7690    1.5600  -18.0470 C   0  0  0  0  0
  -16.3790    1.1880  -20.5010 C   0  0  0  0  0
  -16.3470    2.9930  -17.8240 C   0  0  0  0  0
  -18.9070   -7.2010  -18.7280 O   0  0  0  0  0
  -18.2570   -6.9280  -17.7230 C   0  0  0  0  0
  -18.3970   -5.5840  -17.0500 C   0  0  0  0  0
  -19.6170   -5.6140  -16.1270 C   0  0  0  0  0
  -18.5330   -4.5050  -18.0500 N   0  0  0  0  0
  -17.6600   -3.9830  -18.9670 C   0  0  0  0  0
  -19.7190   -3.7720  -18.1970 N   0  0  0  0  0
  -19.5800   -2.8880  -19.1270 N   0  0  0  0  0
  -18.3300   -2.9700  -19.6360 C   0  0  0  0  0
  -17.7930   -2.0740  -20.7360 C   0  0  0  0  0
  -18.3220   -2.5310  -22.0900 C   0  0  0  0  0
  -17.2370   -3.4360  -22.6450 C   0  0  0  0  0
  -15.9320   -3.0430  -21.9540 C   0  0  0  0  0
  -16.3310   -2.1570  -20.8600 N   0  0  0  0  0
  -17.4010   -7.7660  -17.1500 N   0  0  0  0  0
  -17.4090   -9.1920  -17.3910 C   0  0  0  0  0
  -18.2000   -9.8870  -16.2800 C   0  0  0  0  0
  -17.8420   -9.7950  -15.1010 O   0  0  0  0  0
  -15.9700   -9.7410  -17.4540 C   0  0  0  0  0
  -15.1240   -8.9110  -18.4370 C   0  0  0  0  0
  -15.9730  -11.2170  -17.8300 C   0  0  0  0  0
  -13.7880   -8.4590  -17.8770 C   0  0  0  0  0
  -19.2640  -10.5900  -16.6700 N   0  0  0  0  0
  -20.2060  -11.1910  -15.7160 C   0  0  0  0  0
  -20.1920  -12.7200  -15.7000 C   0  0  0  0  0
  -19.8980  -13.3570  -16.7150 O   0  0  0  0  0
  -21.6210  -10.6880  -15.9990 C   0  0  0  0  0
  -21.8330   -8.9080  -15.7850 S   0  0  0  0  0
  -20.5190  -13.2980  -14.5410 N   0  0  0  0  0
  -20.5590  -14.7570  -14.3610 C   0  0  0  0  0
  -21.8480  -15.2540  -13.7090 C   0  0  0  0  0
  -22.6960  -14.4620  -13.2950 O   0  0  0  0  0
  -19.3470  -15.2340  -13.5560 C   0  0  0  0  0
  -18.0340  -14.9820  -14.2410 C   0  0  0  0  0
  -17.5820  -15.8390  -15.2450 C   0  0  0  0  0
  -17.2510  -13.8850  -13.8900 C   0  0  0  0  0
  -16.3720  -15.6060  -15.8840 C   0  0  0  0  0
  -16.0420  -13.6470  -14.5250 C   0  0  0  0  0
  -15.6050  -14.5070  -15.5250 C   0  0  0  0  0
  -22.0710  -16.4590  -13.5810 O   0  0  0  0  0
  -27.0197  -11.6649  -11.1136 H   0  0  0  0  0
  -26.2764  -10.6852   -9.9891 H   0  0  0  0  0
  -26.1574  -10.3292  -11.6127 H   0  0  0  0  0
  -24.9057  -12.3096  -12.0322 H   0  0  0  0  0
  -25.0354  -12.6976  -10.2624 H   0  0  0  0  0
  -22.7082  -12.8534  -10.3742 H   0  0  0  0  0
  -21.5116  -10.3930   -9.4518 H   0  0  0  0  0
  -20.9967  -12.9298   -8.9142 H   0  0  0  0  0
  -19.6993  -11.6465   -8.8475 H   0  0  0  0  0
  -19.3302  -12.3818  -11.3161 H   0  0  0  0  0
  -20.1063  -13.9072  -10.7427 H   0  0  0  0  0
  -18.4065  -13.7495   -8.8102 H   0  0  0  0  0
  -17.5205  -12.6302   -9.9143 H   0  0  0  0  0
  -17.0554  -14.4244  -11.3554 H   0  0  0  0  0
  -18.8199  -17.1218   -8.9045 H   0  0  0  0  0
  -19.0762  -15.3954   -8.6307 H   0  0  0  0  0
  -16.7315  -16.6453  -11.7066 H   0  0  0  0  0
  -20.2994   -8.9463  -10.5110 H   0  0  0  0  0
  -19.2438   -9.6678  -13.1991 H   0  0  0  0  0
  -20.0274   -7.5681  -14.1222 H   0  0  0  0  0
  -20.8087   -7.1623  -12.5130 H   0  0  0  0  0
  -17.3540   -8.6044  -13.7506 H   0  0  0  0  0
  -15.8193   -7.2566  -11.7149 H   0  0  0  0  0
  -14.2566   -6.6664  -13.4812 H   0  0  0  0  0
  -14.8582   -7.1588  -15.6852 H   0  0  0  0  0
  -14.2136   -8.9707  -12.6814 H   0  0  0  0  0
  -15.4168   -9.4329  -13.9101 H   0  0  0  0  0
  -13.7964   -8.8901  -14.4107 H   0  0  0  0  0
  -15.0754   -4.9081  -12.0076 H   0  0  0  0  0
  -17.4848   -3.3017  -12.7812 H   0  0  0  0  0
  -16.4334   -1.5783  -11.1789 H   0  0  0  0  0
  -15.4483   -2.9669  -10.5871 H   0  0  0  0  0
  -17.6041   -4.1930  -10.2857 H   0  0  0  0  0
  -18.4216   -2.5803  -10.5392 H   0  0  0  0  0
  -17.3577   -1.7050   -8.5862 H   0  0  0  0  0
  -16.3994   -3.1881   -8.3785 H   0  0  0  0  0
  -18.3962   -4.4960   -7.9727 H   0  0  0  0  0
  -19.4387   -3.0866   -8.3587 H   0  0  0  0  0
  -19.2097   -3.4120   -5.9915 H   0  0  0  0  0
  -17.5520   -3.2749   -6.0932 H   0  0  0  0  0
  -18.5198   -1.9665   -6.4515 H   0  0  0  0  0
  -15.6968   -4.0896  -14.7509 H   0  0  0  0  0
  -14.1136   -1.6294  -15.3504 H   0  0  0  0  0
  -12.9804   -3.7448  -15.7067 H   0  0  0  0  0
  -13.3274   -2.9976  -17.2986 H   0  0  0  0  0
  -13.8677   -5.2471  -17.2276 H   0  0  0  0  0
  -14.2716   -0.7520  -17.5866 H   0  0  0  0  0
  -17.0647   -0.9265  -18.6942 H   0  0  0  0  0
  -14.8842    1.1234  -18.9866 H   0  0  0  0  0
  -16.6469    1.0349  -17.0997 H   0  0  0  0  0
  -17.7955    1.5776  -18.4130 H   0  0  0  0  0
  -15.7400    0.6875  -21.2285 H   0  0  0  0  0
  -17.4120    0.8708  -20.6439 H   0  0  0  0  0
  -16.3073    2.2674  -20.6343 H   0  0  0  0  0
  -15.3130    3.0166  -17.4798 H   0  0  0  0  0
  -16.4324    3.5454  -18.7598 H   0  0  0  0  0
  -16.9920    3.4476  -17.0721 H   0  0  0  0  0
  -17.4998   -5.3818  -16.4650 H   0  0  0  0  0
  -20.5103   -5.8265  -16.7144 H   0  0  0  0  0
  -19.4824   -6.3906  -15.3741 H   0  0  0  0  0
  -19.7244   -4.6461  -15.6373 H   0  0  0  0  0
  -16.6324   -4.3034  -19.1386 H   0  0  0  0  0
  -18.1062   -1.0640  -20.4717 H   0  0  0  0  0
  -18.5255   -1.6888  -22.7514 H   0  0  0  0  0
  -19.2760   -3.0502  -21.9986 H   0  0  0  0  0
  -17.1521   -3.3191  -23.7254 H   0  0  0  0  0
  -17.4737   -4.4831  -22.4560 H   0  0  0  0  0
  -15.2448   -2.5498  -22.6415 H   0  0  0  0  0
  -15.3910   -3.9159  -21.5885 H   0  0  0  0  0
  -16.7045   -7.3858  -16.5092 H   0  0  0  0  0
  -17.8852   -9.3902  -18.3512 H   0  0  0  0  0
  -15.5182   -9.6546  -16.4658 H   0  0  0  0  0
  -15.6944   -8.0130  -18.6744 H   0  0  0  0  0
  -14.9144   -9.5461  -19.2977 H   0  0  0  0  0
  -16.5331  -11.7797  -17.0832 H   0  0  0  0  0
  -16.4411  -11.3409  -18.8065 H   0  0  0  0  0
  -14.9470  -11.5829  -17.8684 H   0  0  0  0  0
  -13.9556   -7.8401  -16.9956 H   0  0  0  0  0
  -13.1965   -9.3323  -17.6022 H   0  0  0  0  0
  -13.2556   -7.8811  -18.6324 H   0  0  0  0  0
  -19.4302  -10.7152  -17.6686 H   0  0  0  0  0
  -19.8749  -10.8767  -14.7262 H   0  0  0  0  0
  -22.2843  -11.1781  -15.2862 H   0  0  0  0  0
  -21.8390  -10.9139  -17.0428 H   0  0  0  0  0
  -20.7509  -12.7017  -13.7466 H   0  0  0  0  0
  -20.5288  -15.1857  -15.3627 H   0  0  0  0  0
  -19.4455  -16.3115  -13.4240 H   0  0  0  0  0
  -19.3384  -14.6789  -12.6180 H   0  0  0  0  0
  -18.1855  -16.7006  -15.5306 H   0  0  0  0  0
  -17.5923  -13.2067  -13.1080 H   0  0  0  0  0
  -16.0259  -16.2836  -16.6645 H   0  0  0  0  0
  -15.4355  -12.7871  -14.2405 H   0  0  0  0  0
  -14.6571  -14.3178  -16.0288 H   0  0  0  0  0
  -21.3358  -16.9595  -13.9424 H   0  0  0  0  0
  2  1  1  0  0  0
  3  2  1  0  0  0
  3  4  2  0  0  0
  5  3  1  0  0  0
  6  5  1  0  0  0
  7  6  1  0  0  0
  6  9  1  0  0  0
  7  8  2  0  0  0
 16  7  1  0  0  0
  9 10  1  0  0  0
 10 11  1  0  0  0
 11 12  1  0  0  0
 12 13  1  0  0  0
 13 14  1  0  0  0
 13 15  2  0  0  0
 17 16  1  0  0  0
 18 17  1  0  0  0
 17 20  1  0  0  0
 18 19  2  0  0  0
 22 18  1  0  0  0
 20 21  1  0  0  0
 21 79  1  0  0  0
 23 22  1  0  0  0
 24 23  1  0  0  0
 23 26  1  0  0  0
 24 25  2  0  0  0
 29 24  1  0  0  0
 26 27  1  0  0  0
 26 28  1  0  0  0
 30 29  1  0  0  0
 31 30  1  0  0  0
 30 33  1  0  0  0
 31 32  2  0  0  0
 38 31  1  0  0  0
 33 34  1  0  0  0
 34 35  1  0  0  0
 35 36  1  0  0  0
 36 37  1  0  0  0
 39 38  1  0  0  0
 40 39  1  0  0  0
 39 42  1  0  0  0
 40 41  2  0  0  0
 44 40  1  0  0  0
 42 43  1  0  0  0
 45 44  1  0  0  0
 46 45  1  0  0  0
 45 48  1  0  0  0
 46 47  2  0  0  0
 65 46  1  0  0  0
 48 49  1  0  0  0
 48 50  1  0  0  0
 49 51  1  0  0  0
 53 52  2  0  0  0
 54 53  1  0  0  0
 53 66  1  0  0  0
 54 55  1  0  0  0
 56 54  1  0  0  0
 57 56  4  0  0  0
 58 56  4  0  0  0
 60 57  4  0  0  0
 59 58  4  0  0  0
 60 59  4  0  0  0
 61 60  1  0  0  0
 61 62  1  0  0  0
 61 65  1  0  0  0
 62 63  1  0  0  0
 63 64  1  0  0  0
 64 65  1  0  0  0
 66 67  1  0  0  0
 67 68  1  0  0  0
 67 70  1  0  0  0
 68 69  2  0  0  0
 68 74  1  0  0  0
 70 71  1  0  0  0
 70 72  1  0  0  0
 71 73  1  0  0  0
 74 75  1  0  0  0
 75 76  1  0  0  0
 75 78  1  0  0  0
 76 77  2  0  0  0
 76 80  1  0  0  0
 78 79  1  0  0  0
 80 81  1  0  0  0
 81 82  1  0  0  0
 81 84  1  0  0  0
 82 83  2  0  0  0
 82 91  1  0  0  0
 84 85  1  0  0  0
 85 86  4  0  0  0
 85 87  4  0  0  0
 86 88  4  0  0  0
 87 89  4  0  0  0
 88 90  4  0  0  0
 89 90  4  0  0  0
  1 92  1  0  0  0
  1 93  1  0  0  0
  1 94  1  0  0  0
  2 95  1  0  0  0
  2 96  1  0  0  0
  5 97  1  0  0  0
  6 98  1  0  0  0
  9 99  1  0  0  0
  9100  1  0  0  0
 10101  1  0  0  0
 10102  1  0  0  0
 11103  1  0  0  0
 11104  1  0  0  0
 12105  1  0  0  0
 14106  1  0  0  0
 14107  1  0  0  0
 15108  1  0  0  0
 16109  1  0  0  0
 17110  1  0  0  0
 20111  1  0  0  0
 20112  1  0  0  0
 22113  1  0  0  0
 23114  1  0  0  0
 26115  1  0  0  0
 27116  1  0  0  0
 28117  1  0  0  0
 28118  1  0  0  0
 28119  1  0  0  0
 29120  1  0  0  0
 30121  1  0  0  0
 33122  1  0  0  0
 33123  1  0  0  0
 34124  1  0  0  0
 34125  1  0  0  0
 35126  1  0  0  0
 35127  1  0  0  0
 36128  1  0  0  0
 36129  1  0  0  0
 37130  1  0  0  0
 37131  1  0  0  0
 37132  1  0  0  0
 38133  1  0  0  0
 39134  1  0  0  0
 42135  1  0  0  0
 42136  1  0  0  0
 43137  1  0  0  0
 44138  1  0  0  0
 45139  1  0  0  0
 48140  1  0  0  0
 49141  1  0  0  0
 49142  1  0  0  0
 50143  1  0  0  0
 50144  1  0  0  0
 50145  1  0  0  0
 51146  1  0  0  0
 51147  1  0  0  0
 51148  1  0  0  0
 54149  1  0  0  0
 55150  1  0  0  0
 55151  1  0  0  0
 55152  1  0  0  0
 57153  1  0  0  0
 61154  1  0  0  0
 62155  1  0  0  0
 62156  1  0  0  0
 63157  1  0  0  0
 63158  1  0  0  0
 64159  1  0  0  0
 64160  1  0  0  0
 66161  1  0  0  0
 67162  1  0  0  0
 70163  1  0  0  0
 71164  1  0  0  0
 71165  1  0  0  0
 72166  1  0  0  0
 72167  1  0  0  0
 72168  1  0  0  0
 73169  1  0  0  0
 73170  1  0  0  0
 73171  1  0  0  0
 74172  1  0  0  0
 75173  1  0  0  0
 78174  1  0  0  0
 78175  1  0  0  0
 80176  1  0  0  0
 81177  1  0  0  0
 84178  1  0  0  0
 84179  1  0  0  0
 86180  1  0  0  0
 87181  1  0  0  0
 88182  1  0  0  0
 89183  1  0  0  0
 90184  1  0  0  0
 91185  1  0  0  0
M  END
$$$$
