4q9o_ligand
  -I-interpret- 

 44 46  0  0  0  0  0  0  0  0999 V2000
   21.5460  -11.4100    6.4150 C   0  0  0  0  0
   21.1370  -12.5750    5.5180 C   0  0  0  0  0
   19.6160  -12.6600    5.4140 C   0  0  0  0  0
   21.7820  -13.8770    5.9710 C   0  0  0  0  0
   21.2170  -14.6560    6.9740 C   0  0  0  0  0
   21.8250  -15.8230    7.4030 C   0  0  0  0  0
   22.9820  -14.2970    5.4110 C   0  0  0  0  0
   23.6000  -15.4620    5.8330 C   0  0  0  0  0
   23.0220  -16.2410    6.8300 C   0  0  0  0  0
   23.5420  -17.4910    7.2510 N   0  0  0  0  0
   24.8480  -17.9260    7.2780 C   0  0  0  0  0
   25.8030  -17.2460    6.9030 O   0  0  0  0  0
   25.0660  -19.2950    7.7940 C   0  0  0  0  0
   26.2840  -19.8180    8.1500 C   0  0  0  0  0
   27.6880  -19.3430    8.0850 C   0  0  0  0  0
   26.1230  -21.1060    8.5030 O   0  0  0  0  0
   24.7590  -21.4600    8.3340 N   0  0  0  0  0
   24.1390  -20.3780    7.9040 C   0  0  0  0  0
   22.6880  -20.5570    7.7970 C   0  0  0  0  0
   22.1390  -20.8630    6.5470 C   0  0  0  0  0
   23.1440  -20.9390    5.1300 Cl  0  0  0  0  0
   20.7680  -21.0040    6.3760 C   0  0  0  0  0
   19.9220  -20.7800    7.4490 C   0  0  0  0  0
   20.4420  -20.4130    8.6770 C   0  0  0  0  0
   21.8130  -20.2980    8.8510 C   0  0  0  0  0
   21.2329  -11.6142    7.4389 H   0  0  0  0  0
   22.6289  -11.2904    6.3818 H   0  0  0  0  0
   21.0673  -10.4963    6.0626 H   0  0  0  0  0
   21.5120  -12.3929    4.5109 H   0  0  0  0  0
   19.3449  -13.4304    4.6922 H   0  0  0  0  0
   19.1999  -12.9117    6.3895 H   0  0  0  0  0
   19.2212  -11.6983    5.0864 H   0  0  0  0  0
   20.2784  -14.3422    7.4308 H   0  0  0  0  0
   21.3644  -16.4167    8.1926 H   0  0  0  0  0
   23.4450  -13.6992    4.6259 H   0  0  0  0  0
   24.5434  -15.7700    5.3821 H   0  0  0  0  0
   22.8500  -18.1638    7.5809 H   0  0  0  0  0
   27.9551  -19.1437    7.0472 H   0  0  0  0  0
   27.7882  -18.4283    8.6693 H   0  0  0  0  0
   28.3486  -20.1092    8.4909 H   0  0  0  0  0
   20.3615  -21.2885    5.4055 H   0  0  0  0  0
   18.8449  -20.8930    7.3258 H   0  0  0  0  0
   19.7708  -20.2132    9.5122 H   0  0  0  0  0
   22.2106  -20.0021    9.8218 H   0  0  0  0  0
  1  2  1  0  0  0
  2  3  1  0  0  0
  2  4  1  0  0  0
  4  5  4  0  0  0
  4  7  4  0  0  0
  5  6  4  0  0  0
  6  9  4  0  0  0
  7  8  4  0  0  0
  8  9  4  0  0  0
  9 10  1  0  0  0
 10 11  1  0  0  0
 11 12  2  0  0  0
 11 13  1  0  0  0
 13 14  4  0  0  0
 13 18  4  0  0  0
 14 15  1  0  0  0
 14 16  4  0  0  0
 16 17  4  0  0  0
 17 18  4  0  0  0
 18 19  1  0  0  0
 19 20  4  0  0  0
 19 25  4  0  0  0
 20 21  1  0  0  0
 20 22  4  0  0  0
 22 23  4  0  0  0
 23 24  4  0  0  0
 24 25  4  0  0  0
  1 26  1  0  0  0
  1 27  1  0  0  0
  1 28  1  0  0  0
  2 29  1  0  0  0
  3 30  1  0  0  0
  3 31  1  0  0  0
  3 32  1  0  0  0
  5 33  1  0  0  0
  6 34  1  0  0  0
  7 35  1  0  0  0
  8 36  1  0  0  0
 10 37  1  0  0  0
 15 38  1  0  0  0
 15 39  1  0  0  0
 15 40  1  0  0  0
 22 41  1  0  0  0
 23 42  1  0  0  0
 24 43  1  0  0  0
 25 44  1  0  0  0
M  END
$$$$
