5l7g_ligand
  -I-interpret- 

 53 56  0  0  0  0  0  0  0  0999 V2000
   -7.5130   19.3170  -12.9110 C   0  0  0  0  0
   -7.6140   17.8770  -13.1780 C   0  0  0  0  0
   -7.8970   15.7760  -12.7810 O   0  0  0  0  0
   -9.5290   14.6280  -16.3280 C   0  0  0  0  0
  -10.2520   15.7660  -16.6280 C   0  0  0  0  0
  -11.6040   15.7130  -16.8960 C   0  0  0  0  0
  -12.2520   14.4970  -16.8580 C   0  0  0  0  0
  -11.5360   13.3550  -16.5590 C   0  0  0  0  0
  -10.1790   13.3980  -16.3120 C   0  0  0  0  0
   -7.4740   17.2250  -14.4280 C   0  0  0  0  0
   -7.5650   19.5480  -17.3150 C   0  0  0  0  0
   -6.5280   19.0780  -18.1010 C   0  0  0  0  0
   -6.2360   19.7440  -19.4020 C   0  0  0  0  0
   -9.3330   16.3220  -21.2140 C   0  0  0  0  0
   -5.7940   17.9800  -17.6860 C   0  0  0  0  0
   -6.0870   17.3620  -16.4840 C   0  0  0  0  0
   -7.8670   17.0310  -12.1750 N   0  0  0  0  0
   -7.6660   15.8950  -14.1180 C   0  0  0  0  0
   -7.6970   14.6070  -14.8280 C   0  0  0  0  0
   -8.1530   14.8000  -16.1650 O   0  0  0  0  0
  -12.1600   12.1710  -16.5290 F   0  0  0  0  0
   -9.5650   12.2240  -16.0450 F   0  0  0  0  0
   -7.1480   17.8220  -15.7110 C   0  0  0  0  0
   -7.8820   18.9170  -16.1310 C   0  0  0  0  0
   -7.4800   19.9770  -20.1860 N   0  0  0  0  0
   -8.0580   18.7790  -21.2760 S   0  0  0  0  0
   -6.9280   17.9120  -21.5400 O   0  0  0  0  0
   -8.8210   19.4120  -22.3320 O   0  0  0  0  0
   -9.2140   17.6160  -20.5080 C   0  0  0  0  0
   -9.0900   17.4520  -19.0450 C   0  0  0  0  0
  -10.1830   18.3140  -19.6050 C   0  0  0  0  0
   -6.5231   19.6703  -13.2000 H   0  0  0  0  0
   -8.2717   19.8462  -13.4876 H   0  0  0  0  0
   -7.6695   19.5000  -11.8479 H   0  0  0  0  0
   -9.7420   16.7290  -16.6536 H   0  0  0  0  0
  -12.1542   16.6230  -17.1353 H   0  0  0  0  0
  -13.3210   14.4375  -17.0623 H   0  0  0  0  0
   -8.1341   20.4214  -17.6334 H   0  0  0  0  0
   -5.5783   19.0964  -19.9818 H   0  0  0  0  0
   -5.7694   20.7081  -19.1997 H   0  0  0  0  0
   -9.6827   16.4956  -22.2317 H   0  0  0  0  0
   -8.3589   15.8337  -21.2415 H   0  0  0  0  0
  -10.0448   15.6863  -20.6873 H   0  0  0  0  0
   -4.9830   17.6016  -18.3083 H   0  0  0  0  0
   -5.4884   16.5171  -16.1434 H   0  0  0  0  0
   -8.3756   13.9283  -14.3114 H   0  0  0  0  0
   -6.6927   14.1838  -14.8485 H   0  0  0  0  0
   -8.7117   19.2811  -15.5251 H   0  0  0  0  0
   -7.9923   20.8521  -20.0760 H   0  0  0  0  0
   -8.3147   17.5134  -18.2813 H   0  0  0  0  0
   -8.9798   16.6433  -18.3225 H   0  0  0  0  0
  -11.2588   18.4547  -19.4999 H   0  0  0  0  0
  -10.6067   19.3077  -19.4595 H   0  0  0  0  0
  2  1  1  0  0  0
 10  2  4  0  0  0
  2 17  4  0  0  0
  3 17  4  0  0  0
 18  3  4  0  0  0
  4  5  4  0  0  0
  4  9  4  0  0  0
 20  4  1  0  0  0
  5  6  4  0  0  0
  6  7  4  0  0  0
  8  7  4  0  0  0
  9  8  4  0  0  0
  8 21  1  0  0  0
  9 22  1  0  0  0
 10 18  4  0  0  0
 23 10  1  0  0  0
 12 11  4  0  0  0
 11 24  4  0  0  0
 13 12  1  0  0  0
 12 15  4  0  0  0
 25 13  1  0  0  0
 29 14  1  0  0  0
 15 16  4  0  0  0
 16 23  4  0  0  0
 18 19  1  0  0  0
 19 20  1  0  0  0
 24 23  4  0  0  0
 26 25  1  0  0  0
 26 27  2  0  0  0
 26 28  2  0  0  0
 26 29  1  0  0  0
 29 30  1  0  0  0
 29 31  1  0  0  0
 30 31  1  0  0  0
  1 32  1  0  0  0
  1 33  1  0  0  0
  1 34  1  0  0  0
  5 35  1  0  0  0
  6 36  1  0  0  0
  7 37  1  0  0  0
 11 38  1  0  0  0
 13 39  1  0  0  0
 13 40  1  0  0  0
 14 41  1  0  0  0
 14 42  1  0  0  0
 14 43  1  0  0  0
 15 44  1  0  0  0
 16 45  1  0  0  0
 19 46  1  0  0  0
 19 47  1  0  0  0
 24 48  1  0  0  0
 25 49  1  0  0  0
 30 50  1  0  0  0
 30 51  1  0  0  0
 31 52  1  0  0  0
 31 53  1  0  0  0
M  END
$$$$
