5q17_ligand
  -I-interpret- 

 55 59  0  0  0  0  0  0  0  0999 V2000
  -14.6560   52.1090    0.8110 C   0  0  0  0  0
  -14.3330   52.1350   -0.6590 C   0  0  0  0  0
  -14.3430   53.4580   -1.1030 C   0  0  0  0  0
  -15.2940   50.0670    5.8110 C   0  0  0  0  0
  -16.0380   51.4310    1.0060 C   0  0  0  0  0
  -14.7400   55.7670   -0.1080 C   0  0  0  0  0
  -16.3860   51.1290    2.4520 C   0  0  0  0  0
  -11.1660   58.1090   -0.7070 C   0  0  0  0  0
  -14.1260   49.8760    6.5010 C   0  0  0  0  0
  -12.4080   58.5660   -1.1390 C   0  0  0  0  0
  -13.8260   51.4340   -2.8810 C   0  0  0  0  0
   -9.9440   59.9230   -1.6380 O   0  0  0  0  0
   -9.9430   58.9310   -0.9200 C   0  0  0  0  0
   -8.8860   58.5110   -0.2810 O   0  0  0  0  0
  -13.5440   57.8020   -0.9400 C   0  0  0  0  0
  -13.4770   56.5650   -0.3120 C   0  0  0  0  0
  -14.6200   54.3080   -0.0310 N   0  0  0  0  0
  -14.8140   53.6040    1.1230 C   0  0  0  0  0
  -15.0780   54.0870    2.2100 O   0  0  0  0  0
  -15.2920   50.3400    3.0440 N   0  0  0  0  0
  -14.0240   51.0960    3.1120 C   0  0  0  0  0
  -13.5660   51.4550    1.7030 C   0  0  0  0  0
  -15.6580   49.3460    4.2760 S   0  0  0  0  0
  -14.8080   48.2050    4.1460 O   0  0  0  0  0
  -17.0750   49.1540    4.2520 O   0  0  0  0  0
  -14.1370   50.6010    7.7230 C   0  0  0  0  0
  -15.2760   51.2950    7.9140 C   0  0  0  0  0
  -16.3850   51.1040    6.6300 S   0  0  0  0  0
  -14.0760   51.1050   -1.5600 C   0  0  0  0  0
  -13.4700   50.0390   -4.1200 Br  0  0  0  0  0
  -13.8300   52.7430   -3.3280 C   0  0  0  0  0
  -14.0890   53.7710   -2.4350 C   0  0  0  0  0
  -12.2410   56.1100    0.1200 C   0  0  0  0  0
  -11.0980   56.8690   -0.0730 C   0  0  0  0  0
  -16.0055   50.4781    0.4779 H   0  0  0  0  0
  -16.7914   52.1246    0.6326 H   0  0  0  0  0
  -15.3537   55.9629   -0.9872 H   0  0  0  0  0
  -15.1285   56.0790    0.8614 H   0  0  0  0  0
  -17.3178   50.5654    2.4995 H   0  0  0  0  0
  -16.5137   52.0596    3.0050 H   0  0  0  0  0
  -13.3001   49.2523    6.1589 H   0  0  0  0  0
  -12.4859   59.5323   -1.6374 H   0  0  0  0  0
   -9.1082   57.7223    0.2192 H   0  0  0  0  0
  -14.5085   58.1774   -1.2820 H   0  0  0  0  0
  -13.2627   50.4834    3.5951 H   0  0  0  0  0
  -14.1775   52.0095    3.6865 H   0  0  0  0  0
  -12.7628   52.1845    1.8075 H   0  0  0  0  0
  -13.2766   50.5232    1.2172 H   0  0  0  0  0
  -13.3096   50.5962    8.4325 H   0  0  0  0  0
  -15.4684   51.9111    8.7923 H   0  0  0  0  0
  -14.0718   50.0652   -1.2331 H   0  0  0  0  0
  -13.6306   52.9648   -4.3764 H   0  0  0  0  0
  -14.0937   54.8080   -2.7707 H   0  0  0  0  0
  -12.1673   55.1431    0.6177 H   0  0  0  0  0
  -10.1357   56.4929    0.2744 H   0  0  0  0  0
  1  2  1  0  0  0
  5  1  1  0  0  0
  1 18  1  0  0  0
  1 22  1  0  0  0
  2  3  4  0  0  0
  2 29  4  0  0  0
 17  3  1  0  0  0
  3 32  4  0  0  0
  4  9  4  0  0  0
 23  4  1  0  0  0
  4 28  4  0  0  0
  7  5  1  0  0  0
  6 16  1  0  0  0
 17  6  1  0  0  0
 20  7  1  0  0  0
 10  8  4  0  0  0
  8 13  1  0  0  0
  8 34  4  0  0  0
  9 26  4  0  0  0
 15 10  4  0  0  0
 29 11  4  0  0  0
 11 30  1  0  0  0
 11 31  4  0  0  0
 13 12  2  0  0  0
 13 14  1  0  0  0
 16 15  4  0  0  0
 16 33  4  0  0  0
 18 17  1  0  0  0
 18 19  2  0  0  0
 20 21  1  0  0  0
 20 23  1  0  0  0
 21 22  1  0  0  0
 23 24  2  0  0  0
 23 25  2  0  0  0
 26 27  4  0  0  0
 27 28  4  0  0  0
 31 32  4  0  0  0
 33 34  4  0  0  0
  5 35  1  0  0  0
  5 36  1  0  0  0
  6 37  1  0  0  0
  6 38  1  0  0  0
  7 39  1  0  0  0
  7 40  1  0  0  0
  9 41  1  0  0  0
 10 42  1  0  0  0
 14 43  1  0  0  0
 15 44  1  0  0  0
 21 45  1  0  0  0
 21 46  1  0  0  0
 22 47  1  0  0  0
 22 48  1  0  0  0
 26 49  1  0  0  0
 27 50  1  0  0  0
 29 51  1  0  0  0
 31 52  1  0  0  0
 32 53  1  0  0  0
 33 54  1  0  0  0
 34 55  1  0  0  0
M  END
$$$$
