5kj0_ligand
  -I-interpret- 

 81 85  0  0  0  0  0  0  0  0999 V2000
    6.4780   -8.6400    1.5720 C   0  0  0  0  0
    6.7880   -7.5790    0.6910 C   0  0  0  0  0
    7.5300   -8.1880   -1.5140 C   0  0  0  0  0
   12.1110   -7.0080   -3.0810 C   0  0  0  0  0
   10.9940   -6.4970   -4.0290 C   0  0  0  0  0
   10.5760   -7.7050   -4.8910 C   0  0  0  0  0
   11.9140   -8.5360   -3.0160 C   0  0  0  0  0
   14.4520   -6.9690   -0.8630 C   0  0  0  0  0
   13.4790   -4.7740   -0.3500 C   0  0  0  0  0
   -0.9740   -9.2590    7.8900 C   0  0  0  0  0
    0.2380   -9.2090    7.0180 N   0  3  0  0  0
    1.3260   -8.3850    7.6430 C   0  0  0  0  0
    2.6100   -8.3160    6.7770 C   0  0  0  0  0
    2.2480   -7.8960    5.3280 C   0  0  0  0  0
    3.3990   -7.9640    4.4880 N   0  0  0  0  0
    3.5070   -7.1930    3.3710 C   0  0  0  0  0
    4.6160   -7.3320    2.4880 C   0  0  0  0  0
    5.3920   -8.5070    2.4550 C   0  0  0  0  0
    7.2640   -9.7720    1.4990 O   0  0  0  0  0
    7.0390  -10.8950    2.4030 C   0  0  0  0  0
    7.8400   -7.6980   -0.2000 N   0  0  0  0  0
    8.9990   -6.9620   -0.0600 C   0  0  0  0  0
    9.9800   -6.9400   -1.0110 N   0  0  0  0  0
   11.1530   -6.2380   -0.8980 C   0  0  0  0  0
   12.1680   -6.2350   -1.8480 N   0  0  0  0  0
   11.4530   -8.8970   -4.4290 C   0  0  0  0  0
   13.5050   -5.8410   -1.3880 C   0  0  0  0  0
   13.9500   -7.6340    0.4310 C   0  0  0  0  0
   12.3960   -4.6250    0.4480 N   0  0  0  0  0
   12.3510   -3.5660    1.4560 C   0  0  0  0  0
   14.4810   -4.0320   -0.2230 O   0  0  0  0  0
   11.3040   -5.4470    0.2530 C   0  0  0  0  0
   10.2790   -5.4710    1.2110 C   0  0  0  0  0
    9.1860   -6.2200    1.0450 N   0  0  0  0  0
    6.0100   -6.4130    0.7140 C   0  0  0  0  0
    4.9420   -6.2930    1.6020 C   0  0  0  0  0
    2.5220   -6.4550    3.0440 O   0  0  0  0  0
    1.1550   -8.8210    4.7250 C   0  0  0  0  0
   -0.1080   -8.8170    5.6130 C   0  0  0  0  0
    7.4266   -7.3466   -2.1991 H   0  0  0  0  0
    8.3336   -8.8401   -1.8561 H   0  0  0  0  0
    6.5954   -8.7479   -1.4805 H   0  0  0  0  0
   13.1300   -6.8431   -3.4311 H   0  0  0  0  0
   11.3510   -5.6755   -4.6502 H   0  0  0  0  0
   10.1479   -6.1054   -3.4643 H   0  0  0  0  0
   10.7235   -7.4987   -5.9511 H   0  0  0  0  0
    9.5163   -7.9272   -4.7652 H   0  0  0  0  0
   11.1940   -8.8323   -2.2532 H   0  0  0  0  0
   12.8233   -9.0625   -2.7259 H   0  0  0  0  0
   15.4177   -6.5128   -0.6451 H   0  0  0  0  0
   14.5020   -7.7405   -1.6313 H   0  0  0  0  0
   -0.7109   -9.7021    8.8505 H   0  0  0  0  0
   -1.3500   -8.2478    8.0457 H   0  0  0  0  0
   -1.7423   -9.8635    7.4078 H   0  0  0  0  0
    0.6226  -10.1507    6.9418 H   0  0  0  0  0
    1.5911   -8.8513    8.5919 H   0  0  0  0  0
    0.9482   -7.3689    7.7568 H   0  0  0  0  0
    3.0845   -9.2971    6.7589 H   0  0  0  0  0
    3.2926   -7.5814    7.2042 H   0  0  0  0  0
    1.8715   -6.8742    5.3761 H   0  0  0  0  0
    4.1564   -8.6032    4.7291 H   0  0  0  0  0
    5.1458   -9.3291    3.1270 H   0  0  0  0  0
    7.1640  -10.5613    3.4331 H   0  0  0  0  0
    6.0271  -11.2752    2.2632 H   0  0  0  0  0
    7.7584  -11.6845    2.1857 H   0  0  0  0  0
   12.2985   -9.0558   -5.0983 H   0  0  0  0  0
   10.8955   -9.8336   -4.4418 H   0  0  0  0  0
   13.9265   -5.4842   -2.3278 H   0  0  0  0  0
   13.8679   -6.8823    1.2161 H   0  0  0  0  0
   12.9728   -8.0825    0.2520 H   0  0  0  0  0
   14.6550   -8.4065    0.7381 H   0  0  0  0  0
   13.1723   -3.7009    2.1598 H   0  0  0  0  0
   12.4454   -2.5964    0.9670 H   0  0  0  0  0
   11.4019   -3.6143    1.9897 H   0  0  0  0  0
   10.3772   -4.8644    2.1113 H   0  0  0  0  0
    6.2418   -5.5944    0.0327 H   0  0  0  0  0
    4.3504   -5.3775    1.6085 H   0  0  0  0  0
    1.5440   -9.8376    4.6676 H   0  0  0  0  0
    0.8908   -8.4562    3.7324 H   0  0  0  0  0
   -0.5336   -7.8135    5.6195 H   0  0  0  0  0
   -0.8257   -9.5326    5.2118 H   0  0  0  0  0
  2  1  4  0  0  0
  1 18  4  0  0  0
  1 19  1  0  0  0
 21  2  1  0  0  0
  2 35  4  0  0  0
 21  3  1  0  0  0
  4  5  1  0  0  0
  4  7  1  0  0  0
 25  4  1  0  0  0
  5  6  1  0  0  0
 26  6  1  0  0  0
  7 26  1  0  0  0
 27  8  1  0  0  0
  8 28  1  0  0  0
 27  9  1  0  0  0
  9 29  1  0  0  0
  9 31  2  0  0  0
 11 10  1  0  0  0
 12 11  1  0  0  0
 11 39  1  0  0  0
 13 12  1  0  0  0
 14 13  1  0  0  0
 15 14  1  0  0  0
 14 38  1  0  0  0
 16 15  1  0  0  0
 17 16  1  0  0  0
 16 37  2  0  0  0
 18 17  4  0  0  0
 17 36  4  0  0  0
 19 20  1  0  0  0
 22 21  1  0  0  0
 23 22  4  0  0  0
 22 34  4  0  0  0
 24 23  4  0  0  0
 25 24  1  0  0  0
 24 32  4  0  0  0
 25 27  1  0  0  0
 29 30  1  0  0  0
 29 32  1  0  0  0
 32 33  4  0  0  0
 33 34  4  0  0  0
 35 36  4  0  0  0
 38 39  1  0  0  0
  3 40  1  0  0  0
  3 41  1  0  0  0
  3 42  1  0  0  0
  4 43  1  0  0  0
  5 44  1  0  0  0
  5 45  1  0  0  0
  6 46  1  0  0  0
  6 47  1  0  0  0
  7 48  1  0  0  0
  7 49  1  0  0  0
  8 50  1  0  0  0
  8 51  1  0  0  0
 10 52  1  0  0  0
 10 53  1  0  0  0
 10 54  1  0  0  0
 11 55  1  0  0  0
 12 56  1  0  0  0
 12 57  1  0  0  0
 13 58  1  0  0  0
 13 59  1  0  0  0
 14 60  1  0  0  0
 15 61  1  0  0  0
 18 62  1  0  0  0
 20 63  1  0  0  0
 20 64  1  0  0  0
 20 65  1  0  0  0
 26 66  1  0  0  0
 26 67  1  0  0  0
 27 68  1  0  0  0
 28 69  1  0  0  0
 28 70  1  0  0  0
 28 71  1  0  0  0
 30 72  1  0  0  0
 30 73  1  0  0  0
 30 74  1  0  0  0
 33 75  1  0  0  0
 35 76  1  0  0  0
 36 77  1  0  0  0
 38 78  1  0  0  0
 38 79  1  0  0  0
 39 80  1  0  0  0
 39 81  1  0  0  0
M  END
$$$$
