3r7n_ligand
  -I-interpret- 

 60 59  0  0  0  0  0  0  0  0999 V2000
  -28.7920   15.0160   32.0030 C   0  0  0  0  0
  -29.2680   14.3810   31.0390 O   0  0  0  0  0
  -29.2510   16.4060   32.4220 C   0  0  0  0  0
  -27.6810   14.6040   32.6120 N   0  0  0  0  0
  -27.0230   13.3240   32.3280 C   0  0  0  0  0
  -27.7040   12.1660   33.0230 C   0  0  0  0  0
  -28.0940   12.2740   34.1920 O   0  0  0  0  0
  -25.5470   13.4460   32.7080 C   0  0  0  0  0
  -24.8280   14.4150   31.8180 C   0  0  0  0  0
  -24.9970   14.3120   30.5730 O   0  0  0  0  0
  -24.1120   15.2880   32.3310 O   0  0  0  0  0
  -27.8750   11.0630   32.2940 N   0  0  0  0  0
  -28.4440    9.8150   32.8210 C   0  0  0  0  0
  -27.6250    8.6490   32.2760 C   0  0  0  0  0
  -26.7860    8.8270   31.3990 O   0  0  0  0  0
  -29.9600    9.5970   32.4170 C   0  0  0  0  0
  -30.9190   10.6030   33.1370 C   0  0  0  0  0
  -30.1860    9.5770   30.8770 C   0  0  0  0  0
  -27.9050    7.4460   32.7670 N   0  0  0  0  0
  -27.2230    6.2110   32.3480 C   0  0  0  0  0
  -27.8770    5.4150   31.1760 C   0  0  0  0  0
  -29.1090    5.3010   31.0810 O   0  0  0  0  0
  -27.0870    5.3140   33.5620 C   0  0  0  0  0
  -27.0370    4.8560   30.2960 N   0  0  0  0  0
  -27.4640    3.8400   29.2910 C   0  0  0  0  0
  -27.6260    2.3880   29.8350 C   0  0  0  0  0
  -27.3885    1.3666   29.1365 O   0  0  0  0  0
  -26.5520    3.8790   28.0440 C   0  0  0  0  0
  -27.0720    4.8220   26.9700 C   0  0  0  0  0
  -26.2350    5.3480   26.2140 O   0  0  0  0  0
  -28.3110    5.0280   26.8730 O   0  0  0  0  0
  -28.0109    2.2290   31.0242 O   0  0  0  0  0
  -29.0943   17.1026   31.5984 H   0  0  0  0  0
  -30.3102   16.3758   32.6775 H   0  0  0  0  0
  -28.6759   16.7312   33.2890 H   0  0  0  0  0
  -27.2642   15.2133   33.3158 H   0  0  0  0  0
  -27.1016   13.1035   31.2634 H   0  0  0  0  0
  -25.0808   12.4667   32.5997 H   0  0  0  0  0
  -25.4837   13.8078   33.7343 H   0  0  0  0  0
  -25.5839   13.5745   30.3908 H   0  0  0  0  0
  -27.5946   11.0868   31.3136 H   0  0  0  0  0
  -28.4070    9.8739   33.9088 H   0  0  0  0  0
  -30.2188    8.5999   32.7733 H   0  0  0  0  0
  -30.8353   10.4738   34.2161 H   0  0  0  0  0
  -30.6415   11.6225   32.8692 H   0  0  0  0  0
  -31.9456   10.4107   32.8253 H   0  0  0  0  0
  -29.8641   10.5275   30.4514 H   0  0  0  0  0
  -29.6067    8.7655   30.4366 H   0  0  0  0  0
  -31.2449    9.4241   30.6684 H   0  0  0  0  0
  -28.6352    7.3746   33.4756 H   0  0  0  0  0
  -26.2626    6.5294   31.9426 H   0  0  0  0  0
  -26.5027    5.8258   34.3267 H   0  0  0  0  0
  -28.0774    5.0826   33.9540 H   0  0  0  0  0
  -26.5835    4.3907   33.2754 H   0  0  0  0  0
  -26.0571    5.1388   30.3137 H   0  0  0  0  0
  -28.4748    4.1343   29.0086 H   0  0  0  0  0
  -26.5177    2.8748   27.6214 H   0  0  0  0  0
  -25.5703    4.2348   28.3568 H   0  0  0  0  0
  -28.7715    4.5271   27.5502 H   0  0  0  0  0
  -28.1520    3.0870   31.4311 H   0  0  0  0  0
  1  2  2  0  0  0
  1  3  1  0  0  0
  1  4  1  0  0  0
  4  5  1  0  0  0
  5  6  1  0  0  0
  5  8  1  0  0  0
  6  7  2  0  0  0
  6 12  1  0  0  0
  8  9  1  0  0  0
  9 10  1  0  0  0
  9 11  2  0  0  0
 12 13  1  0  0  0
 13 14  1  0  0  0
 13 16  1  0  0  0
 14 15  2  0  0  0
 14 19  1  0  0  0
 16 17  1  0  0  0
 16 18  1  0  0  0
 19 20  1  0  0  0
 20 21  1  0  0  0
 20 23  1  0  0  0
 21 22  2  0  0  0
 21 24  1  0  0  0
 24 25  1  0  0  0
 25 26  1  0  0  0
 25 28  1  0  0  0
 26 27  2  0  0  0
 28 29  1  0  0  0
 29 30  2  0  0  0
 29 31  1  0  0  0
 26 32  1  0  0  0
  3 33  1  0  0  0
  3 34  1  0  0  0
  3 35  1  0  0  0
  4 36  1  0  0  0
  5 37  1  0  0  0
  8 38  1  0  0  0
  8 39  1  0  0  0
 10 40  1  0  0  0
 12 41  1  0  0  0
 13 42  1  0  0  0
 16 43  1  0  0  0
 17 44  1  0  0  0
 17 45  1  0  0  0
 17 46  1  0  0  0
 18 47  1  0  0  0
 18 48  1  0  0  0
 18 49  1  0  0  0
 19 50  1  0  0  0
 20 51  1  0  0  0
 23 52  1  0  0  0
 23 53  1  0  0  0
 23 54  1  0  0  0
 24 55  1  0  0  0
 25 56  1  0  0  0
 28 57  1  0  0  0
 28 58  1  0  0  0
 31 59  1  0  0  0
 32 60  1  0  0  0
M  END
$$$$
