4rwl_ligand
  -I-interpret- 

 59 63  0  0  0  0  0  0  0  0999 V2000
   26.4490    4.5360   18.5740 C   0  0  0  0  0
   27.5160    3.3290   20.8420 C   0  0  0  0  0
   28.4960    0.6610   23.1140 C   0  0  0  0  0
   29.8480   -0.5690   25.2310 C   0  0  0  0  0
   29.0350   -1.3380   24.3700 C   0  0  0  0  0
   28.3370   -0.6890   23.2820 C   0  0  0  0  0
   26.8940   -0.8080   21.3880 C   0  0  0  0  0
   31.4050   -2.8320   27.7420 C   0  0  0  0  0
   27.2870    6.1430   13.9260 C   0  0  0  0  0
   26.5610    6.1780   15.1490 N   0  0  0  0  0
   26.7270    5.1100   16.0840 C   0  0  0  0  0
   27.4820    4.1810   15.8300 O   0  0  0  0  0
   25.9240    5.1440   17.3860 C   0  0  0  0  0
   24.6610    5.7590   17.4100 C   0  0  0  0  0
   23.8960    5.7930   18.6010 C   0  0  0  0  0
   24.4200    5.1830   19.7530 C   0  0  0  0  0
   25.7140    4.5540   19.7260 C   0  0  0  0  0
   27.7400    3.9100   18.5510 C   0  0  0  0  0
   28.2780    3.3060   19.6750 C   0  0  0  0  0
   26.2590    3.9440   20.9020 C   0  0  0  0  0
   28.0640    2.7270   21.9840 O   0  0  0  0  0
   27.8180    1.3290   22.0250 C   0  0  0  0  0
   29.3320    1.4410   23.9850 C   0  0  0  0  0
   29.9960    0.8110   25.0490 C   0  0  0  0  0
   27.5430   -1.4030   22.4150 N   0  0  0  0  0
   26.9810    0.5800   21.1300 C   0  0  0  0  0
   30.5660   -1.1200   26.3300 O   0  0  0  0  0
   30.5210   -2.5340   26.5090 C   0  0  0  0  0
   31.3170   -4.2310   28.3410 C   0  0  0  0  0
   30.6390   -3.0550   29.0370 C   0  0  0  0  0
   32.6620   -2.1420   27.9000 N   0  3  0  0  0
   30.8230    1.5490   25.9460 O   0  0  0  0  0
   31.0890    2.8840   25.5160 C   0  0  0  0  0
   28.9342   -2.4123   24.5240 H   0  0  0  0  0
   26.2785   -1.4237   20.7321 H   0  0  0  0  0
   28.3558    6.1294   14.1397 H   0  0  0  0  0
   27.0151    5.2464   13.3691 H   0  0  0  0  0
   27.0444    7.0265   13.3356 H   0  0  0  0  0
   25.9315    6.9536   15.3554 H   0  0  0  0  0
   24.2659    6.2148   16.5021 H   0  0  0  0  0
   22.9220    6.2817   18.6236 H   0  0  0  0  0
   23.8407    5.1862   20.6763 H   0  0  0  0  0
   28.3127    3.9099   17.6236 H   0  0  0  0  0
   29.2588    2.8312   19.6482 H   0  0  0  0  0
   25.6993    3.9583   21.8372 H   0  0  0  0  0
   29.4493    2.5121   23.8207 H   0  0  0  0  0
   26.4470    1.0510   20.3047 H   0  0  0  0  0
   29.4992   -2.8817   26.6608 H   0  0  0  0  0
   30.8852   -3.0570   25.6247 H   0  0  0  0  0
   31.9815   -5.0581   28.5910 H   0  0  0  0  0
   31.0740   -5.2446   28.0220 H   0  0  0  0  0
   29.6670   -2.8083   29.4643 H   0  0  0  0  0
   30.5776   -2.6212   30.0351 H   0  0  0  0  0
   33.1141   -2.4541   28.7594 H   0  0  0  0  0
   33.2643   -2.3485   27.1032 H   0  0  0  0  0
   32.4932   -1.1373   27.9488 H   0  0  0  0  0
   31.5968    2.8594   24.5518 H   0  0  0  0  0
   30.1490    3.4273   25.4193 H   0  0  0  0  0
   31.7236    3.3810   26.2497 H   0  0  0  0  0
  1 13  4  0  0  0
 17  1  4  0  0  0
 18  1  4  0  0  0
  2 19  4  0  0  0
  2 20  4  0  0  0
 21  2  1  0  0  0
  6  3  4  0  0  0
  3 22  4  0  0  0
 23  3  4  0  0  0
  4  5  4  0  0  0
  4 24  4  0  0  0
 27  4  1  0  0  0
  5  6  4  0  0  0
  6 25  4  0  0  0
 25  7  4  0  0  0
  7 26  4  0  0  0
 28  8  1  0  0  0
  8 29  1  0  0  0
  8 30  1  0  0  0
  8 31  1  0  0  0
 10  9  1  0  0  0
 11 10  1  0  0  0
 11 12  2  0  0  0
 13 11  1  0  0  0
 13 14  4  0  0  0
 15 14  4  0  0  0
 16 15  4  0  0  0
 17 16  4  0  0  0
 20 17  4  0  0  0
 19 18  4  0  0  0
 22 21  1  0  0  0
 22 26  4  0  0  0
 24 23  4  0  0  0
 24 32  1  0  0  0
 27 28  1  0  0  0
 29 30  1  0  0  0
 32 33  1  0  0  0
  5 34  1  0  0  0
  7 35  1  0  0  0
  9 36  1  0  0  0
  9 37  1  0  0  0
  9 38  1  0  0  0
 10 39  1  0  0  0
 14 40  1  0  0  0
 15 41  1  0  0  0
 16 42  1  0  0  0
 18 43  1  0  0  0
 19 44  1  0  0  0
 20 45  1  0  0  0
 23 46  1  0  0  0
 26 47  1  0  0  0
 28 48  1  0  0  0
 28 49  1  0  0  0
 29 50  1  0  0  0
 29 51  1  0  0  0
 30 52  1  0  0  0
 30 53  1  0  0  0
 31 54  1  0  0  0
 31 55  1  0  0  0
 31 56  1  0  0  0
 33 57  1  0  0  0
 33 58  1  0  0  0
 33 59  1  0  0  0
M  END
$$$$
