6gge_ligand
  -I-interpret- 

 47 50  0  0  0  0  0  0  0  0999 V2000
   91.6150   94.2960  -42.4500 N   0  0  0  0  0
   91.5550   95.6170  -41.9930 C   0  0  0  0  0
   91.2220   96.4770  -43.0800 C   0  0  0  0  0
   91.1110   97.8660  -42.8680 C   0  0  0  0  0
   91.3220   98.4030  -41.5830 C   0  0  0  0  0
   91.6680   97.5380  -40.5150 C   0  0  0  0  0
   91.7770   96.1520  -40.7100 C   0  0  0  0  0
   91.2020   99.8980  -41.3670 C   0  0  0  0  0
   91.3170   94.3100  -43.8110 C   0  0  0  0  0
   91.0710   95.6460  -44.2280 C   0  0  0  0  0
   90.7510   95.8840  -45.5760 C   0  0  0  0  0
   90.6760   94.8140  -46.4790 C   0  0  0  0  0
   90.9120   93.4810  -46.0760 C   0  0  0  0  0
   91.2510   93.2450  -44.7270 C   0  0  0  0  0
   91.9240   93.1030  -41.6830 C   0  0  0  0  0
   90.8510   92.3790  -47.0420 C   0  0  0  0  0
   90.4480   92.3930  -48.3560 C   0  0  0  0  0
   90.5570   91.1230  -48.9900 C   0  0  0  0  0
   91.0520   90.1450  -48.1670 C   0  0  0  0  0
   91.3920   90.7860  -46.5790 S   0  0  0  0  0
   91.2870   88.7140  -48.5270 C   0  0  0  0  0
   93.4290   92.8220  -41.6510 C   0  0  0  0  0
   89.8350  100.2520  -40.9400 N   0  3  0  0  0
   89.6330  101.7000  -40.6930 C   0  0  0  0  0
   90.8616   98.5254  -43.6993 H   0  0  0  0  0
   91.8526   97.9559  -39.5254 H   0  0  0  0  0
   92.0309   95.4969  -39.8766 H   0  0  0  0  0
   91.4233  100.4094  -42.3038 H   0  0  0  0  0
   91.9044  100.2005  -40.5903 H   0  0  0  0  0
   90.5611   96.9009  -45.9194 H   0  0  0  0  0
   90.4287   95.0165  -47.5211 H   0  0  0  0  0
   91.4633   92.2296  -44.3923 H   0  0  0  0  0
   91.4269   92.2547  -42.1535 H   0  0  0  0  0
   91.5819   93.2555  -40.6594 H   0  0  0  0  0
   90.0818   93.2865  -48.8617 H   0  0  0  0  0
   90.2746   90.9458  -50.0278 H   0  0  0  0  0
   90.3450   88.2578  -48.8313 H   0  0  0  0  0
   92.0006   88.6600  -49.3492 H   0  0  0  0  0
   91.6862   88.1840  -47.6623 H   0  0  0  0  0
   93.7924   92.6792  -42.6687 H   0  0  0  0  0
   93.9454   93.6665  -41.1946 H   0  0  0  0  0
   93.6167   91.9210  -41.0670 H   0  0  0  0  0
   89.6595   99.7685  -40.0592 H   0  0  0  0  0
   89.2042   99.9841  -41.6955 H   0  0  0  0  0
   90.3110  102.0312  -39.9064 H   0  0  0  0  0
   89.8375  102.2554  -41.6083 H   0  0  0  0  0
   88.6025  101.8742  -40.3833 H   0  0  0  0  0
  1  2  4  0  0  0
  1  9  4  0  0  0
  1 15  1  0  0  0
  2  3  4  0  0  0
  2  7  4  0  0  0
  3  4  4  0  0  0
  3 10  4  0  0  0
  4  5  4  0  0  0
  5  6  4  0  0  0
  5  8  1  0  0  0
  6  7  4  0  0  0
  8 23  1  0  0  0
  9 10  4  0  0  0
  9 14  4  0  0  0
 10 11  4  0  0  0
 11 12  4  0  0  0
 12 13  4  0  0  0
 13 14  4  0  0  0
 13 16  1  0  0  0
 15 22  1  0  0  0
 16 17  4  0  0  0
 16 20  4  0  0  0
 17 18  4  0  0  0
 18 19  4  0  0  0
 19 20  4  0  0  0
 19 21  1  0  0  0
 23 24  1  0  0  0
  4 25  1  0  0  0
  6 26  1  0  0  0
  7 27  1  0  0  0
  8 28  1  0  0  0
  8 29  1  0  0  0
 11 30  1  0  0  0
 12 31  1  0  0  0
 14 32  1  0  0  0
 15 33  1  0  0  0
 15 34  1  0  0  0
 17 35  1  0  0  0
 18 36  1  0  0  0
 21 37  1  0  0  0
 21 38  1  0  0  0
 21 39  1  0  0  0
 22 40  1  0  0  0
 22 41  1  0  0  0
 22 42  1  0  0  0
 23 43  1  0  0  0
 23 44  1  0  0  0
 24 45  1  0  0  0
 24 46  1  0  0  0
 24 47  1  0  0  0
M  END
$$$$
