5ohy_ligand
  -I-interpret- 

 27 27  0  0  0  0  0  0  0  0999 V2000
   25.4110   10.2210   30.3030 O   0  0  0  0  0
   25.4930   10.6510   28.8210 S   0  0  0  0  0
   25.5580   12.0760   28.7690 O   0  0  0  0  0
   26.5040   10.0200   28.0500 O   0  0  0  0  0
   23.9130   10.1910   28.1670 C   0  0  0  0  0
   23.4080    8.7670   28.4030 C   0  0  0  0  0
   22.8330    8.6930   29.8090 C   0  0  0  0  0
   22.1540    7.4720   30.2200 N   0  3  0  0  0
   21.2160    6.9620   29.1620 C   0  0  0  0  0
   21.8210    6.8870   27.7560 C   0  0  0  0  0
   20.8380    6.3990   26.8350 O   0  0  0  0  0
   22.4040    8.2480   27.3470 C   0  0  0  0  0
   23.0320    8.1750   26.0470 O   0  0  0  0  0
   25.3666    9.2634   30.3552 H   0  0  0  0  0
   24.0170   10.2795   27.0856 H   0  0  0  0  0
   23.1964   10.8343   28.6776 H   0  0  0  0  0
   24.2613    8.0973   28.2959 H   0  0  0  0  0
   22.0688    9.4694   29.8451 H   0  0  0  0  0
   23.6933    8.7774   30.4730 H   0  0  0  0  0
   21.6078    7.6782   31.0564 H   0  0  0  0  0
   22.8611    6.7567   30.3894 H   0  0  0  0  0
   20.3815    7.6615   29.1125 H   0  0  0  0  0
   20.9400    5.9460   29.4443 H   0  0  0  0  0
   22.6525    6.1823   27.7461 H   0  0  0  0  0
   21.2200    6.3532   25.9555 H   0  0  0  0  0
   21.5762    8.9547   27.2886 H   0  0  0  0  0
   23.3872    9.0363   25.8157 H   0  0  0  0  0
  1  2  1  0  0  0
  2  3  2  0  0  0
  2  4  2  0  0  0
  2  5  1  0  0  0
  5  6  1  0  0  0
  6  7  1  0  0  0
  6 12  1  0  0  0
  7  8  1  0  0  0
  8  9  1  0  0  0
  9 10  1  0  0  0
 10 11  1  0  0  0
 10 12  1  0  0  0
 12 13  1  0  0  0
  1 14  1  0  0  0
  5 15  1  0  0  0
  5 16  1  0  0  0
  6 17  1  0  0  0
  7 18  1  0  0  0
  7 19  1  0  0  0
  8 20  1  0  0  0
  8 21  1  0  0  0
  9 22  1  0  0  0
  9 23  1  0  0  0
 10 24  1  0  0  0
 11 25  1  0  0  0
 12 26  1  0  0  0
 13 27  1  0  0  0
M  END
$$$$
