2csm_ligand
  -I-interpret- 

 25 25  0  0  0  0  0  0  0  0999 V2000
   73.0690   71.4500   17.7680 N   0  3  0  0  0
   71.8060   72.1970   17.8620 C   0  0  0  0  0
   72.0030   73.5330   17.1720 C   0  0  0  0  0
   73.1500   73.8800   16.8340 O   0  0  0  0  0
   71.4050   72.3760   19.3310 C   0  0  0  0  0
   72.4570   73.0060   20.2280 C   0  0  0  0  0
   72.7510   74.3690   20.1480 C   0  0  0  0  0
   73.0930   72.2600   21.2230 C   0  0  0  0  0
   73.6440   74.9790   21.0450 C   0  0  0  0  0
   73.9880   72.8620   22.1240 C   0  0  0  0  0
   74.2540   74.2190   22.0310 C   0  0  0  0  0
   75.0990   74.8030   22.9570 O   0  0  0  0  0
   70.9930   74.1880   16.9080 O   0  0  0  0  0
   73.3242   71.3380   16.7868 H   0  0  0  0  0
   73.8034   71.9636   18.2550 H   0  0  0  0  0
   72.9525   70.5321   18.1972 H   0  0  0  0  0
   70.9976   71.6527   17.3738 H   0  0  0  0  0
   73.7839   73.2276   17.1408 H   0  0  0  0  0
   71.2212   71.3765   19.7251 H   0  0  0  0  0
   70.5490   73.0507   19.3376 H   0  0  0  0  0
   72.2777   74.9723   19.3733 H   0  0  0  0  0
   72.8915   71.1917   21.3021 H   0  0  0  0  0
   73.8562   76.0452   20.9660 H   0  0  0  0  0
   74.4723   72.2625   22.8948 H   0  0  0  0  0
   75.4270   74.1303   23.5582 H   0  0  0  0  0
  1  2  1  0  0  0
  2  3  1  0  0  0
  2  5  1  0  0  0
  3  4  1  0  0  0
  3 13  2  0  0  0
  5  6  1  0  0  0
  6  7  4  0  0  0
  6  8  4  0  0  0
  7  9  4  0  0  0
  8 10  4  0  0  0
  9 11  4  0  0  0
 10 11  4  0  0  0
 11 12  1  0  0  0
  1 14  1  0  0  0
  1 15  1  0  0  0
  1 16  1  0  0  0
  2 17  1  0  0  0
  4 18  1  0  0  0
  5 19  1  0  0  0
  5 20  1  0  0  0
  7 21  1  0  0  0
  8 22  1  0  0  0
  9 23  1  0  0  0
 10 24  1  0  0  0
 12 25  1  0  0  0
M  END
$$$$
