3s1g_ligand
  -I-interpret- 

 24 26  0  0  0  0  0  0  0  0999 V2000
   15.9290   16.7050   22.1700 N   0  0  0  0  0
   19.0480   18.0790   16.0260 N   0  0  0  0  0
   18.7570   17.7600   19.3990 C   0  0  0  0  0
   18.6570   17.8790   17.2550 C   0  0  0  0  0
   18.1380   17.8710   14.9000 C   0  0  0  0  0
   17.4930   17.3930   18.9710 C   0  0  0  0  0
   16.5030   17.0230   19.8840 C   0  0  0  0  0
   16.1760   16.7050   23.4930 C   0  0  0  0  0
   16.8410   17.0520   21.2440 C   0  0  0  0  0
   18.1280   17.4320   21.6660 C   0  0  0  0  0
   19.1250   17.8040   20.7470 C   0  0  0  0  0
   19.4200   18.0390   18.2630 N   0  0  0  0  0
   17.4700   17.4840   17.6130 N   0  0  0  0  0
   18.3510   17.4180   23.0470 C   0  0  0  0  0
   19.5830   17.7870   23.5410 O   0  0  0  0  0
   17.3960   17.0670   23.9420 N   0  0  0  0  0
   20.0044   18.3855   15.8477 H   0  0  0  0  0
   17.8018   16.8342   14.8930 H   0  0  0  0  0
   17.2778   18.5326   15.0027 H   0  0  0  0  0
   18.6586   18.0918   13.9682 H   0  0  0  0  0
   15.5086   16.7240   19.5526 H   0  0  0  0  0
   15.3961   16.4146   24.1969 H   0  0  0  0  0
   20.1222   18.1076   21.0656 H   0  0  0  0  0
   17.5967   17.0763   24.9420 H   0  0  0  0  0
  1  8  2  0  0  0
  9  1  1  0  0  0
  4  2  1  0  0  0
  2  5  1  0  0  0
  6  3  4  0  0  0
  3 11  4  0  0  0
  3 12  4  0  0  0
  4 12  4  0  0  0
 13  4  4  0  0  0
  7  6  4  0  0  0
  6 13  4  0  0  0
  7  9  4  0  0  0
  8 16  1  0  0  0
  9 10  4  0  0  0
 10 11  4  0  0  0
 10 14  1  0  0  0
 14 15  2  0  0  0
 14 16  1  0  0  0
  2 17  1  0  0  0
  5 18  1  0  0  0
  5 19  1  0  0  0
  5 20  1  0  0  0
  7 21  1  0  0  0
  8 22  1  0  0  0
 11 23  1  0  0  0
 16 24  1  0  0  0
M  END
$$$$
