5oul_ligand
  -I-interpret- 

 28 29  0  0  0  0  0  0  0  0999 V2000
 -115.2390 -175.1420  309.0660 C   0  0  0  0  0
 -114.9740 -176.4060  309.5640 C   0  0  0  0  0
 -113.7130 -176.7460  310.0210 C   0  0  0  0  0
 -112.6690 -175.8250  309.9880 C   0  0  0  0  0
 -112.9450 -174.5580  309.4760 C   0  0  0  0  0
 -114.2050 -174.2170  309.0290 C   0  0  0  0  0
 -109.1890 -175.8630  313.3630 F   0  0  0  0  0
 -109.6300 -176.2780  312.1500 C   0  0  0  0  0
 -108.8260 -177.0980  311.4110 C   0  0  0  0  0
 -109.2860 -177.5060  310.1720 C   0  0  0  0  0
 -110.5240 -177.0930  309.7110 C   0  0  0  0  0
 -110.8620 -175.8460  311.7270 C   0  0  0  0  0
 -111.3310 -176.2580  310.4810 C   0  0  0  0  0
 -111.6880 -173.3710  309.3390 Cl  0  0  0  0  0
 -116.5950 -174.7280  308.5630 C   0  0  0  0  0
 -117.4780 -175.8000  308.1630 N   0  3  0  0  0
 -115.7729 -177.1468  309.5967 H   0  0  0  0  0
 -113.5345 -177.7477  310.4119 H   0  0  0  0  0
 -114.3896 -173.2141  308.6441 H   0  0  0  0  0
 -107.8542 -177.4202  311.7850 H   0  0  0  0  0
 -108.6687 -178.1579  309.5538 H   0  0  0  0  0
 -110.8721 -177.4253  308.7330 H   0  0  0  0  0
 -111.4645 -175.1906  312.3560 H   0  0  0  0  0
 -116.4197 -174.1273  307.6705 H   0  0  0  0  0
 -117.0869 -174.2203  309.3927 H   0  0  0  0  0
 -118.3629 -175.4078  307.8413 H   0  0  0  0  0
 -117.0454 -176.3311  307.4073 H   0  0  0  0  0
 -117.6466 -176.4149  308.9591 H   0  0  0  0  0
  2  1  4  0  0  0
  6  1  4  0  0  0
  1 15  1  0  0  0
  3  2  4  0  0  0
  4  3  4  0  0  0
  4  5  4  0  0  0
 13  4  1  0  0  0
  5  6  4  0  0  0
  5 14  1  0  0  0
  8  7  1  0  0  0
  9  8  4  0  0  0
  8 12  4  0  0  0
 10  9  4  0  0  0
 11 10  4  0  0  0
 11 13  4  0  0  0
 12 13  4  0  0  0
 15 16  1  0  0  0
  2 17  1  0  0  0
  3 18  1  0  0  0
  6 19  1  0  0  0
  9 20  1  0  0  0
 10 21  1  0  0  0
 11 22  1  0  0  0
 12 23  1  0  0  0
 15 24  1  0  0  0
 15 25  1  0  0  0
 16 26  1  0  0  0
 16 27  1  0  0  0
 16 28  1  0  0  0
M  END
$$$$
