3bti_ligand
  -I-interpret- 

 44 48  0  0  0  0  0  0  0  0999 V2000
  -64.7360  -44.6210    2.6970 C   0  0  0  0  0
  -66.1490  -44.2640    3.1580 C   0  0  0  0  0
  -64.4300  -44.5400    1.2970 N   0  0  0  0  0
  -63.7000  -44.9940    3.6140 C   0  0  0  0  0
  -66.9760  -43.4720    2.2510 C   0  0  0  0  0
  -66.6830  -44.6590    4.4230 C   0  0  0  0  0
  -63.1480  -44.8380    0.8190 C   0  0  0  0  0
  -65.4900  -44.1460    0.3310 C   0  0  0  0  0
  -62.3930  -45.2990    3.1160 C   0  0  0  0  0
  -68.2910  -43.0930    2.6270 C   0  0  0  0  0
  -66.4140  -43.0450    0.8940 C   0  0  0  0  0
  -68.0210  -44.2650    4.7860 C   0  0  0  0  0
  -62.1060  -45.1840    1.7060 C   0  0  0  0  0
  -61.3490  -45.6450    4.0130 C   0  0  0  0  0
  -68.8160  -43.4860    3.8910 C   0  0  0  0  0
  -68.7630  -44.4980    5.9060 O   0  0  0  0  0
  -60.7940  -45.4970    1.1780 C   0  0  0  0  0
  -60.0440  -45.9290    3.5220 C   0  0  0  0  0
  -70.0190  -43.2560    4.4790 O   0  0  0  0  0
  -69.8430  -43.5510    5.8690 C   0  0  0  0  0
  -59.7360  -45.8300    2.1090 C   0  0  0  0  0
  -60.5880  -45.3700   -0.2110 O   0  0  0  0  0
  -58.4580  -46.1020    1.6350 O   0  0  0  0  0
  -59.3220  -45.6080   -0.8800 C   0  0  0  0  0
  -57.3670  -46.4600    2.5110 C   0  0  0  0  0
  -63.9057  -45.0451    4.6832 H   0  0  0  0  0
  -66.0818  -45.2550    5.1097 H   0  0  0  0  0
  -62.8111  -43.9061    0.3649 H   0  0  0  0  0
  -63.2916  -45.7346    0.2161 H   0  0  0  0  0
  -66.0996  -45.0246    0.1202 H   0  0  0  0  0
  -65.0048  -43.7560   -0.5637 H   0  0  0  0  0
  -68.9010  -42.4993    1.9462 H   0  0  0  0  0
  -65.8407  -42.1262    1.0178 H   0  0  0  0  0
  -67.2392  -42.8821    0.2008 H   0  0  0  0  0
  -61.5479  -45.6934    5.0836 H   0  0  0  0  0
  -59.2621  -46.2263    4.2208 H   0  0  0  0  0
  -69.6197  -42.6561    6.4499 H   0  0  0  0  0
  -70.7516  -43.9521    6.3182 H   0  0  0  0  0
  -58.5696  -44.9258   -0.4844 H   0  0  0  0  0
  -59.0084  -46.6373   -0.7060 H   0  0  0  0  0
  -59.4407  -45.4390   -1.9503 H   0  0  0  0  0
  -57.1924  -45.6515    3.2209 H   0  0  0  0  0
  -57.6211  -47.3716    3.0519 H   0  0  0  0  0
  -56.4670  -46.6262    1.9190 H   0  0  0  0  0
  1  2  1  0  0  0
  1  3  1  0  0  0
  1  4  2  0  0  0
  2  5  4  0  0  0
  2  6  4  0  0  0
  3  7  1  0  0  0
  3  8  1  0  0  0
  4  9  1  0  0  0
  5 10  4  0  0  0
  5 11  1  0  0  0
  6 12  4  0  0  0
  7 13  1  0  0  0
  8 11  1  0  0  0
  9 13  4  0  0  0
  9 14  4  0  0  0
 10 15  4  0  0  0
 12 15  4  0  0  0
 12 16  1  0  0  0
 13 17  4  0  0  0
 14 18  4  0  0  0
 15 19  1  0  0  0
 16 20  1  0  0  0
 17 21  4  0  0  0
 17 22  1  0  0  0
 18 21  4  0  0  0
 19 20  1  0  0  0
 21 23  1  0  0  0
 22 24  1  0  0  0
 23 25  1  0  0  0
  4 26  1  0  0  0
  6 27  1  0  0  0
  7 28  1  0  0  0
  7 29  1  0  0  0
  8 30  1  0  0  0
  8 31  1  0  0  0
 10 32  1  0  0  0
 11 33  1  0  0  0
 11 34  1  0  0  0
 14 35  1  0  0  0
 18 36  1  0  0  0
 20 37  1  0  0  0
 20 38  1  0  0  0
 24 39  1  0  0  0
 24 40  1  0  0  0
 24 41  1  0  0  0
 25 42  1  0  0  0
 25 43  1  0  0  0
 25 44  1  0  0  0
M  END
$$$$
