4oz1_ligand
  -I-interpret- 

128130  0  0  0  0  0  0  0  0999 V2000
   23.5280  -69.5920   87.9570 N   0  3  0  0  0
   22.8540  -69.7120   89.2470 C   0  0  0  0  0
   23.3590  -68.6550   90.2380 C   0  0  0  0  0
   24.2340  -68.9330   91.0730 O   0  0  0  0  0
   23.0610  -71.1160   89.8190 C   0  0  0  0  0
   22.7970  -67.4500   90.1480 N   0  0  0  0  0
   23.2980  -66.3130   90.9200 C   0  0  0  0  0
   22.8730  -66.4040   92.3820 C   0  0  0  0  0
   22.0250  -67.2230   92.7470 O   0  0  0  0  0
   22.8160  -64.9910   90.3130 C   0  0  0  0  0
   21.5180  -64.6380   90.7670 O   0  0  0  0  0
   23.4940  -65.5790   93.2270 N   0  0  0  0  0
   23.1730  -65.5750   94.6550 C   0  0  0  0  0
   22.0990  -64.5530   94.9830 C   0  0  0  0  0
   21.8330  -64.2870   96.1610 O   0  0  0  0  0
   24.4290  -65.3060   95.4740 C   0  0  0  0  0
   25.4910  -66.3190   95.1990 C   0  0  0  0  0
   26.6300  -66.2240   96.1590 C   0  0  0  0  0
   26.2840  -66.7050   97.4940 N   0  0  0  0  0
   27.0900  -66.6040   98.5430 C   0  0  0  0  0
   28.2900  -66.0510   98.4110 N   0  0  0  0  0
   26.7130  -67.0600   99.7220 N   0  0  0  0  0
   21.4910  -63.9600   93.9530 N   0  0  0  0  0
   20.3480  -63.0870   94.1730 C   0  0  0  0  0
   19.2180  -63.9280   94.7300 C   0  0  0  0  0
   19.0180  -65.0690   94.3100 O   0  0  0  0  0
   19.9090  -62.3830   92.8810 C   0  0  0  0  0
   20.8810  -61.3300   92.4390 C   0  0  0  0  0
   21.7050  -61.3850   91.3560 C   0  0  0  0  0
   21.1460  -60.0790   93.0840 C   0  0  0  0  0
   22.4590  -60.2350   91.2790 N   0  0  0  0  0
   22.1380  -59.4200   92.3290 C   0  0  0  0  0
   20.6400  -59.4480   94.2230 C   0  0  0  0  0
   22.6270  -58.1620   92.6760 C   0  0  0  0  0
   21.1260  -58.2060   94.5700 C   0  0  0  0  0
   22.1090  -57.5710   93.7980 C   0  0  0  0  0
   18.5190  -63.3490   95.6990 N   0  0  0  0  0
   17.4030  -63.9710   96.4120 C   0  0  0  0  0
   17.8370  -65.1410   97.3090 C   0  0  0  0  0
   17.0070  -65.8410   97.8810 O   0  0  0  0  0
   16.3470  -64.4030   95.4030 C   0  0  0  0  0
   15.9690  -63.2720   94.4790 C   0  0  0  0  0
   15.6620  -62.1780   95.0120 O   0  0  0  0  0
   16.0390  -63.4440   93.2400 O   0  0  0  0  0
   19.1410  -65.3310   97.4800 N   0  0  0  0  0
   19.6060  -66.3150   98.4520 C   0  0  0  0  0
   19.3020  -65.8720   99.8850 C   0  0  0  0  0
   19.8520  -64.8860  100.3690 O   0  0  0  0  0
   21.1040  -66.5570   98.2970 C   0  0  0  0  0
   21.6790  -67.5000   99.3500 C   0  0  0  0  0
   23.1860  -67.6350   99.2270 C   0  0  0  0  0
   23.8770  -67.4860  100.2640 O   0  0  0  0  0
   23.6650  -67.8930   98.1020 O   0  0  0  0  0
   18.4250  -66.6070  100.5590 N   0  0  0  0  0
   18.1070  -66.3540  101.9640 C   0  0  0  0  0
   19.2490  -66.7700  102.9020 C   0  0  0  0  0
   20.0670  -67.6340  102.5610 O   0  0  0  0  0
   16.8430  -67.1170  102.4030 C   0  0  0  0  0
   17.0500  -68.5250  102.2020 O   0  0  0  0  0
   15.6210  -66.6490  101.6170 C   0  0  0  0  0
   19.3100  -66.1500  104.0950 N   0  0  0  0  0
   20.3790  -66.5530  105.0200 C   0  0  0  0  0
   20.1720  -67.9710  105.5430 C   0  0  0  0  0
   21.0600  -68.8160  105.4100 O   0  0  0  0  0
   20.2940  -65.5210  106.1590 C   0  0  0  0  0
   19.0380  -64.7470  105.9470 C   0  0  0  0  0
   18.5660  -64.9580  104.5480 C   0  0  0  0  0
   19.1160  -68.2900  106.0960 O   0  0  0  0  0
   23.3836  -68.6532   87.5853 H   0  0  0  0  0
   24.5265  -69.7606   88.0794 H   0  0  0  0  0
   23.1430  -70.2787   87.3084 H   0  0  0  0  0
   21.7886  -69.5434   89.0901 H   0  0  0  0  0
   24.1228  -71.2786   90.0041 H   0  0  0  0  0
   22.5092  -71.2109   90.7542 H   0  0  0  0  0
   22.6980  -71.8551   89.1048 H   0  0  0  0  0
   21.9991  -67.3175   89.5265 H   0  0  0  0  0
   24.3868  -66.3429   90.8796 H   0  0  0  0  0
   22.7778  -65.1076   89.2299 H   0  0  0  0  0
   23.5080  -64.2051   90.6158 H   0  0  0  0  0
   21.2545  -63.8071   90.3647 H   0  0  0  0  0
   24.2050  -64.9398   92.8715 H   0  0  0  0  0
   22.7820  -66.5592   94.9130 H   0  0  0  0  0
   24.1688  -65.3578   96.5312 H   0  0  0  0  0
   24.8127  -64.3223   95.2035 H   0  0  0  0  0
   25.8787  -66.1376   94.1966 H   0  0  0  0  0
   25.0467  -67.3093   95.2996 H   0  0  0  0  0
   26.9094  -65.1738   96.2438 H   0  0  0  0  0
   27.4406  -66.8458   95.7790 H   0  0  0  0  0
   25.3724  -67.1427   97.6272 H   0  0  0  0  0
   28.9111  -65.9818   99.2171 H   0  0  0  0  0
   28.5907  -65.6955   97.5035 H   0  0  0  0  0
   25.7964  -67.4938   99.8317 H   0  0  0  0  0
   21.8303  -64.1202   93.0045 H   0  0  0  0  0
   20.6254  -62.3023   94.8768 H   0  0  0  0  0
   18.9522  -61.8971   93.0723 H   0  0  0  0  0
   19.8477  -63.1344   92.0938 H   0  0  0  0  0
   21.7597  -62.2167   90.6536 H   0  0  0  0  0
   19.8725  -59.9306   94.8280 H   0  0  0  0  0
   23.3922  -57.6674   92.0777 H   0  0  0  0  0
   20.7396  -57.7089   95.4598 H   0  0  0  0  0
   22.4686  -56.5864   94.0968 H   0  0  0  0  0
   18.7794  -62.3997   95.9663 H   0  0  0  0  0
   16.9817  -63.2287   97.0900 H   0  0  0  0  0
   15.4564  -64.7156   95.9481 H   0  0  0  0  0
   16.7550  -65.2167   94.8034 H   0  0  0  0  0
   15.6704  -62.2751   95.9670 H   0  0  0  0  0
   19.8135  -64.7918   96.9346 H   0  0  0  0  0
   19.0698  -67.2439   98.2575 H   0  0  0  0  0
   21.6050  -65.5955   98.4090 H   0  0  0  0  0
   21.2628  -67.0179   97.3221 H   0  0  0  0  0
   21.2348  -68.4849   99.2057 H   0  0  0  0  0
   21.4518  -67.0918  100.3348 H   0  0  0  0  0
   23.2999  -67.2951  101.0070 H   0  0  0  0  0
   17.9563  -67.3757  100.0796 H   0  0  0  0  0
   17.9459  -65.2785  102.0380 H   0  0  0  0  0
   16.6587  -66.9174  103.4586 H   0  0  0  0  0
   16.2644  -69.0049  102.4744 H   0  0  0  0  0
   15.4651  -65.5842  101.7902 H   0  0  0  0  0
   15.7850  -66.8253  100.5539 H   0  0  0  0  0
   14.7434  -67.2045  101.9476 H   0  0  0  0  0
   21.3562  -66.5690  104.5373 H   0  0  0  0  0
   21.1617  -64.8613  106.1494 H   0  0  0  0  0
   20.2847  -66.0159  107.1301 H   0  0  0  0  0
   19.2276  -63.6867  106.1144 H   0  0  0  0  0
   18.2748  -65.0870  106.6470 H   0  0  0  0  0
   17.4866  -65.0997  104.4934 H   0  0  0  0  0
   18.7511  -64.0905  103.9146 H   0  0  0  0  0
   18.5289  -67.5310  106.1242 H   0  0  0  0  0
  1  2  1  0  0  0
  2  3  1  0  0  0
  2  5  1  0  0  0
  3  4  2  0  0  0
  3  6  1  0  0  0
  6  7  1  0  0  0
  7  8  1  0  0  0
  7 10  1  0  0  0
  8  9  2  0  0  0
  8 12  1  0  0  0
 10 11  1  0  0  0
 12 13  1  0  0  0
 13 14  1  0  0  0
 13 16  1  0  0  0
 14 15  2  0  0  0
 14 23  1  0  0  0
 16 17  1  0  0  0
 17 18  1  0  0  0
 18 19  1  0  0  0
 19 20  1  0  0  0
 20 21  1  0  0  0
 20 22  2  0  0  0
 23 24  1  0  0  0
 24 25  1  0  0  0
 24 27  1  0  0  0
 25 26  2  0  0  0
 25 37  1  0  0  0
 27 28  1  0  0  0
 28 29  4  0  0  0
 28 30  4  0  0  0
 29 31  4  0  0  0
 30 32  4  0  0  0
 30 33  4  0  0  0
 31 32  4  0  0  0
 32 34  4  0  0  0
 33 35  4  0  0  0
 34 36  4  0  0  0
 35 36  4  0  0  0
 37 38  1  0  0  0
 38 39  1  0  0  0
 38 41  1  0  0  0
 39 40  2  0  0  0
 39 45  1  0  0  0
 41 42  1  0  0  0
 42 43  1  0  0  0
 42 44  2  0  0  0
 45 46  1  0  0  0
 46 47  1  0  0  0
 46 49  1  0  0  0
 47 48  2  0  0  0
 47 54  1  0  0  0
 49 50  1  0  0  0
 50 51  1  0  0  0
 51 52  1  0  0  0
 51 53  2  0  0  0
 54 55  1  0  0  0
 55 56  1  0  0  0
 55 58  1  0  0  0
 56 57  2  0  0  0
 56 61  1  0  0  0
 58 59  1  0  0  0
 58 60  1  0  0  0
 61 62  1  0  0  0
 61 67  1  0  0  0
 62 63  1  0  0  0
 62 65  1  0  0  0
 63 64  2  0  0  0
 63 68  1  0  0  0
 65 66  1  0  0  0
 66 67  1  0  0  0
  1 69  1  0  0  0
  1 70  1  0  0  0
  1 71  1  0  0  0
  2 72  1  0  0  0
  5 73  1  0  0  0
  5 74  1  0  0  0
  5 75  1  0  0  0
  6 76  1  0  0  0
  7 77  1  0  0  0
 10 78  1  0  0  0
 10 79  1  0  0  0
 11 80  1  0  0  0
 12 81  1  0  0  0
 13 82  1  0  0  0
 16 83  1  0  0  0
 16 84  1  0  0  0
 17 85  1  0  0  0
 17 86  1  0  0  0
 18 87  1  0  0  0
 18 88  1  0  0  0
 19 89  1  0  0  0
 21 90  1  0  0  0
 21 91  1  0  0  0
 22 92  1  0  0  0
 23 93  1  0  0  0
 24 94  1  0  0  0
 27 95  1  0  0  0
 27 96  1  0  0  0
 29 97  1  0  0  0
 33 98  1  0  0  0
 34 99  1  0  0  0
 35100  1  0  0  0
 36101  1  0  0  0
 37102  1  0  0  0
 38103  1  0  0  0
 41104  1  0  0  0
 41105  1  0  0  0
 43106  1  0  0  0
 45107  1  0  0  0
 46108  1  0  0  0
 49109  1  0  0  0
 49110  1  0  0  0
 50111  1  0  0  0
 50112  1  0  0  0
 52113  1  0  0  0
 54114  1  0  0  0
 55115  1  0  0  0
 58116  1  0  0  0
 59117  1  0  0  0
 60118  1  0  0  0
 60119  1  0  0  0
 60120  1  0  0  0
 62121  1  0  0  0
 65122  1  0  0  0
 65123  1  0  0  0
 66124  1  0  0  0
 66125  1  0  0  0
 67126  1  0  0  0
 67127  1  0  0  0
 68128  1  0  0  0
M  END
$$$$
