### 
### Created by X-TOOL on Mon Sep 10 21:13:16 2018
### 

@<TRIPOS>MOLECULE
4oz1_ligand
  127   129     1     0     0
SMALL
GAST_HUCK


@<TRIPOS>ATOM
      1 N          23.5280  -69.5920   87.9570 N.4       1 LYS         0.2377
      2 CA         22.8540  -69.7120   89.2470 C.3       1 LYS         0.0621
      3 C          23.3590  -68.6550   90.2380 C.2       1 LYS         0.2265
      4 O          24.2340  -68.9330   91.0730 O.2       1 LYS        -0.3907
      5 CB         23.0610  -71.1160   89.8190 C.3       1 LYS        -0.0040
      6 N          22.7970  -67.4500   90.1480 N.am      1 SER        -0.2589
      7 CA         23.2980  -66.3130   90.9200 C.3       1 SER         0.1540
      8 C          22.8730  -66.4040   92.3820 C.2       1 SER         0.2062
      9 O          22.0250  -67.2230   92.7470 O.2       1 SER        -0.3943
     10 CB         22.8160  -64.9910   90.3130 C.3       1 SER         0.0843
     11 OG         21.5180  -64.6380   90.7670 O.3       1 SER        -0.3903
     12 N          23.4940  -65.5790   93.2270 N.am      1 ARG        -0.2637
     13 CA         23.1730  -65.5750   94.6550 C.3       1 ARG         0.1311
     14 C          22.0990  -64.5530   94.9830 C.2       1 ARG         0.2040
     15 O          21.8330  -64.2870   96.1610 O.2       1 ARG        -0.3944
     16 CB         24.4290  -65.3060   95.4740 C.3       1 ARG        -0.0092
     17 CG         25.4910  -66.3190   95.1990 C.3       1 ARG        -0.0156
     18 CD         26.6300  -66.2240   96.1590 C.3       1 ARG         0.0627
     19 NE         26.2840  -66.7050   97.4940 N.pl3     1 ARG        -0.2723
     20 CZ         27.0900  -66.6040   98.5430 C.cat     1 ARG         0.2882
     21 NH1        28.2900  -66.0510   98.4110 N.pl3     1 ARG        -0.2849
     22 NH2        26.7130  -67.0600   99.7220 N.pl3     1 ARG        -0.2849
     23 N          21.4910  -63.9600   93.9530 N.am      1 TRP        -0.2627
     24 CA         20.3480  -63.0870   94.1730 C.3       1 TRP         0.1352
     25 C          19.2180  -63.9280   94.7300 C.2       1 TRP         0.2052
     26 O          19.0180  -65.0690   94.3100 O.2       1 TRP        -0.3942
     27 CB         19.9090  -62.3830   92.8810 C.3       1 TRP         0.0042
     28 CG         20.8810  -61.3300   92.4390 C.2       1 TRP        -0.0418
     29 CD1        21.7050  -61.3850   91.3560 C.2       1 TRP         0.0167
     30 CD2        21.1460  -60.0790   93.0840 C.ar      1 TRP        -0.0214
     31 NE1        22.4590  -60.2350   91.2790 N.pl3     1 TRP        -0.2890
     32 CE2        22.1380  -59.4200   92.3290 C.ar      1 TRP         0.0603
     33 CE3        20.6400  -59.4480   94.2230 C.ar      1 TRP        -0.0747
     34 CZ2        22.6270  -58.1620   92.6760 C.ar      1 TRP        -0.0443
     35 CZ3        21.1260  -58.2060   94.5700 C.ar      1 TRP        -0.0792
     36 CH2        22.1090  -57.5710   93.7980 C.ar      1 TRP        -0.0768
     37 N          18.5190  -63.3490   95.6990 N.am      1 ASP        -0.2621
     38 CA         17.4030  -63.9710   96.4120 C.3       1 ASP         0.1423
     39 C          17.8370  -65.1410   97.3090 C.2       1 ASP         0.2056
     40 O          17.0070  -65.8410   97.8810 O.2       1 ASP        -0.3943
     41 CB         16.3470  -64.4030   95.4030 C.3       1 ASP         0.0406
     42 CG         15.9690  -63.2720   94.4790 C.2       1 ASP         0.0393
     43 OD1        15.6620  -62.1780   95.0120 O.co2     1 ASP        -0.5688
     44 OD2        16.0390  -63.4440   93.2400 O.co2     1 ASP        -0.5688
     45 N          19.1410  -65.3310   97.4800 N.am      1 GLU        -0.2635
     46 CA         19.6060  -66.3150   98.4520 C.3       1 GLU         0.1325
     47 C          19.3020  -65.8720   99.8850 C.2       1 GLU         0.2041
     48 O          19.8520  -64.8860  100.3690 O.2       1 GLU        -0.3944
     49 CB         21.1040  -66.5570   98.2970 C.3       1 GLU        -0.0008
     50 CG         21.6790  -67.5000   99.3500 C.3       1 GLU         0.0044
     51 CD         23.1860  -67.6350   99.2270 C.2       1 GLU         0.0350
     52 OE1        23.8770  -67.4860  100.2640 O.co2     1 GLU        -0.5690
     53 OE2        23.6650  -67.8930   98.1020 O.co2     1 GLU        -0.5690
     54 N          18.4250  -66.6070  100.5590 N.am      1 THR        -0.2613
     55 CA         18.1070  -66.3540  101.9640 C.3       1 THR         0.1566
     56 C          19.2490  -66.7700  102.9020 C.2       1 THR         0.2084
     57 O          20.0670  -67.6340  102.5610 O.2       1 THR        -0.3941
     58 CB         16.8430  -67.1170  102.4030 C.3       1 THR         0.0924
     59 OG1        17.0500  -68.5250  102.2020 O.3       1 THR        -0.3874
     60 CG2        15.6210  -66.6490  101.6170 C.3       1 THR        -0.0346
     61 N          19.3100  -66.1500  104.0950 N.am      1 PRO        -0.2555
     62 CA         20.3790  -66.5530  105.0200 C.3       1 PRO         0.0972
     63 C          20.1720  -67.9710  105.5430 C.2       1 PRO         0.0603
     64 O          21.0600  -68.8160  105.4100 O.co2     1 PRO        -0.5666
     65 CB         20.2940  -65.5210  106.1590 C.3       1 PRO        -0.0159
     66 CG         19.0380  -64.7470  105.9470 C.3       1 PRO        -0.0288
     67 CD         18.5660  -64.9580  104.5480 C.3       1 PRO         0.0362
     68 OXT        19.1160  -68.2900  106.0960 O.co2     1 PRO        -0.5666
     69 H          23.1772  -70.2970   87.3278 H         1 LYS         0.2015
     70 H          24.5201  -69.7180   88.0832 H         1 LYS         0.2015
     71 H          23.3519  -68.6783   87.5696 H         1 LYS         0.2015
     72 H          21.7768  -69.5531   89.0911 H         1 LYS         0.1095
     73 H          22.5498  -71.1955   90.7897 H         1 LYS         0.0310
     74 H          24.1367  -71.3017   89.9549 H         1 LYS         0.0310
     75 H          22.6453  -71.8602   89.1237 H         1 LYS         0.0310
     76 H          22.0148  -67.3201   89.5387 H         1 SER         0.1885
     77 H          24.3971  -66.3313   90.8801 H         1 SER         0.0823
     78 H          22.7940  -65.0905   89.2177 H         1 SER         0.0606
     79 H          23.5195  -64.1937   90.5947 H         1 SER         0.0606
     80 H          21.2572  -63.8158   90.3689 H         1 SER         0.2097
     81 H          24.1910  -64.9524   92.8785 H         1 ARG         0.1883
     82 H          22.7905  -66.5709   94.9231 H         1 ARG         0.0800
     83 H          24.1722  -65.3391   96.5431 H         1 ARG         0.0313
     84 H          24.8138  -64.3073   95.2201 H         1 ARG         0.0313
     85 H          25.8739  -66.1617   94.1799 H         1 ARG         0.0301
     86 H          25.0490  -67.3235   95.2737 H         1 ARG         0.0301
     87 H          26.9403  -65.1713   96.2338 H         1 ARG         0.0689
     88 H          27.4660  -66.8262   95.7738 H         1 ARG         0.0689
     89 H          25.3634  -67.1470   97.6285 H         1 ARG         0.2642
     90 H          28.9140  -65.9737   99.2268 H         1 ARG         0.2615
     91 H          28.5968  -65.6994   97.4928 H         1 ARG         0.2615
     92 H          25.7842  -67.4906   99.8346 H         1 ARG         0.2615
     93 H          27.3475  -66.9854  100.5299 H         1 ARG         0.2615
     94 H          21.8237  -64.1170   93.0231 H         1 TRP         0.1884
     95 H          20.6235  -62.3186   94.9103 H         1 TRP         0.0815
     96 H          18.9309  -61.9098   93.0525 H         1 TRP         0.0397
     97 H          19.8177  -63.1351   92.0835 H         1 TRP         0.0397
     98 H          21.7596  -62.2159   90.6542 H         1 TRP         0.0795
     99 H          23.1530  -60.0230   90.5481 H         1 TRP         0.2216
    100 H          19.8767  -59.9280   94.8247 H         1 TRP         0.0540
    101 H          23.3879  -57.6701   92.0810 H         1 TRP         0.0541
    102 H          20.7417  -57.7117   95.4549 H         1 TRP         0.0510
    103 H          22.4667  -56.5918   94.0952 H         1 TRP         0.0530
    104 H          18.7743  -62.4183   95.9611 H         1 ASP         0.1884
    105 H          16.9567  -63.2074   97.0659 H         1 ASP         0.0819
    106 H          15.4499  -64.7364   95.9452 H         1 ASP         0.0478
    107 H          16.7443  -65.2359   94.8043 H         1 ASP         0.0478
    108 H          19.8003  -64.8024   96.9453 H         1 GLU         0.1883
    109 H          19.0777  -67.2610   98.2622 H         1 GLU         0.0801
    110 H          21.6230  -65.5903   98.3745 H         1 GLU         0.0330
    111 H          21.2857  -66.9922   97.3032 H         1 GLU         0.0330
    112 H          21.2218  -68.4928   99.2259 H         1 GLU         0.0433
    113 H          21.4376  -67.1074  100.3488 H         1 GLU         0.0433
    114 H          17.9655  -67.3606  100.0890 H         1 THR         0.1884
    115 H          17.9293  -65.2749  102.0819 H         1 THR         0.0826
    116 H          16.6672  -66.9289  103.4724 H         1 THR         0.0639
    117 H          17.7931  -68.8118  102.7198 H         1 THR         0.2101
    118 H          14.7346  -67.2089  101.9498 H         1 THR         0.0257
    119 H          15.7852  -66.8265  100.5439 H         1 THR         0.0257
    120 H          15.4626  -65.5745  101.7910 H         1 THR         0.0257
    121 H          21.3579  -66.4960  104.5215 H         1 PRO         0.0728
    122 H          21.1635  -64.8480  106.1258 H         1 PRO         0.0306
    123 H          20.2635  -66.0329  107.1321 H         1 PRO         0.0306
    124 H          19.2320  -63.6771  106.1130 H         1 PRO         0.0286
    125 H          18.2680  -65.0937  106.6519 H         1 PRO         0.0286
    126 H          17.4817  -65.1419  104.5249 H         1 PRO         0.0524
    127 H          18.8036  -64.0869  103.9198 H         1 PRO         0.0524
@<TRIPOS>BOND
     1    1    2 1  
     2    2    3 1  
     3    2    5 1  
     4    3    4 2  
     5    3    6 am 
     6    6    7 1  
     7    7    8 1  
     8    7   10 1  
     9    8    9 2  
    10    8   12 am 
    11   10   11 1  
    12   12   13 1  
    13   13   14 1  
    14   13   16 1  
    15   14   15 2  
    16   14   23 am 
    17   16   17 1  
    18   17   18 1  
    19   18   19 1  
    20   19   20 ar 
    21   20   21 ar 
    22   20   22 ar 
    23   23   24 1  
    24   24   25 1  
    25   24   27 1  
    26   25   26 2  
    27   25   37 am 
    28   27   28 1  
    29   28   29 2  
    30   28   30 1  
    31   29   31 1  
    32   30   32 ar 
    33   30   33 ar 
    34   31   32 1  
    35   32   34 ar 
    36   33   35 ar 
    37   34   36 ar 
    38   35   36 ar 
    39   37   38 1  
    40   38   39 1  
    41   38   41 1  
    42   39   40 2  
    43   39   45 am 
    44   41   42 1  
    45   42   43 ar 
    46   42   44 ar 
    47   45   46 1  
    48   46   47 1  
    49   46   49 1  
    50   47   48 2  
    51   47   54 am 
    52   49   50 1  
    53   50   51 1  
    54   51   52 ar 
    55   51   53 ar 
    56   54   55 1  
    57   55   56 1  
    58   55   58 1  
    59   56   57 2  
    60   56   61 am 
    61   58   59 1  
    62   58   60 1  
    63   61   62 1  
    64   61   67 1  
    65   62   63 1  
    66   62   65 1  
    67   63   64 ar 
    68   63   68 ar 
    69   65   66 1  
    70   66   67 1  
    71    1   69 1  
    72    1   70 1  
    73    1   71 1  
    74    2   72 1  
    75    5   73 1  
    76    5   74 1  
    77    5   75 1  
    78    6   76 1  
    79    7   77 1  
    80   10   78 1  
    81   10   79 1  
    82   11   80 1  
    83   12   81 1  
    84   13   82 1  
    85   16   83 1  
    86   16   84 1  
    87   17   85 1  
    88   17   86 1  
    89   18   87 1  
    90   18   88 1  
    91   19   89 1  
    92   21   90 1  
    93   21   91 1  
    94   22   92 1  
    95   22   93 1  
    96   23   94 1  
    97   24   95 1  
    98   27   96 1  
    99   27   97 1  
   100   29   98 1  
   101   31   99 1  
   102   33  100 1  
   103   34  101 1  
   104   35  102 1  
   105   36  103 1  
   106   37  104 1  
   107   38  105 1  
   108   41  106 1  
   109   41  107 1  
   110   45  108 1  
   111   46  109 1  
   112   49  110 1  
   113   49  111 1  
   114   50  112 1  
   115   50  113 1  
   116   54  114 1  
   117   55  115 1  
   118   58  116 1  
   119   59  117 1  
   120   60  118 1  
   121   60  119 1  
   122   60  120 1  
   123   62  121 1  
   124   65  122 1  
   125   65  123 1  
   126   66  124 1  
   127   66  125 1  
   128   67  126 1  
   129   67  127 1  
@<TRIPOS>SUBSTRUCTURE
     1 LYS         1

