### 
### Created by X-TOOL on Mon Aug  2 16:12:15 2021
### 

@<TRIPOS>MOLECULE
5va9_ligand
  286   294     1     0     0
SMALL
GAST_HUCK


@<TRIPOS>ATOM
      1 C          63.4460   35.0460   28.8800 C.2       1 ACE         0.1883
      2 O          63.7930   35.8110   29.7690 O.2       1 ACE        -0.3960
      3 CH3        62.8530   33.7010   29.1680 C.3       1 ACE         0.0836
      4 N          63.5660   35.3500   27.5900 N.am      1 ACE        -0.2634
      5 CA         64.1300   36.6200   27.1770 C.3       1 ACE         0.1390
      6 C          63.0680   37.6670   27.3520 C.2       1 ACE         0.2055
      7 O          62.1790   37.8170   26.4830 O.2       1 ACE        -0.3942
      8 CB         64.6980   36.5680   25.7520 C.3       1 ACE         0.0163
      9 CG         65.9510   35.7070   25.6650 C.ar      1 ACE        -0.0493
     10 CD1        66.0170   34.4680   26.2990 C.ar      1 ACE        -0.0685
     11 CD2        67.0520   36.1420   24.9300 C.ar      1 ACE        -0.0685
     12 CE1        67.1550   33.6750   26.2230 C.ar      1 ACE        -0.0398
     13 CE2        68.1960   35.3500   24.8500 C.ar      1 ACE        -0.0398
     14 CZ         68.2490   34.1180   25.4960 C.ar      1 ACE         0.0805
     15 OH         69.3640   33.3380   25.4200 O.3       1 ACE        -0.3376
     16 N          63.1280   38.3780   28.4760 N.am      1 ACE        -0.2663
     17 CA         62.0670   39.2790   28.8830 C.3       1 ACE         0.1201
     18 C          60.8830   38.5360   29.4740 C.2       1 ACE         0.2008
     19 O          61.0390   37.4620   30.0570 O.2       1 ACE        -0.3947
     20 N          59.6920   39.1230   29.3330 N.am      1 ACE        -0.2627
     21 CA         58.4530   38.4440   29.6950 C.3       1 ACE         0.1369
     22 C          57.3240   38.8170   28.7390 C.2       1 ACE         0.2054
     23 O          56.1480   38.6250   29.0710 O.2       1 ACE        -0.3942
     24 CB         58.0450   38.7240   31.1510 C.3       1 ACE         0.0145
     25 CG         58.4540   37.6500   32.1150 C.2       1 ACE        -0.0027
     26 ND1        59.7640   37.2470   32.2720 N.2       1 ACE        -0.3252
     27 CD2        57.7250   36.8960   32.9720 C.2       1 ACE         0.0291
     28 CE1        59.8230   36.2930   33.1840 C.2       1 ACE         0.0907
     29 NE2        58.6000   36.0620   33.6250 N.pl3     1 ACE        -0.2752
     30 N          57.6620   39.3310   27.5570 N.am      1 ACE        -0.2615
     31 CA         56.6610   39.8640   26.6430 C.3       1 ACE         0.1539
     32 C          55.9340   38.7560   25.8880 C.2       1 ACE         0.2063
     33 O          54.7000   38.6950   25.9000 O.2       1 ACE        -0.3943
     34 CB         57.3260   40.8470   25.6760 C.3       1 ACE         0.0843
     35 OG         58.5960   40.3720   25.2560 O.3       1 ACE        -0.3903
     36 N          56.6780   37.8700   25.2310 N.am      1 ACE        -0.2624
     37 CA         56.1070   36.8340   24.3700 C.3       1 ACE         0.1369
     38 C          56.3490   35.4720   25.0170 C.2       1 ACE         0.2054
     39 O          57.3010   34.7680   24.6770 O.2       1 ACE        -0.3942
     40 CB         56.7220   36.8920   22.9720 C.3       1 ACE         0.0145
     41 CG         56.5080   38.1940   22.2660 C.2       1 ACE        -0.0027
     42 ND1        57.1480   39.3580   22.6370 N.2       1 ACE        -0.3252
     43 CD2        55.7280   38.5160   21.2070 C.2       1 ACE         0.0291
     44 CE1        56.7700   40.3390   21.8380 C.2       1 ACE         0.0907
     45 NE2        55.9100   39.8550   20.9610 N.pl3     1 ACE        -0.2752
     46 N          55.4750   35.0970   25.9390 N.am      1 ACE        -0.2634
     47 CA         55.5730   33.8080   26.6140 C.3       1 ACE         0.1335
     48 C          54.9040   32.7460   25.7550 C.2       1 ACE         0.2042
     49 O          53.8070   32.9530   25.2210 O.2       1 ACE        -0.3944
     50 CB         54.9480   33.8700   28.0200 C.3       1 ACE        -0.0037
     51 CG1        55.6450   34.9370   28.8620 C.3       1 ACE        -0.0491
     52 CG2        55.0340   32.5100   28.7050 C.3       1 ACE        -0.0582
     53 CD1        55.2110   34.9500   30.3100 C.3       1 ACE        -0.0648
     54 N          55.5740   31.6050   25.6140 N.am      1 ACE        -0.2637
     55 CA         55.0480   30.4790   24.8610 C.3       1 ACE         0.1311
     56 C          55.2700   29.2110   25.6710 C.2       1 ACE         0.2040
     57 O          56.2460   29.0960   26.4180 O.2       1 ACE        -0.3944
     58 CB         55.7180   30.3640   23.4820 C.3       1 ACE        -0.0092
     59 CG         55.1400   29.2850   22.5750 C.3       1 ACE        -0.0156
     60 CD         55.8060   29.3100   21.2040 C.3       1 ACE         0.0627
     61 NE         55.2790   28.2920   20.2970 N.pl3     1 ACE        -0.2723
     62 CZ         54.2020   28.4570   19.5310 C.cat     1 ACE         0.2882
     63 NH1        53.5290   29.6000   19.5620 N.pl3     1 ACE        -0.2849
     64 NH2        53.7960   27.4790   18.7350 N.pl3     1 ACE        -0.2849
     65 N          54.3420   28.2660   25.5280 N.am      1 ACE        -0.2619
     66 CA         54.3510   26.9940   26.2440 C.3       1 ACE         0.1404
     67 C          54.0820   27.1550   27.7380 C.2       1 ACE         0.2058
     68 O          54.3540   26.2380   28.5220 O.2       1 ACE        -0.3942
     69 CB         55.6210   26.1710   25.9770 C.3       1 ACE         0.0214
     70 CG         55.9310   25.9870   24.5100 C.ar      1 ACE        -0.0386
     71 CD1        54.9590   25.5350   23.6300 C.ar      1 ACE        -0.0601
     72 CD2        57.1910   26.2790   24.0110 C.ar      1 ACE        -0.0601
     73 CE1        55.2410   25.3710   22.2830 C.ar      1 ACE        -0.0686
     74 CE2        57.4800   26.1190   22.6660 C.ar      1 ACE        -0.0686
     75 CZ         56.5040   25.6630   21.8010 C.ar      1 ACE        -0.0687
     76 N          53.5490   28.3040   28.1490 N.am      1 ACE        -0.2663
     77 CA         53.1470   28.5180   29.5220 C.3       1 ACE         0.1201
     78 C          54.2350   29.1430   30.3780 C.2       1 ACE         0.2009
     79 O          55.3910   29.3020   29.9760 O.2       1 ACE        -0.3947
     80 N          53.8410   29.4910   31.6050 N.am      1 ACE        -0.2624
     81 CA         54.7570   30.1510   32.5300 C.3       1 ACE         0.1390
     82 C          55.9200   29.2390   32.9080 C.2       1 ACE         0.2058
     83 O          57.0880   29.6350   32.8170 O.2       1 ACE        -0.3942
     84 CB         53.9910   30.5930   33.7770 C.3       1 ACE         0.0163
     85 CG         54.8460   31.2730   34.8220 C.ar      1 ACE        -0.0493
     86 CD1        55.1090   32.6330   34.7490 C.ar      1 ACE        -0.0685
     87 CD2        55.3810   30.5580   35.8870 C.ar      1 ACE        -0.0685
     88 CE1        55.8880   33.2630   35.6990 C.ar      1 ACE        -0.0398
     89 CE2        56.1610   31.1810   36.8440 C.ar      1 ACE        -0.0398
     90 CZ         56.4080   32.5360   36.7430 C.ar      1 ACE         0.0805
     91 OH         57.1820   33.1700   37.6850 O.3       1 ACE        -0.3376
     92 N          55.6150   28.0130   33.3440 N.am      1 ACE        -0.2614
     93 CA         56.6500   27.1250   33.8680 C.3       1 ACE         0.1539
     94 C          57.7500   26.8740   32.8420 C.2       1 ACE         0.2063
     95 O          58.9400   26.8880   33.1800 O.2       1 ACE        -0.3943
     96 CB         56.0270   25.8080   34.3320 C.3       1 ACE         0.0843
     97 OG         57.0290   24.8790   34.7030 O.3       1 ACE        -0.3903
     98 N          57.3700   26.6370   31.5840 N.am      1 ACE        -0.2621
     99 CA         58.3610   26.4970   30.5220 C.3       1 ACE         0.1390
    100 C          59.1850   27.7700   30.3720 C.2       1 ACE         0.2058
    101 O          60.4060   27.7100   30.1900 O.2       1 ACE        -0.3942
    102 CB         57.6530   26.1630   29.2090 C.3       1 ACE         0.0163
    103 CG         58.5460   26.1170   27.9850 C.ar      1 ACE        -0.0493
    104 CD1        58.8540   27.2710   27.2750 C.ar      1 ACE        -0.0685
    105 CD2        59.0530   24.9130   27.5240 C.ar      1 ACE        -0.0685
    106 CE1        59.6600   27.2260   26.1580 C.ar      1 ACE        -0.0398
    107 CE2        59.8560   24.8580   26.4060 C.ar      1 ACE        -0.0398
    108 CZ         60.1560   26.0140   25.7260 C.ar      1 ACE         0.0805
    109 OH         60.9530   25.9540   24.6080 O.3       1 ACE        -0.3376
    110 N          58.5290   28.9310   30.4320 N.am      1 ACE        -0.2623
    111 CA         59.2280   30.1970   30.2420 C.3       1 ACE         0.1369
    112 C          60.2640   30.4180   31.3360 C.2       1 ACE         0.2054
    113 O          61.4040   30.8070   31.0590 O.2       1 ACE        -0.3942
    114 CB         58.2140   31.3400   30.2190 C.3       1 ACE         0.0145
    115 CG         58.7390   32.6070   29.6200 C.2       1 ACE        -0.0027
    116 ND1        59.2040   32.6800   28.3250 N.2       1 ACE        -0.3252
    117 CD2        58.8590   33.8540   30.1340 C.2       1 ACE         0.0291
    118 CE1        59.5920   33.9160   28.0680 C.2       1 ACE         0.0907
    119 NE2        59.3950   34.6480   29.1500 N.pl3     1 ACE        -0.2752
    120 N          59.8830   30.1650   32.5910 N.am      1 ACE        -0.2634
    121 CA         60.8020   30.3500   33.7110 C.3       1 ACE         0.1333
    122 C          62.0400   29.4770   33.5470 C.2       1 ACE         0.2042
    123 O          63.1700   29.9300   33.7670 O.2       1 ACE        -0.3944
    124 CB         60.0780   30.1020   35.0470 C.3       1 ACE        -0.0063
    125 CG1        61.0470   29.5900   36.1020 C.3       1 ACE        -0.0584
    126 CG2        59.4100   31.3780   35.5170 C.3       1 ACE        -0.0584
    127 N          61.8520   28.2160   33.1480 N.am      1 ACE        -0.2616
    128 CA         63.0080   27.3600   32.9080 C.3       1 ACE         0.1539
    129 C          63.7790   27.7900   31.6660 C.2       1 ACE         0.2063
    130 O          64.9810   27.5250   31.5640 O.2       1 ACE        -0.3943
    131 CB         62.5970   25.8850   32.8350 C.3       1 ACE         0.0843
    132 OG         61.7380   25.6320   31.7380 O.3       1 ACE        -0.3903
    133 N          63.1170   28.4560   30.7160 N.am      1 ACE        -0.2621
    134 CA         63.8290   28.9500   29.5420 C.3       1 ACE         0.1390
    135 C          64.6190   30.2110   29.8610 C.2       1 ACE         0.2058
    136 O          65.7490   30.3770   29.3870 O.2       1 ACE        -0.3942
    137 CB         62.8580   29.2160   28.3930 C.3       1 ACE         0.0163
    138 CG         63.5040   29.9070   27.2120 C.ar      1 ACE        -0.0493
    139 CD1        64.5160   29.2900   26.4900 C.ar      1 ACE        -0.0685
    140 CD2        63.0960   31.1740   26.8150 C.ar      1 ACE        -0.0685
    141 CE1        65.1070   29.9150   25.4100 C.ar      1 ACE        -0.0398
    142 CE2        63.6810   31.8090   25.7350 C.ar      1 ACE        -0.0398
    143 CZ         64.6870   31.1750   25.0380 C.ar      1 ACE         0.0805
    144 OH         65.2700   31.8030   23.9620 O.3       1 ACE        -0.3376
    145 N          64.0410   31.1070   30.6550 N.am      1 ACE        -0.2628
    146 CA         64.7270   32.3230   31.0720 C.3       1 ACE         0.1400
    147 C          65.9420   31.9900   31.9300 C.2       1 ACE         0.2045
    148 O          66.8610   32.7970   32.0490 O.2       1 ACE        -0.3944
    149 CB         63.7840   33.2410   31.8510 C.3       1 ACE         0.0364
    150 SG         62.3970   33.9000   30.9030 S.3       1 ACE        -0.1344
    151 N          65.9410   30.8090   32.5400 N.am      1 ACE        -0.2664
    152 CA         67.1350   30.3270   33.2870 C.3       1 ACE         0.1198
    153 C          67.9520   29.4200   32.3960 C.2       1 ACE         0.1960
    154 O          69.1490   29.2570   32.5790 O.2       1 ACE        -0.3951
    155 N          67.2780   28.8170   31.4180 N.am      1 ACE        -0.2992
    156 H1         63.5900   32.8958   29.0326 H         1 ACE         0.0616
    157 H2         61.9733   33.5027   28.5381 H         1 ACE         0.0616
    158 H3         63.2637   34.6949   26.8976 H         1 ACE         0.1884
    159 H4         64.9644   36.8631   27.8513 H         1 ACE         0.0821
    160 H5         64.9476   37.5905   25.4323 H         1 ACE         0.0453
    161 H6         63.9334   36.1501   25.0806 H         1 ACE         0.0453
    162 H7         65.1617   34.1152   26.8638 H         1 ACE         0.0530
    163 H8         67.0187   37.0978   24.4197 H         1 ACE         0.0530
    164 H9         67.1873   32.7167   26.7286 H         1 ACE         0.0525
    165 H10        69.0510   35.6959   24.2804 H         1 ACE         0.0525
    166 H11        69.2252   32.5398   25.9162 H         1 ACE         0.2458
    167 H12        63.9340   38.2875   29.0609 H         1 ACE         0.1881
    168 H13        61.7269   39.8465   28.0042 H         1 ACE         0.0763
    169 H14        62.4622   39.9744   29.6381 H         1 ACE         0.0763
    170 H15        59.6484   40.0535   28.9693 H         1 ACE         0.1884
    171 H16        58.6290   37.3622   29.6014 H         1 ACE         0.0817
    172 H17        56.9504   38.8259   31.1903 H         1 ACE         0.0420
    173 H18        58.5128   39.6684   31.4661 H         1 ACE         0.0420
    174 H19        56.6466   36.9422   33.1165 H         1 ACE         0.0729
    175 H20        60.7266   35.7837   33.5157 H         1 ACE         0.1199
    176 H21        58.3435   35.3688   34.3424 H         1 ACE         0.2361
    177 H22        58.6258   39.3513   27.2911 H         1 ACE         0.1884
    178 H23        55.9145   40.4137   27.2350 H         1 ACE         0.0823
    179 H24        57.4540   41.8160   26.1806 H         1 ACE         0.0606
    180 H25        56.6810   40.9751   24.7942 H         1 ACE         0.0606
    181 H26        58.4907   39.5367   24.8159 H         1 ACE         0.2097
    182 H27        57.6721   37.9141   25.3301 H         1 ACE         0.1885
    183 H28        55.0231   36.9996   24.2819 H         1 ACE         0.0817
    184 H29        56.2751   36.0915   22.3641 H         1 ACE         0.0420
    185 H30        57.8049   36.7221   23.0633 H         1 ACE         0.0420
    186 H31        55.0779   37.8398   20.6538 H         1 ACE         0.0729
    187 H32        57.1100   41.3721   21.8931 H         1 ACE         0.1199
    188 H33        55.4501   40.3941   20.2135 H         1 ACE         0.2361
    189 H34        54.7267   35.7154   26.1790 H         1 ACE         0.1883
    190 H35        56.6366   33.5496   26.7237 H         1 ACE         0.0803
    191 H36        53.8871   34.1425   27.9188 H         1 ACE         0.0345
    192 H37        55.4251   35.9222   28.4251 H         1 ACE         0.0267
    193 H38        56.7290   34.7538   28.8264 H         1 ACE         0.0267
    194 H39        54.5278   31.7549   28.0857 H         1 ACE         0.0235
    195 H40        54.5462   32.5637   29.6894 H         1 ACE         0.0235
    196 H41        56.0900   32.2304   28.8338 H         1 ACE         0.0235
    197 H42        55.7539   35.7408   30.8484 H         1 ACE         0.0230
    198 H43        55.4336   33.9751   30.7683 H         1 ACE         0.0230
    199 H44        54.1297   35.1436   30.3670 H         1 ACE         0.0230
    200 H45        56.4735   31.5192   26.0424 H         1 ACE         0.1883
    201 H46        53.9679   30.6246   24.7119 H         1 ACE         0.0800
    202 H47        56.7845   30.1440   23.6377 H         1 ACE         0.0313
    203 H48        55.6142   31.3321   22.9701 H         1 ACE         0.0313
    204 H49        54.0604   29.4573   22.4537 H         1 ACE         0.0301
    205 H50        55.3046   28.3004   23.0370 H         1 ACE         0.0301
    206 H51        56.8847   29.1391   21.3346 H         1 ACE         0.0689
    207 H52        55.6436   30.3000   20.7528 H         1 ACE         0.0689
    208 H53        55.7722   27.3891   20.2471 H         1 ACE         0.2642
    209 H54        52.6966   29.7238   18.9681 H         1 ACE         0.2615
    210 H55        53.8389   30.3635   20.1799 H         1 ACE         0.2615
    211 H56        54.3143   26.5894   18.7066 H         1 ACE         0.2615
    212 H57        52.9620   27.6082   18.1445 H         1 ACE         0.2615
    213 H58        53.5918   28.4390   24.8898 H         1 ACE         0.1885
    214 H59        53.5120   26.4088   25.8396 H         1 ACE         0.0823
    215 H60        55.4925   25.1776   26.4315 H         1 ACE         0.0474
    216 H61        56.4720   26.6832   26.4497 H         1 ACE         0.0474
    217 H62        53.9661   25.3071   24.0005 H         1 ACE         0.0557
    218 H63        57.9616   26.6379   24.6836 H         1 ACE         0.0557
    219 H64        54.4720   25.0140   21.6075 H         1 ACE         0.0599
    220 H65        58.4707   26.3513   22.2924 H         1 ACE         0.0599
    221 H66        56.7274   25.5345   20.7481 H         1 ACE         0.0559
    222 H67        53.4225   29.0428   27.4871 H         1 ACE         0.1881
    223 H68        52.8728   27.5472   29.9605 H         1 ACE         0.0763
    224 H69        52.2717   29.1841   29.5294 H         1 ACE         0.0763
    225 H70        52.9039   29.2965   31.8949 H         1 ACE         0.1885
    226 H71        55.1672   31.0439   32.0356 H         1 ACE         0.0821
    227 H72        53.5317   29.7035   34.2329 H         1 ACE         0.0453
    228 H73        53.2026   31.2946   33.4668 H         1 ACE         0.0453
    229 H74        54.6953   33.2118   33.9311 H         1 ACE         0.0530
    230 H75        55.1837   29.4952   35.9688 H         1 ACE         0.0530
    231 H76        56.0884   34.3255   35.6218 H         1 ACE         0.0525
    232 H77        56.5754   30.6102   37.6671 H         1 ACE         0.0525
    233 H78        57.2513   34.0922   37.4677 H         1 ACE         0.2458
    234 H79        54.6660   27.6994   33.3111 H         1 ACE         0.1884
    235 H80        57.1078   27.6140   34.7405 H         1 ACE         0.0823
    236 H81        55.4284   25.3840   33.5123 H         1 ACE         0.0606
    237 H82        55.3773   26.0022   35.1981 H         1 ACE         0.0606
    238 H83        56.6198   24.0701   34.9872 H         1 ACE         0.2097
    239 H84        56.3972   26.5547   31.3676 H         1 ACE         0.1885
    240 H85        59.0395   25.6704   30.7795 H         1 ACE         0.0821
    241 H86        56.8792   26.9256   29.0366 H         1 ACE         0.0453
    242 H87        57.1780   25.1771   29.3203 H         1 ACE         0.0453
    243 H88        58.4536   28.2227   27.6052 H         1 ACE         0.0530
    244 H89        58.8135   23.9975   28.0527 H         1 ACE         0.0530
    245 H90        59.9024   28.1370   25.6228 H         1 ACE         0.0525
    246 H91        60.2494   23.9075   26.0643 H         1 ACE         0.0525
    247 H92        61.0668   26.8283   24.2543 H         1 ACE         0.2458
    248 H93        57.5449   28.9328   30.6096 H         1 ACE         0.1885
    249 H94        59.7481   30.1686   29.2732 H         1 ACE         0.0817
    250 H95        57.9045   31.5488   31.2537 H         1 ACE         0.0420
    251 H96        57.3410   31.0163   29.6333 H         1 ACE         0.0420
    252 H97        58.5823   34.1683   31.1393 H         1 ACE         0.0729
    253 H98        60.0042   34.2713   27.1247 H         1 ACE         0.1199
    254 H99        59.6088   35.6515   29.2408 H         1 ACE         0.2361
    255 H100       58.9526   29.8434   32.7667 H         1 ACE         0.1883
    256 H101       61.1348   31.3984   33.7045 H         1 ACE         0.0802
    257 H102       59.3026   29.3383   34.8876 H         1 ACE         0.0343
    258 H103       60.5065   29.4210   37.0450 H         1 ACE         0.0234
    259 H104       61.8409   30.3342   36.2627 H         1 ACE         0.0234
    260 H105       61.4942   28.6446   35.7612 H         1 ACE         0.0234
    261 H106       58.7137   31.7338   34.7433 H         1 ACE         0.0234
    262 H107       60.1755   32.1458   35.7025 H         1 ACE         0.0234
    263 H108       58.8557   31.1808   36.4464 H         1 ACE         0.0234
    264 H109       60.9263   27.8620   33.0150 H         1 ACE         0.1884
    265 H110       63.6845   27.4714   33.7682 H         1 ACE         0.0823
    266 H111       62.0759   25.6141   33.7651 H         1 ACE         0.0606
    267 H112       63.5015   25.2682   32.7285 H         1 ACE         0.0606
    268 H113       60.9513   26.1574   31.8255 H         1 ACE         0.2097
    269 H114       62.1343   28.6159   30.8093 H         1 ACE         0.1885
    270 H115       64.5384   28.1727   29.2218 H         1 ACE         0.0821
    271 H116       62.0415   29.8519   28.7658 H         1 ACE         0.0453
    272 H117       62.4474   28.2539   28.0529 H         1 ACE         0.0453
    273 H118       64.8484   28.2996   26.7792 H         1 ACE         0.0530
    274 H119       62.3047   31.6740   27.3617 H         1 ACE         0.0530
    275 H120       65.8965   29.4183   24.8577 H         1 ACE         0.0525
    276 H121       63.3509   32.7981   25.4387 H         1 ACE         0.0525
    277 H122       65.9401   31.2397   23.5929 H         1 ACE         0.2458
    278 H123       63.1083   30.9416   30.9754 H         1 ACE         0.1884
    279 H124       65.0684   32.8543   30.1714 H         1 ACE         0.0808
    280 H125       64.3716   34.0904   32.2296 H         1 ACE         0.0426
    281 H126       63.3764   32.6703   32.6984 H         1 ACE         0.0426
    282 H127       65.1238   30.2342   32.4963 H         1 ACE         0.1881
    283 H128       66.8102   29.7702   34.1783 H         1 ACE         0.0763
    284 H129       67.7472   31.1874   33.5950 H         1 ACE         0.0763
    285 H130       67.7531   28.2019   30.7888 H         1 ACE         0.1815
    286 H131       66.2969   28.9794   31.3130 H         1 ACE         0.1815
@<TRIPOS>BOND
     1    1    2 2  
     2    1    3 1  
     3    1    4 am 
     4    3  150 1  
     5    4    5 1  
     6    5    6 1  
     7    5    8 1  
     8    6    7 2  
     9    6   16 am 
    10    8    9 1  
    11    9   10 ar 
    12    9   11 ar 
    13   10   12 ar 
    14   11   13 ar 
    15   12   14 ar 
    16   13   14 ar 
    17   14   15 1  
    18   16   17 1  
    19   17   18 1  
    20   18   19 2  
    21   18   20 am 
    22   20   21 1  
    23   21   22 1  
    24   21   24 1  
    25   22   23 2  
    26   22   30 am 
    27   24   25 1  
    28   25   26 1  
    29   25   27 2  
    30   26   28 2  
    31   27   29 1  
    32   28   29 1  
    33   30   31 1  
    34   31   32 1  
    35   31   34 1  
    36   32   33 2  
    37   32   36 am 
    38   34   35 1  
    39   36   37 1  
    40   37   38 1  
    41   37   40 1  
    42   38   39 2  
    43   38   46 am 
    44   40   41 1  
    45   41   42 1  
    46   41   43 2  
    47   42   44 2  
    48   43   45 1  
    49   44   45 1  
    50   46   47 1  
    51   47   48 1  
    52   47   50 1  
    53   48   49 2  
    54   48   54 am 
    55   50   51 1  
    56   50   52 1  
    57   51   53 1  
    58   54   55 1  
    59   55   56 1  
    60   55   58 1  
    61   56   57 2  
    62   56   65 am 
    63   58   59 1  
    64   59   60 1  
    65   60   61 1  
    66   61   62 ar 
    67   62   63 ar 
    68   62   64 ar 
    69   65   66 1  
    70   66   67 1  
    71   66   69 1  
    72   67   68 2  
    73   67   76 am 
    74   69   70 1  
    75   70   71 ar 
    76   70   72 ar 
    77   71   73 ar 
    78   72   74 ar 
    79   73   75 ar 
    80   74   75 ar 
    81   76   77 1  
    82   77   78 1  
    83   78   79 2  
    84   78   80 am 
    85   80   81 1  
    86   81   82 1  
    87   81   84 1  
    88   82   83 2  
    89   82   92 am 
    90   84   85 1  
    91   85   86 ar 
    92   85   87 ar 
    93   86   88 ar 
    94   87   89 ar 
    95   88   90 ar 
    96   89   90 ar 
    97   90   91 1  
    98   92   93 1  
    99   93   94 1  
   100   93   96 1  
   101   94   95 2  
   102   94   98 am 
   103   96   97 1  
   104   98   99 1  
   105   99  100 1  
   106   99  102 1  
   107  100  101 2  
   108  100  110 am 
   109  102  103 1  
   110  103  104 ar 
   111  103  105 ar 
   112  104  106 ar 
   113  105  107 ar 
   114  106  108 ar 
   115  107  108 ar 
   116  108  109 1  
   117  110  111 1  
   118  111  112 1  
   119  111  114 1  
   120  112  113 2  
   121  112  120 am 
   122  114  115 1  
   123  115  116 1  
   124  115  117 2  
   125  116  118 2  
   126  117  119 1  
   127  118  119 1  
   128  120  121 1  
   129  121  122 1  
   130  121  124 1  
   131  122  123 2  
   132  122  127 am 
   133  124  125 1  
   134  124  126 1  
   135  127  128 1  
   136  128  129 1  
   137  128  131 1  
   138  129  130 2  
   139  129  133 am 
   140  131  132 1  
   141  133  134 1  
   142  134  135 1  
   143  134  137 1  
   144  135  136 2  
   145  135  145 am 
   146  137  138 1  
   147  138  139 ar 
   148  138  140 ar 
   149  139  141 ar 
   150  140  142 ar 
   151  141  143 ar 
   152  142  143 ar 
   153  143  144 1  
   154  145  146 1  
   155  146  147 1  
   156  146  149 1  
   157  147  148 2  
   158  147  151 am 
   159  149  150 1  
   160  151  152 1  
   161  152  153 1  
   162  153  154 2  
   163  153  155 am 
   164    3  156 1  
   165    3  157 1  
   166    4  158 1  
   167    5  159 1  
   168    8  160 1  
   169    8  161 1  
   170   10  162 1  
   171   11  163 1  
   172   12  164 1  
   173   13  165 1  
   174   15  166 1  
   175   16  167 1  
   176   17  168 1  
   177   17  169 1  
   178   20  170 1  
   179   21  171 1  
   180   24  172 1  
   181   24  173 1  
   182   27  174 1  
   183   28  175 1  
   184   29  176 1  
   185   30  177 1  
   186   31  178 1  
   187   34  179 1  
   188   34  180 1  
   189   35  181 1  
   190   36  182 1  
   191   37  183 1  
   192   40  184 1  
   193   40  185 1  
   194   43  186 1  
   195   44  187 1  
   196   45  188 1  
   197   46  189 1  
   198   47  190 1  
   199   50  191 1  
   200   51  192 1  
   201   51  193 1  
   202   52  194 1  
   203   52  195 1  
   204   52  196 1  
   205   53  197 1  
   206   53  198 1  
   207   53  199 1  
   208   54  200 1  
   209   55  201 1  
   210   58  202 1  
   211   58  203 1  
   212   59  204 1  
   213   59  205 1  
   214   60  206 1  
   215   60  207 1  
   216   61  208 1  
   217   63  209 1  
   218   63  210 1  
   219   64  211 1  
   220   64  212 1  
   221   65  213 1  
   222   66  214 1  
   223   69  215 1  
   224   69  216 1  
   225   71  217 1  
   226   72  218 1  
   227   73  219 1  
   228   74  220 1  
   229   75  221 1  
   230   76  222 1  
   231   77  223 1  
   232   77  224 1  
   233   80  225 1  
   234   81  226 1  
   235   84  227 1  
   236   84  228 1  
   237   86  229 1  
   238   87  230 1  
   239   88  231 1  
   240   89  232 1  
   241   91  233 1  
   242   92  234 1  
   243   93  235 1  
   244   96  236 1  
   245   96  237 1  
   246   97  238 1  
   247   98  239 1  
   248   99  240 1  
   249  102  241 1  
   250  102  242 1  
   251  104  243 1  
   252  105  244 1  
   253  106  245 1  
   254  107  246 1  
   255  109  247 1  
   256  110  248 1  
   257  111  249 1  
   258  114  250 1  
   259  114  251 1  
   260  117  252 1  
   261  118  253 1  
   262  119  254 1  
   263  120  255 1  
   264  121  256 1  
   265  124  257 1  
   266  125  258 1  
   267  125  259 1  
   268  125  260 1  
   269  126  261 1  
   270  126  262 1  
   271  126  263 1  
   272  127  264 1  
   273  128  265 1  
   274  131  266 1  
   275  131  267 1  
   276  132  268 1  
   277  133  269 1  
   278  134  270 1  
   279  137  271 1  
   280  137  272 1  
   281  139  273 1  
   282  140  274 1  
   283  141  275 1  
   284  142  276 1  
   285  144  277 1  
   286  145  278 1  
   287  146  279 1  
   288  149  280 1  
   289  149  281 1  
   290  151  282 1  
   291  152  283 1  
   292  152  284 1  
   293  155  285 1  
   294  155  286 1  
@<TRIPOS>SUBSTRUCTURE
     1 ACE         1

