5va9_ligand
  -I-interpret- 

282290  0  0  0  0  0  0  0  0999 V2000
   63.4460   35.0460   28.8800 C   0  0  0  0  0
   63.7930   35.8110   29.7690 O   0  0  0  0  0
   62.8530   33.7010   29.1680 C   0  0  0  0  0
   63.5660   35.3500   27.5900 N   0  0  0  0  0
   64.1300   36.6200   27.1770 C   0  0  0  0  0
   63.0680   37.6670   27.3520 C   0  0  0  0  0
   62.1790   37.8170   26.4830 O   0  0  0  0  0
   64.6980   36.5680   25.7520 C   0  0  0  0  0
   65.9510   35.7070   25.6650 C   0  0  0  0  0
   66.0170   34.4680   26.2990 C   0  0  0  0  0
   67.0520   36.1420   24.9300 C   0  0  0  0  0
   67.1550   33.6750   26.2230 C   0  0  0  0  0
   68.1960   35.3500   24.8500 C   0  0  0  0  0
   68.2490   34.1180   25.4960 C   0  0  0  0  0
   69.3640   33.3380   25.4200 O   0  0  0  0  0
   63.1280   38.3780   28.4760 N   0  0  0  0  0
   62.0670   39.2790   28.8830 C   0  0  0  0  0
   60.8830   38.5360   29.4740 C   0  0  0  0  0
   61.0390   37.4620   30.0570 O   0  0  0  0  0
   59.6920   39.1230   29.3330 N   0  0  0  0  0
   58.4530   38.4440   29.6950 C   0  0  0  0  0
   57.3240   38.8170   28.7390 C   0  0  0  0  0
   56.1480   38.6250   29.0710 O   0  0  0  0  0
   58.0450   38.7240   31.1510 C   0  0  0  0  0
   58.4540   37.6500   32.1150 C   0  0  0  0  0
   59.7640   37.2470   32.2720 N   0  0  0  0  0
   57.7250   36.8960   32.9720 C   0  0  0  0  0
   59.8230   36.2930   33.1840 C   0  0  0  0  0
   58.6000   36.0620   33.6250 N   0  0  0  0  0
   57.6620   39.3310   27.5570 N   0  0  0  0  0
   56.6610   39.8640   26.6430 C   0  0  0  0  0
   55.9340   38.7560   25.8880 C   0  0  0  0  0
   54.7000   38.6950   25.9000 O   0  0  0  0  0
   57.3260   40.8470   25.6760 C   0  0  0  0  0
   58.5960   40.3720   25.2560 O   0  0  0  0  0
   56.6780   37.8700   25.2310 N   0  0  0  0  0
   56.1070   36.8340   24.3700 C   0  0  0  0  0
   56.3490   35.4720   25.0170 C   0  0  0  0  0
   57.3010   34.7680   24.6770 O   0  0  0  0  0
   56.7220   36.8920   22.9720 C   0  0  0  0  0
   56.5080   38.1940   22.2660 C   0  0  0  0  0
   57.1480   39.3580   22.6370 N   0  0  0  0  0
   55.7280   38.5160   21.2070 C   0  0  0  0  0
   56.7700   40.3390   21.8380 C   0  0  0  0  0
   55.9100   39.8550   20.9610 N   0  0  0  0  0
   55.4750   35.0970   25.9390 N   0  0  0  0  0
   55.5730   33.8080   26.6140 C   0  0  0  0  0
   54.9040   32.7460   25.7550 C   0  0  0  0  0
   53.8070   32.9530   25.2210 O   0  0  0  0  0
   54.9480   33.8700   28.0200 C   0  0  0  0  0
   55.6450   34.9370   28.8620 C   0  0  0  0  0
   55.0340   32.5100   28.7050 C   0  0  0  0  0
   55.2110   34.9500   30.3100 C   0  0  0  0  0
   55.5740   31.6050   25.6140 N   0  0  0  0  0
   55.0480   30.4790   24.8610 C   0  0  0  0  0
   55.2700   29.2110   25.6710 C   0  0  0  0  0
   56.2460   29.0960   26.4180 O   0  0  0  0  0
   55.7180   30.3640   23.4820 C   0  0  0  0  0
   55.1400   29.2850   22.5750 C   0  0  0  0  0
   55.8060   29.3100   21.2040 C   0  0  0  0  0
   55.2790   28.2920   20.2970 N   0  0  0  0  0
   54.2020   28.4570   19.5310 C   0  0  0  0  0
   53.5290   29.6000   19.5620 N   0  0  0  0  0
   53.7960   27.4790   18.7350 N   0  0  0  0  0
   54.3420   28.2660   25.5280 N   0  0  0  0  0
   54.3510   26.9940   26.2440 C   0  0  0  0  0
   54.0820   27.1550   27.7380 C   0  0  0  0  0
   54.3540   26.2380   28.5220 O   0  0  0  0  0
   55.6210   26.1710   25.9770 C   0  0  0  0  0
   55.9310   25.9870   24.5100 C   0  0  0  0  0
   54.9590   25.5350   23.6300 C   0  0  0  0  0
   57.1910   26.2790   24.0110 C   0  0  0  0  0
   55.2410   25.3710   22.2830 C   0  0  0  0  0
   57.4800   26.1190   22.6660 C   0  0  0  0  0
   56.5040   25.6630   21.8010 C   0  0  0  0  0
   53.5490   28.3040   28.1490 N   0  0  0  0  0
   53.1470   28.5180   29.5220 C   0  0  0  0  0
   54.2350   29.1430   30.3780 C   0  0  0  0  0
   55.3910   29.3020   29.9760 O   0  0  0  0  0
   53.8410   29.4910   31.6050 N   0  0  0  0  0
   54.7570   30.1510   32.5300 C   0  0  0  0  0
   55.9200   29.2390   32.9080 C   0  0  0  0  0
   57.0880   29.6350   32.8170 O   0  0  0  0  0
   53.9910   30.5930   33.7770 C   0  0  0  0  0
   54.8460   31.2730   34.8220 C   0  0  0  0  0
   55.1090   32.6330   34.7490 C   0  0  0  0  0
   55.3810   30.5580   35.8870 C   0  0  0  0  0
   55.8880   33.2630   35.6990 C   0  0  0  0  0
   56.1610   31.1810   36.8440 C   0  0  0  0  0
   56.4080   32.5360   36.7430 C   0  0  0  0  0
   57.1820   33.1700   37.6850 O   0  0  0  0  0
   55.6150   28.0130   33.3440 N   0  0  0  0  0
   56.6500   27.1250   33.8680 C   0  0  0  0  0
   57.7500   26.8740   32.8420 C   0  0  0  0  0
   58.9400   26.8880   33.1800 O   0  0  0  0  0
   56.0270   25.8080   34.3320 C   0  0  0  0  0
   57.0290   24.8790   34.7030 O   0  0  0  0  0
   57.3700   26.6370   31.5840 N   0  0  0  0  0
   58.3610   26.4970   30.5220 C   0  0  0  0  0
   59.1850   27.7700   30.3720 C   0  0  0  0  0
   60.4060   27.7100   30.1900 O   0  0  0  0  0
   57.6530   26.1630   29.2090 C   0  0  0  0  0
   58.5460   26.1170   27.9850 C   0  0  0  0  0
   58.8540   27.2710   27.2750 C   0  0  0  0  0
   59.0530   24.9130   27.5240 C   0  0  0  0  0
   59.6600   27.2260   26.1580 C   0  0  0  0  0
   59.8560   24.8580   26.4060 C   0  0  0  0  0
   60.1560   26.0140   25.7260 C   0  0  0  0  0
   60.9530   25.9540   24.6080 O   0  0  0  0  0
   58.5290   28.9310   30.4320 N   0  0  0  0  0
   59.2280   30.1970   30.2420 C   0  0  0  0  0
   60.2640   30.4180   31.3360 C   0  0  0  0  0
   61.4040   30.8070   31.0590 O   0  0  0  0  0
   58.2140   31.3400   30.2190 C   0  0  0  0  0
   58.7390   32.6070   29.6200 C   0  0  0  0  0
   59.2040   32.6800   28.3250 N   0  0  0  0  0
   58.8590   33.8540   30.1340 C   0  0  0  0  0
   59.5920   33.9160   28.0680 C   0  0  0  0  0
   59.3950   34.6480   29.1500 N   0  0  0  0  0
   59.8830   30.1650   32.5910 N   0  0  0  0  0
   60.8020   30.3500   33.7110 C   0  0  0  0  0
   62.0400   29.4770   33.5470 C   0  0  0  0  0
   63.1700   29.9300   33.7670 O   0  0  0  0  0
   60.0780   30.1020   35.0470 C   0  0  0  0  0
   61.0470   29.5900   36.1020 C   0  0  0  0  0
   59.4100   31.3780   35.5170 C   0  0  0  0  0
   61.8520   28.2160   33.1480 N   0  0  0  0  0
   63.0080   27.3600   32.9080 C   0  0  0  0  0
   63.7790   27.7900   31.6660 C   0  0  0  0  0
   64.9810   27.5250   31.5640 O   0  0  0  0  0
   62.5970   25.8850   32.8350 C   0  0  0  0  0
   61.7380   25.6320   31.7380 O   0  0  0  0  0
   63.1170   28.4560   30.7160 N   0  0  0  0  0
   63.8290   28.9500   29.5420 C   0  0  0  0  0
   64.6190   30.2110   29.8610 C   0  0  0  0  0
   65.7490   30.3770   29.3870 O   0  0  0  0  0
   62.8580   29.2160   28.3930 C   0  0  0  0  0
   63.5040   29.9070   27.2120 C   0  0  0  0  0
   64.5160   29.2900   26.4900 C   0  0  0  0  0
   63.0960   31.1740   26.8150 C   0  0  0  0  0
   65.1070   29.9150   25.4100 C   0  0  0  0  0
   63.6810   31.8090   25.7350 C   0  0  0  0  0
   64.6870   31.1750   25.0380 C   0  0  0  0  0
   65.2700   31.8030   23.9620 O   0  0  0  0  0
   64.0410   31.1070   30.6550 N   0  0  0  0  0
   64.7270   32.3230   31.0720 C   0  0  0  0  0
   65.9420   31.9900   31.9300 C   0  0  0  0  0
   66.8610   32.7970   32.0490 O   0  0  0  0  0
   63.7840   33.2410   31.8510 C   0  0  0  0  0
   62.3970   33.9000   30.9030 S   0  0  0  0  0
   65.9410   30.8090   32.5400 N   0  0  0  0  0
   67.1350   30.3270   33.2870 C   0  0  0  0  0
   67.9520   29.4200   32.3960 C   0  0  0  0  0
   69.1490   29.2570   32.5790 O   0  0  0  0  0
   67.2780   28.8170   31.4180 N   0  0  0  0  0
   63.5303   32.8680   28.9800 H   0  0  0  0  0
   62.0195   33.4351   28.5178 H   0  0  0  0  0
   63.2576   34.6818   26.8837 H   0  0  0  0  0
   64.9885   36.8714   27.7999 H   0  0  0  0  0
   64.9618   37.5828   25.4542 H   0  0  0  0  0
   63.9407   36.1326   25.1001 H   0  0  0  0  0
   65.1570   34.1133   26.8670 H   0  0  0  0  0
   67.0185   37.1031   24.4169 H   0  0  0  0  0
   67.1875   32.7114   26.7314 H   0  0  0  0  0
   69.0557   35.6979   24.2773 H   0  0  0  0  0
   70.0271   33.7808   24.8853 H   0  0  0  0  0
   63.9501   38.2857   29.0726 H   0  0  0  0  0
   61.7234   39.8201   28.0014 H   0  0  0  0  0
   62.4636   39.9488   29.6461 H   0  0  0  0  0
   59.6475   40.0721   28.9620 H   0  0  0  0  0
   58.6399   37.3736   29.6086 H   0  0  0  0  0
   56.9570   38.7848   31.1765 H   0  0  0  0  0
   58.5466   39.6421   31.4571 H   0  0  0  0  0
   56.6456   36.9422   33.1166 H   0  0  0  0  0
   60.7275   35.7832   33.5160 H   0  0  0  0  0
   58.6451   39.3517   27.2858 H   0  0  0  0  0
   55.9064   40.3908   27.2270 H   0  0  0  0  0
   57.4620   41.8002   26.1869 H   0  0  0  0  0
   56.6882   40.9585   24.7991 H   0  0  0  0  0
   58.9897   41.0059   24.6520 H   0  0  0  0  0
   57.6920   37.9150   25.3321 H   0  0  0  0  0
   55.0351   36.9983   24.2602 H   0  0  0  0  0
   56.2406   36.1176   22.3748 H   0  0  0  0  0
   57.7978   36.7594   23.0864 H   0  0  0  0  0
   55.0773   37.8391   20.6533 H   0  0  0  0  0
   57.1103   41.3730   21.8932 H   0  0  0  0  0
   54.7117   35.7278   26.1838 H   0  0  0  0  0
   56.6233   33.5481   26.7458 H   0  0  0  0  0
   53.8960   34.1373   27.9200 H   0  0  0  0  0
   55.3874   35.9069   28.4364 H   0  0  0  0  0
   56.7129   34.7192   28.8443 H   0  0  0  0  0
   54.4967   31.7708   28.1109 H   0  0  0  0  0
   56.0796   32.2154   28.7949 H   0  0  0  0  0
   54.5870   32.5753   29.6970 H   0  0  0  0  0
   54.1394   35.1419   30.3651 H   0  0  0  0  0
   55.4321   33.9835   30.7629 H   0  0  0  0  0
   55.7496   35.7339   30.8424 H   0  0  0  0  0
   56.4915   31.5175   26.0510 H   0  0  0  0  0
   53.9826   30.6299   24.6873 H   0  0  0  0  0
   56.7610   30.1014   23.6592 H   0  0  0  0  0
   55.5636   31.3170   22.9761 H   0  0  0  0  0
   54.0730   29.4685   22.4490 H   0  0  0  0  0
   55.3173   28.3116   23.0324 H   0  0  0  0  0
   56.8683   29.1114   21.3462 H   0  0  0  0  0
   55.6129   30.2856   20.7578 H   0  0  0  0  0
   55.7674   27.3979   20.2476 H   0  0  0  0  0
   52.7038   29.7221   18.9750 H   0  0  0  0  0
   53.8368   30.3566   20.1729 H   0  0  0  0  0
   54.3085   26.5975   18.7079 H   0  0  0  0  0
   53.5768   28.4424   24.8770 H   0  0  0  0  0
   53.5169   26.4225   25.8368 H   0  0  0  0  0
   55.4617   25.1801   26.4023 H   0  0  0  0  0
   56.4575   26.7109   26.4208 H   0  0  0  0  0
   53.9606   25.3058   24.0025 H   0  0  0  0  0
   57.9659   26.6399   24.6873 H   0  0  0  0  0
   54.4677   25.0120   21.6038 H   0  0  0  0  0
   58.4762   26.3525   22.2904 H   0  0  0  0  0
   56.7286   25.5338   20.7422 H   0  0  0  0  0
   53.4200   29.0576   27.4738 H   0  0  0  0  0
   52.9100   27.5443   29.9508 H   0  0  0  0  0
   52.3003   29.2044   29.5135 H   0  0  0  0  0
   52.8852   29.2926   31.9007 H   0  0  0  0  0
   55.1784   31.0263   32.0357 H   0  0  0  0  0
   53.5774   29.6946   34.2352 H   0  0  0  0  0
   53.2420   31.3162   33.4544 H   0  0  0  0  0
   54.6930   33.2150   33.9266 H   0  0  0  0  0
   55.1827   29.4894   35.9692 H   0  0  0  0  0
   56.0895   34.3314   35.6214 H   0  0  0  0  0
   56.5776   30.6070   37.6717 H   0  0  0  0  0
   57.4681   32.5330   38.3438 H   0  0  0  0  0
   54.6470   27.6932   33.3105 H   0  0  0  0  0
   57.1137   27.6163   34.7234 H   0  0  0  0  0
   55.4448   25.3873   33.5122 H   0  0  0  0  0
   55.3937   26.0050   35.1970 H   0  0  0  0  0
   56.6154   24.0616   34.9902 H   0  0  0  0  0
   56.3777   26.5530   31.3633 H   0  0  0  0  0
   59.0436   25.6881   30.7826 H   0  0  0  0  0
   56.9264   26.9567   29.0355 H   0  0  0  0  0
   57.2327   25.1642   29.3264 H   0  0  0  0  0
   58.4514   28.2279   27.6071 H   0  0  0  0  0
   58.8122   23.9924   28.0556 H   0  0  0  0  0
   59.9037   28.1420   25.6198 H   0  0  0  0  0
   60.2515   23.9022   26.0624 H   0  0  0  0  0
   61.2098   25.0429   24.4480 H   0  0  0  0  0
   57.5252   28.9328   30.6132 H   0  0  0  0  0
   59.7566   30.1683   29.2892 H   0  0  0  0  0
   57.9479   31.5572   31.2535 H   0  0  0  0  0
   57.3744   31.0153   29.6044 H   0  0  0  0  0
   58.5821   34.1686   31.1402 H   0  0  0  0  0
   60.0046   34.2716   27.1238 H   0  0  0  0  0
   58.9340   29.8370   32.7702 H   0  0  0  0  0
   61.1467   31.3840   33.7191 H   0  0  0  0  0
   59.3154   29.3389   34.8913 H   0  0  0  0  0
   61.4894   28.6532   35.7631 H   0  0  0  0  0
   61.8331   30.3283   36.2603 H   0  0  0  0  0
   60.5103   29.4229   37.0359 H   0  0  0  0  0
   60.1648   32.1522   35.6550 H   0  0  0  0  0
   58.6858   31.7038   34.7703 H   0  0  0  0  0
   58.9005   31.1928   36.4626 H   0  0  0  0  0
   60.9077   27.8549   33.0123 H   0  0  0  0  0
   63.6825   27.4731   33.7567 H   0  0  0  0  0
   62.0651   25.6318   33.7521 H   0  0  0  0  0
   63.4978   25.2841   32.7104 H   0  0  0  0  0
   61.5028   24.7013   31.7252 H   0  0  0  0  0
   62.1146   28.6191   30.8111 H   0  0  0  0  0
   64.5333   28.1761   29.2367 H   0  0  0  0  0
   62.0732   29.8719   28.7698 H   0  0  0  0  0
   62.4846   28.2521   28.0471 H   0  0  0  0  0
   64.8503   28.2941   26.7808 H   0  0  0  0  0
   62.3003   31.6767   27.3648 H   0  0  0  0  0
   65.9009   29.4156   24.8546 H   0  0  0  0  0
   63.3491   32.8036   25.4370 H   0  0  0  0  0
   64.8660   32.6651   23.8386 H   0  0  0  0  0
   63.0896   30.9383   30.9818 H   0  0  0  0  0
   65.0592   32.8411   30.1724 H   0  0  0  0  0
   64.3766   34.0966   32.1747 H   0  0  0  0  0
   63.3570   32.6416   32.6551 H   0  0  0  0  0
   65.1075   30.2227   32.4955 H   0  0  0  0  0
   66.8135   29.7758   34.1707 H   0  0  0  0  0
   67.7416   31.1794   33.5929 H   0  0  0  0  0
   67.7616   28.1854   30.7795 H   0  0  0  0  0
   66.2783   28.9868   31.3076 H   0  0  0  0  0
  1  2  2  0  0  0
  1  3  1  0  0  0
  1  4  1  0  0  0
  3150  1  0  0  0
  4  5  1  0  0  0
  5  6  1  0  0  0
  5  8  1  0  0  0
  6  7  2  0  0  0
  6 16  1  0  0  0
  8  9  1  0  0  0
  9 10  4  0  0  0
  9 11  4  0  0  0
 10 12  4  0  0  0
 11 13  4  0  0  0
 12 14  4  0  0  0
 13 14  4  0  0  0
 14 15  1  0  0  0
 16 17  1  0  0  0
 17 18  1  0  0  0
 18 19  2  0  0  0
 18 20  1  0  0  0
 20 21  1  0  0  0
 21 22  1  0  0  0
 21 24  1  0  0  0
 22 23  2  0  0  0
 22 30  1  0  0  0
 24 25  1  0  0  0
 25 26  4  0  0  0
 25 27  4  0  0  0
 26 28  4  0  0  0
 27 29  4  0  0  0
 28 29  4  0  0  0
 30 31  1  0  0  0
 31 32  1  0  0  0
 31 34  1  0  0  0
 32 33  2  0  0  0
 32 36  1  0  0  0
 34 35  1  0  0  0
 36 37  1  0  0  0
 37 38  1  0  0  0
 37 40  1  0  0  0
 38 39  2  0  0  0
 38 46  1  0  0  0
 40 41  1  0  0  0
 41 42  4  0  0  0
 41 43  4  0  0  0
 42 44  4  0  0  0
 43 45  4  0  0  0
 44 45  4  0  0  0
 46 47  1  0  0  0
 47 48  1  0  0  0
 47 50  1  0  0  0
 48 49  2  0  0  0
 48 54  1  0  0  0
 50 51  1  0  0  0
 50 52  1  0  0  0
 51 53  1  0  0  0
 54 55  1  0  0  0
 55 56  1  0  0  0
 55 58  1  0  0  0
 56 57  2  0  0  0
 56 65  1  0  0  0
 58 59  1  0  0  0
 59 60  1  0  0  0
 60 61  1  0  0  0
 61 62  1  0  0  0
 62 63  1  0  0  0
 62 64  2  0  0  0
 65 66  1  0  0  0
 66 67  1  0  0  0
 66 69  1  0  0  0
 67 68  2  0  0  0
 67 76  1  0  0  0
 69 70  1  0  0  0
 70 71  4  0  0  0
 70 72  4  0  0  0
 71 73  4  0  0  0
 72 74  4  0  0  0
 73 75  4  0  0  0
 74 75  4  0  0  0
 76 77  1  0  0  0
 77 78  1  0  0  0
 78 79  2  0  0  0
 78 80  1  0  0  0
 80 81  1  0  0  0
 81 82  1  0  0  0
 81 84  1  0  0  0
 82 83  2  0  0  0
 82 92  1  0  0  0
 84 85  1  0  0  0
 85 86  4  0  0  0
 85 87  4  0  0  0
 86 88  4  0  0  0
 87 89  4  0  0  0
 88 90  4  0  0  0
 89 90  4  0  0  0
 90 91  1  0  0  0
 92 93  1  0  0  0
 93 94  1  0  0  0
 93 96  1  0  0  0
 94 95  2  0  0  0
 94 98  1  0  0  0
 96 97  1  0  0  0
 98 99  1  0  0  0
 99100  1  0  0  0
 99102  1  0  0  0
100101  2  0  0  0
100110  1  0  0  0
102103  1  0  0  0
103104  4  0  0  0
103105  4  0  0  0
104106  4  0  0  0
105107  4  0  0  0
106108  4  0  0  0
107108  4  0  0  0
108109  1  0  0  0
110111  1  0  0  0
111112  1  0  0  0
111114  1  0  0  0
112113  2  0  0  0
112120  1  0  0  0
114115  1  0  0  0
115116  4  0  0  0
115117  4  0  0  0
116118  4  0  0  0
117119  4  0  0  0
118119  4  0  0  0
120121  1  0  0  0
121122  1  0  0  0
121124  1  0  0  0
122123  2  0  0  0
122127  1  0  0  0
124125  1  0  0  0
124126  1  0  0  0
127128  1  0  0  0
128129  1  0  0  0
128131  1  0  0  0
129130  2  0  0  0
129133  1  0  0  0
131132  1  0  0  0
133134  1  0  0  0
134135  1  0  0  0
134137  1  0  0  0
135136  2  0  0  0
135145  1  0  0  0
137138  1  0  0  0
138139  4  0  0  0
138140  4  0  0  0
139141  4  0  0  0
140142  4  0  0  0
141143  4  0  0  0
142143  4  0  0  0
143144  1  0  0  0
145146  1  0  0  0
146147  1  0  0  0
146149  1  0  0  0
147148  2  0  0  0
147151  1  0  0  0
149150  1  0  0  0
151152  1  0  0  0
152153  1  0  0  0
153154  2  0  0  0
153155  1  0  0  0
  3156  1  0  0  0
  3157  1  0  0  0
  4158  1  0  0  0
  5159  1  0  0  0
  8160  1  0  0  0
  8161  1  0  0  0
 10162  1  0  0  0
 11163  1  0  0  0
 12164  1  0  0  0
 13165  1  0  0  0
 15166  1  0  0  0
 16167  1  0  0  0
 17168  1  0  0  0
 17169  1  0  0  0
 20170  1  0  0  0
 21171  1  0  0  0
 24172  1  0  0  0
 24173  1  0  0  0
 27174  1  0  0  0
 28175  1  0  0  0
 30176  1  0  0  0
 31177  1  0  0  0
 34178  1  0  0  0
 34179  1  0  0  0
 35180  1  0  0  0
 36181  1  0  0  0
 37182  1  0  0  0
 40183  1  0  0  0
 40184  1  0  0  0
 43185  1  0  0  0
 44186  1  0  0  0
 46187  1  0  0  0
 47188  1  0  0  0
 50189  1  0  0  0
 51190  1  0  0  0
 51191  1  0  0  0
 52192  1  0  0  0
 52193  1  0  0  0
 52194  1  0  0  0
 53195  1  0  0  0
 53196  1  0  0  0
 53197  1  0  0  0
 54198  1  0  0  0
 55199  1  0  0  0
 58200  1  0  0  0
 58201  1  0  0  0
 59202  1  0  0  0
 59203  1  0  0  0
 60204  1  0  0  0
 60205  1  0  0  0
 61206  1  0  0  0
 63207  1  0  0  0
 63208  1  0  0  0
 64209  1  0  0  0
 65210  1  0  0  0
 66211  1  0  0  0
 69212  1  0  0  0
 69213  1  0  0  0
 71214  1  0  0  0
 72215  1  0  0  0
 73216  1  0  0  0
 74217  1  0  0  0
 75218  1  0  0  0
 76219  1  0  0  0
 77220  1  0  0  0
 77221  1  0  0  0
 80222  1  0  0  0
 81223  1  0  0  0
 84224  1  0  0  0
 84225  1  0  0  0
 86226  1  0  0  0
 87227  1  0  0  0
 88228  1  0  0  0
 89229  1  0  0  0
 91230  1  0  0  0
 92231  1  0  0  0
 93232  1  0  0  0
 96233  1  0  0  0
 96234  1  0  0  0
 97235  1  0  0  0
 98236  1  0  0  0
 99237  1  0  0  0
102238  1  0  0  0
102239  1  0  0  0
104240  1  0  0  0
105241  1  0  0  0
106242  1  0  0  0
107243  1  0  0  0
109244  1  0  0  0
110245  1  0  0  0
111246  1  0  0  0
114247  1  0  0  0
114248  1  0  0  0
117249  1  0  0  0
118250  1  0  0  0
120251  1  0  0  0
121252  1  0  0  0
124253  1  0  0  0
125254  1  0  0  0
125255  1  0  0  0
125256  1  0  0  0
126257  1  0  0  0
126258  1  0  0  0
126259  1  0  0  0
127260  1  0  0  0
128261  1  0  0  0
131262  1  0  0  0
131263  1  0  0  0
132264  1  0  0  0
133265  1  0  0  0
134266  1  0  0  0
137267  1  0  0  0
137268  1  0  0  0
139269  1  0  0  0
140270  1  0  0  0
141271  1  0  0  0
142272  1  0  0  0
144273  1  0  0  0
145274  1  0  0  0
146275  1  0  0  0
149276  1  0  0  0
149277  1  0  0  0
151278  1  0  0  0
152279  1  0  0  0
152280  1  0  0  0
155281  1  0  0  0
155282  1  0  0  0
M  END
$$$$
