1yvz_ligand
  -I-interpret- 

 45 47  0  0  0  0  0  0  0  0999 V2000
   28.1040   61.9480    6.2000 N   0  0  0  0  0
   28.5780   63.4150    6.2070 C   0  0  0  0  0
   27.5960   64.3760    5.4850 C   0  0  0  0  0
   29.9970   63.6320    5.5630 C   0  0  0  0  0
   27.1530   61.6390    7.2440 C   0  0  0  0  0
   26.7550   62.4620    8.0690 O   0  0  0  0  0
   26.5570   60.2320    7.4010 C   0  0  0  0  0
   27.0630   59.4210    8.4760 C   0  0  0  0  0
   26.5680   58.0920    8.6890 C   0  0  0  0  0
   25.5550   57.5590    7.8230 C   0  0  0  0  0
   25.0290   58.3560    6.7370 C   0  0  0  0  0
   25.5110   59.6950    6.5090 C   0  0  0  0  0
   24.9750   55.9800    8.0800 Cl  0  0  0  0  0
   24.8250   60.6100    5.1730 Cl  0  0  0  0  0
   28.5820   60.9860    5.2270 C   0  0  0  0  0
   29.5650   59.9880    5.3370 C   0  0  0  0  0
   29.8030   59.0740    3.9120 S   0  0  0  0  0
   28.6120   59.9420    3.0480 C   0  0  0  0  0
   28.0770   60.9030    3.8850 C   0  0  0  0  0
   30.3780   59.6860    6.5550 C   0  0  0  0  0
   31.2080   58.7760    6.4830 O   0  0  0  0  0
   30.1540   60.3840    7.5640 O   0  0  0  0  0
   28.2350   59.6870    1.6280 C   0  0  0  0  0
   29.1420   58.9840    0.7280 C   0  0  0  0  0
   28.7870   58.7370   -0.6440 C   0  0  0  0  0
   27.5160   59.1870   -1.1490 C   0  0  0  0  0
   26.6010   59.8820   -0.2840 C   0  0  0  0  0
   26.9510   60.1310    1.0840 C   0  0  0  0  0
   28.6242   63.6503    7.2703 H   0  0  0  0  0
   27.9281   65.4048    5.6242 H   0  0  0  0  0
   27.5754   64.1403    4.4210 H   0  0  0  0  0
   26.5972   64.2554    5.9045 H   0  0  0  0  0
   29.9499   63.4047    4.4980 H   0  0  0  0  0
   30.3026   64.6691    5.7013 H   0  0  0  0  0
   30.7182   62.9720    6.0451 H   0  0  0  0  0
   27.8319   59.8215    9.1366 H   0  0  0  0  0
   26.9603   57.4878    9.5070 H   0  0  0  0  0
   24.2609   57.9402    6.0849 H   0  0  0  0  0
   27.2950   61.5779    3.5369 H   0  0  0  0  0
   29.4644   61.0213    7.3642 H   0  0  0  0  0
   30.1063   58.6395    1.1016 H   0  0  0  0  0
   29.4793   58.2099   -1.3004 H   0  0  0  0  0
   27.2468   59.0006   -2.1887 H   0  0  0  0  0
   25.6391   60.2203   -0.6693 H   0  0  0  0  0
   26.2493   60.6596    1.7293 H   0  0  0  0  0
  1  2  1  0  0  0
  1  5  1  0  0  0
  1 15  1  0  0  0
  2  3  1  0  0  0
  2  4  1  0  0  0
  5  6  2  0  0  0
  5  7  1  0  0  0
  7  8  4  0  0  0
  7 12  4  0  0  0
  8  9  4  0  0  0
  9 10  4  0  0  0
 10 11  4  0  0  0
 10 13  1  0  0  0
 11 12  4  0  0  0
 12 14  1  0  0  0
 15 16  4  0  0  0
 15 19  4  0  0  0
 16 17  4  0  0  0
 16 20  1  0  0  0
 17 18  4  0  0  0
 18 19  4  0  0  0
 18 23  1  0  0  0
 20 21  2  0  0  0
 20 22  1  0  0  0
 23 24  4  0  0  0
 23 28  4  0  0  0
 24 25  4  0  0  0
 25 26  4  0  0  0
 26 27  4  0  0  0
 27 28  4  0  0  0
  2 29  1  0  0  0
  3 30  1  0  0  0
  3 31  1  0  0  0
  3 32  1  0  0  0
  4 33  1  0  0  0
  4 34  1  0  0  0
  4 35  1  0  0  0
  8 36  1  0  0  0
  9 37  1  0  0  0
 11 38  1  0  0  0
 19 39  1  0  0  0
 22 40  1  0  0  0
 24 41  1  0  0  0
 25 42  1  0  0  0
 26 43  1  0  0  0
 27 44  1  0  0  0
 28 45  1  0  0  0
M  END
$$$$
