1b4z_ligand
  -I-interpret- 

 61 60  0  0  0  0  0  0  0  0999 V2000
    6.8430   16.4610   15.1510 N   0  3  0  0  0
    6.3600   17.7530   14.5610 C   0  0  0  0  0
    5.1230   18.2170   15.3170 C   0  0  0  0  0
    4.3410   17.3900   15.8060 O   0  0  0  0  0
    6.1290   17.6090   13.0430 C   0  0  0  0  0
    5.1650   16.5030   12.6280 C   0  0  0  0  0
    5.0720   16.4120   11.0800 C   0  0  0  0  0
    6.3360   15.7660   10.4920 C   0  0  0  0  0
    6.5170   14.3530   10.9100 N   0  3  0  0  0
    4.9300   19.5190   15.4010 N   0  0  0  0  0
    3.7770   20.0580   16.1510 C   0  0  0  0  0
    2.5030   20.0030   15.3290 C   0  0  0  0  0
    2.5070   20.2760   14.1350 O   0  0  0  0  0
    4.0510   21.5350   16.4890 C   0  0  0  0  0
    4.9830   21.6400   17.6930 C   0  0  0  0  0
    4.7230   21.1780   18.8070 O   0  0  0  0  0
    6.0800   22.1670   17.4940 O   0  0  0  0  0
    1.3980   19.5840   15.9740 N   0  0  0  0  0
    0.1230   19.5560   15.2960 C   0  0  0  0  0
   -0.9150   20.3790   16.0710 C   0  0  0  0  0
   -1.8880   20.7810   15.3890 O   0  0  0  0  0
   -0.4060   18.1220   15.1890 C   0  0  0  0  0
   -1.4530   18.1470   14.0330 C   0  0  0  0  0
   -2.1310   16.7980   14.0290 C   0  0  0  0  0
   -3.4120   16.8340   13.1800 C   0  0  0  0  0
   -2.9850   16.6100   11.7730 N   0  3  0  0  0
   -0.6910   20.7590   17.2370 O   0  0  0  0  0
    7.6721   16.1472   14.6465 H   0  0  0  0  0
    7.0752   16.6033   16.1340 H   0  0  0  0  0
    6.1089   15.7572   15.0722 H   0  0  0  0  0
    7.1211   18.5251   14.6731 H   0  0  0  0  0
    7.0951   17.3596   12.6042 H   0  0  0  0  0
    5.6888   18.5473   12.7056 H   0  0  0  0  0
    4.1765   16.7270   13.0289 H   0  0  0  0  0
    5.5296   15.5522   13.0166 H   0  0  0  0  0
    4.9721   17.4190   10.6750 H   0  0  0  0  0
    4.2099   15.7994   10.8160 H   0  0  0  0  0
    7.1952   16.3308   10.8537 H   0  0  0  0  0
    6.2406   15.7803    9.4063 H   0  0  0  0  0
    7.3688   13.9817   10.4894 H   0  0  0  0  0
    6.5903   14.3071   11.9263 H   0  0  0  0  0
    5.7158   13.8028   10.6005 H   0  0  0  0  0
    5.5812   20.1581   14.9451 H   0  0  0  0  0
    3.6485   19.4540   17.0492 H   0  0  0  0  0
    3.1073   22.0263   16.7261 H   0  0  0  0  0
    4.5230   22.0142   15.6313 H   0  0  0  0  0
    3.8380   20.8060   18.7993 H   0  0  0  0  0
    1.4616   19.2846   16.9470 H   0  0  0  0  0
    0.2757   19.9743   14.3011 H   0  0  0  0  0
   -1.8674   20.3614   14.5258 H   0  0  0  0  0
   -0.8544   17.7915   16.1259 H   0  0  0  0  0
    0.3977   17.4149   14.9837 H   0  0  0  0  0
   -0.9687   18.3401   13.0758 H   0  0  0  0  0
   -2.1794   18.9453   14.1853 H   0  0  0  0  0
   -2.3951   16.5341   15.0531 H   0  0  0  0  0
   -1.4480   16.0624   13.6040 H   0  0  0  0  0
   -3.9270   17.7887   13.2867 H   0  0  0  0  0
   -4.1183   16.0689   13.5024 H   0  0  0  0  0
   -3.8033   16.6247   11.1642 H   0  0  0  0  0
   -2.3386   17.3479   11.4936 H   0  0  0  0  0
   -2.5214   15.7044   11.6997 H   0  0  0  0  0
  2  1  1  0  0  0
  2  5  1  0  0  0
  3  2  1  0  0  0
  3  4  2  0  0  0
  5  6  1  0  0  0
  6  7  1  0  0  0
  7  8  1  0  0  0
  8  9  1  0  0  0
 11 10  1  0  0  0
 11 14  1  0  0  0
 12 11  1  0  0  0
 12 13  2  0  0  0
 14 15  1  0  0  0
 15 17  2  0  0  0
 15 16  1  0  0  0
 10  3  1  0  0  0
 18 19  1  0  0  0
 19 22  1  0  0  0
 19 20  1  0  0  0
 20 21  1  0  0  0
 20 27  2  0  0  0
 22 23  1  0  0  0
 23 24  1  0  0  0
 24 25  1  0  0  0
 25 26  1  0  0  0
 12 18  1  0  0  0
  1 28  1  0  0  0
  1 29  1  0  0  0
  1 30  1  0  0  0
  2 31  1  0  0  0
  5 32  1  0  0  0
  5 33  1  0  0  0
  6 34  1  0  0  0
  6 35  1  0  0  0
  7 36  1  0  0  0
  7 37  1  0  0  0
  8 38  1  0  0  0
  8 39  1  0  0  0
  9 40  1  0  0  0
  9 41  1  0  0  0
  9 42  1  0  0  0
 10 43  1  0  0  0
 11 44  1  0  0  0
 14 45  1  0  0  0
 14 46  1  0  0  0
 16 47  1  0  0  0
 18 48  1  0  0  0
 19 49  1  0  0  0
 21 50  1  0  0  0
 22 51  1  0  0  0
 22 52  1  0  0  0
 23 53  1  0  0  0
 23 54  1  0  0  0
 24 55  1  0  0  0
 24 56  1  0  0  0
 25 57  1  0  0  0
 25 58  1  0  0  0
 26 59  1  0  0  0
 26 60  1  0  0  0
 26 61  1  0  0  0
M  END
$$$$
