3pa5_ligand
  -I-interpret- 

 45 47  0  0  0  0  0  0  0  0999 V2000
   17.5890   -0.9460    9.0380 S   0  0  0  0  0
   16.3890   -1.5600   10.0860 C   0  0  0  0  0
   16.8590   -2.5890   10.8490 C   0  0  0  0  0
   18.1950   -2.9040   10.5270 C   0  0  0  0  0
   18.7240   -2.0730    9.5300 C   0  0  0  0  0
   15.1170   -1.0140   10.1860 N   0  0  0  0  0
   14.6720    0.0380    9.4820 C   0  0  0  0  0
   13.3840    0.3810    9.7940 N   0  0  0  0  0
   15.3170    0.6450    8.6030 O   0  0  0  0  0
   15.9870   -3.2120   11.8270 C   0  0  0  0  0
   14.8510   -2.8400   11.9220 O   0  0  0  0  0
   16.5340   -4.2490   12.5440 N   0  0  0  0  0
   15.7620   -4.8940   13.6280 C   0  0  0  0  0
   16.1180   -3.9770   14.8780 C   0  0  0  0  0
   15.5520   -4.4760   16.1660 N   0  3  0  0  0
   16.0320   -5.8270   16.4700 C   0  0  0  0  0
   15.7490   -6.8040   15.3200 C   0  0  0  0  0
   16.3030   -6.2790   13.9590 C   0  0  0  0  0
   20.0670   -2.0670    8.9800 C   0  0  0  0  0
   20.5480   -0.9530    8.2740 C   0  0  0  0  0
   21.8320   -0.9380    7.7770 C   0  0  0  0  0
   22.6780   -2.0220    8.0010 C   0  0  0  0  0
   22.2260   -3.1240    8.7170 C   0  0  0  0  0
   20.9230   -3.1360    9.2130 C   0  0  0  0  0
   24.2940   -2.0100    7.3690 Cl  0  0  0  0  0
   18.7566   -3.7080   11.0027 H   0  0  0  0  0
   14.4702   -1.4460   10.8459 H   0  0  0  0  0
   12.9279    1.1502    9.3033 H   0  0  0  0  0
   12.8804   -0.1326   10.5171 H   0  0  0  0  0
   17.4760   -4.5750   12.3277 H   0  0  0  0  0
   14.7078   -4.9930   13.3693 H   0  0  0  0  0
   15.6900   -2.9918   14.6929 H   0  0  0  0  0
   17.2033   -3.9695   14.9792 H   0  0  0  0  0
   14.5355   -4.5028   16.0855 H   0  0  0  0  0
   15.8477   -3.8499   16.9150 H   0  0  0  0  0
   15.5118   -6.1838   17.3589 H   0  0  0  0  0
   17.1102   -5.7813   16.6236 H   0  0  0  0  0
   14.6690   -6.9186   15.2275 H   0  0  0  0  0
   16.2411   -7.7498   15.5468 H   0  0  0  0  0
   17.3888   -6.2156   14.0313 H   0  0  0  0  0
   15.9914   -6.9667   13.1728 H   0  0  0  0  0
   19.8987   -0.0915    8.1178 H   0  0  0  0  0
   22.1865   -0.0782    7.2084 H   0  0  0  0  0
   22.8862   -3.9739    8.8898 H   0  0  0  0  0
   20.5726   -3.9924    9.7891 H   0  0  0  0  0
  1  2  4  0  0  0
  1  5  4  0  0  0
  2  3  4  0  0  0
  2  6  1  0  0  0
  3  4  4  0  0  0
  3 10  1  0  0  0
  4  5  4  0  0  0
  5 19  1  0  0  0
  6  7  1  0  0  0
  7  8  1  0  0  0
  7  9  2  0  0  0
 10 11  2  0  0  0
 10 12  1  0  0  0
 12 13  1  0  0  0
 13 14  1  0  0  0
 13 18  1  0  0  0
 14 15  1  0  0  0
 15 16  1  0  0  0
 16 17  1  0  0  0
 17 18  1  0  0  0
 19 20  4  0  0  0
 19 24  4  0  0  0
 20 21  4  0  0  0
 21 22  4  0  0  0
 22 23  4  0  0  0
 22 25  1  0  0  0
 23 24  4  0  0  0
  4 26  1  0  0  0
  6 27  1  0  0  0
  8 28  1  0  0  0
  8 29  1  0  0  0
 12 30  1  0  0  0
 13 31  1  0  0  0
 14 32  1  0  0  0
 14 33  1  0  0  0
 15 34  1  0  0  0
 15 35  1  0  0  0
 16 36  1  0  0  0
 16 37  1  0  0  0
 17 38  1  0  0  0
 17 39  1  0  0  0
 18 40  1  0  0  0
 18 41  1  0  0  0
 20 42  1  0  0  0
 21 43  1  0  0  0
 23 44  1  0  0  0
 24 45  1  0  0  0
M  END
$$$$
