6fo9_ligand
  -I-interpret- 

 70 71  0  0  0  0  0  0  0  0999 V2000
   -1.8440   34.5020   36.8390 C   0  0  0  0  0
   -1.7300   33.5340   37.9850 C   0  0  0  0  0
   -0.9100   34.0690   39.1530 C   0  0  0  0  0
    0.5390   34.4610   39.1210 C   0  0  0  0  0
    5.2360   27.7630   34.1130 O   0  0  0  0  0
    4.7700   28.8310   33.2670 C   0  0  0  0  0
    4.4610   28.2400   31.9000 C   0  0  0  0  0
    5.8800   29.8680   33.1660 C   0  0  0  0  0
    3.5180   29.4190   33.9130 C   0  0  0  0  0
    3.8280   30.2130   35.1780 C   0  0  0  0  0
    3.5670   29.4540   36.4700 C   0  0  0  0  0
    2.1200   29.4820   36.9350 C   0  0  0  0  0
    1.9490   29.6990   38.4440 C   0  0  0  0  0
    2.2540   31.1000   38.9250 C   0  0  0  0  0
    1.2890   32.0920   38.8490 C   0  0  0  0  0
    3.5060   31.4180   39.4350 C   0  0  0  0  0
    3.7860   32.7060   39.8580 C   0  0  0  0  0
    2.8220   33.6880   39.7730 C   0  0  0  0  0
    1.5610   33.3990   39.2630 C   0  0  0  0  0
    1.0110   35.7220   38.9410 C   0  0  0  0  0
    0.2770   36.9210   38.7110 C   0  0  0  0  0
    0.7690   38.1510   38.3840 C   0  0  0  0  0
    2.1930   38.4570   38.1830 C   0  0  0  0  0
    2.9980   37.6800   37.4850 C   0  0  0  0  0
    2.6350   39.7430   38.8400 C   0  0  0  0  0
    3.9880   39.9960   38.4740 O   0  0  0  0  0
    1.7430   40.8690   38.3410 C   0  0  0  0  0
    0.3260   40.5950   38.7970 C   0  0  0  0  0
    0.2920   40.4880   40.2220 O   0  0  0  0  0
   -0.1720   39.3130   38.1630 C   0  0  0  0  0
   -2.3251   35.4170   37.1845 H   0  0  0  0  0
   -0.8485   34.7340   36.4606 H   0  0  0  0  0
   -2.4407   34.0539   36.0445 H   0  0  0  0  0
   -1.2260   32.6424   37.6120 H   0  0  0  0  0
   -2.7378   33.3417   38.3530 H   0  0  0  0  0
   -0.8915   33.2089   39.8223 H   0  0  0  0  0
   -1.3940   35.0271   39.3422 H   0  0  0  0  0
    5.4383   28.1115   34.9843 H   0  0  0  0  0
    4.1415   29.0347   31.2258 H   0  0  0  0  0
    5.3558   27.7617   31.5017 H   0  0  0  0  0
    3.6650   27.5016   31.9963 H   0  0  0  0  0
    6.7810   29.3968   32.7732 H   0  0  0  0  0
    5.5667   30.6698   32.4974 H   0  0  0  0  0
    6.0843   30.2773   34.1554 H   0  0  0  0  0
    2.8628   28.5924   34.1880 H   0  0  0  0  0
    3.0577   30.0980   33.1953 H   0  0  0  0  0
    3.1735   31.0846   35.1792 H   0  0  0  0  0
    4.8911   30.4527   35.1549 H   0  0  0  0  0
    4.1617   29.9332   37.2477 H   0  0  0  0  0
    3.8228   28.4108   36.2848 H   0  0  0  0  0
    1.6872   28.5099   36.6986 H   0  0  0  0  0
    1.6367   30.3200   36.4326 H   0  0  0  0  0
    2.6561   29.0343   38.9403 H   0  0  0  0  0
    0.9006   29.5081   38.6732 H   0  0  0  0  0
    0.3005   31.8486   38.4595 H   0  0  0  0  0
    4.2740   30.6475   39.5027 H   0  0  0  0  0
    4.7710   32.9444   40.2593 H   0  0  0  0  0
    3.0503   34.6997   40.1085 H   0  0  0  0  0
    2.0949   35.8308   38.9774 H   0  0  0  0  0
   -0.8062   36.8471   38.8077 H   0  0  0  0  0
    2.6143   36.7675   37.0286 H   0  0  0  0  0
    4.0471   37.9502   37.3645 H   0  0  0  0  0
    2.5598   39.6722   39.9251 H   0  0  0  0  0
    4.2824   40.8119   38.8854 H   0  0  0  0  0
    1.7810   40.9201   37.2529 H   0  0  0  0  0
    2.0861   41.8223   38.7431 H   0  0  0  0  0
   -0.3214   41.4163   38.4897 H   0  0  0  0  0
   -0.6080   40.3143   40.5073 H   0  0  0  0  0
   -1.1284   39.0618   38.6215 H   0  0  0  0  0
   -0.2526   39.4795   37.0888 H   0  0  0  0  0
  2  1  1  0  0  0
  3  2  1  0  0  0
  4  3  1  0  0  0
 19  4  1  0  0  0
  4 20  2  0  0  0
  6  5  1  0  0  0
  6  7  1  0  0  0
  6  8  1  0  0  0
  9  6  1  0  0  0
 10  9  1  0  0  0
 11 10  1  0  0  0
 12 11  1  0  0  0
 13 12  1  0  0  0
 14 13  1  0  0  0
 15 14  4  0  0  0
 14 16  4  0  0  0
 15 19  4  0  0  0
 16 17  4  0  0  0
 17 18  4  0  0  0
 18 19  4  0  0  0
 20 21  1  0  0  0
 21 22  2  0  0  0
 22 23  1  0  0  0
 22 30  1  0  0  0
 23 24  2  0  0  0
 23 25  1  0  0  0
 25 26  1  0  0  0
 25 27  1  0  0  0
 27 28  1  0  0  0
 28 29  1  0  0  0
 28 30  1  0  0  0
  1 31  1  0  0  0
  1 32  1  0  0  0
  1 33  1  0  0  0
  2 34  1  0  0  0
  2 35  1  0  0  0
  3 36  1  0  0  0
  3 37  1  0  0  0
  5 38  1  0  0  0
  7 39  1  0  0  0
  7 40  1  0  0  0
  7 41  1  0  0  0
  8 42  1  0  0  0
  8 43  1  0  0  0
  8 44  1  0  0  0
  9 45  1  0  0  0
  9 46  1  0  0  0
 10 47  1  0  0  0
 10 48  1  0  0  0
 11 49  1  0  0  0
 11 50  1  0  0  0
 12 51  1  0  0  0
 12 52  1  0  0  0
 13 53  1  0  0  0
 13 54  1  0  0  0
 15 55  1  0  0  0
 16 56  1  0  0  0
 17 57  1  0  0  0
 18 58  1  0  0  0
 20 59  1  0  0  0
 21 60  1  0  0  0
 24 61  1  0  0  0
 24 62  1  0  0  0
 25 63  1  0  0  0
 26 64  1  0  0  0
 27 65  1  0  0  0
 27 66  1  0  0  0
 28 67  1  0  0  0
 29 68  1  0  0  0
 30 69  1  0  0  0
 30 70  1  0  0  0
M  END
$$$$
