6etj_ligand
  -I-interpret- 

 42 44  0  0  0  0  0  0  0  0999 V2000
   56.5780   42.0660    1.9600 F   0  0  0  0  0
   56.9520   40.8250    2.2940 C   0  0  0  0  0
   56.0390   40.0170    2.9460 C   0  0  0  0  0
   58.2340   40.3640    2.0000 C   0  0  0  0  0
   58.6470   39.0710    2.3490 C   0  0  0  0  0
   57.7730   38.1950    3.0050 C   0  0  0  0  0
   58.1980   36.9160    3.3340 O   0  0  0  0  0
   56.3980   38.7310    3.3220 C   0  0  0  0  0
   55.3520   37.9320    3.9990 C   0  0  0  0  0
   54.2920   37.4880    3.1980 C   0  0  0  0  0
   55.3980   37.6420    5.3590 C   0  0  0  0  0
   54.3640   36.8870    5.9010 C   0  0  0  0  0
   53.3030   36.4360    5.0940 C   0  0  0  0  0
   53.2430   36.7280    3.7170 C   0  0  0  0  0
   52.0470   36.2290    2.7270 S   0  0  0  0  0
   52.6480   35.5560    1.6060 O   0  0  0  0  0
   51.1770   35.3390    3.4710 O   0  0  0  0  0
   51.1690   37.4630    2.1840 N   0  0  0  0  0
   50.3360   38.2100    2.9490 C   0  0  0  0  0
   49.2400   38.7710    2.2990 C   0  0  0  0  0
   48.3010   39.5900    2.9510 C   0  0  0  0  0
   50.5390   38.4710    4.3130 C   0  0  0  0  0
   49.6300   39.2970    5.0010 C   0  0  0  0  0
   49.7370   39.6240    6.3160 O   0  0  0  0  0
   48.4640   39.8720    4.3040 C   0  0  0  0  0
   47.5260   40.7560    5.0830 C   0  0  0  0  0
   47.6540   40.8920    6.2860 O   0  0  0  0  0
   46.5820   41.4600    4.4720 O   0  0  0  0  0
   55.0384   40.3901    3.1643 H   0  0  0  0  0
   58.9322   41.0249    1.4863 H   0  0  0  0  0
   59.6583   38.7439    2.1075 H   0  0  0  0  0
   57.4860   36.4471    3.7754 H   0  0  0  0  0
   54.2864   37.7436    2.1384 H   0  0  0  0  0
   56.2201   37.9961    5.9809 H   0  0  0  0  0
   54.3753   36.6416    6.9630 H   0  0  0  0  0
   52.5065   35.8451    5.5462 H   0  0  0  0  0
   51.2445   37.6998    1.1947 H   0  0  0  0  0
   49.1037   38.5662    1.2371 H   0  0  0  0  0
   47.4535   40.0001    2.4018 H   0  0  0  0  0
   51.3925   38.0382    4.8348 H   0  0  0  0  0
   49.0060   40.1952    6.5631 H   0  0  0  0  0
   46.5909   41.2583    3.5335 H   0  0  0  0  0
  1  2  1  0  0  0
  2  3  4  0  0  0
  2  4  4  0  0  0
  3  8  4  0  0  0
  4  5  4  0  0  0
  5  6  4  0  0  0
  6  7  1  0  0  0
  6  8  4  0  0  0
  8  9  1  0  0  0
  9 10  4  0  0  0
  9 11  4  0  0  0
 10 14  4  0  0  0
 11 12  4  0  0  0
 12 13  4  0  0  0
 13 14  4  0  0  0
 14 15  1  0  0  0
 15 16  2  0  0  0
 15 17  2  0  0  0
 15 18  1  0  0  0
 18 19  1  0  0  0
 19 20  4  0  0  0
 19 22  4  0  0  0
 20 21  4  0  0  0
 21 25  4  0  0  0
 22 23  4  0  0  0
 23 24  1  0  0  0
 23 25  4  0  0  0
 25 26  1  0  0  0
 26 27  2  0  0  0
 26 28  1  0  0  0
  3 29  1  0  0  0
  4 30  1  0  0  0
  5 31  1  0  0  0
  7 32  1  0  0  0
 10 33  1  0  0  0
 11 34  1  0  0  0
 12 35  1  0  0  0
 13 36  1  0  0  0
 18 37  1  0  0  0
 20 38  1  0  0  0
 21 39  1  0  0  0
 22 40  1  0  0  0
 24 41  1  0  0  0
 28 42  1  0  0  0
M  END
$$$$
