2znt_ligand
  -I-interpret- 

 43 44  0  0  0  0  0  0  0  0999 V2000
   20.1240    0.8320   14.2990 C   0  0  0  0  0
   21.4030    1.4660   13.9610 N   0  3  0  0  0
   22.5790    1.0120   14.7710 C   0  0  0  0  0
   23.8100    1.8490   14.3520 C   0  0  0  0  0
   23.9270    1.8970   12.9140 O   0  0  0  0  0
   25.1210    1.2810   14.9450 C   0  0  0  0  0
   25.2840   -0.0710   14.4180 O   0  0  0  0  0
   24.2680   -1.0020   14.8910 C   0  0  0  0  0
   24.3330   -2.2850   14.0340 C   0  0  0  0  0
   22.8470   -0.5090   14.5970 C   0  0  0  0  0
   22.6080   -0.8350   13.1880 O   0  0  0  0  0
   23.5340   -1.8870   12.7800 C   0  0  0  0  0
   24.5020   -1.4140   11.6760 C   0  0  0  0  0
   24.5490   -0.1820   11.4240 O   0  0  0  0  0
   25.1600   -2.3010   11.0940 O   0  0  0  0  0
   22.6620   -3.0660   12.3170 C   0  0  0  0  0
   21.9450   -2.8420   10.9850 C   0  0  0  0  0
   21.5120   -4.2310   10.4480 C   0  0  0  0  0
   20.3060   -4.4090   10.1780 O   0  0  0  0  0
   22.4090   -5.0950   10.2560 O   0  0  0  0  0
   20.7470   -2.0030   11.1830 N   0  3  0  0  0
   20.2037   -0.2450   14.1516 H   0  0  0  0  0
   19.8808    1.0404   15.3409 H   0  0  0  0  0
   19.3406    1.2312   13.6548 H   0  0  0  0  0
   21.2911    2.4633   14.1436 H   0  0  0  0  0
   21.6037    1.2186   12.9920 H   0  0  0  0  0
   22.3686    1.1660   15.8293 H   0  0  0  0  0
   23.6578    2.8543   14.7447 H   0  0  0  0  0
   23.1160    2.2489   12.5397 H   0  0  0  0  0
   25.0742    1.2652   16.0339 H   0  0  0  0  0
   25.9699    1.9058   14.6674 H   0  0  0  0  0
   24.4548   -1.1312   15.9571 H   0  0  0  0  0
   23.9250   -3.1592   14.5413 H   0  0  0  0  0
   25.3527   -2.5982   13.8098 H   0  0  0  0  0
   22.1925   -0.9896   15.3242 H   0  0  0  0  0
   23.9495    0.2863   12.0095 H   0  0  0  0  0
   21.8906   -3.2080   13.0739 H   0  0  0  0  0
   23.3264   -3.9194   12.1814 H   0  0  0  0  0
   22.6081   -2.3371   10.2826 H   0  0  0  0  0
   23.2568   -4.7420   10.5356 H   0  0  0  0  0
   20.2799   -1.8625   10.2872 H   0  0  0  0  0
   20.1107   -2.4684   11.8303 H   0  0  0  0  0
   21.0254   -1.1004   11.5679 H   0  0  0  0  0
  1  2  1  0  0  0
  2  3  1  0  0  0
  3  4  1  0  0  0
  3 10  1  0  0  0
  4  5  1  0  0  0
  4  6  1  0  0  0
  6  7  1  0  0  0
  7  8  1  0  0  0
  8  9  1  0  0  0
  8 10  1  0  0  0
  9 12  1  0  0  0
 10 11  1  0  0  0
 11 12  1  0  0  0
 12 13  1  0  0  0
 12 16  1  0  0  0
 13 14  1  0  0  0
 13 15  2  0  0  0
 16 17  1  0  0  0
 17 18  1  0  0  0
 17 21  1  0  0  0
 18 19  2  0  0  0
 18 20  1  0  0  0
  1 22  1  0  0  0
  1 23  1  0  0  0
  1 24  1  0  0  0
  2 25  1  0  0  0
  2 26  1  0  0  0
  3 27  1  0  0  0
  4 28  1  0  0  0
  5 29  1  0  0  0
  6 30  1  0  0  0
  6 31  1  0  0  0
  8 32  1  0  0  0
  9 33  1  0  0  0
  9 34  1  0  0  0
 10 35  1  0  0  0
 14 36  1  0  0  0
 16 37  1  0  0  0
 16 38  1  0  0  0
 17 39  1  0  0  0
 20 40  1  0  0  0
 21 41  1  0  0  0
 21 42  1  0  0  0
 21 43  1  0  0  0
M  END
$$$$
