4cgi_ligand
  -I-interpret- 

 60 63  0  0  0  0  0  0  0  0999 V2000
   75.0890   34.0240    0.8390 C   0  0  0  0  0
   75.9090   33.1590    1.5310 C   0  0  0  0  0
   75.5970   34.8460   -0.1370 C   0  0  0  0  0
   77.2500   33.0810    1.2610 C   0  0  0  0  0
   80.0520   32.9280    3.0280 C   0  0  0  0  0
   80.3430   31.8960    3.8820 C   0  0  0  0  0
   81.2260   31.8760    1.2020 C   0  0  0  0  0
   76.9340   34.7670   -0.4000 C   0  0  0  0  0
   77.7420   33.9040    0.2810 C   0  0  0  0  0
   80.4750   32.9300    1.7090 C   0  0  0  0  0
   81.0820   30.8660    3.3840 C   0  0  0  0  0
   81.5030   30.8600    2.0910 C   0  0  0  0  0
   81.7340   31.7680   -0.1940 C   0  0  0  0  0
   81.1470   36.2680   -1.7290 C   0  0  0  0  0
   77.6690   35.5600   -1.3970 C   0  0  0  0  0
   82.0220   28.9940    3.0340 C   0  0  0  0  0
   79.1280   34.0040   -0.1750 C   0  0  0  0  0
   79.0750   35.3500   -0.8770 C   0  0  0  0  0
   80.0760   34.1630    0.9620 C   0  0  0  0  0
   82.3490   35.7650   -2.4440 C   0  0  0  0  0
   82.3120   36.3390   -3.8300 C   0  0  0  0  0
   83.4040   35.6810   -4.6300 C   0  0  0  0  0
   83.1630   35.9460   -6.0930 C   0  0  0  0  0
   83.8730   34.8920   -6.9050 C   0  0  0  0  0
   80.0730   35.4290   -1.9080 N   0  0  0  0  0
   83.6640   35.2370   -8.3260 N   0  3  0  0  0
   81.7330   30.6260   -0.7390 O   0  0  0  0  0
   82.1410   32.8110   -0.7640 O   0  0  0  0  0
   81.1520   37.3020   -1.0740 O   0  0  0  0  0
   81.4580   29.7690    4.0970 O   0  0  0  0  0
   82.2180   29.7270    1.8180 O   0  0  0  0  0
   74.0241   34.0561    1.0692 H   0  0  0  0  0
   75.4825   32.5247    2.3081 H   0  0  0  0  0
   74.9548   35.5374   -0.6826 H   0  0  0  0  0
   77.8989   32.3930    1.8030 H   0  0  0  0  0
   79.4703   33.7723    3.3979 H   0  0  0  0  0
   79.9976   31.8995    4.9158 H   0  0  0  0  0
   77.3586   36.6019   -1.4752 H   0  0  0  0  0
   77.5117   35.2570   -2.4321 H   0  0  0  0  0
   81.3223   28.1872    2.8158 H   0  0  0  0  0
   83.0022   28.6531    3.3674 H   0  0  0  0  0
   79.4524   33.1368   -0.7502 H   0  0  0  0  0
   79.3071   36.1556   -0.1804 H   0  0  0  0  0
   80.9959   34.5502    0.5240 H   0  0  0  0  0
   79.5594   34.7906    1.6881 H   0  0  0  0  0
   82.3474   34.6756   -2.4791 H   0  0  0  0  0
   83.2590   36.0686   -1.9265 H   0  0  0  0  0
   82.4648   37.4177   -3.7969 H   0  0  0  0  0
   81.3416   36.1537   -4.2904 H   0  0  0  0  0
   83.4012   34.6069   -4.4444 H   0  0  0  0  0
   84.3721   36.0868   -4.3363 H   0  0  0  0  0
   83.5448   36.9325   -6.3561 H   0  0  0  0  0
   82.0937   35.9131   -6.3017 H   0  0  0  0  0
   83.4776   33.9005   -6.6843 H   0  0  0  0  0
   84.9357   34.8671   -6.6640 H   0  0  0  0  0
   79.9859   34.8720   -2.7581 H   0  0  0  0  0
   84.1300   34.5464   -8.9144 H   0  0  0  0  0
   82.6647   35.2407   -8.5303 H   0  0  0  0  0
   84.0535   36.1614   -8.5111 H   0  0  0  0  0
   81.3808   29.9791   -0.1233 H   0  0  0  0  0
  2  1  4  0  0  0
  3  1  4  0  0  0
  4  2  4  0  0  0
  8  3  4  0  0  0
  9  4  4  0  0  0
  5  6  4  0  0  0
 10  5  4  0  0  0
  6 11  4  0  0  0
 10  7  4  0  0  0
  7 12  4  0  0  0
  7 13  1  0  0  0
  9  8  4  0  0  0
 15  8  1  0  0  0
 17  9  1  0  0  0
 19 10  1  0  0  0
 12 11  4  0  0  0
 11 30  1  0  0  0
 12 31  1  0  0  0
 13 27  1  0  0  0
 13 28  2  0  0  0
 14 20  1  0  0  0
 25 14  1  0  0  0
 14 29  2  0  0  0
 18 15  1  0  0  0
 16 30  1  0  0  0
 31 16  1  0  0  0
 18 17  1  0  0  0
 17 19  1  0  0  0
 18 25  1  0  0  0
 20 21  1  0  0  0
 21 22  1  0  0  0
 22 23  1  0  0  0
 23 24  1  0  0  0
 24 26  1  0  0  0
  1 32  1  0  0  0
  2 33  1  0  0  0
  3 34  1  0  0  0
  4 35  1  0  0  0
  5 36  1  0  0  0
  6 37  1  0  0  0
 15 38  1  0  0  0
 15 39  1  0  0  0
 16 40  1  0  0  0
 16 41  1  0  0  0
 17 42  1  0  0  0
 18 43  1  0  0  0
 19 44  1  0  0  0
 19 45  1  0  0  0
 20 46  1  0  0  0
 20 47  1  0  0  0
 21 48  1  0  0  0
 21 49  1  0  0  0
 22 50  1  0  0  0
 22 51  1  0  0  0
 23 52  1  0  0  0
 23 53  1  0  0  0
 24 54  1  0  0  0
 24 55  1  0  0  0
 25 56  1  0  0  0
 26 57  1  0  0  0
 26 58  1  0  0  0
 26 59  1  0  0  0
 27 60  1  0  0  0
M  END
$$$$
