5v49_ligand
  -I-interpret- 

 46 49  0  0  0  0  0  0  0  0999 V2000
   44.6900  -17.8160   16.5330 Cl  0  0  0  0  0
   43.8820  -16.7540   15.4180 C   0  0  0  0  0
   42.5120  -16.8570   15.2640 C   0  0  0  0  0
   41.9080  -15.9930   14.3680 C   0  0  0  0  0
   44.6690  -15.8980   14.7790 N   0  0  0  0  0
   44.0430  -15.0810   13.9210 C   0  0  0  0  0
   42.6970  -15.0770   13.6750 C   0  0  0  0  0
   42.3850  -14.1020   12.7290 N   0  0  0  0  0
   44.5720  -14.1000   13.1220 N   0  0  0  0  0
   43.5420  -13.5510   12.4350 C   0  0  0  0  0
   43.7540  -12.5510   11.5620 N   0  0  0  0  0
   45.1010  -12.0680   11.2900 C   0  0  0  0  0
   42.6600  -11.8980   10.8420 C   0  0  0  0  0
   42.5820  -12.2770    9.3790 C   0  0  0  0  0
   41.4710  -11.5910    8.7110 N   0  3  0  0  0
   41.1790  -11.9290    7.3090 C   0  0  0  0  0
   40.4650  -13.2660    7.2090 C   0  0  0  0  0
   39.0610  -13.3030    7.1670 C   0  0  0  0  0
   38.3190  -12.1380    7.1930 N   0  0  0  0  0
   38.9420  -10.8190    7.2880 C   0  0  0  0  0
   40.3340  -10.8230    6.6860 C   0  0  0  0  0
   41.1710  -14.4680    7.1660 C   0  0  0  0  0
   40.4940  -15.6670    7.0860 C   0  0  0  0  0
   41.4030  -17.1530    7.0340 Cl  0  0  0  0  0
   39.1180  -15.7210    7.0470 C   0  0  0  0  0
   38.4150  -14.5350    7.0880 C   0  0  0  0  0
   36.6830  -14.5910    7.0400 Cl  0  0  0  0  0
   41.9314  -17.5890   15.8255 H   0  0  0  0  0
   40.8306  -16.0283   14.2065 H   0  0  0  0  0
   45.5467  -11.6989   12.2137 H   0  0  0  0  0
   45.7053  -12.8843   10.8944 H   0  0  0  0  0
   45.0554  -11.2606   10.5591 H   0  0  0  0  0
   42.8336  -10.8230   10.8911 H   0  0  0  0  0
   41.7277  -12.2136   11.3103 H   0  0  0  0  0
   42.4203  -13.3525    9.3067 H   0  0  0  0  0
   43.5132  -11.9843    8.8940 H   0  0  0  0  0
   41.7346  -10.6057    8.6986 H   0  0  0  0  0
   40.6372  -11.8649    9.2307 H   0  0  0  0  0
   42.1192  -12.0142    6.7642 H   0  0  0  0  0
   37.3021  -12.2003    7.1443 H   0  0  0  0  0
   39.0198  -10.5468    8.3406 H   0  0  0  0  0
   38.3283  -10.1048    6.7389 H   0  0  0  0  0
   40.2563  -10.9972    5.6128 H   0  0  0  0  0
   40.8081   -9.8611    6.8812 H   0  0  0  0  0
   42.2606  -14.4599    7.1957 H   0  0  0  0  0
   38.5979  -16.6769    6.9853 H   0  0  0  0  0
  1  2  1  0  0  0
  2  3  4  0  0  0
  2  5  4  0  0  0
  3  4  4  0  0  0
  4  7  4  0  0  0
  5  6  4  0  0  0
  6  7  4  0  0  0
  6  9  4  0  0  0
  7  8  4  0  0  0
  8 10  4  0  0  0
  9 10  4  0  0  0
 10 11  1  0  0  0
 11 12  1  0  0  0
 11 13  1  0  0  0
 13 14  1  0  0  0
 14 15  1  0  0  0
 15 16  1  0  0  0
 16 17  1  0  0  0
 16 21  1  0  0  0
 17 18  4  0  0  0
 17 22  4  0  0  0
 18 19  1  0  0  0
 18 26  4  0  0  0
 19 20  1  0  0  0
 20 21  1  0  0  0
 22 23  4  0  0  0
 23 24  1  0  0  0
 23 25  4  0  0  0
 25 26  4  0  0  0
 26 27  1  0  0  0
  3 28  1  0  0  0
  4 29  1  0  0  0
 12 30  1  0  0  0
 12 31  1  0  0  0
 12 32  1  0  0  0
 13 33  1  0  0  0
 13 34  1  0  0  0
 14 35  1  0  0  0
 14 36  1  0  0  0
 15 37  1  0  0  0
 15 38  1  0  0  0
 16 39  1  0  0  0
 19 40  1  0  0  0
 20 41  1  0  0  0
 20 42  1  0  0  0
 21 43  1  0  0  0
 21 44  1  0  0  0
 22 45  1  0  0  0
 25 46  1  0  0  0
M  END
$$$$
