4yw7_ligand
  -I-interpret- 

148156  0  0  0  0  0  0  0  0999 V2000
   -8.3410  -29.0070    1.4950 O   0  0  0  0  0
   -8.5970  -27.7780    0.8230 C   0  0  0  0  0
   -9.9610  -27.2580    1.2110 C   0  0  0  0  0
   -9.9800  -26.9470    2.6110 O   0  0  0  0  0
  -10.2570  -26.0140    0.4090 C   0  0  0  0  0
   -9.3240  -24.9820    0.7580 O   0  0  0  0  0
  -10.1480  -26.3640   -1.0720 C   0  0  0  0  0
  -10.4210  -25.1400   -1.9430 C   0  0  0  0  0
  -10.4230  -25.5500   -3.3090 O   0  0  0  0  0
   -8.8280  -26.8390   -1.3810 O   0  0  0  0  0
   -8.5770  -28.0460   -0.6600 C   0  0  0  0  0
   -7.2980  -28.5510   -1.0040 O   0  0  0  0  0
   -7.4330  -29.5000   -2.0700 C   0  0  0  0  0
   -6.0400  -29.9470   -2.4960 C   0  0  0  0  0
   -5.3200  -30.5630   -1.2920 C   0  0  0  0  0
   -3.8490  -30.7580   -1.6390 C   0  0  0  0  0
   -3.0140  -31.5760   -1.0300 C   0  0  0  0  0
   -3.1910  -30.1360   -2.6050 N   0  0  0  0  0
   -2.0300  -30.5490   -2.5870 N   0  0  0  0  0
   -1.8620  -31.3910   -1.6660 N   0  0  0  0  0
   -0.5990  -32.0910   -1.3790 C   0  0  0  0  0
   -0.6310  -33.4600   -2.0430 C   0  0  0  0  0
    0.5950  -34.1450   -1.7960 O   0  0  0  0  0
   -0.8090  -33.3100   -3.5540 C   0  0  0  0  0
    0.2420  -32.5020   -4.0890 O   0  0  0  0  0
   -0.3980  -32.2770    0.1150 C   0  0  0  0  0
   -0.3110  -31.0030    0.7630 O   0  0  0  0  0
    0.8830  -33.0420    0.3360 C   0  0  0  0  0
    1.0630  -33.2610    1.7450 O   0  0  0  0  0
    0.7620  -34.3740   -0.3920 C   0  0  0  0  0
    1.9960  -35.1990   -0.2050 C   0  0  0  0  0
    3.2190  -34.7240   -0.2010 C   0  0  0  0  0
    2.0480  -36.5140   -0.0270 N   0  0  0  0  0
    3.2510  -36.8190    0.0860 N   0  0  0  0  0
    3.9780  -35.7890   -0.0150 N   0  0  0  0  0
    5.4220  -35.6250    0.0570 C   0  0  0  0  0
    6.1380  -36.3640   -1.0590 C   0  0  0  0  0
    7.5590  -36.0940   -0.9530 O   0  0  0  0  0
    5.5950  -35.9220   -2.4180 C   0  0  0  0  0
    5.7860  -34.5120   -2.5850 O   0  0  0  0  0
    5.9070  -36.1470    1.3800 C   0  0  0  0  0
    5.2520  -35.4480    2.4490 O   0  0  0  0  0
    7.3740  -35.9020    1.4660 C   0  0  0  0  0
    7.8550  -36.4310    2.7090 O   0  0  0  0  0
    8.0550  -36.6000    0.3060 C   0  0  0  0  0
    9.5010  -36.4140    0.4430 N   0  0  0  0  0
   10.1410  -35.3050    0.8060 C   0  0  0  0  0
   10.3280  -37.3240    0.2250 N   0  0  0  0  0
   11.4540  -36.9430    0.4070 N   0  0  0  0  0
   11.4050  -35.6670    0.7710 C   0  0  0  0  0
   12.6270  -34.8420    1.1040 C   0  0  0  0  0
   13.4350  -35.7160    2.0520 C   0  0  0  0  0
   12.7130  -35.9150    3.2880 O   0  0  0  0  0
   14.7630  -35.0880    2.3390 C   0  0  0  0  0
   15.5060  -35.9670    3.1880 O   0  0  0  0  0
   13.3640  -34.5520   -0.0990 O   0  0  0  0  0
   14.6530  -33.9560    0.1550 C   0  0  0  0  0
   15.3030  -33.7080   -1.2090 C   0  0  0  0  0
   16.5140  -32.9670   -1.0520 O   0  0  0  0  0
   15.4630  -34.9380    1.0060 C   0  0  0  0  0
   16.8860  -34.5940    1.2150 N   0  0  0  0  0
   17.7320  -35.5250    0.7950 C   0  0  0  0  0
   17.5370  -33.6400    1.7250 N   0  0  0  0  0
   18.8090  -33.8870    1.6510 N   0  0  0  0  0
   18.9350  -35.0730    1.0680 C   0  0  0  0  0
   20.2230  -35.8290    0.7400 C   0  0  0  0  0
   20.6800  -36.6890    1.9320 C   0  0  0  0  0
   19.5850  -37.6000    2.4500 C   0  0  0  0  0
   19.1290  -38.3470    1.3140 O   0  0  0  0  0
   17.9380  -39.1130    1.6460 C   0  0  0  0  0
   18.2580  -40.2000    2.5350 O   0  0  0  0  0
   17.0720  -40.9380    2.9120 C   0  0  0  0  0
   17.4580  -42.0650    3.8710 C   0  0  0  0  0
   17.9640  -41.5140    5.0890 O   0  0  0  0  0
   16.4010  -41.5430    1.6860 C   0  0  0  0  0
   17.2740  -42.4920    1.0670 O   0  0  0  0  0
   16.0650  -40.4300    0.7100 C   0  0  0  0  0
   15.5070  -40.9900   -0.4890 O   0  0  0  0  0
   17.3210  -39.6550    0.3650 C   0  0  0  0  0
   16.9710  -38.5520   -0.4840 O   0  0  0  0  0
   -8.3491  -28.8595    2.4436 H   0  0  0  0  0
   -7.8434  -27.0385    1.0938 H   0  0  0  0  0
  -10.7164  -28.0167    1.0064 H   0  0  0  0  0
   -9.7913  -27.7409    3.1166 H   0  0  0  0  0
  -11.2613  -25.6486    0.6235 H   0  0  0  0  0
   -9.4093  -24.7776    1.6921 H   0  0  0  0  0
  -10.8873  -27.1384   -1.2767 H   0  0  0  0  0
   -9.6492  -24.3876   -1.7809 H   0  0  0  0  0
  -11.3861  -24.7053   -1.6829 H   0  0  0  0  0
  -10.5937  -24.7898   -3.8699 H   0  0  0  0  0
   -9.3510  -28.7694   -0.9166 H   0  0  0  0  0
   -7.9518  -29.0428   -2.9126 H   0  0  0  0  0
   -8.0134  -30.3589   -1.7332 H   0  0  0  0  0
   -5.4755  -29.0889   -2.8607 H   0  0  0  0  0
   -6.1203  -30.6867   -3.2926 H   0  0  0  0  0
   -5.7703  -31.5251   -1.0476 H   0  0  0  0  0
   -5.4096  -29.8997   -0.4317 H   0  0  0  0  0
   -3.2206  -32.2485   -0.1974 H   0  0  0  0  0
    0.2229  -31.4893   -1.7669 H   0  0  0  0  0
   -1.4661  -34.0252   -1.6291 H   0  0  0  0  0
   -1.7682  -32.8340   -3.7578 H   0  0  0  0  0
   -0.7781  -34.2951   -4.0195 H   0  0  0  0  0
    0.1239  -32.4122   -5.0375 H   0  0  0  0  0
   -1.2425  -32.8253    0.5326 H   0  0  0  0  0
   -0.1842  -31.1327    1.7057 H   0  0  0  0  0
    1.7408  -32.4870   -0.0438 H   0  0  0  0  0
    1.8775  -33.7478    1.8905 H   0  0  0  0  0
   -0.0982  -34.9017    0.0199 H   0  0  0  0  0
    3.5360  -33.6883   -0.3231 H   0  0  0  0  0
    5.6440  -34.5633   -0.0504 H   0  0  0  0  0
    5.9675  -37.4368   -0.9690 H   0  0  0  0  0
    4.5302  -36.1490   -2.4705 H   0  0  0  0  0
    6.1273  -36.4526   -3.2074 H   0  0  0  0  0
    5.4426  -34.2428   -3.4401 H   0  0  0  0  0
    5.6879  -37.2115    1.4631 H   0  0  0  0  0
    5.5662  -35.7861    3.2908 H   0  0  0  0  0
    7.5887  -34.8344    1.4191 H   0  0  0  0  0
    8.8005  -36.2788    2.7758 H   0  0  0  0  0
    7.8334  -37.6671    0.3202 H   0  0  0  0  0
    9.7205  -34.3342    1.0682 H   0  0  0  0  0
   12.3820  -33.8810    1.5564 H   0  0  0  0  0
   13.5967  -36.6820    1.5737 H   0  0  0  0  0
   13.2335  -36.4673    3.8759 H   0  0  0  0  0
   14.6649  -34.1219    2.8341 H   0  0  0  0  0
   16.3615  -35.5765    3.3808 H   0  0  0  0  0
   14.5895  -33.0117    0.6958 H   0  0  0  0  0
   14.6149  -33.1382   -1.8334 H   0  0  0  0  0
   15.5297  -34.6667   -1.6754 H   0  0  0  0  0
   16.9109  -32.8185   -1.9134 H   0  0  0  0  0
   15.4984  -35.8713    0.4440 H   0  0  0  0  0
   17.4803  -36.4730    0.3197 H   0  0  0  0  0
   21.0047  -35.1040    0.5131 H   0  0  0  0  0
   20.0358  -36.4839   -0.1110 H   0  0  0  0  0
   20.9655  -36.0158    2.7403 H   0  0  0  0  0
   21.5056  -37.3160    1.5952 H   0  0  0  0  0
   18.7736  -37.0285    2.9007 H   0  0  0  0  0
   19.9555  -38.2589    3.2353 H   0  0  0  0  0
   17.2274  -38.4597    2.1523 H   0  0  0  0  0
   16.3769  -40.2510    3.3947 H   0  0  0  0  0
   18.2275  -42.6833    3.4087 H   0  0  0  0  0
   16.5778  -42.6702    4.0881 H   0  0  0  0  0
   18.2041  -42.2266    5.6858 H   0  0  0  0  0
   15.4874  -42.0573    1.9841 H   0  0  0  0  0
   16.8421  -42.8671    0.2961 H   0  0  0  0  0
   15.3396  -39.7591    1.1701 H   0  0  0  0  0
   15.2961  -40.2829   -1.1031 H   0  0  0  0  0
   18.0307  -40.3076   -0.1435 H   0  0  0  0  0
   16.5807  -38.8854   -1.2952 H   0  0  0  0  0
  1  2  1  0  0  0
  2  3  1  0  0  0
  2 11  1  0  0  0
  3  4  1  0  0  0
  3  5  1  0  0  0
  5  6  1  0  0  0
  5  7  1  0  0  0
  7  8  1  0  0  0
  7 10  1  0  0  0
  8  9  1  0  0  0
 10 11  1  0  0  0
 11 12  1  0  0  0
 12 13  1  0  0  0
 13 14  1  0  0  0
 14 15  1  0  0  0
 15 16  1  0  0  0
 16 17  4  0  0  0
 16 18  4  0  0  0
 17 20  4  0  0  0
 18 19  4  0  0  0
 19 20  4  0  0  0
 20 21  1  0  0  0
 21 22  1  0  0  0
 21 26  1  0  0  0
 22 23  1  0  0  0
 22 24  1  0  0  0
 23 30  1  0  0  0
 24 25  1  0  0  0
 26 27  1  0  0  0
 26 28  1  0  0  0
 28 29  1  0  0  0
 28 30  1  0  0  0
 30 31  1  0  0  0
 31 32  4  0  0  0
 31 33  4  0  0  0
 32 35  4  0  0  0
 33 34  4  0  0  0
 34 35  4  0  0  0
 35 36  1  0  0  0
 36 37  1  0  0  0
 36 41  1  0  0  0
 37 38  1  0  0  0
 37 39  1  0  0  0
 38 45  1  0  0  0
 39 40  1  0  0  0
 41 42  1  0  0  0
 41 43  1  0  0  0
 43 44  1  0  0  0
 43 45  1  0  0  0
 45 46  1  0  0  0
 46 47  4  0  0  0
 46 48  4  0  0  0
 47 50  4  0  0  0
 48 49  4  0  0  0
 49 50  4  0  0  0
 50 51  1  0  0  0
 51 52  1  0  0  0
 51 56  1  0  0  0
 52 53  1  0  0  0
 52 54  1  0  0  0
 54 55  1  0  0  0
 54 60  1  0  0  0
 56 57  1  0  0  0
 57 58  1  0  0  0
 57 60  1  0  0  0
 58 59  1  0  0  0
 60 61  1  0  0  0
 61 62  4  0  0  0
 61 63  4  0  0  0
 62 65  4  0  0  0
 63 64  4  0  0  0
 64 65  4  0  0  0
 65 66  1  0  0  0
 66 67  1  0  0  0
 67 68  1  0  0  0
 68 69  1  0  0  0
 69 70  1  0  0  0
 70 71  1  0  0  0
 70 79  1  0  0  0
 71 72  1  0  0  0
 72 73  1  0  0  0
 72 75  1  0  0  0
 73 74  1  0  0  0
 75 76  1  0  0  0
 75 77  1  0  0  0
 77 78  1  0  0  0
 77 79  1  0  0  0
 79 80  1  0  0  0
  1 81  1  0  0  0
  2 82  1  0  0  0
  3 83  1  0  0  0
  4 84  1  0  0  0
  5 85  1  0  0  0
  6 86  1  0  0  0
  7 87  1  0  0  0
  8 88  1  0  0  0
  8 89  1  0  0  0
  9 90  1  0  0  0
 11 91  1  0  0  0
 13 92  1  0  0  0
 13 93  1  0  0  0
 14 94  1  0  0  0
 14 95  1  0  0  0
 15 96  1  0  0  0
 15 97  1  0  0  0
 17 98  1  0  0  0
 21 99  1  0  0  0
 22100  1  0  0  0
 24101  1  0  0  0
 24102  1  0  0  0
 25103  1  0  0  0
 26104  1  0  0  0
 27105  1  0  0  0
 28106  1  0  0  0
 29107  1  0  0  0
 30108  1  0  0  0
 32109  1  0  0  0
 36110  1  0  0  0
 37111  1  0  0  0
 39112  1  0  0  0
 39113  1  0  0  0
 40114  1  0  0  0
 41115  1  0  0  0
 42116  1  0  0  0
 43117  1  0  0  0
 44118  1  0  0  0
 45119  1  0  0  0
 47120  1  0  0  0
 51121  1  0  0  0
 52122  1  0  0  0
 53123  1  0  0  0
 54124  1  0  0  0
 55125  1  0  0  0
 57126  1  0  0  0
 58127  1  0  0  0
 58128  1  0  0  0
 59129  1  0  0  0
 60130  1  0  0  0
 62131  1  0  0  0
 66132  1  0  0  0
 66133  1  0  0  0
 67134  1  0  0  0
 67135  1  0  0  0
 68136  1  0  0  0
 68137  1  0  0  0
 70138  1  0  0  0
 72139  1  0  0  0
 73140  1  0  0  0
 73141  1  0  0  0
 74142  1  0  0  0
 75143  1  0  0  0
 76144  1  0  0  0
 77145  1  0  0  0
 78146  1  0  0  0
 79147  1  0  0  0
 80148  1  0  0  0
M  END
$$$$
