### 
### Created by X-TOOL on Mon Sep 10 21:13:23 2018
### 

@<TRIPOS>MOLECULE
4yw7_ligand
  148   156     1     0     0
SMALL
GAST_HUCK


@<TRIPOS>ATOM
      1 O63        -8.3410  -29.0070    1.4950 O.3       1 4J0        -0.3841
      2 C62        -8.5970  -27.7780    0.8230 C.3       1 4J0         0.1341
      3 C59        -9.9610  -27.2580    1.2110 C.3       1 4J0         0.1141
      4 O58        -9.9800  -26.9470    2.6110 O.3       1 4J0        -0.3864
      5 C55       -10.2570  -26.0140    0.4090 C.3       1 4J0         0.1119
      6 O57        -9.3240  -24.9820    0.7580 O.3       1 4J0        -0.3865
      7 C56       -10.1480  -26.3640   -1.0720 C.3       1 4J0         0.1130
      8 C60       -10.4210  -25.1400   -1.9430 C.3       1 4J0         0.0730
      9 O61       -10.4230  -25.5500   -3.3090 O.3       1 4J0        -0.3924
     10 O54        -8.8280  -26.8390   -1.3810 O.3       1 4J0        -0.3405
     11 C52        -8.5770  -28.0460   -0.6600 C.3       1 4J0         0.1879
     12 O53        -7.2980  -28.5510   -1.0040 O.3       1 4J0        -0.3486
     13 C51        -7.4330  -29.5000   -2.0700 C.3       1 4J0         0.0521
     14 C64        -6.0400  -29.9470   -2.4960 C.3       1 4J0        -0.0225
     15 C65        -5.3200  -30.5630   -1.2920 C.3       1 4J0        -0.0164
     16 C40        -3.8490  -30.7580   -1.6390 C.2       1 4J0         0.0371
     17 C39        -3.0140  -31.5760   -1.0300 C.2       1 4J0         0.0699
     18 N43        -3.1910  -30.1360   -2.6050 N.2       1 4J0        -0.2265
     19 N44        -2.0300  -30.5490   -2.5870 N.2       1 4J0        -0.1016
     20 N33        -1.8620  -31.3910   -1.6660 N.pl3     1 4J0        -0.1730
     21 C35        -0.5990  -32.0910   -1.3790 C.3       1 4J0         0.1427
     22 C24        -0.6310  -33.4600   -2.0430 C.3       1 4J0         0.1194
     23 O27         0.5950  -34.1450   -1.7960 O.3       1 4J0        -0.3563
     24 C26        -0.8090  -33.3100   -3.5540 C.3       1 4J0         0.0738
     25 O50         0.2420  -32.5020   -4.0890 O.3       1 4J0        -0.3923
     26 C25        -0.3980  -32.2770    0.1150 C.3       1 4J0         0.1202
     27 O21        -0.3110  -31.0030    0.7630 O.3       1 4J0        -0.3856
     28 C15         0.8830  -33.0420    0.3360 C.3       1 4J0         0.1170
     29 O49         1.0630  -33.2610    1.7450 O.3       1 4J0        -0.3850
     30 C28         0.7620  -34.3740   -0.3920 C.3       1 4J0         0.1222
     31 C30         1.9960  -35.1990   -0.2050 C.2       1 4J0         0.0681
     32 C17         3.2190  -34.7240   -0.2010 C.2       1 4J0         0.0725
     33 N32         2.0480  -36.5140   -0.0270 N.2       1 4J0        -0.2238
     34 N9          3.2510  -36.8190    0.0860 N.2       1 4J0        -0.1015
     35 N20         3.9780  -35.7890   -0.0150 N.pl3     1 4J0        -0.1729
     36 C4          5.4220  -35.6250    0.0570 C.3       1 4J0         0.1426
     37 C7          6.1380  -36.3640   -1.0590 C.3       1 4J0         0.1208
     38 O31         7.5590  -36.0940   -0.9530 O.3       1 4J0        -0.3338
     39 C47         5.5950  -35.9220   -2.4180 C.3       1 4J0         0.0737
     40 O48         5.7860  -34.5120   -2.5850 O.3       1 4J0        -0.3923
     41 C6          5.9070  -36.1470    1.3800 C.3       1 4J0         0.1219
     42 O45         5.2520  -35.4480    2.4490 O.3       1 4J0        -0.3856
     43 C12         7.3740  -35.9020    1.4660 C.3       1 4J0         0.1420
     44 O46         7.8550  -36.4310    2.7090 O.3       1 4J0        -0.3833
     45 C22         8.0550  -36.6000    0.3060 C.3       1 4J0         0.2152
     46 N13         9.5010  -36.4140    0.4430 N.pl3     1 4J0        -0.1506
     47 C29        10.1410  -35.3050    0.8060 C.2       1 4J0         0.0748
     48 N18        10.3280  -37.3240    0.2250 N.2       1 4J0        -0.0995
     49 N16        11.4540  -36.9430    0.4070 N.2       1 4J0        -0.2237
     50 C8         11.4050  -35.6670    0.7710 C.2       1 4J0         0.0682
     51 C2         12.6270  -34.8420    1.1040 C.3       1 4J0         0.1222
     52 C34        13.4350  -35.7160    2.0520 C.3       1 4J0         0.1170
     53 O5         12.7130  -35.9150    3.2880 O.3       1 4J0        -0.3850
     54 C36        14.7630  -35.0880    2.3390 C.3       1 4J0         0.1202
     55 O3         15.5060  -35.9670    3.1880 O.3       1 4J0        -0.3856
     56 O1         13.3640  -34.5520   -0.0990 O.3       1 4J0        -0.3563
     57 C19        14.6530  -33.9560    0.1550 C.3       1 4J0         0.1194
     58 C23        15.3030  -33.7080   -1.2090 C.3       1 4J0         0.0738
     59 O11        16.5140  -32.9670   -1.0520 O.3       1 4J0        -0.3923
     60 C14        15.4630  -34.9380    1.0060 C.3       1 4J0         0.1427
     61 N10        16.8860  -34.5940    1.2150 N.pl3     1 4J0        -0.1730
     62 C42        17.7320  -35.5250    0.7950 C.2       1 4J0         0.0699
     63 N37        17.5370  -33.6400    1.7250 N.2       1 4J0        -0.1016
     64 N38        18.8090  -33.8870    1.6510 N.2       1 4J0        -0.2265
     65 C41        18.9350  -35.0730    1.0680 C.2       1 4J0         0.0371
     66 C80        20.2230  -35.8290    0.7400 C.3       1 4J0        -0.0164
     67 C79        20.6800  -36.6890    1.9320 C.3       1 4J0        -0.0225
     68 C69        19.5850  -37.6000    2.4500 C.3       1 4J0         0.0521
     69 O67        19.1290  -38.3470    1.3140 O.3       1 4J0        -0.3486
     70 C75        17.9380  -39.1130    1.6460 C.3       1 4J0         0.1879
     71 O68        18.2580  -40.2000    2.5350 O.3       1 4J0        -0.3405
     72 C66        17.0720  -40.9380    2.9120 C.3       1 4J0         0.1130
     73 C78        17.4580  -42.0650    3.8710 C.3       1 4J0         0.0730
     74 O74        17.9640  -41.5140    5.0890 O.3       1 4J0        -0.3924
     75 C70        16.4010  -41.5430    1.6860 C.3       1 4J0         0.1119
     76 O73        17.2740  -42.4920    1.0670 O.3       1 4J0        -0.3865
     77 C71        16.0650  -40.4300    0.7100 C.3       1 4J0         0.1141
     78 O77        15.5070  -40.9900   -0.4890 O.3       1 4J0        -0.3864
     79 C72        17.3210  -39.6550    0.3650 C.3       1 4J0         0.1341
     80 O76        16.9710  -38.5520   -0.4840 O.3       1 4J0        -0.3841
     81 H1         -7.4823  -29.3292    1.2473 H         1 4J0         0.2101
     82 H2         -7.8270  -27.0375    1.0853 H         1 4J0         0.0671
     83 H3        -10.7213  -28.0235    0.9967 H         1 4J0         0.0648
     84 H4         -9.7876  -27.7315    3.1112 H         1 4J0         0.2100
     85 H5        -11.2774  -25.6667    0.6284 H         1 4J0         0.0647
     86 H6         -9.5133  -24.2010    0.2515 H         1 4J0         0.2100
     87 H7        -10.8828  -27.1485   -1.3059 H         1 4J0         0.0647
     88 H8         -9.6352  -24.3872   -1.7824 H         1 4J0         0.0584
     89 H9        -11.3995  -24.7099   -1.6830 H         1 4J0         0.0584
     90 H10        -9.5771  -25.9228   -3.5278 H         1 4J0         0.2095
     91 H11        -9.3489  -28.7882   -0.9118 H         1 4J0         0.0937
     92 H12        -7.9492  -29.0317   -2.9210 H         1 4J0         0.0562
     93 H13        -8.0118  -30.3686   -1.7229 H         1 4J0         0.0562
     94 H14        -5.4706  -29.0796   -2.8612 H         1 4J0         0.0304
     95 H15        -6.1226  -30.6954   -3.2979 H         1 4J0         0.0304
     96 H16        -5.7735  -31.5353   -1.0491 H         1 4J0         0.0381
     97 H17        -5.4084  -29.8906   -0.4260 H         1 4J0         0.0381
     98 H18        -3.2204  -32.2479   -0.1982 H         1 4J0         0.0899
     99 H19         0.2379  -31.5037   -1.7847 H         1 4J0         0.0738
    100 H20        -1.4680  -34.0430   -1.6313 H         1 4J0         0.0655
    101 H21        -1.7780  -32.8326   -3.7617 H         1 4J0         0.0584
    102 H22        -0.7812  -34.3036   -4.0251 H         1 4J0         0.0584
    103 H23         1.0790  -32.9144   -3.9107 H         1 4J0         0.2095
    104 H24        -1.2441  -32.8422    0.5329 H         1 4J0         0.0655
    105 H25         0.4241  -30.5176    0.4073 H         1 4J0         0.2100
    106 H26         1.7367  -32.4739   -0.0621 H         1 4J0         0.0663
    107 H27         1.1093  -32.4236    2.1911 H         1 4J0         0.2102
    108 H28        -0.1078  -34.9211    0.0007 H         1 4J0         0.0740
    109 H29         3.5357  -33.6892   -0.3230 H         1 4J0         0.0900
    110 H30         5.6595  -34.5538   -0.0207 H         1 4J0         0.0738
    111 H31         5.9681  -37.4448   -0.9453 H         1 4J0         0.0654
    112 H32         4.5212  -36.1536   -2.4744 H         1 4J0         0.0584
    113 H33         6.1284  -36.4592   -3.2160 H         1 4J0         0.0584
    114 H34         5.4462  -34.2456   -3.4312 H         1 4J0         0.2095
    115 H35         5.6986  -37.2243    1.4574 H         1 4J0         0.0655
    116 H36         4.3135  -35.5799    2.3839 H         1 4J0         0.2100
    117 H37         7.5775  -34.8220    1.4191 H         1 4J0         0.0679
    118 H38         7.4117  -35.9977    3.4290 H         1 4J0         0.2101
    119 H39         7.8323  -37.6761    0.3557 H         1 4J0         0.1031
    120 H40         9.7209  -34.3350    1.0679 H         1 4J0         0.0900
    121 H41        12.3416  -33.9004    1.5959 H         1 4J0         0.0740
    122 H42        13.6005  -36.6936    1.5757 H         1 4J0         0.0663
    123 H43        13.2280  -36.4615    3.8698 H         1 4J0         0.2102
    124 H44        14.6381  -34.1081    2.8230 H         1 4J0         0.0655
    125 H45        15.0284  -36.1017    3.9981 H         1 4J0         0.2100
    126 H46        14.5416  -33.0038    0.6943 H         1 4J0         0.0655
    127 H47        14.6085  -33.1385   -1.8441 H         1 4J0         0.0584
    128 H48        15.5274  -34.6738   -1.6854 H         1 4J0         0.0584
    129 H49        17.1159  -33.4582   -0.5052 H         1 4J0         0.2095
    130 H50        15.4425  -35.9098    0.4910 H         1 4J0         0.0738
    131 H51        17.4805  -36.4722    0.3201 H         1 4J0         0.0899
    132 H52        21.0133  -35.1036    0.4966 H         1 4J0         0.0381
    133 H53        20.0452  -36.4823   -0.1269 H         1 4J0         0.0381
    134 H54        20.9969  -36.0213    2.7467 H         1 4J0         0.0304
    135 H55        21.5314  -37.3082    1.6132 H         1 4J0         0.0304
    136 H56        18.7615  -37.0066    2.8740 H         1 4J0         0.0562
    137 H57        19.9827  -38.2778    3.2197 H         1 4J0         0.0562
    138 H58        17.2140  -38.4504    2.1428 H         1 4J0         0.0937
    139 H59        16.3673  -40.2567    3.4112 H         1 4J0         0.0647
    140 H60        18.2323  -42.6918    3.4047 H         1 4J0         0.0584
    141 H61        16.5714  -42.6786    4.0887 H         1 4J0         0.0584
    142 H62        17.2952  -40.9732    5.4926 H         1 4J0         0.2095
    143 H63        15.4747  -42.0516    1.9914 H         1 4J0         0.0647
    144 H64        16.8466  -42.8632    0.3041 H         1 4J0         0.2100
    145 H65        15.3325  -39.7510    1.1710 H         1 4J0         0.0648
    146 H66        15.2983  -40.2902   -1.0967 H         1 4J0         0.2100
    147 H67        18.0381  -40.3121   -0.1488 H         1 4J0         0.0671
    148 H68        17.7546  -38.0620   -0.7039 H         1 4J0         0.2101
@<TRIPOS>BOND
     1    1    2 1  
     2    2    3 1  
     3    2   11 1  
     4    3    4 1  
     5    3    5 1  
     6    5    6 1  
     7    5    7 1  
     8    7    8 1  
     9    7   10 1  
    10    8    9 1  
    11   10   11 1  
    12   11   12 1  
    13   12   13 1  
    14   13   14 1  
    15   14   15 1  
    16   15   16 1  
    17   16   17 2  
    18   16   18 1  
    19   17   20 1  
    20   18   19 2  
    21   19   20 1  
    22   20   21 1  
    23   21   22 1  
    24   21   26 1  
    25   22   23 1  
    26   22   24 1  
    27   23   30 1  
    28   24   25 1  
    29   26   27 1  
    30   26   28 1  
    31   28   29 1  
    32   28   30 1  
    33   30   31 1  
    34   31   32 2  
    35   31   33 1  
    36   32   35 1  
    37   33   34 2  
    38   34   35 1  
    39   35   36 1  
    40   36   37 1  
    41   36   41 1  
    42   37   38 1  
    43   37   39 1  
    44   38   45 1  
    45   39   40 1  
    46   41   42 1  
    47   41   43 1  
    48   43   44 1  
    49   43   45 1  
    50   45   46 1  
    51   46   47 1  
    52   46   48 1  
    53   47   50 2  
    54   48   49 2  
    55   49   50 1  
    56   50   51 1  
    57   51   52 1  
    58   51   56 1  
    59   52   53 1  
    60   52   54 1  
    61   54   55 1  
    62   54   60 1  
    63   56   57 1  
    64   57   58 1  
    65   57   60 1  
    66   58   59 1  
    67   60   61 1  
    68   61   62 1  
    69   61   63 1  
    70   62   65 2  
    71   63   64 2  
    72   64   65 1  
    73   65   66 1  
    74   66   67 1  
    75   67   68 1  
    76   68   69 1  
    77   69   70 1  
    78   70   71 1  
    79   70   79 1  
    80   71   72 1  
    81   72   73 1  
    82   72   75 1  
    83   73   74 1  
    84   75   76 1  
    85   75   77 1  
    86   77   78 1  
    87   77   79 1  
    88   79   80 1  
    89    1   81 1  
    90    2   82 1  
    91    3   83 1  
    92    4   84 1  
    93    5   85 1  
    94    6   86 1  
    95    7   87 1  
    96    8   88 1  
    97    8   89 1  
    98    9   90 1  
    99   11   91 1  
   100   13   92 1  
   101   13   93 1  
   102   14   94 1  
   103   14   95 1  
   104   15   96 1  
   105   15   97 1  
   106   17   98 1  
   107   21   99 1  
   108   22  100 1  
   109   24  101 1  
   110   24  102 1  
   111   25  103 1  
   112   26  104 1  
   113   27  105 1  
   114   28  106 1  
   115   29  107 1  
   116   30  108 1  
   117   32  109 1  
   118   36  110 1  
   119   37  111 1  
   120   39  112 1  
   121   39  113 1  
   122   40  114 1  
   123   41  115 1  
   124   42  116 1  
   125   43  117 1  
   126   44  118 1  
   127   45  119 1  
   128   47  120 1  
   129   51  121 1  
   130   52  122 1  
   131   53  123 1  
   132   54  124 1  
   133   55  125 1  
   134   57  126 1  
   135   58  127 1  
   136   58  128 1  
   137   59  129 1  
   138   60  130 1  
   139   62  131 1  
   140   66  132 1  
   141   66  133 1  
   142   67  134 1  
   143   67  135 1  
   144   68  136 1  
   145   68  137 1  
   146   70  138 1  
   147   72  139 1  
   148   73  140 1  
   149   73  141 1  
   150   74  142 1  
   151   75  143 1  
   152   76  144 1  
   153   77  145 1  
   154   78  146 1  
   155   79  147 1  
   156   80  148 1  
@<TRIPOS>SUBSTRUCTURE
     1 4J0         1

