5d4a_ligand
  -I-interpret- 

 35 37  0  0  0  0  0  0  0  0999 V2000
    5.8910    7.2150   15.2970 O   0  0  0  0  0
    5.8340    6.2000   15.9700 C   0  0  0  0  0
    5.7450    5.0440   15.3560 O   0  0  0  0  0
    5.8570    6.2450   17.4870 C   0  0  0  0  0
    5.1750    7.5390   18.0210 C   0  0  0  0  0
    5.1200    7.3300   19.4860 N   0  0  0  0  0
    6.0230    7.7800   20.4120 C   0  0  0  0  0
    7.2370    8.4770   20.3170 C   0  0  0  0  0
    7.8880    8.7490   21.5530 C   0  0  0  0  0
    7.3460    8.2810   22.7320 C   0  0  0  0  0
    6.1420    7.6020   22.8170 C   0  0  0  0  0
    5.4880    7.3600   21.6340 C   0  0  0  0  0
    4.2870    6.6260   21.4400 C   0  0  0  0  0
    4.0990    6.6960   20.0550 C   0  0  0  0  0
    3.0530    6.1450   19.3130 C   0  0  0  0  0
    2.1360    5.4070   19.9390 C   0  0  0  0  0
    1.0470    4.8530   19.2430 C   0  0  0  0  0
    2.8900    6.2720   17.9250 C   0  0  0  0  0
    1.7800    5.7110   17.2510 C   0  0  0  0  0
    0.7760    5.0420   17.9380 C   0  0  0  0  0
    5.7086    4.3392   16.0068 H   0  0  0  0  0
    6.8948    6.2352   17.8201 H   0  0  0  0  0
    5.3131    5.3813   17.8695 H   0  0  0  0  0
    4.1878    7.6974   17.5869 H   0  0  0  0  0
    5.7253    8.4402   17.7506 H   0  0  0  0  0
    7.6540    8.7896   19.3597 H   0  0  0  0  0
    8.8128    9.3258   21.5680 H   0  0  0  0  0
    7.8999    8.4566   23.6542 H   0  0  0  0  0
    5.7343    7.2763   23.7740 H   0  0  0  0  0
    3.6654    6.1306   22.1859 H   0  0  0  0  0
    2.2322    5.2298   21.0102 H   0  0  0  0  0
    0.3650    4.2171   19.8075 H   0  0  0  0  0
    3.6388    6.8176   17.3508 H   0  0  0  0  0
    1.7114    5.8062   16.1673 H   0  0  0  0  0
   -0.1452    4.7017   17.4651 H   0  0  0  0  0
  1  2  2  0  0  0
  2  3  1  0  0  0
  2  4  1  0  0  0
  4  5  1  0  0  0
  5  6  1  0  0  0
  6  7  4  0  0  0
  6 14  4  0  0  0
  7  8  4  0  0  0
  7 12  4  0  0  0
  8  9  4  0  0  0
  9 10  4  0  0  0
 10 11  4  0  0  0
 11 12  4  0  0  0
 12 13  4  0  0  0
 13 14  4  0  0  0
 14 15  1  0  0  0
 15 16  4  0  0  0
 15 18  4  0  0  0
 16 17  4  0  0  0
 17 20  4  0  0  0
 18 19  4  0  0  0
 19 20  4  0  0  0
  3 21  1  0  0  0
  4 22  1  0  0  0
  4 23  1  0  0  0
  5 24  1  0  0  0
  5 25  1  0  0  0
  8 26  1  0  0  0
  9 27  1  0  0  0
 10 28  1  0  0  0
 11 29  1  0  0  0
 13 30  1  0  0  0
 16 31  1  0  0  0
 17 32  1  0  0  0
 18 33  1  0  0  0
 19 34  1  0  0  0
 20 35  1  0  0  0
M  END
$$$$
