6o4x_ligand
  -I-interpret- 

 25 27  0  0  0  0  0  0  0  0999 V2000
  100.0470   47.3780   -6.8890 C   0  0  0  0  0
  100.2510   46.1860   -6.2140 C   0  0  0  0  0
  100.6870   45.0700   -6.9130 C   0  0  0  0  0
  100.9260   45.1500   -8.2790 C   0  0  0  0  0
  101.0460   47.5200  -12.3110 C   0  0  0  0  0
  100.8690   48.6840  -13.0430 C   0  0  0  0  0
  100.4320   49.8440  -12.4190 C   0  0  0  0  0
  100.1730   49.8400  -11.0570 C   0  0  0  0  0
  100.0890   48.6640   -8.9470 C   0  0  0  0  0
  100.9570   46.4090  -10.2480 N   0  0  0  0  0
  100.7870   47.5180  -10.9480 C   0  0  0  0  0
  100.3510   48.6770  -10.3240 C   0  0  0  0  0
  100.2860   47.4600   -8.2510 C   0  0  0  0  0
  100.7250   46.3470   -8.9480 C   0  0  0  0  0
   99.6420   49.8290   -8.2830 N   0  0  0  0  0
   99.6967   48.2558   -6.3460 H   0  0  0  0  0
  100.0702   46.1252   -5.1408 H   0  0  0  0  0
  100.8426   44.1272   -6.3886 H   0  0  0  0  0
  101.2715   44.2718   -8.8245 H   0  0  0  0  0
  101.3873   46.6100  -12.8044 H   0  0  0  0  0
  101.0740   48.6881  -14.1135 H   0  0  0  0  0
  100.2927   50.7565  -12.9986 H   0  0  0  0  0
   99.8301   50.7494  -10.5636 H   0  0  0  0  0
   99.5061   50.6939   -8.8063 H   0  0  0  0  0
   99.4553   49.8048   -7.2805 H   0  0  0  0  0
  1  2  4  0  0  0
 13  1  4  0  0  0
  2  3  4  0  0  0
  3  4  4  0  0  0
  4 14  4  0  0  0
  6  5  4  0  0  0
  5 11  4  0  0  0
  7  6  4  0  0  0
  8  7  4  0  0  0
 12  8  4  0  0  0
  9 12  4  0  0  0
  9 13  4  0  0  0
  9 15  1  0  0  0
 11 10  4  0  0  0
 10 14  4  0  0  0
 11 12  4  0  0  0
 13 14  4  0  0  0
  1 16  1  0  0  0
  2 17  1  0  0  0
  3 18  1  0  0  0
  4 19  1  0  0  0
  5 20  1  0  0  0
  6 21  1  0  0  0
  7 22  1  0  0  0
  8 23  1  0  0  0
 15 24  1  0  0  0
 15 25  1  0  0  0
M  END
$$$$
