### 
### Created by X-TOOL on Mon Sep 10 21:12:54 2018
### 

@<TRIPOS>MOLECULE
2fts_ligand
  211   213     1     0     0
SMALL
GAST_HUCK


@<TRIPOS>ATOM
      1 N          15.8030   33.5480  -29.0570 N.4       1 PHE         0.2394
      2 CA         14.6230   32.6200  -28.9180 C.3       1 PHE         0.0744
      3 C          14.2520   32.4160  -27.4500 C.2       1 PHE         0.2288
      4 O          15.1310   32.1840  -26.5990 O.2       1 PHE        -0.3905
      5 CB         14.9370   31.2480  -29.5500 C.3       1 PHE         0.0416
      6 CG         13.8550   30.2090  -29.3290 C.ar      1 PHE        -0.0353
      7 CD1        12.7690   30.1170  -30.1910 C.ar      1 PHE        -0.0600
      8 CD2        13.9220   29.3370  -28.2590 C.ar      1 PHE        -0.0600
      9 CE1        11.7740   29.1770  -29.9840 C.ar      1 PHE        -0.0686
     10 CE2        12.9280   28.4010  -28.0590 C.ar      1 PHE        -0.0686
     11 CZ         11.8500   28.3270  -28.9390 C.ar      1 PHE        -0.0687
     12 N          12.9600   32.4860  -27.1580 N.am      1 SER        -0.2587
     13 CA         12.4720   32.2170  -25.8160 C.3       1 SER         0.1540
     14 C          11.1800   31.3720  -25.8860 C.2       1 SER         0.2062
     15 O          10.3500   31.5830  -26.7780 O.2       1 SER        -0.3943
     16 CB         12.2080   33.5480  -25.0860 C.3       1 SER         0.0843
     17 OG         11.9130   33.3450  -23.7140 O.3       1 SER        -0.3903
     18 N          11.0390   30.3910  -24.9780 N.am      1 ILE        -0.2634
     19 CA          9.7460   29.6630  -24.8310 C.3       1 ILE         0.1335
     20 C           8.8740   30.3160  -23.7490 C.2       1 ILE         0.2042
     21 O           7.9050   29.7230  -23.2810 O.2       1 ILE        -0.3944
     22 CB          9.8790   28.1250  -24.5280 C.3       1 ILE        -0.0037
     23 CG1        10.7440   27.8850  -23.2950 C.3       1 ILE        -0.0491
     24 CG2        10.4010   27.3620  -25.7380 C.3       1 ILE        -0.0582
     25 CD1        10.6730   26.5260  -22.8770 C.3       1 ILE        -0.0648
     26 N           9.2480   31.5220  -23.3420 N.am      1 VAL        -0.2635
     27 CA          8.4520   32.3130  -22.4350 C.3       1 VAL         0.1332
     28 C           7.8400   33.4190  -23.2640 C.2       1 VAL         0.2039
     29 O           8.5170   34.0170  -24.1040 O.2       1 VAL        -0.3944
     30 CB          9.3080   32.9030  -21.2830 C.3       1 VAL        -0.0063
     31 CG1         8.4390   33.7730  -20.3410 C.3       1 VAL        -0.0584
     32 CG2         9.9890   31.7780  -20.5170 C.3       1 VAL        -0.0584
     33 N           6.5610   33.6810  -23.0330 N.am      1 GLY        -0.2664
     34 CA          5.8420   34.6920  -23.7730 C.3       1 GLY         0.1201
     35 C           6.3500   36.1120  -23.5770 C.2       1 GLY         0.2008
     36 O           6.8680   36.4670  -22.5050 O.2       1 GLY        -0.3947
     37 N           6.1970   36.9360  -24.6160 N.am      1 SER        -0.2618
     38 CA          6.6060   38.3390  -24.5440 C.3       1 SER         0.1539
     39 C           5.4040   39.2350  -24.2920 C.2       1 SER         0.2062
     40 O           4.2550   38.8500  -24.5250 O.2       1 SER        -0.3943
     41 CB          7.3440   38.7640  -25.8210 C.3       1 SER         0.0843
     42 OG          6.4810   38.8120  -26.9360 O.3       1 SER        -0.3903
     43 N           5.6800   40.4310  -23.7820 N.am      1 LEU        -0.2636
     44 CA          4.6300   41.4320  -23.5340 C.3       1 LEU         0.1314
     45 C           4.2310   42.0830  -24.8520 C.2       1 LEU         0.2064
     46 O           5.0430   42.1460  -25.7880 O.2       1 LEU        -0.3942
     47 CB          5.1280   42.5080  -22.5650 C.3       1 LEU        -0.0101
     48 CG          5.4970   42.0400  -21.1510 C.3       1 LEU        -0.0425
     49 CD1         6.5360   42.9550  -20.5450 C.3       1 LEU        -0.0625
     50 CD2         4.2630   41.9230  -20.2500 C.3       1 LEU        -0.0625
     51 N           2.9870   42.5640  -24.9420 N.am      1 PRO        -0.2498
     52 CA          2.5680   43.2980  -26.1370 C.3       1 PRO         0.1338
     53 C           3.4580   44.5510  -26.4130 C.2       1 PRO         0.2041
     54 O           3.5050   45.0400  -27.5590 O.2       1 PRO        -0.3944
     55 CB          1.1200   43.6970  -25.8160 C.3       1 PRO        -0.0104
     56 CG          0.6830   42.7580  -24.7540 C.3       1 PRO        -0.0281
     57 CD          1.8970   42.4390  -23.9590 C.3       1 PRO         0.0369
     58 N           4.1470   45.0440  -25.3600 N.am      1 ARG        -0.2637
     59 CA          5.1090   46.1540  -25.4840 C.3       1 ARG         0.1311
     60 C           6.3110   45.7520  -26.3320 C.2       1 ARG         0.2040
     61 O           6.7500   46.5190  -27.1780 O.2       1 ARG        -0.3944
     62 CB          5.6080   46.6510  -24.1120 C.3       1 ARG        -0.0092
     63 CG          6.6890   47.7800  -24.2370 C.3       1 ARG        -0.0156
     64 CD          6.8170   48.6680  -22.9540 C.3       1 ARG         0.0627
     65 NE          7.4300   49.9870  -23.2570 N.pl3     1 ARG        -0.2723
     66 CZ          7.4880   51.0240  -22.4050 C.cat     1 ARG         0.2882
     67 NH1         6.9690   50.9270  -21.1710 N.pl3     1 ARG        -0.2849
     68 NH2         8.0640   52.1710  -22.7910 N.pl3     1 ARG        -0.2849
     69 N           6.8480   44.5540  -26.0980 N.am      1 ASP        -0.2622
     70 CA          7.9800   44.0410  -26.8950 C.3       1 ASP         0.1423
     71 C           7.6210   43.9480  -28.4050 C.2       1 ASP         0.2057
     72 O           8.5090   43.8520  -29.2670 O.2       1 ASP        -0.3943
     73 CB          8.4220   42.6790  -26.3570 C.3       1 ASP         0.0406
     74 CG          8.8560   42.7430  -24.8870 C.2       1 ASP         0.0393
     75 OD1         9.4220   43.7870  -24.4810 O.co2     1 ASP        -0.5688
     76 OD2         8.6270   41.7560  -24.1400 O.co2     1 ASP        -0.5688
     77 N           6.3170   43.9900  -28.7080 N.am      1 PHE        -0.2618
     78 CA          5.8300   44.0080  -30.0860 C.3       1 PHE         0.1404
     79 C           5.9810   45.4070  -30.7490 C.2       1 PHE         0.2060
     80 O           5.7290   45.5390  -31.9430 O.2       1 PHE        -0.3942
     81 CB          4.3670   43.5380  -30.1400 C.3       1 PHE         0.0214
     82 CG          3.8850   43.2400  -31.5150 C.ar      1 PHE        -0.0386
     83 CD1         4.4590   42.2100  -32.2520 C.ar      1 PHE        -0.0601
     84 CD2         2.8590   43.9870  -32.0890 C.ar      1 PHE        -0.0601
     85 CE1         4.0240   41.9280  -33.5350 C.ar      1 PHE        -0.0686
     86 CE2         2.4150   43.7160  -33.3850 C.ar      1 PHE        -0.0686
     87 CZ          2.9890   42.6860  -34.1030 C.ar      1 PHE        -0.0687
     88 N           6.3990   46.4320  -29.9700 N.am      1 GLU        -0.2635
     89 CA          6.6840   47.8130  -30.5000 C.3       1 GLU         0.1325
     90 C           7.7690   47.8350  -31.5990 C.2       1 GLU         0.2041
     91 O           7.8420   48.7920  -32.3760 O.2       1 GLU        -0.3944
     92 CB          7.1040   48.7620  -29.3750 C.3       1 GLU        -0.0008
     93 CG          8.4800   48.4520  -28.7420 C.3       1 GLU         0.0044
     94 CD          8.7260   49.2670  -27.4640 C.2       1 GLU         0.0350
     95 OE1         8.4350   50.4900  -27.4600 O.co2     1 GLU        -0.5690
     96 OE2         9.2110   48.6830  -26.4650 O.co2     1 GLU        -0.5690
     97 N           8.6310   46.8060  -31.6170 N.am      1 LEU        -0.2623
     98 CA          9.6250   46.5970  -32.6980 C.3       1 LEU         0.1422
     99 C          10.1240   45.1380  -32.6990 C.2       1 LEU         0.2571
    100 O           9.8070   44.3510  -31.7890 O.2       1 LEU        -0.3680
    101 CB         10.8210   47.5750  -32.5920 C.3       1 LEU        -0.0087
    102 CG         10.7300   48.9540  -33.2940 C.3       1 LEU        -0.0424
    103 CD1        11.9550   49.8180  -32.9540 C.3       1 LEU        -0.0624
    104 CD2        10.5610   48.8150  -34.8420 C.3       1 LEU        -0.0624
    105 O1         10.9055   44.7142  -33.6882 O.3       1 LEU        -0.2910
    106 H1         16.0256   33.6645  -30.0332 H         1 PHE         0.2017
    107 H2         16.5972   33.1561  -28.5758 H         1 PHE         0.2017
    108 H3         15.5751   34.4439  -28.6551 H         1 PHE         0.2017
    109 H4         13.7648   33.0662  -29.4418 H         1 PHE         0.1122
    110 H5         15.8736   30.8713  -29.1130 H         1 PHE         0.0507
    111 H6         15.0677   31.3872  -30.6333 H         1 PHE         0.0507
    112 H7         12.7000   30.7907  -31.0374 H         1 PHE         0.0557
    113 H8         14.7599   29.3886  -27.5732 H         1 PHE         0.0557
    114 H9         10.9312   29.1237  -30.6636 H         1 PHE         0.0599
    115 H10        12.9858   27.7221  -27.2159 H         1 PHE         0.0599
    116 H11        11.0731   27.5871  -28.7840 H         1 PHE         0.0559
    117 H12        12.3082   32.7290  -27.8764 H         1 SER         0.1885
    118 H13        13.2366   31.6522  -25.2625 H         1 SER         0.0823
    119 H14        11.3550   34.0529  -25.5629 H         1 SER         0.0606
    120 H15        13.1025   34.1829  -25.1679 H         1 SER         0.0606
    121 H16        12.6477   32.9138  -23.2937 H         1 SER         0.2097
    122 H17        11.8120   30.1460  -24.3929 H         1 ILE         0.1883
    123 H18         9.2188   29.7574  -25.7918 H         1 ILE         0.0803
    124 H19         8.8721   27.7419  -24.3060 H         1 ILE         0.0345
    125 H20        10.3919   28.5313  -22.4775 H         1 ILE         0.0267
    126 H21        11.7885   28.1332  -23.5348 H         1 ILE         0.0267
    127 H22         9.7526   27.5603  -26.6042 H         1 ILE         0.0235
    128 H23        10.4014   26.2839  -25.5195 H         1 ILE         0.0235
    129 H24        11.4260   27.6906  -25.9645 H         1 ILE         0.0235
    130 H25        11.3049   26.3823  -21.9882 H         1 ILE         0.0230
    131 H26        11.0279   25.8737  -23.6885 H         1 ILE         0.0230
    132 H27         9.6314   26.2719  -22.6313 H         1 ILE         0.0230
    133 H28        10.1130   31.8965  -23.6759 H         1 VAL         0.1883
    134 H29         7.6573   31.6886  -22.0008 H         1 VAL         0.0802
    135 H30        10.0864   33.5446  -21.7216 H         1 VAL         0.0343
    136 H31         9.0667   34.1792  -19.5342 H         1 VAL         0.0234
    137 H32         7.6381   33.1562  -19.9072 H         1 VAL         0.0234
    138 H33         7.9951   34.6014  -20.9126 H         1 VAL         0.0234
    139 H34        10.5976   31.1785  -21.2100 H         1 VAL         0.0234
    140 H35         9.2259   31.1373  -20.0510 H         1 VAL         0.0234
    141 H36        10.6358   32.2050  -19.7364 H         1 VAL         0.0234
    142 H37         6.0798   33.1634  -22.3255 H         1 GLY         0.1881
    143 H38         4.7881   34.6600  -23.4597 H         1 GLY         0.0763
    144 H39         5.9140   34.4481  -24.8432 H         1 GLY         0.0763
    145 H40         5.7941   36.5868  -25.4620 H         1 SER         0.1884
    146 H41         7.2990   38.4496  -23.6969 H         1 SER         0.0823
    147 H42         8.1479   38.0413  -26.0244 H         1 SER         0.0606
    148 H43         7.7791   39.7622  -25.6649 H         1 SER         0.0606
    149 H44         6.1050   37.9517  -27.0813 H         1 SER         0.2097
    150 H45         6.6285   40.6572  -23.5604 H         1 LEU         0.1883
    151 H46         3.7537   40.9321  -23.0956 H         1 LEU         0.0800
    152 H47         4.3353   43.2646  -22.4700 H         1 LEU         0.0315
    153 H48         6.0231   42.9684  -23.0085 H         1 LEU         0.0315
    154 H49         5.9411   41.0373  -21.2361 H         1 LEU         0.0298
    155 H50         6.7878   42.6045  -19.5332 H         1 LEU         0.0232
    156 H51         6.1360   43.9782  -20.4897 H         1 LEU         0.0232
    157 H52         7.4405   42.9482  -21.1710 H         1 LEU         0.0232
    158 H53         3.5287   41.2518  -20.7193 H         1 LEU         0.0232
    159 H54         3.8144   42.9178  -20.1115 H         1 LEU         0.0232
    160 H55         4.5600   41.5154  -19.2725 H         1 LEU         0.0232
    161 H56         2.6005   42.6413  -27.0189 H         1 PRO         0.0802
    162 H57         0.4846   43.5930  -26.7079 H         1 PRO         0.0313
    163 H58         1.0772   44.7350  -25.4543 H         1 PRO         0.0313
    164 H59        -0.0776   43.2313  -24.1157 H         1 PRO         0.0287
    165 H60         0.2684   41.8425  -25.2012 H         1 PRO         0.0287
    166 H61         2.0267   43.1542  -23.1334 H         1 PRO         0.0524
    167 H62         1.8461   41.4173  -23.5545 H         1 PRO         0.0524
    168 H63         3.9978   44.6384  -24.4582 H         1 ARG         0.1883
    169 H64         4.5951   46.9878  -25.9846 H         1 ARG         0.0800
    170 H65         6.0468   45.8017  -23.5678 H         1 ARG         0.0313
    171 H66         4.7506   47.0451  -23.5468 H         1 ARG         0.0313
    172 H67         6.4188   48.4284  -25.0834 H         1 ARG         0.0301
    173 H68         7.6635   47.3087  -24.4326 H         1 ARG         0.0301
    174 H69         7.4451   48.1436  -22.2188 H         1 ARG         0.0689
    175 H70         5.8146   48.8297  -22.5310 H         1 ARG         0.0689
    176 H71         7.8421   50.1162  -24.1921 H         1 ARG         0.2642
    177 H72         7.0195   51.7289  -20.5266 H         1 ARG         0.2615
    178 H73         6.5202   50.0506  -20.8685 H         1 ARG         0.2615
    179 H74         8.4646   52.2535  -23.7363 H         1 ARG         0.2615
    180 H75         8.1060   52.9700  -22.1423 H         1 ARG         0.2615
    181 H76         6.4740   43.9881  -25.3632 H         1 ASP         0.1884
    182 H77         8.8198   44.7434  -26.7886 H         1 ASP         0.0819
    183 H78         9.2688   42.3191  -26.9598 H         1 ASP         0.0478
    184 H79         7.5822   41.9743  -26.4468 H         1 ASP         0.0478
    185 H80         5.6508   44.0098  -27.9625 H         1 PHE         0.1885
    186 H81         6.4380   43.2974  -30.6651 H         1 PHE         0.0823
    187 H82         3.7323   44.3286  -29.7133 H         1 PHE         0.0474
    188 H83         4.2729   42.6251  -29.5336 H         1 PHE         0.0474
    189 H84         5.2574   41.6205  -31.8160 H         1 PHE         0.0557
    190 H85         2.3994   44.7888  -31.5226 H         1 PHE         0.0557
    191 H86         4.4816   41.1237  -34.0996 H         1 PHE         0.0599
    192 H87         1.6234   44.3116  -33.8251 H         1 PHE         0.0599
    193 H88         2.6403   42.4631  -35.1049 H         1 PHE         0.0559
    194 H89         6.5251   46.2638  -28.9923 H         1 GLU         0.1883
    195 H90         5.7509   48.1936  -30.9410 H         1 GLU         0.0801
    196 H91         6.3435   48.7097  -28.5820 H         1 GLU         0.0330
    197 H92         7.1380   49.7827  -29.7837 H         1 GLU         0.0330
    198 H93         9.2678   48.6907  -29.4717 H         1 GLU         0.0433
    199 H94         8.5227   47.3813  -28.4933 H         1 GLU         0.0433
    200 H95         8.6015   46.1480  -30.8646 H         1 LEU         0.1885
    201 H96         9.1211   46.7863  -33.6573 H         1 LEU         0.0816
    202 H97        11.6977   47.0583  -33.0096 H         1 LEU         0.0316
    203 H98        10.9849   47.7687  -31.5217 H         1 LEU         0.0316
    204 H99         9.8372   49.4667  -32.9067 H         1 LEU         0.0298
    205 H100       11.8702   50.7902  -33.4615 H         1 LEU         0.0232
    206 H101       12.8690   49.3071  -33.2909 H         1 LEU         0.0232
    207 H102       12.0024   49.9751  -31.8663 H         1 LEU         0.0232
    208 H103        9.6798   48.1938  -35.0603 H         1 LEU         0.0232
    209 H104       11.4579   48.3415  -35.2677 H         1 LEU         0.0232
    210 H105       10.4263   49.8118  -35.2871 H         1 LEU         0.0232
    211 H106       10.4815   43.9932  -34.1386 H         1 LEU         0.2540
@<TRIPOS>BOND
     1    2    1 1  
     2    2    5 1  
     3    3    2 1  
     4    3    4 2  
     5    5    6 1  
     6    6    7 ar 
     7    6    8 ar 
     8    8   10 ar 
     9   10   11 ar 
    10    9   11 ar 
    11    7    9 ar 
    12   13   12 1  
    13   13   16 1  
    14   14   13 1  
    15   14   15 2  
    16   16   17 1  
    17   12    3 am 
    18   19   18 1  
    19   19   22 1  
    20   20   19 1  
    21   20   21 2  
    22   22   24 1  
    23   22   23 1  
    24   23   25 1  
    25   18   14 am 
    26   27   26 1  
    27   27   30 1  
    28   28   27 1  
    29   28   29 2  
    30   30   32 1  
    31   30   31 1  
    32   26   20 am 
    33   34   33 1  
    34   35   34 1  
    35   35   36 2  
    36   33   28 am 
    37   38   37 1  
    38   38   41 1  
    39   39   38 1  
    40   39   40 2  
    41   41   42 1  
    42   37   35 am 
    43   44   43 1  
    44   44   47 1  
    45   45   44 1  
    46   45   46 2  
    47   47   48 1  
    48   48   49 1  
    49   48   50 1  
    50   43   39 am 
    51   53   52 1  
    52   52   55 1  
    53   52   51 1  
    54   51   57 1  
    55   57   56 1  
    56   55   56 1  
    57   53   54 2  
    58   51   45 am 
    59   59   58 1  
    60   59   62 1  
    61   60   59 1  
    62   60   61 2  
    63   62   63 1  
    64   63   64 1  
    65   64   65 1  
    66   65   66 ar 
    67   66   68 ar 
    68   66   67 ar 
    69   58   53 am 
    70   70   69 1  
    71   70   73 1  
    72   71   70 1  
    73   71   72 2  
    74   73   74 1  
    75   74   75 ar 
    76   74   76 ar 
    77   69   60 am 
    78   78   77 1  
    79   78   81 1  
    80   79   78 1  
    81   79   80 2  
    82   81   82 1  
    83   82   83 ar 
    84   82   84 ar 
    85   84   86 ar 
    86   86   87 ar 
    87   85   87 ar 
    88   83   85 ar 
    89   77   71 am 
    90   89   88 1  
    91   89   92 1  
    92   90   89 1  
    93   90   91 2  
    94   92   93 1  
    95   93   94 1  
    96   94   96 ar 
    97   94   95 ar 
    98   88   79 am 
    99   97   98 1  
   100   98  101 1  
   101   98   99 1  
   102   99  100 2  
   103  101  102 1  
   104  102  103 1  
   105  102  104 1  
   106   90   97 am 
   107   99  105 1  
   108    1  106 1  
   109    1  107 1  
   110    1  108 1  
   111    2  109 1  
   112    5  110 1  
   113    5  111 1  
   114    7  112 1  
   115    8  113 1  
   116    9  114 1  
   117   10  115 1  
   118   11  116 1  
   119   12  117 1  
   120   13  118 1  
   121   16  119 1  
   122   16  120 1  
   123   17  121 1  
   124   18  122 1  
   125   19  123 1  
   126   22  124 1  
   127   23  125 1  
   128   23  126 1  
   129   24  127 1  
   130   24  128 1  
   131   24  129 1  
   132   25  130 1  
   133   25  131 1  
   134   25  132 1  
   135   26  133 1  
   136   27  134 1  
   137   30  135 1  
   138   31  136 1  
   139   31  137 1  
   140   31  138 1  
   141   32  139 1  
   142   32  140 1  
   143   32  141 1  
   144   33  142 1  
   145   34  143 1  
   146   34  144 1  
   147   37  145 1  
   148   38  146 1  
   149   41  147 1  
   150   41  148 1  
   151   42  149 1  
   152   43  150 1  
   153   44  151 1  
   154   47  152 1  
   155   47  153 1  
   156   48  154 1  
   157   49  155 1  
   158   49  156 1  
   159   49  157 1  
   160   50  158 1  
   161   50  159 1  
   162   50  160 1  
   163   52  161 1  
   164   55  162 1  
   165   55  163 1  
   166   56  164 1  
   167   56  165 1  
   168   57  166 1  
   169   57  167 1  
   170   58  168 1  
   171   59  169 1  
   172   62  170 1  
   173   62  171 1  
   174   63  172 1  
   175   63  173 1  
   176   64  174 1  
   177   64  175 1  
   178   65  176 1  
   179   67  177 1  
   180   67  178 1  
   181   68  179 1  
   182   68  180 1  
   183   69  181 1  
   184   70  182 1  
   185   73  183 1  
   186   73  184 1  
   187   77  185 1  
   188   78  186 1  
   189   81  187 1  
   190   81  188 1  
   191   83  189 1  
   192   84  190 1  
   193   85  191 1  
   194   86  192 1  
   195   87  193 1  
   196   88  194 1  
   197   89  195 1  
   198   92  196 1  
   199   92  197 1  
   200   93  198 1  
   201   93  199 1  
   202   97  200 1  
   203   98  201 1  
   204  101  202 1  
   205  101  203 1  
   206  102  204 1  
   207  103  205 1  
   208  103  206 1  
   209  103  207 1  
   210  104  208 1  
   211  104  209 1  
   212  104  210 1  
   213  105  211 1  
@<TRIPOS>SUBSTRUCTURE
     1 PHE         1

