2fts_ligand
  -I-interpret- 

212214  0  0  0  0  0  0  0  0999 V2000
   15.8030   33.5480  -29.0570 N   0  3  0  0  0
   14.6230   32.6200  -28.9180 C   0  0  0  0  0
   14.2520   32.4160  -27.4500 C   0  0  0  0  0
   15.1310   32.1840  -26.5990 O   0  0  0  0  0
   14.9370   31.2480  -29.5500 C   0  0  0  0  0
   13.8550   30.2090  -29.3290 C   0  0  0  0  0
   12.7690   30.1170  -30.1910 C   0  0  0  0  0
   13.9220   29.3370  -28.2590 C   0  0  0  0  0
   11.7740   29.1770  -29.9840 C   0  0  0  0  0
   12.9280   28.4010  -28.0590 C   0  0  0  0  0
   11.8500   28.3270  -28.9390 C   0  0  0  0  0
   12.9600   32.4860  -27.1580 N   0  0  0  0  0
   12.4720   32.2170  -25.8160 C   0  0  0  0  0
   11.1800   31.3720  -25.8860 C   0  0  0  0  0
   10.3500   31.5830  -26.7780 O   0  0  0  0  0
   12.2080   33.5480  -25.0860 C   0  0  0  0  0
   11.9130   33.3450  -23.7140 O   0  0  0  0  0
   11.0390   30.3910  -24.9780 N   0  0  0  0  0
    9.7460   29.6630  -24.8310 C   0  0  0  0  0
    8.8740   30.3160  -23.7490 C   0  0  0  0  0
    7.9050   29.7230  -23.2810 O   0  0  0  0  0
    9.8790   28.1250  -24.5280 C   0  0  0  0  0
   10.7440   27.8850  -23.2950 C   0  0  0  0  0
   10.4010   27.3620  -25.7380 C   0  0  0  0  0
   10.6730   26.5260  -22.8770 C   0  0  0  0  0
    9.2480   31.5220  -23.3420 N   0  0  0  0  0
    8.4520   32.3130  -22.4350 C   0  0  0  0  0
    7.8400   33.4190  -23.2640 C   0  0  0  0  0
    8.5170   34.0170  -24.1040 O   0  0  0  0  0
    9.3080   32.9030  -21.2830 C   0  0  0  0  0
    8.4390   33.7730  -20.3410 C   0  0  0  0  0
    9.9890   31.7780  -20.5170 C   0  0  0  0  0
    6.5610   33.6810  -23.0330 N   0  0  0  0  0
    5.8420   34.6920  -23.7730 C   0  0  0  0  0
    6.3500   36.1120  -23.5770 C   0  0  0  0  0
    6.8680   36.4670  -22.5050 O   0  0  0  0  0
    6.1970   36.9360  -24.6160 N   0  0  0  0  0
    6.6060   38.3390  -24.5440 C   0  0  0  0  0
    5.4040   39.2350  -24.2920 C   0  0  0  0  0
    4.2550   38.8500  -24.5250 O   0  0  0  0  0
    7.3440   38.7640  -25.8210 C   0  0  0  0  0
    6.4810   38.8120  -26.9360 O   0  0  0  0  0
    5.6800   40.4310  -23.7820 N   0  0  0  0  0
    4.6300   41.4320  -23.5340 C   0  0  0  0  0
    4.2310   42.0830  -24.8520 C   0  0  0  0  0
    5.0430   42.1460  -25.7880 O   0  0  0  0  0
    5.1280   42.5080  -22.5650 C   0  0  0  0  0
    5.4970   42.0400  -21.1510 C   0  0  0  0  0
    6.5360   42.9550  -20.5450 C   0  0  0  0  0
    4.2630   41.9230  -20.2500 C   0  0  0  0  0
    2.9870   42.5640  -24.9420 N   0  0  0  0  0
    2.5680   43.2980  -26.1370 C   0  0  0  0  0
    3.4580   44.5510  -26.4130 C   0  0  0  0  0
    3.5050   45.0400  -27.5590 O   0  0  0  0  0
    1.1200   43.6970  -25.8160 C   0  0  0  0  0
    0.6830   42.7580  -24.7540 C   0  0  0  0  0
    1.8970   42.4390  -23.9590 C   0  0  0  0  0
    4.1470   45.0440  -25.3600 N   0  0  0  0  0
    5.1090   46.1540  -25.4840 C   0  0  0  0  0
    6.3110   45.7520  -26.3320 C   0  0  0  0  0
    6.7500   46.5190  -27.1780 O   0  0  0  0  0
    5.6080   46.6510  -24.1120 C   0  0  0  0  0
    6.6890   47.7800  -24.2370 C   0  0  0  0  0
    6.8170   48.6680  -22.9540 C   0  0  0  0  0
    7.4300   49.9870  -23.2570 N   0  0  0  0  0
    7.4880   51.0240  -22.4050 C   0  0  0  0  0
    6.9690   50.9270  -21.1710 N   0  0  0  0  0
    8.0640   52.1710  -22.7910 N   0  0  0  0  0
    6.8480   44.5540  -26.0980 N   0  0  0  0  0
    7.9800   44.0410  -26.8950 C   0  0  0  0  0
    7.6210   43.9480  -28.4050 C   0  0  0  0  0
    8.5090   43.8520  -29.2670 O   0  0  0  0  0
    8.4220   42.6790  -26.3570 C   0  0  0  0  0
    8.8560   42.7430  -24.8870 C   0  0  0  0  0
    9.4220   43.7870  -24.4810 O   0  0  0  0  0
    8.6270   41.7560  -24.1400 O   0  0  0  0  0
    6.3170   43.9900  -28.7080 N   0  0  0  0  0
    5.8300   44.0080  -30.0860 C   0  0  0  0  0
    5.9810   45.4070  -30.7490 C   0  0  0  0  0
    5.7290   45.5390  -31.9430 O   0  0  0  0  0
    4.3670   43.5380  -30.1400 C   0  0  0  0  0
    3.8850   43.2400  -31.5150 C   0  0  0  0  0
    4.4590   42.2100  -32.2520 C   0  0  0  0  0
    2.8590   43.9870  -32.0890 C   0  0  0  0  0
    4.0240   41.9280  -33.5350 C   0  0  0  0  0
    2.4150   43.7160  -33.3850 C   0  0  0  0  0
    2.9890   42.6860  -34.1030 C   0  0  0  0  0
    6.3990   46.4320  -29.9700 N   0  0  0  0  0
    6.6840   47.8130  -30.5000 C   0  0  0  0  0
    7.7690   47.8350  -31.5990 C   0  0  0  0  0
    7.8420   48.7920  -32.3760 O   0  0  0  0  0
    7.1040   48.7620  -29.3750 C   0  0  0  0  0
    8.4800   48.4520  -28.7420 C   0  0  0  0  0
    8.7260   49.2670  -27.4640 C   0  0  0  0  0
    8.4350   50.4900  -27.4600 O   0  0  0  0  0
    9.2110   48.6830  -26.4650 O   0  0  0  0  0
    8.6310   46.8060  -31.6170 N   0  0  0  0  0
    9.6250   46.5970  -32.6980 C   0  0  0  0  0
   10.1240   45.1380  -32.6990 C   0  0  0  0  0
    9.8070   44.3510  -31.7890 O   0  0  0  0  0
   10.8210   47.5750  -32.5920 C   0  0  0  0  0
   10.7300   48.9540  -33.2940 C   0  0  0  0  0
   11.9550   49.8180  -32.9540 C   0  0  0  0  0
   10.5610   48.8150  -34.8420 C   0  0  0  0  0
   10.9055   44.7142  -33.6882 O   0  0  0  0  0
   16.0273   33.6652  -30.0451 H   0  0  0  0  0
   15.5712   34.4541  -28.6500 H   0  0  0  0  0
   16.6060   33.1504  -28.5696 H   0  0  0  0  0
   13.7824   33.0805  -29.4370 H   0  0  0  0  0
   15.8466   30.8745  -29.0797 H   0  0  0  0  0
   15.0271   31.3991  -30.6257 H   0  0  0  0  0
   12.6996   30.7945  -31.0421 H   0  0  0  0  0
   14.7645   29.3888  -27.5694 H   0  0  0  0  0
   10.9265   29.1234  -30.6674 H   0  0  0  0  0
   12.9861   27.7183  -27.2112 H   0  0  0  0  0
   11.0688   27.5830  -28.7832 H   0  0  0  0  0
   12.2952   32.7338  -27.8908 H   0  0  0  0  0
   13.2237   31.6549  -25.2618 H   0  0  0  0  0
   11.3502   34.0315  -25.5535 H   0  0  0  0  0
   13.1058   34.1621  -25.1567 H   0  0  0  0  0
   11.7548   34.1931  -23.2930 H   0  0  0  0  0
   11.8275   30.1411  -24.3812 H   0  0  0  0  0
    9.2752   29.7417  -25.8109 H   0  0  0  0  0
    8.8825   27.7396  -24.3122 H   0  0  0  0  0
   10.3816   28.5187  -22.4855 H   0  0  0  0  0
   11.7789   28.1203  -23.5433 H   0  0  0  0  0
    9.7122   27.4919  -26.5727 H   0  0  0  0  0
   11.3832   27.7468  -26.0125 H   0  0  0  0  0
   10.4800   26.3031  -25.4918 H   0  0  0  0  0
    9.6404   26.2755  -22.6339 H   0  0  0  0  0
   11.0249   25.8808  -23.6819 H   0  0  0  0  0
   11.2995   26.3849  -21.9963 H   0  0  0  0  0
   10.1303   31.9040  -23.6826 H   0  0  0  0  0
    7.6886   31.6969  -21.9599 H   0  0  0  0  0
   10.0766   33.5475  -21.7095 H   0  0  0  0  0
    7.9997   34.5934  -20.9086 H   0  0  0  0  0
    7.6458   33.1607  -19.9119 H   0  0  0  0  0
    9.0621   34.1749  -19.5420 H   0  0  0  0  0
    9.2319   31.1138  -20.1001 H   0  0  0  0  0
   10.6332   31.2171  -21.1942 H   0  0  0  0  0
   10.5879   32.2002  -19.7101 H   0  0  0  0  0
    6.0702   33.1530  -22.3114 H   0  0  0  0  0
    4.8127   34.6729  -23.4148 H   0  0  0  0  0
    5.9646   34.4562  -24.8301 H   0  0  0  0  0
    5.7860   36.5798  -25.4789 H   0  0  0  0  0
    7.2957   38.4474  -23.7069 H   0  0  0  0  0
    8.1249   38.0312  -26.0244 H   0  0  0  0  0
    7.7540   39.7615  -25.6629 H   0  0  0  0  0
    6.9777   39.0807  -27.7123 H   0  0  0  0  0
    6.6475   40.6617  -23.5560 H   0  0  0  0  0
    3.7688   40.9331  -23.0894 H   0  0  0  0  0
    4.3030   43.2101  -22.4444 H   0  0  0  0  0
    6.0454   42.9043  -23.0003 H   0  0  0  0  0
    5.9260   41.0412  -21.2318 H   0  0  0  0  0
    7.4316   42.9474  -21.1662 H   0  0  0  0  0
    6.1385   43.9685  -20.4908 H   0  0  0  0  0
    6.7846   42.6067  -19.5425 H   0  0  0  0  0
    3.7772   42.8957  -20.1733 H   0  0  0  0  0
    3.5682   41.2013  -20.6795 H   0  0  0  0  0
    4.5690   41.5890  -19.2586 H   0  0  0  0  0
    2.6604   42.6993  -27.0432 H   0  0  0  0  0
    0.4810   43.6329  -26.6967 H   0  0  0  0  0
    1.0525   44.7342  -25.4878 H   0  0  0  0  0
   -0.0907   43.2037  -24.1288 H   0  0  0  0  0
    0.2450   41.8563  -25.1820 H   0  0  0  0  0
    2.0250   43.1020  -23.1034 H   0  0  0  0  0
    1.8531   41.4495  -23.5041 H   0  0  0  0  0
    3.9948   44.6303  -24.4402 H   0  0  0  0  0
    4.5716   46.9666  -25.9728 H   0  0  0  0  0
    6.0630   45.8065  -23.5943 H   0  0  0  0  0
    4.7543   47.0619  -23.5731 H   0  0  0  0  0
    6.3884   48.4316  -25.0574 H   0  0  0  0  0
    7.6520   47.2949  -24.3967 H   0  0  0  0  0
    7.4556   48.1487  -22.2394 H   0  0  0  0  0
    5.8178   48.8379  -22.5530 H   0  0  0  0  0
    7.8381   50.1150  -24.1830 H   0  0  0  0  0
    7.0146   51.7228  -20.5345 H   0  0  0  0  0
    6.5290   50.0575  -20.8697 H   0  0  0  0  0
    8.4564   52.2543  -23.7288 H   0  0  0  0  0
    6.4666   43.9768  -25.3485 H   0  0  0  0  0
    8.8073   44.7446  -26.8021 H   0  0  0  0  0
    9.2759   42.3449  -26.9463 H   0  0  0  0  0
    7.5747   41.9971  -26.4288 H   0  0  0  0  0
    8.1893   41.0677  -24.6462 H   0  0  0  0  0
    5.6374   44.0102  -27.9476 H   0  0  0  0  0
    6.4493   43.3172  -30.6581 H   0  0  0  0  0
    3.7504   44.3461  -29.7465 H   0  0  0  0  0
    4.2998   42.6151  -29.5640 H   0  0  0  0  0
    5.2618   41.6172  -31.8135 H   0  0  0  0  0
    2.3968   44.7933  -31.5194 H   0  0  0  0  0
    4.4841   41.1193  -34.1027 H   0  0  0  0  0
    1.6190   44.3149  -33.8276 H   0  0  0  0  0
    2.6384   42.4618  -35.1104 H   0  0  0  0  0
    6.5276   46.2605  -28.9728 H   0  0  0  0  0
    5.7478   48.1487  -30.9460 H   0  0  0  0  0
    6.3621   48.6604  -28.5829 H   0  0  0  0  0
    7.1749   49.7580  -29.8122 H   0  0  0  0  0
    9.2529   48.7127  -29.4650 H   0  0  0  0  0
    8.5026   47.3942  -28.4798 H   0  0  0  0  0
    8.0798   50.7361  -28.3173 H   0  0  0  0  0
    8.6010   46.1348  -30.8495 H   0  0  0  0  0
    9.1204   46.8029  -33.6420 H   0  0  0  0  0
   11.6467   47.0628  -33.0860 H   0  0  0  0  0
   10.9011   47.8059  -31.5297 H   0  0  0  0  0
    9.8368   49.4516  -32.9163 H   0  0  0  0  0
   12.0009   49.9729  -31.8760 H   0  0  0  0  0
   12.8599   49.3106  -33.2883 H   0  0  0  0  0
   11.8698   50.7810  -33.4574 H   0  0  0  0  0
   11.4169   48.2796  -35.2530 H   0  0  0  0  0
    9.6469   48.2620  -35.0582 H   0  0  0  0  0
   10.5018   49.8068  -35.2902 H   0  0  0  0  0
   11.0571   45.4337  -34.3054 H   0  0  0  0  0
  2  1  1  0  0  0
  2  5  1  0  0  0
  3  2  1  0  0  0
  3  4  2  0  0  0
  5  6  1  0  0  0
  6  7  4  0  0  0
  6  8  4  0  0  0
  8 10  4  0  0  0
 10 11  4  0  0  0
  9 11  4  0  0  0
  7  9  4  0  0  0
 13 12  1  0  0  0
 13 16  1  0  0  0
 14 13  1  0  0  0
 14 15  2  0  0  0
 16 17  1  0  0  0
 12  3  1  0  0  0
 19 18  1  0  0  0
 19 22  1  0  0  0
 20 19  1  0  0  0
 20 21  2  0  0  0
 22 24  1  0  0  0
 22 23  1  0  0  0
 23 25  1  0  0  0
 18 14  1  0  0  0
 27 26  1  0  0  0
 27 30  1  0  0  0
 28 27  1  0  0  0
 28 29  2  0  0  0
 30 32  1  0  0  0
 30 31  1  0  0  0
 26 20  1  0  0  0
 34 33  1  0  0  0
 35 34  1  0  0  0
 35 36  2  0  0  0
 33 28  1  0  0  0
 38 37  1  0  0  0
 38 41  1  0  0  0
 39 38  1  0  0  0
 39 40  2  0  0  0
 41 42  1  0  0  0
 37 35  1  0  0  0
 44 43  1  0  0  0
 44 47  1  0  0  0
 45 44  1  0  0  0
 45 46  2  0  0  0
 47 48  1  0  0  0
 48 49  1  0  0  0
 48 50  1  0  0  0
 43 39  1  0  0  0
 53 52  1  0  0  0
 52 55  1  0  0  0
 52 51  1  0  0  0
 51 57  1  0  0  0
 57 56  1  0  0  0
 55 56  1  0  0  0
 53 54  2  0  0  0
 51 45  1  0  0  0
 59 58  1  0  0  0
 59 62  1  0  0  0
 60 59  1  0  0  0
 60 61  2  0  0  0
 62 63  1  0  0  0
 63 64  1  0  0  0
 64 65  1  0  0  0
 65 66  1  0  0  0
 66 68  2  0  0  0
 66 67  1  0  0  0
 58 53  1  0  0  0
 70 69  1  0  0  0
 70 73  1  0  0  0
 71 70  1  0  0  0
 71 72  2  0  0  0
 73 74  1  0  0  0
 74 75  2  0  0  0
 74 76  1  0  0  0
 69 60  1  0  0  0
 78 77  1  0  0  0
 78 81  1  0  0  0
 79 78  1  0  0  0
 79 80  2  0  0  0
 81 82  1  0  0  0
 82 83  4  0  0  0
 82 84  4  0  0  0
 84 86  4  0  0  0
 86 87  4  0  0  0
 85 87  4  0  0  0
 83 85  4  0  0  0
 77 71  1  0  0  0
 89 88  1  0  0  0
 89 92  1  0  0  0
 90 89  1  0  0  0
 90 91  2  0  0  0
 92 93  1  0  0  0
 93 94  1  0  0  0
 94 96  2  0  0  0
 94 95  1  0  0  0
 88 79  1  0  0  0
 97 98  1  0  0  0
 98101  1  0  0  0
 98 99  1  0  0  0
 99100  2  0  0  0
101102  1  0  0  0
102103  1  0  0  0
102104  1  0  0  0
 90 97  1  0  0  0
 99105  1  0  0  0
  1106  1  0  0  0
  1107  1  0  0  0
  1108  1  0  0  0
  2109  1  0  0  0
  5110  1  0  0  0
  5111  1  0  0  0
  7112  1  0  0  0
  8113  1  0  0  0
  9114  1  0  0  0
 10115  1  0  0  0
 11116  1  0  0  0
 12117  1  0  0  0
 13118  1  0  0  0
 16119  1  0  0  0
 16120  1  0  0  0
 17121  1  0  0  0
 18122  1  0  0  0
 19123  1  0  0  0
 22124  1  0  0  0
 23125  1  0  0  0
 23126  1  0  0  0
 24127  1  0  0  0
 24128  1  0  0  0
 24129  1  0  0  0
 25130  1  0  0  0
 25131  1  0  0  0
 25132  1  0  0  0
 26133  1  0  0  0
 27134  1  0  0  0
 30135  1  0  0  0
 31136  1  0  0  0
 31137  1  0  0  0
 31138  1  0  0  0
 32139  1  0  0  0
 32140  1  0  0  0
 32141  1  0  0  0
 33142  1  0  0  0
 34143  1  0  0  0
 34144  1  0  0  0
 37145  1  0  0  0
 38146  1  0  0  0
 41147  1  0  0  0
 41148  1  0  0  0
 42149  1  0  0  0
 43150  1  0  0  0
 44151  1  0  0  0
 47152  1  0  0  0
 47153  1  0  0  0
 48154  1  0  0  0
 49155  1  0  0  0
 49156  1  0  0  0
 49157  1  0  0  0
 50158  1  0  0  0
 50159  1  0  0  0
 50160  1  0  0  0
 52161  1  0  0  0
 55162  1  0  0  0
 55163  1  0  0  0
 56164  1  0  0  0
 56165  1  0  0  0
 57166  1  0  0  0
 57167  1  0  0  0
 58168  1  0  0  0
 59169  1  0  0  0
 62170  1  0  0  0
 62171  1  0  0  0
 63172  1  0  0  0
 63173  1  0  0  0
 64174  1  0  0  0
 64175  1  0  0  0
 65176  1  0  0  0
 67177  1  0  0  0
 67178  1  0  0  0
 68179  1  0  0  0
 69180  1  0  0  0
 70181  1  0  0  0
 73182  1  0  0  0
 73183  1  0  0  0
 76184  1  0  0  0
 77185  1  0  0  0
 78186  1  0  0  0
 81187  1  0  0  0
 81188  1  0  0  0
 83189  1  0  0  0
 84190  1  0  0  0
 85191  1  0  0  0
 86192  1  0  0  0
 87193  1  0  0  0
 88194  1  0  0  0
 89195  1  0  0  0
 92196  1  0  0  0
 92197  1  0  0  0
 93198  1  0  0  0
 93199  1  0  0  0
 95200  1  0  0  0
 97201  1  0  0  0
 98202  1  0  0  0
101203  1  0  0  0
101204  1  0  0  0
102205  1  0  0  0
103206  1  0  0  0
103207  1  0  0  0
103208  1  0  0  0
104209  1  0  0  0
104210  1  0  0  0
104211  1  0  0  0
105212  1  0  0  0
M  END
$$$$
