1kz8_ligand
  -I-interpret- 

 52 55  0  0  0  0  0  0  0  0999 V2000
   39.6200   78.7550   19.8340 O   0  0  0  0  0
   39.8110   77.9700   20.9970 C   0  0  0  0  0
   41.2950   78.0450   21.2700 C   0  0  0  0  0
   42.0210   76.6080   21.8090 S   0  0  0  0  0
   43.5290   77.4080   22.0080 C   0  0  0  0  0
   42.1170   79.0800   21.1610 N   0  0  0  0  0
   43.3930   78.7200   21.5920 C   0  0  0  0  0
   44.5130   79.6470   21.6190 C   0  0  0  0  0
   44.4220   80.9190   21.0140 C   0  0  0  0  0
   45.6920   79.2610   22.2580 C   0  0  0  0  0
   46.8080   80.1100   22.3350 C   0  0  0  0  0
   46.7020   81.3760   21.7670 C   0  0  0  0  0
   45.5300   81.7920   21.1130 C   0  0  0  0  0
   45.3810   83.0700   20.5520 N   0  0  0  0  0
   46.2970   83.9540   19.9510 C   0  0  0  0  0
   47.5080   83.4660   19.6150 N   0  0  0  0  0
   48.3460   84.3380   19.0220 C   0  0  0  0  0
   45.9080   85.3040   19.7570 C   0  0  0  0  0
   44.6620   85.8660   20.1090 C   0  0  0  0  0
   44.3970   87.2210   19.8450 C   0  0  0  0  0
   43.2450   87.9080   20.1700 O   0  0  0  0  0
   42.3220   87.2900   21.1010 C   0  0  0  0  0
   41.1250   88.2110   21.1440 C   0  0  0  0  0
   46.8890   86.1030   19.1350 C   0  0  0  0  0
   48.0710   85.6190   18.7680 N   0  0  0  0  0
   46.6140   87.4360   18.8920 C   0  0  0  0  0
   45.3860   88.0000   19.2330 C   0  0  0  0  0
   45.0380   89.3090   19.0150 O   0  0  0  0  0
   46.0610   90.1500   18.4910 C   0  0  0  0  0
   45.5870   91.5700   18.7230 C   0  0  0  0  0
   38.6895   78.7538   19.5978 H   0  0  0  0  0
   39.4749   76.9430   20.8544 H   0  0  0  0  0
   39.2234   78.3387   21.8378 H   0  0  0  0  0
   44.4413   76.9563   22.3975 H   0  0  0  0  0
   43.5192   81.2211   20.4832 H   0  0  0  0  0
   45.7484   78.2711   22.7108 H   0  0  0  0  0
   47.7274   79.7878   22.8238 H   0  0  0  0  0
   47.5477   82.0607   21.8309 H   0  0  0  0  0
   44.4260   83.4265   20.5864 H   0  0  0  0  0
   49.3275   83.9677   18.7258 H   0  0  0  0  0
   43.9027   85.2472   20.5872 H   0  0  0  0  0
   42.7691   87.1660   22.0873 H   0  0  0  0  0
   42.0443   86.2848   20.7838 H   0  0  0  0  0
   41.4390   89.1972   21.4860 H   0  0  0  0  0
   40.6940   88.2914   20.1461 H   0  0  0  0  0
   40.3815   87.8066   21.8308 H   0  0  0  0  0
   47.3749   88.0599   18.4231 H   0  0  0  0  0
   46.2297   89.9563   17.4317 H   0  0  0  0  0
   47.0163   89.9656   18.9824 H   0  0  0  0  0
   44.6416   91.7256   18.2033 H   0  0  0  0  0
   45.4472   91.7351   19.7913 H   0  0  0  0  0
   46.3323   92.2675   18.3407 H   0  0  0  0  0
  1  2  1  0  0  0
  2  3  1  0  0  0
  3  4  4  0  0  0
  3  6  4  0  0  0
  4  5  4  0  0  0
  5  7  4  0  0  0
  6  7  4  0  0  0
  7  8  1  0  0  0
  8  9  4  0  0  0
  8 10  4  0  0  0
  9 13  4  0  0  0
 10 11  4  0  0  0
 11 12  4  0  0  0
 12 13  4  0  0  0
 13 14  1  0  0  0
 14 15  1  0  0  0
 15 16  4  0  0  0
 15 18  4  0  0  0
 16 17  4  0  0  0
 17 25  4  0  0  0
 18 19  4  0  0  0
 18 24  4  0  0  0
 19 20  4  0  0  0
 20 21  1  0  0  0
 20 27  4  0  0  0
 21 22  1  0  0  0
 22 23  1  0  0  0
 24 25  4  0  0  0
 24 26  4  0  0  0
 26 27  4  0  0  0
 27 28  1  0  0  0
 28 29  1  0  0  0
 29 30  1  0  0  0
  1 31  1  0  0  0
  2 32  1  0  0  0
  2 33  1  0  0  0
  5 34  1  0  0  0
  9 35  1  0  0  0
 10 36  1  0  0  0
 11 37  1  0  0  0
 12 38  1  0  0  0
 14 39  1  0  0  0
 17 40  1  0  0  0
 19 41  1  0  0  0
 22 42  1  0  0  0
 22 43  1  0  0  0
 23 44  1  0  0  0
 23 45  1  0  0  0
 23 46  1  0  0  0
 26 47  1  0  0  0
 29 48  1  0  0  0
 29 49  1  0  0  0
 30 50  1  0  0  0
 30 51  1  0  0  0
 30 52  1  0  0  0
M  END
$$$$
