4ezr_ligand
  -I-interpret- 

140142  0  0  0  0  0  0  0  0999 V2000
   63.8230   86.2340   18.8110 N   0  3  0  0  0
   63.3610   86.3030   20.2350 C   0  0  0  0  0
   62.1370   85.4190   20.5310 C   0  0  0  0  0
   61.6960   84.6210   19.6870 O   0  0  0  0  0
   63.1210   87.7560   20.6460 C   0  0  0  0  0
   62.8180   88.5280   19.4950 O   0  0  0  0  0
   61.5610   85.6130   21.7190 N   0  0  0  0  0
   60.5400   84.6560   22.1550 C   0  0  0  0  0
   59.4380   85.3350   22.9070 C   0  0  0  0  0
   59.3840   86.5600   22.9430 O   0  0  0  0  0
   61.1440   83.4720   22.9380 C   0  0  0  0  0
   61.0320   82.1030   22.2320 C   0  0  0  0  0
   59.9930   81.2560   22.4320 N   0  0  0  0  0
   61.9030   81.4400   21.3720 C   0  0  0  0  0
   60.1840   80.1320   21.7240 C   0  0  0  0  0
   61.3550   80.2420   21.0820 N   0  0  0  0  0
   58.4460   84.5420   23.3920 N   0  0  0  0  0
   57.3230   85.1860   24.0020 C   0  0  0  0  0
   57.7250   86.1750   25.1060 C   0  0  0  0  0
   58.8370   86.0900   25.6200 O   0  0  0  0  0
   56.5380   84.0160   24.6180 C   0  0  0  0  0
   56.9090   82.8110   23.8080 C   0  0  0  0  0
   58.1090   83.1580   22.9780 C   0  0  0  0  0
   56.8330   87.1500   25.3660 N   0  0  0  0  0
   57.0480   88.1140   26.4190 C   0  0  0  0  0
   56.5490   87.3580   27.6390 C   0  0  0  0  0
   55.8610   86.3220   27.4900 O   0  0  0  0  0
   56.2660   89.4100   26.1810 C   0  0  0  0  0
   56.3780   89.8580   24.7130 C   0  0  0  0  0
   57.8330   90.2780   24.5860 C   0  0  0  0  0
   58.1320   91.0420   23.3830 N   0  0  0  0  0
   58.7040   90.5360   22.3170 C   0  0  0  0  0
   58.9540   91.3360   21.2930 N   0  0  0  0  0
   59.0350   89.2340   22.2730 N   0  0  0  0  0
   56.9880   87.7960   28.8180 N   0  0  0  0  0
   56.5660   87.2330   30.0900 C   0  0  0  0  0
   55.1040   87.4720   30.4180 C   0  0  0  0  0
   54.5120   88.5020   30.0140 O   0  0  0  0  0
   57.3730   88.0220   31.1020 C   0  0  0  0  0
   58.6130   88.4910   30.3890 C   0  0  0  0  0
   58.1350   88.7150   28.9470 C   0  0  0  0  0
   54.5370   86.6110   31.2500 N   0  0  0  0  0
   53.1800   86.8210   31.6680 C   0  0  0  0  0
   53.1690   87.1850   33.1160 C   0  0  0  0  0
   53.9640   86.7230   33.9150 O   0  0  0  0  0
   52.2740   85.6180   31.4190 C   0  0  0  0  0
   52.5930   84.4690   32.3510 C   0  0  0  0  0
   52.4640   85.1190   30.0220 C   0  0  0  0  0
   51.7020   84.4310   33.5830 C   0  0  0  0  0
   52.2390   88.0270   33.4540 N   0  0  0  0  0
   52.0780   88.5150   34.7680 C   0  0  0  0  0
   51.2940   87.4780   35.4770 C   0  0  0  0  0
   50.2730   87.1080   35.0220 O   0  0  0  0  0
   51.2030   89.7270   34.6430 C   0  0  0  0  0
   51.7840   91.0000   35.1500 C   0  0  0  0  0
   51.0020   91.4450   36.3640 C   0  0  0  0  0
   51.7150   92.4750   37.0670 N   0  0  0  0  0
   51.4960   93.7600   36.9030 C   0  0  0  0  0
   50.5560   94.1560   36.0850 N   0  0  0  0  0
   52.2040   94.6450   37.5640 N   0  0  0  0  0
   51.7330   86.9840   36.5970 N   0  0  0  0  0
   50.9040   86.0160   37.2540 C   0  0  0  0  0
   49.9840   86.6290   38.3220 C   0  0  0  0  0
   50.3970   87.4850   39.0750 O   0  0  0  0  0
   51.7170   84.8800   37.8660 C   0  0  0  0  0
   53.1860   85.0230   37.5660 C   0  0  0  0  0
   51.4910   84.8410   39.3580 C   0  0  0  0  0
   49.0440   86.4320   38.5410 O   0  0  0  0  0
   63.9786   85.2597   18.5521 H   0  0  0  0  0
   63.1105   86.6388   18.2037 H   0  0  0  0  0
   64.6933   86.7566   18.7115 H   0  0  0  0  0
   64.1650   85.8915   20.8452 H   0  0  0  0  0
   64.0173   88.1517   21.1238 H   0  0  0  0  0
   62.2864   87.8030   21.3456 H   0  0  0  0  0
   62.6674   89.4402   19.7535 H   0  0  0  0  0
   61.8236   86.4043   22.3066 H   0  0  0  0  0
   60.0959   84.2283   21.2561 H   0  0  0  0  0
   60.5865   83.3929   23.8713 H   0  0  0  0  0
   62.2073   83.6807   23.0562 H   0  0  0  0  0
   62.8547   81.8198   21.0005 H   0  0  0  0  0
   59.5060   79.2797   21.6791 H   0  0  0  0  0
   56.7632   85.7781   23.2780 H   0  0  0  0  0
   55.4638   84.1989   24.5911 H   0  0  0  0  0
   56.7859   83.8802   25.6707 H   0  0  0  0  0
   56.0785   82.5211   23.1644 H   0  0  0  0  0
   57.1372   81.9723   24.4657 H   0  0  0  0  0
   58.9359   82.4664   23.1391 H   0  0  0  0  0
   57.9066   83.0848   21.9095 H   0  0  0  0  0
   55.9836   87.2089   24.8044 H   0  0  0  0  0
   58.0819   88.4484   26.5046 H   0  0  0  0  0
   56.6804   90.1912   26.8182 H   0  0  0  0  0
   55.2160   89.2334   26.4142 H   0  0  0  0  0
   55.6857   90.6628   24.4658 H   0  0  0  0  0
   56.1060   89.0693   24.0115 H   0  0  0  0  0
   58.4281   89.3658   24.5434 H   0  0  0  0  0
   58.0577   90.9196   25.4381 H   0  0  0  0  0
   57.8813   92.0306   23.3686 H   0  0  0  0  0
   58.7025   92.3232   21.3438 H   0  0  0  0  0
   59.4854   88.8501   21.4422 H   0  0  0  0  0
   58.8358   88.6299   23.0704 H   0  0  0  0  0
   56.7089   86.1524   30.0812 H   0  0  0  0  0
   57.6284   87.4050   31.9635 H   0  0  0  0  0
   56.8000   88.8667   31.4844 H   0  0  0  0  0
   59.4284   87.7703   30.4514 H   0  0  0  0  0
   59.0348   89.3923   30.8338 H   0  0  0  0  0
   57.8630   89.7526   28.7533 H   0  0  0  0  0
   58.9151   88.5153   28.2124 H   0  0  0  0  0
   55.0608   85.8049   31.5910 H   0  0  0  0  0
   52.7754   87.6321   31.0626 H   0  0  0  0  0
   51.2508   85.9528   31.5895 H   0  0  0  0  0
   53.6210   84.5952   32.6908 H   0  0  0  0  0
   52.4334   83.5425   31.7995 H   0  0  0  0  0
   52.2126   85.9115   29.3171 H   0  0  0  0  0
   53.5035   84.8225   29.8817 H   0  0  0  0  0
   51.8139   84.2606   29.8526 H   0  0  0  0  0
   51.8237   85.3561   34.1465 H   0  0  0  0  0
   50.6618   84.3262   33.2745 H   0  0  0  0  0
   51.9841   83.5836   34.2079 H   0  0  0  0  0
   51.5935   88.3512   32.7339 H   0  0  0  0  0
   53.0179   88.7392   35.2723 H   0  0  0  0  0
   50.3171   89.5308   35.2469 H   0  0  0  0  0
   51.0276   89.8716   33.5770 H   0  0  0  0  0
   51.7289   91.7648   34.3753 H   0  0  0  0  0
   52.8287   90.8465   35.4203 H   0  0  0  0  0
   50.8616   90.5926   37.0287 H   0  0  0  0  0
   50.0373   91.8368   36.0416 H   0  0  0  0  0
   52.4339   92.1920   37.7330 H   0  0  0  0  0
   49.9977   93.4687   35.5786 H   0  0  0  0  0
   52.0208   95.6407   37.4394 H   0  0  0  0  0
   52.9376   94.3374   38.2024 H   0  0  0  0  0
   52.6284   87.2727   36.9911 H   0  0  0  0  0
   50.2704   85.6094   36.4658 H   0  0  0  0  0
   51.3132   87.6798   38.8646 H   0  0  0  0  0
   51.3806   83.9441   37.4199 H   0  0  0  0  0
   53.3379   85.0121   36.4867 H   0  0  0  0  0
   53.5491   85.9655   37.9758 H   0  0  0  0  0
   53.7304   84.1945   38.0192 H   0  0  0  0  0
   51.8046   85.7883   39.7966 H   0  0  0  0  0
   50.4322   84.6786   39.5597 H   0  0  0  0  0
   52.0736   84.0280   39.7913 H   0  0  0  0  0
  1  2  1  0  0  0
  2  3  1  0  0  0
  2  5  1  0  0  0
  3  4  2  0  0  0
  3  7  1  0  0  0
  5  6  1  0  0  0
  7  8  1  0  0  0
  8  9  1  0  0  0
  8 11  1  0  0  0
  9 10  2  0  0  0
  9 17  1  0  0  0
 11 12  1  0  0  0
 12 13  4  0  0  0
 12 14  4  0  0  0
 13 15  4  0  0  0
 14 16  4  0  0  0
 15 16  4  0  0  0
 17 18  1  0  0  0
 17 23  1  0  0  0
 18 19  1  0  0  0
 18 21  1  0  0  0
 19 20  2  0  0  0
 19 24  1  0  0  0
 21 22  1  0  0  0
 22 23  1  0  0  0
 24 25  1  0  0  0
 25 26  1  0  0  0
 25 28  1  0  0  0
 26 27  2  0  0  0
 26 35  1  0  0  0
 28 29  1  0  0  0
 29 30  1  0  0  0
 30 31  1  0  0  0
 31 32  1  0  0  0
 32 33  2  0  0  0
 32 34  1  0  0  0
 35 36  1  0  0  0
 35 41  1  0  0  0
 36 37  1  0  0  0
 36 39  1  0  0  0
 37 38  2  0  0  0
 37 42  1  0  0  0
 39 40  1  0  0  0
 40 41  1  0  0  0
 42 43  1  0  0  0
 43 44  1  0  0  0
 43 46  1  0  0  0
 44 45  2  0  0  0
 44 50  1  0  0  0
 46 47  1  0  0  0
 46 48  1  0  0  0
 47 49  1  0  0  0
 50 51  1  0  0  0
 51 52  1  0  0  0
 51 54  1  0  0  0
 52 53  2  0  0  0
 52 61  1  0  0  0
 54 55  1  0  0  0
 55 56  1  0  0  0
 56 57  1  0  0  0
 57 58  1  0  0  0
 58 59  2  0  0  0
 58 60  1  0  0  0
 61 62  1  0  0  0
 62 63  1  0  0  0
 62 65  1  0  0  0
 63 64  1  0  0  0
 63 68  2  0  0  0
 65 66  1  0  0  0
 65 67  1  0  0  0
  1 69  1  0  0  0
  1 70  1  0  0  0
  1 71  1  0  0  0
  2 72  1  0  0  0
  5 73  1  0  0  0
  5 74  1  0  0  0
  6 75  1  0  0  0
  7 76  1  0  0  0
  8 77  1  0  0  0
 11 78  1  0  0  0
 11 79  1  0  0  0
 14 80  1  0  0  0
 15 81  1  0  0  0
 18 82  1  0  0  0
 21 83  1  0  0  0
 21 84  1  0  0  0
 22 85  1  0  0  0
 22 86  1  0  0  0
 23 87  1  0  0  0
 23 88  1  0  0  0
 24 89  1  0  0  0
 25 90  1  0  0  0
 28 91  1  0  0  0
 28 92  1  0  0  0
 29 93  1  0  0  0
 29 94  1  0  0  0
 30 95  1  0  0  0
 30 96  1  0  0  0
 31 97  1  0  0  0
 33 98  1  0  0  0
 34 99  1  0  0  0
 34100  1  0  0  0
 36101  1  0  0  0
 39102  1  0  0  0
 39103  1  0  0  0
 40104  1  0  0  0
 40105  1  0  0  0
 41106  1  0  0  0
 41107  1  0  0  0
 42108  1  0  0  0
 43109  1  0  0  0
 46110  1  0  0  0
 47111  1  0  0  0
 47112  1  0  0  0
 48113  1  0  0  0
 48114  1  0  0  0
 48115  1  0  0  0
 49116  1  0  0  0
 49117  1  0  0  0
 49118  1  0  0  0
 50119  1  0  0  0
 51120  1  0  0  0
 54121  1  0  0  0
 54122  1  0  0  0
 55123  1  0  0  0
 55124  1  0  0  0
 56125  1  0  0  0
 56126  1  0  0  0
 57127  1  0  0  0
 59128  1  0  0  0
 60129  1  0  0  0
 60130  1  0  0  0
 61131  1  0  0  0
 62132  1  0  0  0
 64133  1  0  0  0
 65134  1  0  0  0
 66135  1  0  0  0
 66136  1  0  0  0
 66137  1  0  0  0
 67138  1  0  0  0
 67139  1  0  0  0
 67140  1  0  0  0
M  END
$$$$
