### 
### Created by X-TOOL on Mon Sep 10 21:13:14 2018
### 

@<TRIPOS>MOLECULE
4ikn_ligand
   96    96     1     0     0
SMALL
GAST_HUCK


@<TRIPOS>ATOM
      1 N         -13.3650  -10.8820    2.8360 N.4       1 ASP         0.2391
      2 CA        -13.2990  -10.0790    1.5460 C.3       1 ASP         0.0765
      3 C         -13.3350   -8.5440    1.7860 C.2       1 ASP         0.2285
      4 O         -12.5500   -7.7670    1.2090 O.2       1 ASP        -0.3906
      5 CB        -14.4590  -10.4550    0.6210 C.3       1 ASP         0.0607
      6 CG        -14.1050  -10.2770   -0.8550 C.2       1 ASP         0.0425
      7 OD1       -14.7580   -9.4440   -1.5780 O.co2     1 ASP        -0.5686
      8 OD2       -13.1460  -10.9750   -1.2780 O.co2     1 ASP        -0.5686
      9 N         -14.2920   -8.1100    2.5990 N.am      1 TYR        -0.2593
     10 CA        -14.3850   -6.7010    2.9920 C.3       1 TYR         0.1391
     11 C         -13.4880   -6.4920    4.2100 C.2       1 TYR         0.2057
     12 O         -13.4060   -7.3790    5.0650 O.2       1 TYR        -0.3942
     13 CB        -15.8570   -6.3590    3.3020 C.3       1 TYR         0.0164
     14 CG        -16.6370   -6.1220    2.0490 C.ar      1 TYR        -0.0493
     15 CD1       -16.7350   -4.8340    1.5370 C.ar      1 TYR        -0.0685
     16 CD2       -17.2610   -7.1740    1.3530 C.ar      1 TYR        -0.0685
     17 CE1       -17.3950   -4.5830    0.3880 C.ar      1 TYR        -0.0398
     18 CE2       -17.9460   -6.9200    0.1190 C.ar      1 TYR        -0.0398
     19 CZ        -17.9900   -5.6370   -0.3300 C.ar      1 TYR         0.0805
     20 OH        -18.6720   -5.2920   -1.4640 O.3       1 TYR        -0.3376
     21 N         -12.8130   -5.3490    4.2980 N.am      1 GLN        -0.2634
     22 CA        -12.1110   -4.9700    5.5000 C.3       1 GLN         0.1330
     23 C         -13.1620   -4.4010    6.4710 C.2       1 GLN         0.2040
     24 O         -13.8480   -3.4310    6.1290 O.2       1 GLN        -0.3944
     25 CB        -11.0560   -3.9130    5.1980 C.3       1 GLN         0.0045
     26 CG        -10.5150   -3.1440    6.4150 C.3       1 GLN         0.0412
     27 CD         -9.7650   -4.0310    7.4400 C.2       1 GLN         0.1737
     28 OE1       -10.0270   -3.9360    8.6590 O.2       1 GLN        -0.3973
     29 NE2        -8.8610   -4.9150    6.9520 N.am      1 GLN        -0.3009
     30 N         -13.2530   -4.9920    7.6750 N.am      1 ARG        -0.2637
     31 CA        -14.2490   -4.5580    8.6900 C.3       1 ARG         0.1310
     32 C         -13.9660   -3.1450    9.2480 C.2       1 ARG         0.2033
     33 O         -12.8480   -2.8210    9.6380 O.2       1 ARG        -0.3944
     34 CB        -14.3520   -5.6280    9.8310 C.3       1 ARG        -0.0092
     35 CG        -15.0450   -5.1670   11.1090 C.3       1 ARG        -0.0156
     36 CD        -14.9450   -6.2260   12.2570 C.3       1 ARG         0.0627
     37 NE        -16.2260   -6.3290   12.9760 N.pl3     1 ARG        -0.2723
     38 CZ        -17.3010   -7.0050   12.5310 C.cat     1 ARG         0.2882
     39 NH1       -18.4260   -7.0370   13.2470 N.pl3     1 ARG        -0.2849
     40 NH2       -17.2510   -7.6690   11.3730 N.pl3     1 ARG        -0.2849
     41 N         -14.9940   -2.3130    9.3220 N.am      1 LEU        -0.2695
     42 CA        -14.8480   -1.0310    9.9890 C.3       1 LEU         0.0946
     43 C         -15.6130   -1.0620   11.3410 C.2       1 LEU         0.0601
     44 O         -16.2920   -2.0590   11.7040 O.co2     1 LEU        -0.5666
     45 CB        -15.3240    0.0910    9.0680 C.3       1 LEU        -0.0156
     46 CG        -14.5800    0.1720    7.6960 C.3       1 LEU        -0.0431
     47 CD1       -15.4610    0.9210    6.5710 C.3       1 LEU        -0.0625
     48 CD2       -13.1010    0.7010    7.8410 C.3       1 LEU        -0.0625
     49 OXT       -15.5650   -0.0670   12.0750 O.co2     1 LEU        -0.5666
     50 H1        -13.3382  -11.8664    2.6207 H         1 ASP         0.2016
     51 H2        -14.2217  -10.6675    3.3219 H         1 ASP         0.2016
     52 H3        -12.5788  -10.6444    3.4203 H         1 ASP         0.2016
     53 H4        -12.3525  -10.3263    1.0431 H         1 ASP         0.1117
     54 H5        -15.3218   -9.8150    0.8575 H         1 ASP         0.0512
     55 H6        -14.7245  -11.5079    0.7966 H         1 ASP         0.0512
     56 H7        -14.9651   -8.7603    2.9513 H         1 TYR         0.1886
     57 H8        -14.0340   -6.0611    2.1690 H         1 TYR         0.0821
     58 H9        -15.8907   -5.4508    3.9217 H         1 TYR         0.0453
     59 H10       -16.3106   -7.1960    3.8530 H         1 TYR         0.0453
     60 H11       -16.2711   -4.0135    2.0725 H         1 TYR         0.0530
     61 H12       -17.2237   -8.1813    1.7517 H         1 TYR         0.0530
     62 H13       -17.4673   -3.5671    0.0167 H         1 TYR         0.0525
     63 H14       -18.4134   -7.7242   -0.4376 H         1 TYR         0.0525
     64 H15       -18.5857   -4.3576   -1.6121 H         1 TYR         0.2458
     65 H16       -12.7916   -4.7353    3.5088 H         1 GLN         0.1883
     66 H17       -11.6254   -5.8516    5.9438 H         1 GLN         0.0801
     67 H18       -11.4987   -3.1817    4.5057 H         1 GLN         0.0337
     68 H19       -10.2067   -4.4130    4.7094 H         1 GLN         0.0337
     69 H20       -11.3633   -2.6661    6.9269 H         1 GLN         0.0504
     70 H21        -9.8211   -2.3703    6.0545 H         1 GLN         0.0504
     71 H22        -8.3535   -5.5078    7.5773 H         1 GLN         0.1814
     72 H23        -8.7014   -4.9744    5.9666 H         1 GLN         0.1814
     73 H24       -12.6329   -5.7453    7.8943 H         1 ARG         0.1883
     74 H25       -15.2274   -4.5138    8.1893 H         1 ARG         0.0800
     75 H26       -13.3308   -5.9408   10.0943 H         1 ARG         0.0313
     76 H27       -14.9094   -6.4903    9.4365 H         1 ARG         0.0313
     77 H28       -16.1071   -4.9840   10.8887 H         1 ARG         0.0301
     78 H29       -14.5746   -4.2324   11.4486 H         1 ARG         0.0301
     79 H30       -14.1574   -5.9222   12.9623 H         1 ARG         0.0689
     80 H31       -14.6925   -7.2056   11.8250 H         1 ARG         0.0689
     81 H32       -16.3047   -5.8495   13.8842 H         1 ARG         0.2642
     82 H33       -19.2438   -7.5571   12.8983 H         1 ARG         0.2615
     83 H34       -18.4769   -6.5416   14.1486 H         1 ARG         0.2615
     84 H35       -16.3900   -7.6546   10.8079 H         1 ARG         0.2615
     85 H36       -18.0734   -8.1954   11.0452 H         1 ARG         0.2615
     86 H37       -15.8724   -2.5680    8.9178 H         1 LEU         0.1875
     87 H38       -13.7819   -0.8654   10.2035 H         1 LEU         0.0726
     88 H39       -15.1811    1.0477    9.5918 H         1 LEU         0.0308
     89 H40       -16.3949   -0.0613    8.8681 H         1 LEU         0.0308
     90 H41       -14.4830   -0.8663    7.3461 H         1 LEU         0.0297
     91 H42       -14.8983    0.9537    5.6264 H         1 LEU         0.0232
     92 H43       -15.6826    1.9465    6.9014 H         1 LEU         0.0232
     93 H44       -16.4027    0.3735    6.4181 H         1 LEU         0.0232
     94 H45       -12.5836    0.1321    8.6276 H         1 LEU         0.0232
     95 H46       -13.1177    1.7673    8.1105 H         1 LEU         0.0232
     96 H47       -12.5703    0.5723    6.8861 H         1 LEU         0.0232
@<TRIPOS>BOND
     1    1    2 1  
     2    2    3 1  
     3    2    5 1  
     4    3    4 2  
     5    3    9 am 
     6    5    6 1  
     7    6    7 ar 
     8    6    8 ar 
     9    9   10 1  
    10   10   11 1  
    11   10   13 1  
    12   11   12 2  
    13   11   21 am 
    14   13   14 1  
    15   14   15 ar 
    16   14   16 ar 
    17   15   17 ar 
    18   16   18 ar 
    19   17   19 ar 
    20   18   19 ar 
    21   19   20 1  
    22   21   22 1  
    23   22   23 1  
    24   22   25 1  
    25   23   24 2  
    26   23   30 am 
    27   25   26 1  
    28   26   27 1  
    29   27   28 2  
    30   27   29 am 
    31   30   31 1  
    32   31   32 1  
    33   31   34 1  
    34   32   33 2  
    35   32   41 am 
    36   34   35 1  
    37   35   36 1  
    38   36   37 1  
    39   37   38 ar 
    40   38   39 ar 
    41   38   40 ar 
    42   41   42 1  
    43   42   43 1  
    44   42   45 1  
    45   43   44 ar 
    46   43   49 ar 
    47   45   46 1  
    48   46   47 1  
    49   46   48 1  
    50    1   50 1  
    51    1   51 1  
    52    1   52 1  
    53    2   53 1  
    54    5   54 1  
    55    5   55 1  
    56    9   56 1  
    57   10   57 1  
    58   13   58 1  
    59   13   59 1  
    60   15   60 1  
    61   16   61 1  
    62   17   62 1  
    63   18   63 1  
    64   20   64 1  
    65   21   65 1  
    66   22   66 1  
    67   25   67 1  
    68   25   68 1  
    69   26   69 1  
    70   26   70 1  
    71   29   71 1  
    72   29   72 1  
    73   30   73 1  
    74   31   74 1  
    75   34   75 1  
    76   34   76 1  
    77   35   77 1  
    78   35   78 1  
    79   36   79 1  
    80   36   80 1  
    81   37   81 1  
    82   39   82 1  
    83   39   83 1  
    84   40   84 1  
    85   40   85 1  
    86   41   86 1  
    87   42   87 1  
    88   45   88 1  
    89   45   89 1  
    90   46   90 1  
    91   47   91 1  
    92   47   92 1  
    93   47   93 1  
    94   48   94 1  
    95   48   95 1  
    96   48   96 1  
@<TRIPOS>SUBSTRUCTURE
     1 ASP         1

