4ikn_ligand
  -I-interpret- 

 97 97  0  0  0  0  0  0  0  0999 V2000
  -13.3650  -10.8820    2.8360 N   0  3  0  0  0
  -13.2990  -10.0790    1.5460 C   0  0  0  0  0
  -13.3350   -8.5440    1.7860 C   0  0  0  0  0
  -12.5500   -7.7670    1.2090 O   0  0  0  0  0
  -14.4590  -10.4550    0.6210 C   0  0  0  0  0
  -14.1050  -10.2770   -0.8550 C   0  0  0  0  0
  -14.7580   -9.4440   -1.5780 O   0  0  0  0  0
  -13.1460  -10.9750   -1.2780 O   0  0  0  0  0
  -14.2920   -8.1100    2.5990 N   0  0  0  0  0
  -14.3850   -6.7010    2.9920 C   0  0  0  0  0
  -13.4880   -6.4920    4.2100 C   0  0  0  0  0
  -13.4060   -7.3790    5.0650 O   0  0  0  0  0
  -15.8570   -6.3590    3.3020 C   0  0  0  0  0
  -16.6370   -6.1220    2.0490 C   0  0  0  0  0
  -16.7350   -4.8340    1.5370 C   0  0  0  0  0
  -17.2610   -7.1740    1.3530 C   0  0  0  0  0
  -17.3950   -4.5830    0.3880 C   0  0  0  0  0
  -17.9460   -6.9200    0.1190 C   0  0  0  0  0
  -17.9900   -5.6370   -0.3300 C   0  0  0  0  0
  -18.6720   -5.2920   -1.4640 O   0  0  0  0  0
  -12.8130   -5.3490    4.2980 N   0  0  0  0  0
  -12.1110   -4.9700    5.5000 C   0  0  0  0  0
  -13.1620   -4.4010    6.4710 C   0  0  0  0  0
  -13.8480   -3.4310    6.1290 O   0  0  0  0  0
  -11.0560   -3.9130    5.1980 C   0  0  0  0  0
  -10.5150   -3.1440    6.4150 C   0  0  0  0  0
   -9.7650   -4.0310    7.4400 C   0  0  0  0  0
  -10.0270   -3.9360    8.6590 O   0  0  0  0  0
   -8.8610   -4.9150    6.9520 N   0  0  0  0  0
  -13.2530   -4.9920    7.6750 N   0  0  0  0  0
  -14.2490   -4.5580    8.6900 C   0  0  0  0  0
  -13.9660   -3.1450    9.2480 C   0  0  0  0  0
  -12.8480   -2.8210    9.6380 O   0  0  0  0  0
  -14.3520   -5.6280    9.8310 C   0  0  0  0  0
  -15.0450   -5.1670   11.1090 C   0  0  0  0  0
  -14.9450   -6.2260   12.2570 C   0  0  0  0  0
  -16.2260   -6.3290   12.9760 N   0  0  0  0  0
  -17.3010   -7.0050   12.5310 C   0  0  0  0  0
  -18.4260   -7.0370   13.2470 N   0  0  0  0  0
  -17.2510   -7.6690   11.3730 N   0  0  0  0  0
  -14.9940   -2.3130    9.3220 N   0  0  0  0  0
  -14.8480   -1.0310    9.9890 C   0  0  0  0  0
  -15.6130   -1.0620   11.3410 C   0  0  0  0  0
  -16.2920   -2.0590   11.7040 O   0  0  0  0  0
  -15.3240    0.0910    9.0680 C   0  0  0  0  0
  -14.5800    0.1720    7.6960 C   0  0  0  0  0
  -15.4610    0.9210    6.5710 C   0  0  0  0  0
  -13.1010    0.7010    7.8410 C   0  0  0  0  0
  -15.5650   -0.0670   12.0750 O   0  0  0  0  0
  -12.5857  -10.6188    3.4392 H   0  0  0  0  0
  -14.2458  -10.6868    3.3119 H   0  0  0  0  0
  -13.3076  -11.8770    2.6190 H   0  0  0  0  0
  -12.3433  -10.3272    1.0844 H   0  0  0  0  0
  -15.2993   -9.7992    0.8487 H   0  0  0  0  0
  -14.6973  -11.5056    0.7873 H   0  0  0  0  0
  -15.4411   -9.0280   -1.0471 H   0  0  0  0  0
  -14.9785   -8.7733    2.9583 H   0  0  0  0  0
  -14.0525   -6.0403    2.1913 H   0  0  0  0  0
  -15.8822   -5.4499    3.9028 H   0  0  0  0  0
  -16.3031   -7.1993    3.8339 H   0  0  0  0  0
  -16.2686   -4.0090    2.0754 H   0  0  0  0  0
  -17.2235   -8.1869    1.7539 H   0  0  0  0  0
  -17.4677   -3.5615    0.0146 H   0  0  0  0  0
  -18.4160   -7.7287   -0.4407 H   0  0  0  0  0
  -19.0341   -6.0823   -1.8712 H   0  0  0  0  0
  -12.7912   -4.7230    3.4930 H   0  0  0  0  0
  -11.5987   -5.8303    5.9307 H   0  0  0  0  0
  -11.5341   -3.1749    4.5540 H   0  0  0  0  0
  -10.2066   -4.4400    4.7634 H   0  0  0  0  0
  -11.3722   -2.7100    6.9298 H   0  0  0  0  0
   -9.8021   -2.4089    6.0416 H   0  0  0  0  0
   -8.3624   -5.5379    7.5875 H   0  0  0  0  0
   -8.6792   -4.9574    5.9492 H   0  0  0  0  0
  -12.6205   -5.7603    7.8987 H   0  0  0  0  0
  -15.2154   -4.4842    8.1913 H   0  0  0  0  0
  -13.3292   -5.8825   10.1089 H   0  0  0  0  0
  -14.9511   -6.4470    9.4331 H   0  0  0  0  0
  -16.1002   -5.0125   10.8836 H   0  0  0  0  0
  -14.5547   -4.2545   11.4482 H   0  0  0  0  0
  -14.1693   -5.9169   12.9576 H   0  0  0  0  0
  -14.7029   -7.1964   11.8237 H   0  0  0  0  0
  -16.3040   -5.8541   13.8753 H   0  0  0  0  0
  -18.4764   -6.5464   14.1399 H   0  0  0  0  0
  -18.0655   -8.1902   11.0484 H   0  0  0  0  0
  -16.3984   -7.6548   10.8134 H   0  0  0  0  0
  -15.8900   -2.5731    8.9097 H   0  0  0  0  0
  -13.7989   -0.8360   10.2116 H   0  0  0  0  0
  -16.2324   -2.7458   11.0359 H   0  0  0  0  0
  -15.1329    1.0298    9.5878 H   0  0  0  0  0
  -16.3736   -0.1038    8.8480 H   0  0  0  0  0
  -14.4649   -0.8464    7.3249 H   0  0  0  0  0
  -16.3938    0.3775    6.4204 H   0  0  0  0  0
  -15.6799    1.9370    6.8996 H   0  0  0  0  0
  -14.9024    0.9528    5.6355 H   0  0  0  0  0
  -13.1150    1.7006    8.2754 H   0  0  0  0  0
  -12.5382    0.0295    8.4895 H   0  0  0  0  0
  -12.6314    0.7371    6.8580 H   0  0  0  0  0
  1  2  1  0  0  0
  2  3  1  0  0  0
  2  5  1  0  0  0
  3  4  2  0  0  0
  3  9  1  0  0  0
  5  6  1  0  0  0
  6  7  1  0  0  0
  6  8  2  0  0  0
  9 10  1  0  0  0
 10 11  1  0  0  0
 10 13  1  0  0  0
 11 12  2  0  0  0
 11 21  1  0  0  0
 13 14  1  0  0  0
 14 15  4  0  0  0
 14 16  4  0  0  0
 15 17  4  0  0  0
 16 18  4  0  0  0
 17 19  4  0  0  0
 18 19  4  0  0  0
 19 20  1  0  0  0
 21 22  1  0  0  0
 22 23  1  0  0  0
 22 25  1  0  0  0
 23 24  2  0  0  0
 23 30  1  0  0  0
 25 26  1  0  0  0
 26 27  1  0  0  0
 27 28  2  0  0  0
 27 29  1  0  0  0
 30 31  1  0  0  0
 31 32  1  0  0  0
 31 34  1  0  0  0
 32 33  2  0  0  0
 32 41  1  0  0  0
 34 35  1  0  0  0
 35 36  1  0  0  0
 36 37  1  0  0  0
 37 38  1  0  0  0
 38 39  2  0  0  0
 38 40  1  0  0  0
 41 42  1  0  0  0
 42 43  1  0  0  0
 42 45  1  0  0  0
 43 44  1  0  0  0
 43 49  2  0  0  0
 45 46  1  0  0  0
 46 47  1  0  0  0
 46 48  1  0  0  0
  1 50  1  0  0  0
  1 51  1  0  0  0
  1 52  1  0  0  0
  2 53  1  0  0  0
  5 54  1  0  0  0
  5 55  1  0  0  0
  7 56  1  0  0  0
  9 57  1  0  0  0
 10 58  1  0  0  0
 13 59  1  0  0  0
 13 60  1  0  0  0
 15 61  1  0  0  0
 16 62  1  0  0  0
 17 63  1  0  0  0
 18 64  1  0  0  0
 20 65  1  0  0  0
 21 66  1  0  0  0
 22 67  1  0  0  0
 25 68  1  0  0  0
 25 69  1  0  0  0
 26 70  1  0  0  0
 26 71  1  0  0  0
 29 72  1  0  0  0
 29 73  1  0  0  0
 30 74  1  0  0  0
 31 75  1  0  0  0
 34 76  1  0  0  0
 34 77  1  0  0  0
 35 78  1  0  0  0
 35 79  1  0  0  0
 36 80  1  0  0  0
 36 81  1  0  0  0
 37 82  1  0  0  0
 39 83  1  0  0  0
 40 84  1  0  0  0
 40 85  1  0  0  0
 41 86  1  0  0  0
 42 87  1  0  0  0
 44 88  1  0  0  0
 45 89  1  0  0  0
 45 90  1  0  0  0
 46 91  1  0  0  0
 47 92  1  0  0  0
 47 93  1  0  0  0
 47 94  1  0  0  0
 48 95  1  0  0  0
 48 96  1  0  0  0
 48 97  1  0  0  0
M  END
$$$$
