4fpk_ligand
  -I-interpret- 

 31 31  0  0  0  0  0  0  0  0999 V2000
   -4.8770   -5.6860  -41.3260 C   0  0  0  0  0
   -5.7390   -6.3620  -40.2650 C   0  0  0  0  0
   -5.6090   -6.0120  -38.9500 C   0  0  0  0  0
   -6.6900   -7.3750  -40.6550 C   0  0  0  0  0
   -7.4720   -8.0060  -39.6930 C   0  0  0  0  0
   -7.3390   -7.6440  -38.3090 C   0  0  0  0  0
   -6.4370   -6.6670  -37.9400 C   0  0  0  0  0
   -6.2740   -6.2830  -36.4980 C   0  0  0  0  0
   -4.9340   -6.2210  -36.0430 N   0  3  0  0  0
   -4.8740   -6.2820  -34.5620 C   0  0  0  0  0
   -3.5220   -6.6000  -33.9600 C   0  0  0  0  0
   -2.8570   -5.4330  -32.7700 S   0  0  0  0  0
   -1.6000   -6.0040  -32.1560 O   0  0  0  0  0
   -3.8680   -5.1520  -31.6670 O   0  0  0  0  0
   -2.5590   -4.2000  -33.5050 O   0  0  0  0  0
   -5.0695   -4.6132  -41.3193 H   0  0  0  0  0
   -3.8248   -5.8690  -41.1081 H   0  0  0  0  0
   -5.1227   -6.0944  -42.3063 H   0  0  0  0  0
   -4.8903   -5.2471  -38.6560 H   0  0  0  0  0
   -6.7957   -7.6462  -41.7054 H   0  0  0  0  0
   -8.1855   -8.7749  -39.9892 H   0  0  0  0  0
   -7.9484   -8.1393  -37.5531 H   0  0  0  0  0
   -6.7711   -7.0537  -35.9089 H   0  0  0  0  0
   -6.6897   -5.2812  -36.3901 H   0  0  0  0  0
   -4.5234   -5.3398  -36.3517 H   0  0  0  0  0
   -4.4210   -7.0156  -36.4249 H   0  0  0  0  0
   -5.5382   -7.0932  -34.2638 H   0  0  0  0  0
   -5.1392   -5.2867  -34.2055 H   0  0  0  0  0
   -2.8206   -6.6031  -34.7943 H   0  0  0  0  0
   -3.6538   -7.5347  -33.4150 H   0  0  0  0  0
   -4.6685   -4.7889  -32.0531 H   0  0  0  0  0
  1  2  1  0  0  0
  2  3  4  0  0  0
  2  4  4  0  0  0
  3  7  4  0  0  0
  4  5  4  0  0  0
  5  6  4  0  0  0
  6  7  4  0  0  0
  7  8  1  0  0  0
  8  9  1  0  0  0
  9 10  1  0  0  0
 10 11  1  0  0  0
 11 12  1  0  0  0
 12 13  2  0  0  0
 12 14  1  0  0  0
 12 15  2  0  0  0
  1 16  1  0  0  0
  1 17  1  0  0  0
  1 18  1  0  0  0
  3 19  1  0  0  0
  4 20  1  0  0  0
  5 21  1  0  0  0
  6 22  1  0  0  0
  8 23  1  0  0  0
  8 24  1  0  0  0
  9 25  1  0  0  0
  9 26  1  0  0  0
 10 27  1  0  0  0
 10 28  1  0  0  0
 11 29  1  0  0  0
 11 30  1  0  0  0
 14 31  1  0  0  0
M  END
$$$$
