3iob_ligand
  -I-interpret- 

 32 34  0  0  0  0  0  0  0  0999 V2000
   13.7030    9.6810   -5.3280 N   0  0  0  0  0
   12.7150    9.2910   -4.5130 C   0  0  0  0  0
   12.8640    9.3200   -3.1850 N   0  0  0  0  0
   14.0300    9.7430   -2.6340 C   0  0  0  0  0
   15.0700   10.1580   -3.4590 C   0  0  0  0  0
   14.8850   10.1110   -4.8330 C   0  0  0  0  0
   15.8750   10.4850   -5.6310 N   0  0  0  0  0
   16.0900   10.5250   -2.6830 N   0  0  0  0  0
   15.7100   10.3600   -1.4120 C   0  0  0  0  0
   14.4640    9.8850   -1.3750 N   0  0  0  0  0
   12.5160    8.0950    1.9410 O   0  0  0  0  0
   14.4300    7.2470    0.1400 O   0  0  0  0  0
   14.7580   10.4330    4.6390 S   0  0  0  0  0
   14.6880   10.9820    2.8960 C   0  0  0  0  0
   13.5730   10.7400    0.6970 O   0  0  0  0  0
   13.7910    8.7300    2.0240 C   0  0  0  0  0
   14.5200    8.5840    0.6890 C   0  0  0  0  0
   13.5710   10.2560    2.0970 C   0  0  0  0  0
   13.7060    9.5720   -0.1640 C   0  0  0  0  0
   11.7737    8.9442   -4.9394 H   0  0  0  0  0
   15.7543   10.4521   -6.6433 H   0  0  0  0  0
   16.7576   10.8058   -5.2328 H   0  0  0  0  0
   16.3245   10.5800   -0.5390 H   0  0  0  0  0
   12.0587    8.1871    2.7800 H   0  0  0  0  0
   14.9031    7.2125   -0.6946 H   0  0  0  0  0
   15.7294   11.0870    5.2695 H   0  0  0  0  0
   15.6450   10.7501    2.4285 H   0  0  0  0  0
   14.4731   12.0505    2.8852 H   0  0  0  0  0
   14.3264    8.3009    2.8710 H   0  0  0  0  0
   15.5923    8.7701    0.7492 H   0  0  0  0  0
   12.6356   10.4669    2.6152 H   0  0  0  0  0
   12.7360    9.1933   -0.4860 H   0  0  0  0  0
  2  1  4  0  0  0
  6  1  4  0  0  0
  3  2  4  0  0  0
  4  3  4  0  0  0
  4  5  4  0  0  0
 10  4  4  0  0  0
  5  6  4  0  0  0
  8  5  4  0  0  0
  6  7  1  0  0  0
  9  8  4  0  0  0
 10  9  4  0  0  0
 19 10  1  0  0  0
 16 11  1  0  0  0
 17 12  1  0  0  0
 14 13  1  0  0  0
 18 14  1  0  0  0
 18 15  1  0  0  0
 15 19  1  0  0  0
 16 17  1  0  0  0
 16 18  1  0  0  0
 17 19  1  0  0  0
  2 20  1  0  0  0
  7 21  1  0  0  0
  7 22  1  0  0  0
  9 23  1  0  0  0
 11 24  1  0  0  0
 12 25  1  0  0  0
 13 26  1  0  0  0
 14 27  1  0  0  0
 14 28  1  0  0  0
 16 29  1  0  0  0
 17 30  1  0  0  0
 18 31  1  0  0  0
 19 32  1  0  0  0
M  END
$$$$
