### 
### Created by X-TOOL on Sun Sep  9 21:50:43 2018
### 

@<TRIPOS>MOLECULE
2qaf_ligand
   32    33     1     0     0
SMALL
GAST_HUCK


@<TRIPOS>ATOM
      1 N1         23.8020  -31.9150  -31.3760 N.am      1 NON        -0.1592
      2 C2         23.7300  -33.1870  -31.7920 C.2       1 NON         0.3328
      3 N3         22.6930  -33.6280  -32.5120 N.am      1 NON        -0.1865
      4 C4         21.7190  -32.7760  -32.8460 C.2       1 NON         0.1822
      5 C5         21.7050  -31.4650  -32.4190 C.2       1 NON         0.0062
      6 C6         22.7990  -31.0610  -31.6700 C.2       1 NON         0.0591
      7 O2         24.5970  -34.0320  -31.5010 O.2       1 NON        -0.3815
      8 O4         20.7890  -33.1930  -33.5190 O.2       1 NON        -0.4124
      9 C1'        24.9990  -31.4630  -30.6650 C.3       1 NON         0.2059
     10 C2'        25.5080  -32.0950  -29.3890 C.3       1 NON         0.1387
     11 O2'        24.9780  -31.1900  -28.4020 O.3       1 NON        -0.3836
     12 C3'        27.0030  -31.8810  -29.5780 C.3       1 NON         0.1149
     13 C4'        27.2580  -32.0670  -31.0660 C.3       1 NON         0.1182
     14 O3'        27.3500  -30.5020  -29.3350 O.3       1 NON        -0.3864
     15 O4'        26.0310  -31.6040  -31.6510 O.3       1 NON        -0.3363
     16 C5'        27.5930  -33.5280  -31.3950 C.3       1 NON         0.1072
     17 O5'        28.9420  -33.7680  -30.9910 O.3       1 NON        -0.2734
     18 P          29.6440  -35.2220  -30.9500 P.3       1 NON         0.2008
     19 O1P        30.5380  -35.1180  -29.7520 O.co2     1 NON        -0.5537
     20 O2P        28.6010  -36.2660  -30.7780 O.co2     1 NON        -0.5537
     21 O3P        30.4060  -35.3400  -32.2500 O.co2     1 NON        -0.5537
     22 H1         22.6468  -34.5853  -32.7975 H         1 NON         0.2259
     23 H2         20.8849  -30.7887  -32.6557 H         1 NON         0.0258
     24 H3         22.8503  -30.0340  -31.3115 H         1 NON         0.1178
     25 H4         24.8432  -30.3994  -30.4316 H         1 NON         0.0997
     26 H5         25.2249  -33.1448  -29.2225 H         1 NON         0.0676
     27 H6         24.0303  -31.1738  -28.4653 H         1 NON         0.2101
     28 H7         27.5922  -32.5684  -28.9533 H         1 NON         0.0648
     29 H8         28.0959  -31.4362  -31.3976 H         1 NON         0.0650
     30 H9         28.2614  -30.3610  -29.5631 H         1 NON         0.2100
     31 H10        27.4898  -33.7013  -32.4763 H         1 NON         0.0639
     32 H11        26.9139  -34.1997  -30.8495 H         1 NON         0.0639
@<TRIPOS>BOND
     1    1    2 am 
     2    1    6 1  
     3    1    9 1  
     4    2    3 am 
     5    2    7 2  
     6    3    4 am 
     7    4    5 1  
     8    4    8 2  
     9    5    6 2  
    10    9   10 1  
    11    9   15 1  
    12   10   11 1  
    13   10   12 1  
    14   12   13 1  
    15   12   14 1  
    16   13   15 1  
    17   13   16 1  
    18   16   17 1  
    19   17   18 1  
    20   18   19 ar 
    21   18   20 ar 
    22   18   21 ar 
    23    3   22 1  
    24    5   23 1  
    25    6   24 1  
    26    9   25 1  
    27   10   26 1  
    28   11   27 1  
    29   12   28 1  
    30   13   29 1  
    31   14   30 1  
    32   16   31 1  
    33   16   32 1  
@<TRIPOS>SUBSTRUCTURE
     1 NON         1

