4zxy_ligand
  -I-interpret- 

 62 66  0  0  0  0  0  0  0  0999 V2000
    7.9910   35.7660   25.7060 C   0  0  0  0  0
    4.4850   34.3880   25.0860 C   0  0  0  0  0
    5.8350   34.6550   24.9360 C   0  0  0  0  0
    8.1000   36.5630   24.3900 C   0  0  0  0  0
    3.7820   34.8700   26.1830 C   0  0  0  0  0
    4.4770   35.5950   27.1390 C   0  0  0  0  0
    5.8190   35.8750   26.9800 C   0  0  0  0  0
    2.2980   34.6370   26.3320 C   0  0  0  0  0
    7.5270   38.6230   23.1890 C   0  0  0  0  0
    5.1010   37.9150   20.3470 C   0  0  0  0  0
    1.2330   36.4160   24.7630 C   0  0  0  0  0
   10.1970   33.1180   31.3830 C   0  0  0  0  0
   10.7770   31.9270   31.1760 N   0  0  0  0  0
   10.8620   31.4470   29.8790 C   0  0  0  0  0
   10.3400   32.1910   28.7500 C   0  0  0  0  0
    9.7130   33.4420   29.0460 C   0  0  0  0  0
    9.6650   33.8890   30.3930 C   0  0  0  0  0
   10.4350   31.8090   27.3850 C   0  0  0  0  0
    9.9420   32.5980   26.3880 C   0  0  0  0  0
    9.3070   33.8050   26.6800 C   0  0  0  0  0
    9.1910   34.2210   27.9870 C   0  0  0  0  0
    8.8120   34.5690   25.6310 N   0  0  0  0  0
   11.4250   30.2270   29.7440 N   0  0  0  0  0
    6.5170   35.4260   25.8700 C   0  0  0  0  0
    8.5450   35.9990   23.3940 O   0  0  0  0  0
    7.7340   37.8500   24.4060 N   0  0  0  0  0
    6.3040   38.1790   22.4220 C   0  0  0  0  0
    6.2270   38.3290   21.0440 C   0  0  0  0  0
    4.0280   37.3550   21.0200 C   0  0  0  0  0
    4.0860   37.1970   22.3970 C   0  0  0  0  0
    5.2270   37.6000   23.0870 C   0  0  0  0  0
    2.9710   36.6810   23.1040 N   0  0  0  0  0
    2.4540   37.1450   24.2680 C   0  0  0  0  0
    2.8890   38.1230   24.8690 O   0  0  0  0  0
    1.4350   34.9510   25.1080 C   0  0  0  0  0
    8.3493   36.3362   26.5631 H   0  0  0  0  0
    3.9673   33.7923   24.3342 H   0  0  0  0  0
    6.3700   34.2555   24.0744 H   0  0  0  0  0
    3.9561   35.9488   28.0287 H   0  0  0  0  0
    6.3385   36.4588   27.7398 H   0  0  0  0  0
    1.9629   35.3112   27.1202 H   0  0  0  0  0
    2.1763   33.5708   26.5233 H   0  0  0  0  0
    8.3965   38.4792   22.5476 H   0  0  0  0  0
    7.3852   39.6657   23.4732 H   0  0  0  0  0
    5.0607   38.0311   19.2640 H   0  0  0  0  0
    0.5064   36.4444   23.9510 H   0  0  0  0  0
    0.9308   36.9114   25.6857 H   0  0  0  0  0
   10.1480   33.4925   32.4055 H   0  0  0  0  0
    9.2037   34.8466   30.6346 H   0  0  0  0  0
   10.9129   30.8635   27.1287 H   0  0  0  0  0
   10.0455   32.2815   25.3501 H   0  0  0  0  0
    8.6902   35.1634   28.2089 H   0  0  0  0  0
    9.0544   34.2509   24.6927 H   0  0  0  0  0
   11.7540   29.7232   30.5676 H   0  0  0  0  0
   11.5212   29.8093   28.8184 H   0  0  0  0  0
    7.5944   38.3081   25.3066 H   0  0  0  0  0
    7.0607   38.7772   20.5034 H   0  0  0  0  0
    3.1414   37.0396   20.4699 H   0  0  0  0  0
    5.2773   37.4595   24.1667 H   0  0  0  0  0
    2.5068   35.8718   22.6916 H   0  0  0  0  0
    0.4434   34.5597   25.3353 H   0  0  0  0  0
    1.9569   34.5144   24.2565 H   0  0  0  0  0
  4  1  1  0  0  0
  1 22  1  0  0  0
  1 24  1  0  0  0
  3  2  4  0  0  0
  2  5  4  0  0  0
 24  3  4  0  0  0
  4 25  2  0  0  0
 26  4  1  0  0  0
  6  5  4  0  0  0
  5  8  1  0  0  0
  7  6  4  0  0  0
 24  7  4  0  0  0
  8 35  1  0  0  0
  9 26  1  0  0  0
 27  9  1  0  0  0
 28 10  4  0  0  0
 10 29  4  0  0  0
 11 33  1  0  0  0
 35 11  1  0  0  0
 12 13  4  0  0  0
 17 12  4  0  0  0
 14 13  4  0  0  0
 15 14  4  0  0  0
 14 23  1  0  0  0
 16 15  4  0  0  0
 18 15  4  0  0  0
 16 17  4  0  0  0
 21 16  4  0  0  0
 19 18  4  0  0  0
 20 19  4  0  0  0
 20 21  4  0  0  0
 22 20  1  0  0  0
 27 28  4  0  0  0
 27 31  4  0  0  0
 29 30  4  0  0  0
 30 31  4  0  0  0
 30 32  1  0  0  0
 32 33  1  0  0  0
 33 34  2  0  0  0
  1 36  1  0  0  0
  2 37  1  0  0  0
  3 38  1  0  0  0
  6 39  1  0  0  0
  7 40  1  0  0  0
  8 41  1  0  0  0
  8 42  1  0  0  0
  9 43  1  0  0  0
  9 44  1  0  0  0
 10 45  1  0  0  0
 11 46  1  0  0  0
 11 47  1  0  0  0
 12 48  1  0  0  0
 17 49  1  0  0  0
 18 50  1  0  0  0
 19 51  1  0  0  0
 21 52  1  0  0  0
 22 53  1  0  0  0
 23 54  1  0  0  0
 23 55  1  0  0  0
 26 56  1  0  0  0
 28 57  1  0  0  0
 29 58  1  0  0  0
 31 59  1  0  0  0
 32 60  1  0  0  0
 35 61  1  0  0  0
 35 62  1  0  0  0
M  END
$$$$
