3rhk_ligand
  -I-interpret- 

 44 49  0  0  0  0  0  0  0  0999 V2000
   -7.7550   12.1690   -3.6380 C   0  0  0  0  0
  -10.8150   10.5170   -4.6180 N   0  0  0  0  0
   -7.8460   13.0860   -5.8700 O   0  0  0  0  0
   -6.4790   11.4310   -1.5800 C   0  0  0  0  0
   -5.8660   12.3950   -4.9580 N   0  0  0  0  0
   -4.3140   11.4900   -3.5640 O   0  0  0  0  0
   -6.8900   10.4140   -0.7330 C   0  0  0  0  0
   -6.6600   10.8460    0.5200 N   0  0  0  0  0
   -9.0870   11.5240   -3.7760 C   0  0  0  0  0
   -9.5690   10.9590   -4.9370 C   0  0  0  0  0
   -6.6350   11.2830   -3.0620 C   0  0  0  0  0
   -7.1840   12.6030   -4.9540 C   0  0  0  0  0
   -5.4630   11.7240   -3.8720 C   0  0  0  0  0
  -11.0950   10.7980   -3.3180 C   0  0  0  0  0
  -10.0060   11.4580   -2.7620 C   0  0  0  0  0
   -9.9760   11.8930   -1.4390 C   0  0  0  0  0
  -11.0990   11.6590   -0.6470 C   0  0  0  0  0
  -12.2050   11.0040   -1.1940 C   0  0  0  0  0
  -12.2180   10.5740   -2.5230 C   0  0  0  0  0
   -5.7960   12.8340    1.5510 C   0  0  0  0  0
   -5.9720   12.2850    2.9540 C   0  0  0  0  0
   -6.5320   10.8540    3.0290 C   0  0  0  0  0
   -6.9360   10.1090    1.7560 C   0  0  0  0  0
   -6.1590   12.0790    0.4590 C   0  0  0  0  0
   -6.0210   12.5150   -0.8440 C   0  0  0  0  0
   -5.5080   13.7720   -1.1120 C   0  0  0  0  0
   -5.1380   14.5580   -0.0130 C   0  0  0  0  0
   -5.2680   14.1050    1.3100 C   0  0  0  0  0
   -7.9962   12.9872   -2.9595 H   0  0  0  0  0
   -5.2405   12.7096   -5.6997 H   0  0  0  0  0
   -7.3155    9.4538   -1.0245 H   0  0  0  0  0
   -9.0628   10.8831   -5.8994 H   0  0  0  0  0
   -6.8148   10.2109   -3.1421 H   0  0  0  0  0
   -9.1004   12.4012   -1.0351 H   0  0  0  0  0
  -11.1140   11.9852    0.3929 H   0  0  0  0  0
  -13.0793   10.8240   -0.5684 H   0  0  0  0  0
  -13.0937   10.0705   -2.9326 H   0  0  0  0  0
   -6.6926   12.9308    3.4557 H   0  0  0  0  0
   -4.9811   12.2585    3.4073 H   0  0  0  0  0
   -6.6418   10.3669    3.9979 H   0  0  0  0  0
   -7.3891    9.1177    1.7671 H   0  0  0  0  0
   -5.3967   14.1348   -2.1338 H   0  0  0  0  0
   -4.7355   15.5552   -0.1908 H   0  0  0  0  0
   -4.9598   14.7392    2.1412 H   0  0  0  0  0
  1  9  1  0  0  0
 11  1  1  0  0  0
  1 12  1  0  0  0
 10  2  4  0  0  0
 14  2  4  0  0  0
 12  3  2  0  0  0
  7  4  4  0  0  0
  4 11  1  0  0  0
  4 25  4  0  0  0
  5 12  1  0  0  0
 13  5  1  0  0  0
 13  6  2  0  0  0
  8  7  4  0  0  0
  8 23  1  0  0  0
 24  8  4  0  0  0
  9 10  4  0  0  0
  9 15  4  0  0  0
 11 13  1  0  0  0
 15 14  4  0  0  0
 14 19  4  0  0  0
 15 16  4  0  0  0
 16 17  4  0  0  0
 17 18  4  0  0  0
 19 18  4  0  0  0
 20 21  1  0  0  0
 20 24  4  0  0  0
 20 28  4  0  0  0
 21 22  1  0  0  0
 22 23  2  0  0  0
 24 25  4  0  0  0
 25 26  4  0  0  0
 26 27  4  0  0  0
 27 28  4  0  0  0
  1 29  1  0  0  0
  5 30  1  0  0  0
  7 31  1  0  0  0
 10 32  1  0  0  0
 11 33  1  0  0  0
 16 34  1  0  0  0
 17 35  1  0  0  0
 18 36  1  0  0  0
 19 37  1  0  0  0
 21 38  1  0  0  0
 21 39  1  0  0  0
 22 40  1  0  0  0
 23 41  1  0  0  0
 26 42  1  0  0  0
 27 43  1  0  0  0
 28 44  1  0  0  0
M  END
$$$$
