5t8p_ligand
  -I-interpret- 

 27 29  0  0  0  0  0  0  0  0999 V2000
   28.7190   55.2480   -4.4400 C   0  0  0  0  0
   29.1410   54.2100   -5.2430 C   0  0  0  0  0
   28.6360   53.5870    1.1970 C   0  0  0  0  0
   29.3680   52.4200    1.1180 C   0  0  0  0  0
   28.4090   54.2190   -0.0600 C   0  0  0  0  0
   28.6430   55.0520   -3.0780 C   0  0  0  0  0
   28.9970   53.8270   -2.5340 C   0  0  0  0  0
   28.9800   53.5280   -1.1140 C   0  0  0  0  0
   29.4690   53.0300   -4.6150 C   0  0  0  0  0
   29.9220   51.8890   -5.4160 C   0  0  0  0  0
   27.6500   55.4730   -0.1550 C   0  0  0  0  0
   27.1130   55.7710   -1.5310 C   0  0  0  0  0
   29.4090   52.8100   -3.2940 N   0  0  0  0  0
   30.4000   50.8510   -4.6510 N   0  0  0  0  0
   29.8300   51.8890   -6.6360 O   0  0  0  0  0
   28.2200   56.1400   -2.3410 O   0  0  0  0  0
   29.7740   52.1170   -0.5200 S   0  0  0  0  0
   28.4493   56.2099   -4.8760 H   0  0  0  0  0
   29.2117   54.3187   -6.3253 H   0  0  0  0  0
   28.2638   53.9903    2.1387 H   0  0  0  0  0
   29.6445   51.7901    1.9635 H   0  0  0  0  0
   28.3334   56.2816    0.1043 H   0  0  0  0  0
   26.7919   55.3794    0.5105 H   0  0  0  0  0
   26.3799   56.5766   -1.4915 H   0  0  0  0  0
   26.6082   54.8978   -1.9443 H   0  0  0  0  0
   30.7148   49.9903   -5.0988 H   0  0  0  0  0
   30.4398   50.9418   -3.6358 H   0  0  0  0  0
  1  2  4  0  0  0
  6  1  4  0  0  0
  2  9  4  0  0  0
  3  4  4  0  0  0
  5  3  4  0  0  0
  4 17  4  0  0  0
  8  5  4  0  0  0
  5 11  1  0  0  0
  7  6  4  0  0  0
  6 16  1  0  0  0
  7  8  1  0  0  0
  7 13  4  0  0  0
  8 17  4  0  0  0
  9 10  1  0  0  0
  9 13  4  0  0  0
 10 14  1  0  0  0
 10 15  2  0  0  0
 11 12  1  0  0  0
 12 16  1  0  0  0
  1 18  1  0  0  0
  2 19  1  0  0  0
  3 20  1  0  0  0
  4 21  1  0  0  0
 11 22  1  0  0  0
 11 23  1  0  0  0
 12 24  1  0  0  0
 12 25  1  0  0  0
 14 26  1  0  0  0
 14 27  1  0  0  0
M  END
$$$$
