### 
### Created by X-TOOL on Mon Sep 10 21:12:51 2018
### 

@<TRIPOS>MOLECULE
1w25_ligand
   36    38     1     0     0
SMALL
GAST_HUCK


@<TRIPOS>ATOM
      1 P          90.1150   19.5760   83.7650 P.3       1 C2E         0.2008
      2 O1P        90.7830   20.8090   83.1950 O.co2     1 C2E        -0.5537
      3 O2P        89.7630   18.5830   82.6860 O.co2     1 C2E        -0.5537
      4 O5         91.0930   18.8160   84.7860 O.3       1 C2E        -0.2734
      5 C5         90.7490   17.5250   85.2820 C.3       1 C2E         0.1072
      6 C4         91.7630   17.0720   86.3340 C.3       1 C2E         0.1182
      7 O4         92.9710   16.6570   85.6790 O.3       1 C2E        -0.3364
      8 C3         92.1590   18.1340   87.3660 C.3       1 C2E         0.1149
      9 O3         91.3030   18.0940   88.5370 O.3       1 C2E        -0.3864
     10 C2         93.5890   17.7380   87.6640 C.3       1 C2E         0.1387
     11 O2         93.5910   16.7280   88.6710 O.3       1 C2E        -0.3836
     12 C1         94.1250   17.1180   86.3850 C.3       1 C2E         0.1992
     13 N9         94.9120   18.0840   85.5660 N.pl3     1 C2E        -0.2101
     14 C8         94.4300   18.9710   84.6730 C.2       1 C2E         0.0957
     15 N7         95.4360   19.6870   84.1090 N.2       1 C2E        -0.3235
     16 C5         96.5910   19.2580   84.6370 C.2       1 C2E         0.0926
     17 C6         98.0330   19.5830   84.4830 C.2       1 C2E         0.2135
     18 O6         98.4220   20.4680   83.6860 O.2       1 C2E        -0.4091
     19 N1         98.9170   18.8980   85.2170 N.am      1 C2E        -0.1839
     20 C2         98.5390   17.9380   86.0820 C.2       1 C2E         0.2340
     21 N2         99.4840   17.2860   86.7990 N.pl3     1 C2E        -0.2807
     22 N3         97.2380   17.5890   86.2750 N.2       1 C2E        -0.2765
     23 C4         96.2400   18.2010   85.5940 C.2       1 C2E         0.1159
     24 O1         88.8751   19.9939   84.4778 O.co2     1 C2E        -0.5537
     25 H1         90.7443   16.8060   84.4495 H         1 C2E         0.0639
     26 H2         89.7483   17.5660   85.7368 H         1 C2E         0.0639
     27 H3         91.3271   16.2174   86.8721 H         1 C2E         0.0650
     28 H4         92.1159   19.1434   86.9309 H         1 C2E         0.0648
     29 H5         91.3692   17.2397   88.9472 H         1 C2E         0.2100
     30 H6         94.1884   18.6061   87.9755 H         1 C2E         0.0676
     31 H7         93.1811   17.0666   89.4583 H         1 C2E         0.2101
     32 H8         94.7745   16.2658   86.6337 H         1 C2E         0.0998
     33 H9         93.3746   19.0965   84.4356 H         1 C2E         0.1179
     34 H10        99.8904   19.1057   85.1201 H         1 C2E         0.2515
     35 H11        99.2087   16.5494   87.4643 H         1 C2E         0.1897
     36 H12       100.4784   17.5264   86.6793 H         1 C2E         0.1897
@<TRIPOS>BOND
     1    1    2 ar 
     2    1    3 ar 
     3    1    4 1  
     4    4    5 1  
     5    5    6 1  
     6    6    7 1  
     7    6    8 1  
     8    7   12 1  
     9    8    9 1  
    10    8   10 1  
    11   10   11 1  
    12   10   12 1  
    13   12   13 1  
    14   13   14 1  
    15   13   23 1  
    16   14   15 2  
    17   15   16 1  
    18   16   17 1  
    19   16   23 2  
    20   17   18 2  
    21   17   19 am 
    22   19   20 am 
    23   20   21 1  
    24   20   22 2  
    25   22   23 1  
    26    1   24 ar 
    27    5   25 1  
    28    5   26 1  
    29    6   27 1  
    30    8   28 1  
    31    9   29 1  
    32   10   30 1  
    33   11   31 1  
    34   12   32 1  
    35   14   33 1  
    36   19   34 1  
    37   21   35 1  
    38   21   36 1  
@<TRIPOS>SUBSTRUCTURE
     1 C2E         1

