1w25_ligand
  -I-interpret- 

 38 40  0  0  0  0  0  0  0  0999 V2000
   90.1150   19.5760   83.7650 P   0  0  0  0  0
   90.7830   20.8090   83.1950 O   0  0  0  0  0
   89.7630   18.5830   82.6860 O   0  0  0  0  0
   91.0930   18.8160   84.7860 O   0  0  0  0  0
   90.7490   17.5250   85.2820 C   0  0  0  0  0
   91.7630   17.0720   86.3340 C   0  0  0  0  0
   92.9710   16.6570   85.6790 O   0  0  0  0  0
   92.1590   18.1340   87.3660 C   0  0  0  0  0
   91.3030   18.0940   88.5370 O   0  0  0  0  0
   93.5890   17.7380   87.6640 C   0  0  0  0  0
   93.5910   16.7280   88.6710 O   0  0  0  0  0
   94.1250   17.1180   86.3850 C   0  0  0  0  0
   94.9120   18.0840   85.5660 N   0  0  0  0  0
   94.4300   18.9710   84.6730 C   0  0  0  0  0
   95.4360   19.6870   84.1090 N   0  0  0  0  0
   96.5910   19.2580   84.6370 C   0  0  0  0  0
   98.0330   19.5830   84.4830 C   0  0  0  0  0
   98.4220   20.4680   83.6860 O   0  0  0  0  0
   98.9170   18.8980   85.2170 N   0  0  0  0  0
   98.5390   17.9380   86.0820 C   0  0  0  0  0
   99.4840   17.2860   86.7990 N   0  0  0  0  0
   97.2380   17.5890   86.2750 N   0  0  0  0  0
   96.2400   18.2010   85.5940 C   0  0  0  0  0
   88.8751   19.9939   84.4778 O   0  0  0  0  0
   91.5843   20.5526   82.7326 H   0  0  0  0  0
   90.5622   18.3141   82.2271 H   0  0  0  0  0
   90.7523   16.8142   84.4557 H   0  0  0  0  0
   89.7601   17.5712   85.7381 H   0  0  0  0  0
   91.2615   16.2690   86.8742 H   0  0  0  0  0
   92.0578   19.1626   87.0197 H   0  0  0  0  0
   90.4123   18.3533   88.2899 H   0  0  0  0  0
   94.1791   18.5920   87.9965 H   0  0  0  0  0
   94.4959   16.4725   88.8645 H   0  0  0  0  0
   94.8219   16.3098   86.6068 H   0  0  0  0  0
   93.3736   19.0966   84.4354 H   0  0  0  0  0
   99.9098   19.1099   85.1181 H   0  0  0  0  0
   99.2112   16.5580   87.4593 H   0  0  0  0  0
  100.4689   17.5227   86.6790 H   0  0  0  0  0
  1  2  1  0  0  0
  1  3  1  0  0  0
  1  4  1  0  0  0
  4  5  1  0  0  0
  5  6  1  0  0  0
  6  7  1  0  0  0
  6  8  1  0  0  0
  7 12  1  0  0  0
  8  9  1  0  0  0
  8 10  1  0  0  0
 10 11  1  0  0  0
 10 12  1  0  0  0
 12 13  1  0  0  0
 13 14  4  0  0  0
 13 23  4  0  0  0
 14 15  4  0  0  0
 15 16  4  0  0  0
 16 17  1  0  0  0
 16 23  4  0  0  0
 17 18  2  0  0  0
 17 19  1  0  0  0
 19 20  1  0  0  0
 20 21  1  0  0  0
 20 22  2  0  0  0
 22 23  1  0  0  0
  1 24  2  0  0  0
  2 25  1  0  0  0
  3 26  1  0  0  0
  5 27  1  0  0  0
  5 28  1  0  0  0
  6 29  1  0  0  0
  8 30  1  0  0  0
  9 31  1  0  0  0
 10 32  1  0  0  0
 11 33  1  0  0  0
 12 34  1  0  0  0
 14 35  1  0  0  0
 19 36  1  0  0  0
 21 37  1  0  0  0
 21 38  1  0  0  0
M  END
$$$$
