2wr8_ligand
  -I-interpret- 

 47 49  0  0  0  0  0  0  0  0999 V2000
   17.5030  -42.0960    7.0680 N   0  3  0  0  0
   17.6730  -43.1640    6.0600 C   0  0  0  0  0
   16.2790  -43.6400    5.5350 C   0  0  0  0  0
   16.2900  -45.0380    4.9190 C   0  0  0  0  0
   14.5580  -45.5190    4.4340 S   0  0  0  0  0
   18.4890  -42.6760    4.8770 C   0  0  0  0  0
   18.5710  -41.4450    4.6540 O   0  0  0  0  0
   19.0410  -43.5620    4.1930 O   0  0  0  0  0
   14.7660  -47.3070    4.1410 C   0  0  0  0  0
   14.4190  -48.2510    5.2610 C   0  0  0  0  0
   15.1730  -47.8750    6.4330 O   0  0  0  0  0
   12.9500  -48.1050    5.6990 C   0  0  0  0  0
   12.1320  -49.0510    5.0200 O   0  0  0  0  0
   13.0220  -48.3300    7.2320 C   0  0  0  0  0
   12.2760  -49.5020    7.5920 O   0  0  0  0  0
   14.5370  -48.4890    7.5430 C   0  0  0  0  0
   14.8580  -47.6200    8.7120 N   0  0  0  0  0
   14.8210  -46.2610    8.7530 C   0  0  0  0  0
   15.1720  -45.8330    9.9880 N   0  0  0  0  0
   15.4500  -46.9320   10.7120 C   0  0  0  0  0
   15.8610  -47.0980   12.0410 C   0  0  0  0  0
   16.0190  -46.0270   12.8760 N   0  0  0  0  0
   16.0820  -48.3500   12.4820 N   0  0  0  0  0
   15.9060  -49.4190   11.6790 C   0  0  0  0  0
   15.5380  -49.3080   10.3860 N   0  0  0  0  0
   15.2810  -48.0540    9.8940 C   0  0  0  0  0
   16.9522  -42.4520    7.8492 H   0  0  0  0  0
   18.4189  -41.7983    7.4040 H   0  0  0  0  0
   17.0210  -41.3034    6.6439 H   0  0  0  0  0
   18.1960  -43.9891    6.5435 H   0  0  0  0  0
   15.9740  -42.9449    4.7528 H   0  0  0  0  0
   15.6045  -43.6695    6.3908 H   0  0  0  0  0
   16.6741  -45.7521    5.6474 H   0  0  0  0  0
   16.9277  -45.0397    4.0350 H   0  0  0  0  0
   18.0630  -40.9669    5.3135 H   0  0  0  0  0
   15.8319  -47.4490    3.9626 H   0  0  0  0  0
   14.0757  -47.5501    3.3333 H   0  0  0  0  0
   14.6252  -49.2585    4.8996 H   0  0  0  0  0
   12.4975  -47.1431    5.4579 H   0  0  0  0  0
   11.2209  -48.9467    5.3040 H   0  0  0  0  0
   12.5887  -47.5085    7.8025 H   0  0  0  0  0
   12.3264  -49.6329    8.5417 H   0  0  0  0  0
   14.8251  -49.5240    7.7269 H   0  0  0  0  0
   14.5499  -45.6148    7.9181 H   0  0  0  0  0
   15.8367  -45.0832   12.5349 H   0  0  0  0  0
   16.3192  -46.1718   13.8400 H   0  0  0  0  0
   16.0679  -50.4146   12.0921 H   0  0  0  0  0
  1  2  1  0  0  0
  2  3  1  0  0  0
  2  6  1  0  0  0
  3  4  1  0  0  0
  4  5  1  0  0  0
  5  9  1  0  0  0
  6  7  1  0  0  0
  6  8  2  0  0  0
  9 10  1  0  0  0
 10 11  1  0  0  0
 10 12  1  0  0  0
 11 16  1  0  0  0
 12 13  1  0  0  0
 12 14  1  0  0  0
 14 15  1  0  0  0
 14 16  1  0  0  0
 16 17  1  0  0  0
 17 18  4  0  0  0
 17 26  4  0  0  0
 18 19  4  0  0  0
 19 20  4  0  0  0
 20 21  4  0  0  0
 20 26  4  0  0  0
 21 22  1  0  0  0
 21 23  4  0  0  0
 23 24  4  0  0  0
 24 25  4  0  0  0
 25 26  4  0  0  0
  1 27  1  0  0  0
  1 28  1  0  0  0
  1 29  1  0  0  0
  2 30  1  0  0  0
  3 31  1  0  0  0
  3 32  1  0  0  0
  4 33  1  0  0  0
  4 34  1  0  0  0
  7 35  1  0  0  0
  9 36  1  0  0  0
  9 37  1  0  0  0
 10 38  1  0  0  0
 12 39  1  0  0  0
 13 40  1  0  0  0
 14 41  1  0  0  0
 15 42  1  0  0  0
 16 43  1  0  0  0
 18 44  1  0  0  0
 22 45  1  0  0  0
 22 46  1  0  0  0
 24 47  1  0  0  0
M  END
$$$$
