### 
### Created by X-TOOL on Mon Sep 10 21:13:05 2018
### 

@<TRIPOS>MOLECULE
2xno_ligand
   68    71     1     0     0
SMALL
GAST_HUCK


@<TRIPOS>ATOM
      1 C01       -29.6660   14.8770   23.1530 C.3       1 ED8        -0.1256
      2 N02       -28.9900   14.3290   21.9920 N.4       1 ED8         0.4009
      3 C03       -27.5760   14.0280   22.2780 C.3       1 ED8        -0.1107
      4 C04       -26.8840   13.0770   21.2670 C.3       1 ED8        -0.0411
      5 C05       -27.6720   11.7770   21.0510 C.3       1 ED8         0.0763
      6 O06       -27.4060   10.9970   19.9060 O.3       1 ED8        -0.3205
      7 C07       -26.9720    9.6970   20.1970 C.ar      1 ED8         0.0796
      8 C08       -27.2840    9.0350   21.3890 C.ar      1 ED8        -0.0447
      9 C09       -26.8270    7.6450   21.5790 C.ar      1 ED8        -0.0664
     10 C10       -26.0620    6.9860   20.5440 C.ar      1 ED8         0.0244
     11 N11       -25.4980    5.7050   20.4430 N.2       1 ED8        -0.3130
     12 C12       -24.8570    5.5870   19.2070 C.2       1 ED8         0.1026
     13 N13       -25.0930    6.7790   18.5140 N.pl3     1 ED8        -0.2285
     14 C14       -24.5780    7.1940   17.3230 C.3       1 ED8         0.1130
     15 C15       -25.3410    8.3300   16.5190 C.3       1 ED8        -0.0254
     16 C16       -24.3950    8.6930   15.0690 C.3       1 ED8         0.0802
     17 O17       -24.8150    9.7110   14.1940 O.3       1 ED8        -0.3576
     18 C18       -25.9470   10.4640   14.5580 C.3       1 ED8         0.0971
     19 C19       -25.8150   11.5570   15.6160 C.ar      1 ED8         0.0168
     20 C20       -24.5300   12.1330   15.8220 C.ar      1 ED8        -0.0270
     21 C21       -24.3040   13.1660   16.8150 C.ar      1 ED8        -0.0405
     22 C22       -25.4690   13.6450   17.6440 C.ar      1 ED8        -0.0392
     23 C23       -26.7490   13.0900   17.4520 C.ar      1 ED8        -0.0379
     24 C24       -26.9840   12.0500   16.4500 C.ar      1 ED8         0.0512
     25 C25       -28.3870   11.5310   16.3280 C.3       1 ED8         0.3705
     26 F26       -28.4370   10.2970   16.8380 F         1 ED8        -0.2263
     27 F27       -29.2270   12.3020   17.0290 F         1 ED8        -0.2263
     28 F28       -28.8110   11.5190   15.0640 F         1 ED8        -0.2263
     29 C29       -23.1400    7.7910   15.0940 C.3       1 ED8         0.1202
     30 C30       -22.0710    7.6820   14.0350 C.2       1 ED8         0.1889
     31 N31       -22.2580    8.3390   12.7760 N.am      1 ED8        -0.2999
     32 O32       -21.2200    6.8110   14.1490 O.2       1 ED8        -0.3960
     33 S33       -23.1580    6.7740   16.5550 S.3       1 ED8        -0.0983
     34 C34       -25.7650    7.6550   19.3600 C.ar      1 ED8         0.0779
     35 C35       -26.2140    9.0270   19.1560 C.ar      1 ED8        -0.0121
     36 C36       -29.0920   11.8440   21.6410 C.3       1 ED8        -0.0411
     37 C37       -29.7350   13.2340   21.3730 C.3       1 ED8        -0.1107
     38 H         -30.6419   15.2610   22.8560 H         1 ED8        -0.0019
     39 H         -29.7943   14.0940   23.9003 H         1 ED8        -0.0019
     40 H         -29.0678   15.6862   23.5718 H         1 ED8        -0.0019
     41 H         -27.5529   13.5260   23.2452 H         1 ED8         0.0018
     42 H         -27.0396   14.9758   22.2328 H         1 ED8         0.0018
     43 H         -25.9046   12.8148   21.6672 H         1 ED8         0.0274
     44 H         -26.8176   13.5937   20.3096 H         1 ED8         0.0274
     45 H         -27.1860   11.0346   21.6841 H         1 ED8         0.0646
     46 H         -27.8571    9.5392   22.1671 H         1 ED8         0.0473
     47 H         -27.0663    7.1144   22.5005 H         1 ED8         0.0541
     48 H         -24.2835    4.7310   18.8513 H         1 ED8         0.1322
     49 H         -24.5337    6.2527   17.8708 H         1 ED8         0.0758
     50 H         -24.7054    9.2127   16.4483 H         1 ED8         0.0267
     51 H         -25.5765    7.9691   15.5178 H         1 ED8         0.0267
     52 H         -26.2633    8.5856   17.0407 H         1 ED8         0.0267
     53 H         -25.1496    7.9404   14.8405 H         1 ED8         0.0599
     54 H         -24.1999    9.2928   15.9580 H         1 ED8         0.0599
     55 H         -26.6333    9.7382   14.9943 H         1 ED8         0.0804
     56 H         -26.2316   10.9927   13.6483 H         1 ED8         0.0804
     57 H         -23.6919   11.7882   15.2164 H         1 ED8         0.0636
     58 H         -23.3096   13.5885   16.9594 H         1 ED8         0.0834
     59 H         -25.3201   14.4224   18.3934 H         1 ED8         0.0648
     60 H         -27.5810   13.4421   18.0618 H         1 ED8         0.0820
     61 H         -22.3873    8.1889   14.4135 H         1 ED8         0.0676
     62 H         -21.6816    8.0804   11.9752 H         1 ED8         0.1815
     63 H         -22.9675    9.0655   12.6803 H         1 ED8         0.1815
     64 H         -25.9817    9.5470   18.2266 H         1 ED8         0.0454
     65 H         -29.0335   11.6851   22.7178 H         1 ED8         0.0274
     66 H         -29.7053   11.0759   21.1699 H         1 ED8         0.0274
     67 H         -29.7388   13.3989   20.2955 H         1 ED8         0.0018
     68 H         -30.7374   13.2272   21.8010 H         1 ED8         0.0018
@<TRIPOS>BOND
     1    2    1 1  
     2    3    2 1  
     3    2   37 1  
     4    4    3 1  
     5    5    4 1  
     6    6    5 1  
     7    5   36 1  
     8    7    6 1  
     9    8    7 ar 
    10    7   35 ar 
    11    9    8 ar 
    12   10    9 ar 
    13   10   11 1  
    14   34   10 ar 
    15   12   11 2  
    16   13   12 1  
    17   14   13 1  
    18   13   34 1  
    19   14   15 1  
    20   33   14 1  
    21   16   17 1  
    22   29   16 1  
    23   17   18 1  
    24   18   19 1  
    25   19   20 ar 
    26   19   24 ar 
    27   20   21 ar 
    28   21   22 ar 
    29   23   22 ar 
    30   24   23 ar 
    31   24   25 1  
    32   25   26 1  
    33   25   27 1  
    34   25   28 1  
    35   29   30 1  
    36   29   33 1  
    37   30   31 am 
    38   30   32 2  
    39   34   35 ar 
    40   36   37 1  
    41    1   38 1  
    42    1   39 1  
    43    1   40 1  
    44    3   41 1  
    45    3   42 1  
    46    4   43 1  
    47    4   44 1  
    48    5   45 1  
    49    8   46 1  
    50    9   47 1  
    51   12   48 1  
    52   14   49 1  
    53   15   50 1  
    54   15   51 1  
    55   15   52 1  
    56   16   53 1  
    57   16   54 1  
    58   18   55 1  
    59   18   56 1  
    60   20   57 1  
    61   21   58 1  
    62   22   59 1  
    63   23   60 1  
    64   29   61 1  
    65   31   62 1  
    66   31   63 1  
    67   35   64 1  
    68   36   65 1  
    69   36   66 1  
    70   37   67 1  
    71   37   68 1  
@<TRIPOS>SUBSTRUCTURE
     1 ED8         1

