2xno_ligand
  -I-interpret- 

 69 72  0  0  0  0  0  0  0  0999 V2000
  -29.6660   14.8770   23.1530 C   0  0  0  0  0
  -28.9900   14.3290   21.9920 N   0  3  0  0  0
  -27.5760   14.0280   22.2780 C   0  0  0  0  0
  -26.8840   13.0770   21.2670 C   0  0  0  0  0
  -27.6720   11.7770   21.0510 C   0  0  0  0  0
  -27.4060   10.9970   19.9060 O   0  0  0  0  0
  -26.9720    9.6970   20.1970 C   0  0  0  0  0
  -27.2840    9.0350   21.3890 C   0  0  0  0  0
  -26.8270    7.6450   21.5790 C   0  0  0  0  0
  -26.0620    6.9860   20.5440 C   0  0  0  0  0
  -25.4980    5.7050   20.4430 N   0  0  0  0  0
  -24.8570    5.5870   19.2070 C   0  0  0  0  0
  -25.0930    6.7790   18.5140 N   0  0  0  0  0
  -24.5780    7.1940   17.3230 C   0  0  0  0  0
  -25.3410    8.3300   16.5190 C   0  0  0  0  0
  -24.3950    8.6930   15.0690 C   0  0  0  0  0
  -24.8150    9.7110   14.1940 O   0  0  0  0  0
  -25.9470   10.4640   14.5580 C   0  0  0  0  0
  -25.8150   11.5570   15.6160 C   0  0  0  0  0
  -24.5300   12.1330   15.8220 C   0  0  0  0  0
  -24.3040   13.1660   16.8150 C   0  0  0  0  0
  -25.4690   13.6450   17.6440 C   0  0  0  0  0
  -26.7490   13.0900   17.4520 C   0  0  0  0  0
  -26.9840   12.0500   16.4500 C   0  0  0  0  0
  -28.3870   11.5310   16.3280 C   0  0  0  0  0
  -28.4370   10.2970   16.8380 F   0  0  0  0  0
  -29.2270   12.3020   17.0290 F   0  0  0  0  0
  -28.8110   11.5190   15.0640 F   0  0  0  0  0
  -23.1400    7.7910   15.0940 C   0  0  0  0  0
  -22.0710    7.6820   14.0350 C   0  0  0  0  0
  -22.2580    8.3390   12.7760 N   0  0  0  0  0
  -21.2200    6.8110   14.1490 O   0  0  0  0  0
  -23.1580    6.7740   16.5550 S   0  0  0  0  0
  -25.7650    7.6550   19.3600 C   0  0  0  0  0
  -26.2140    9.0270   19.1560 C   0  0  0  0  0
  -29.0920   11.8440   21.6410 C   0  0  0  0  0
  -29.7350   13.2340   21.3730 C   0  0  0  0  0
  -30.6419   15.2610   22.8560 H   0  0  0  0  0
  -29.7943   14.0940   23.9003 H   0  0  0  0  0
  -29.0678   15.6862   23.5718 H   0  0  0  0  0
  -28.9698   15.0531   21.2739 H   0  0  0  0  0
  -27.5529   13.5260   23.2452 H   0  0  0  0  0
  -27.0396   14.9758   22.2328 H   0  0  0  0  0
  -25.9046   12.8148   21.6672 H   0  0  0  0  0
  -26.8176   13.5937   20.3096 H   0  0  0  0  0
  -27.1860   11.0346   21.6841 H   0  0  0  0  0
  -27.8571    9.5392   22.1671 H   0  0  0  0  0
  -27.0663    7.1144   22.5005 H   0  0  0  0  0
  -24.2835    4.7310   18.8513 H   0  0  0  0  0
  -24.5337    6.2527   17.8708 H   0  0  0  0  0
  -24.7054    9.2127   16.4483 H   0  0  0  0  0
  -25.5765    7.9691   15.5178 H   0  0  0  0  0
  -26.2633    8.5856   17.0407 H   0  0  0  0  0
  -25.1496    7.9404   14.8405 H   0  0  0  0  0
  -24.1999    9.2928   15.9580 H   0  0  0  0  0
  -26.6333    9.7382   14.9943 H   0  0  0  0  0
  -26.2316   10.9927   13.6483 H   0  0  0  0  0
  -23.6919   11.7882   15.2164 H   0  0  0  0  0
  -23.3096   13.5885   16.9594 H   0  0  0  0  0
  -25.3201   14.4224   18.3934 H   0  0  0  0  0
  -27.5810   13.4421   18.0618 H   0  0  0  0  0
  -22.3873    8.1889   14.4135 H   0  0  0  0  0
  -21.6816    8.0804   11.9752 H   0  0  0  0  0
  -22.9675    9.0655   12.6803 H   0  0  0  0  0
  -25.9817    9.5470   18.2266 H   0  0  0  0  0
  -29.0335   11.6851   22.7178 H   0  0  0  0  0
  -29.7053   11.0759   21.1699 H   0  0  0  0  0
  -29.7388   13.3989   20.2955 H   0  0  0  0  0
  -30.7374   13.2272   21.8010 H   0  0  0  0  0
  2  1  1  0  0  0
  3  2  1  0  0  0
  2 37  1  0  0  0
  4  3  1  0  0  0
  5  4  1  0  0  0
  6  5  1  0  0  0
  5 36  1  0  0  0
  7  6  1  0  0  0
  8  7  4  0  0  0
  7 35  4  0  0  0
  9  8  4  0  0  0
 10  9  4  0  0  0
 10 11  4  0  0  0
 34 10  4  0  0  0
 12 11  4  0  0  0
 13 12  4  0  0  0
 14 13  1  0  0  0
 13 34  4  0  0  0
 14 15  1  0  0  0
 33 14  1  0  0  0
 16 17  1  0  0  0
 29 16  1  0  0  0
 17 18  1  0  0  0
 18 19  1  0  0  0
 19 20  4  0  0  0
 19 24  4  0  0  0
 20 21  4  0  0  0
 21 22  4  0  0  0
 23 22  4  0  0  0
 24 23  4  0  0  0
 24 25  1  0  0  0
 25 26  1  0  0  0
 25 27  1  0  0  0
 25 28  1  0  0  0
 29 30  1  0  0  0
 29 33  1  0  0  0
 30 31  1  0  0  0
 30 32  2  0  0  0
 34 35  4  0  0  0
 36 37  1  0  0  0
  1 38  1  0  0  0
  1 39  1  0  0  0
  1 40  1  0  0  0
  2 41  1  0  0  0
  3 42  1  0  0  0
  3 43  1  0  0  0
  4 44  1  0  0  0
  4 45  1  0  0  0
  5 46  1  0  0  0
  8 47  1  0  0  0
  9 48  1  0  0  0
 12 49  1  0  0  0
 14 50  1  0  0  0
 15 51  1  0  0  0
 15 52  1  0  0  0
 15 53  1  0  0  0
 16 54  1  0  0  0
 16 55  1  0  0  0
 18 56  1  0  0  0
 18 57  1  0  0  0
 20 58  1  0  0  0
 21 59  1  0  0  0
 22 60  1  0  0  0
 23 61  1  0  0  0
 29 62  1  0  0  0
 31 63  1  0  0  0
 31 64  1  0  0  0
 35 65  1  0  0  0
 36 66  1  0  0  0
 36 67  1  0  0  0
 37 68  1  0  0  0
 37 69  1  0  0  0
M  END
$$$$
