5xmp_ligand
  -I-interpret- 

 66 69  0  0  0  0  0  0  0  0999 V2000
  141.2070    6.2680  326.2720 F   0  0  0  0  0
  141.3190    7.1940  327.2200 C   0  0  0  0  0
  142.0410    6.7010  328.2190 F   0  0  0  0  0
  141.9600    8.2530  326.7340 F   0  0  0  0  0
  139.9200    7.5880  327.7390 C   0  0  0  0  0
  138.9950    7.8720  326.5970 N   0  0  0  0  0
  138.0610    6.7460  326.3010 C   0  0  0  0  0
  138.2530    9.3380  326.6200 S   0  0  0  0  0
  137.8690    9.5260  325.2420 O   0  0  0  0  0
  139.2000   10.3450  327.0400 O   0  0  0  0  0
  136.9930    9.4300  327.6050 C   0  0  0  0  0
  137.2650    9.4860  328.9660 C   0  0  0  0  0
  136.2380    9.5500  329.8860 C   0  0  0  0  0
  135.6610    9.4520  327.1640 C   0  0  0  0  0
  134.6210    9.4990  328.1000 C   0  0  0  0  0
  134.9050    9.5630  329.4670 C   0  0  0  0  0
  133.8440    9.5910  330.5110 C   0  0  0  0  0
  134.0740    8.7880  331.6230 C   0  0  0  0  0
  133.1880    8.7200  332.6740 C   0  0  0  0  0
  133.5670    7.8100  333.8250 C   0  0  0  0  0
  134.8290    8.0230  334.2110 F   0  0  0  0  0
  133.4730    6.5650  333.3470 F   0  0  0  0  0
  132.7930    8.0150  334.8810 F   0  0  0  0  0
  131.9970    9.4520  332.5980 C   0  0  0  0  0
  132.6640   10.3320  330.4300 C   0  0  0  0  0
  131.6960   10.2880  331.4790 C   0  0  0  0  0
  130.3750   11.1020  331.4410 C   0  0  0  0  0
  129.1680   10.2960  331.9810 C   0  0  0  0  0
  127.8010   10.9990  331.8520 C   0  0  0  0  0
  129.0810    8.8770  331.4080 C   0  0  0  0  0
  130.5740   12.3410  332.3530 C   0  0  0  0  0
  131.0380   12.1520  333.5220 C   0  0  0  0  0
  131.4630   11.9610  334.6030 N   0  0  0  0  0
  130.2480   13.6010  331.9440 C   0  0  0  0  0
  130.3980   14.6880  332.7110 N   0  0  0  0  0
  130.0270   11.5260  330.0260 C   0  0  0  0  0
  129.8990   10.8550  328.6800 C   0  0  0  0  0
  130.1030    9.4090  328.2840 C   0  0  0  0  0
  129.5660   11.8240  327.7890 N   0  0  0  0  0
  129.4500   13.1020  328.3510 N   0  0  0  0  0
  129.7080   12.9090  329.6550 C   0  0  0  0  0
  129.7030   13.8780  330.6170 O   0  0  0  0  0
  140.0104    8.4850  328.3517 H   0  0  0  0  0
  139.5152    6.7625  328.3245 H   0  0  0  0  0
  137.2833    6.7106  327.0639 H   0  0  0  0  0
  137.6055    6.9010  325.3229 H   0  0  0  0  0
  138.6145    5.8070  326.3008 H   0  0  0  0  0
  138.2990    9.4793  329.3107 H   0  0  0  0  0
  136.4692    9.5908  330.9504 H   0  0  0  0  0
  135.4371    9.4326  326.0974 H   0  0  0  0  0
  133.5851    9.4856  327.7611 H   0  0  0  0  0
  134.9862    8.1928  331.6635 H   0  0  0  0  0
  131.2792    9.3822  333.4153 H   0  0  0  0  0
  132.4787   10.9531  329.5536 H   0  0  0  0  0
  129.3843   10.2293  333.0472 H   0  0  0  0  0
  127.8226   11.9372  332.4064 H   0  0  0  0  0
  127.5957   11.2013  330.8008 H   0  0  0  0  0
  127.0222   10.3535  332.2579 H   0  0  0  0  0
  128.9825    8.9298  330.3237 H   0  0  0  0  0
  129.9858    8.3264  331.6656 H   0  0  0  0  0
  128.2130    8.3693  331.8286 H   0  0  0  0  0
  130.7736   14.5982  333.6551 H   0  0  0  0  0
  130.1367   15.6060  332.3513 H   0  0  0  0  0
  131.1268    9.1123  328.5116 H   0  0  0  0  0
  129.4087    8.7797  328.8408 H   0  0  0  0  0
  129.9199    9.2970  327.2153 H   0  0  0  0  0
  1  2  1  0  0  0
  2  3  1  0  0  0
  2  4  1  0  0  0
  2  5  1  0  0  0
  5  6  1  0  0  0
  6  7  1  0  0  0
  6  8  1  0  0  0
  8  9  2  0  0  0
  8 10  2  0  0  0
  8 11  1  0  0  0
 11 12  4  0  0  0
 11 14  4  0  0  0
 12 13  4  0  0  0
 13 16  4  0  0  0
 14 15  4  0  0  0
 15 16  4  0  0  0
 16 17  1  0  0  0
 17 18  4  0  0  0
 17 25  4  0  0  0
 18 19  4  0  0  0
 19 20  1  0  0  0
 19 24  4  0  0  0
 20 21  1  0  0  0
 20 22  1  0  0  0
 20 23  1  0  0  0
 24 26  4  0  0  0
 25 26  4  0  0  0
 26 27  1  0  0  0
 27 28  1  0  0  0
 27 31  1  0  0  0
 27 36  1  0  0  0
 28 29  1  0  0  0
 28 30  1  0  0  0
 31 32  1  0  0  0
 31 34  2  0  0  0
 32 33  3  0  0  0
 34 35  1  0  0  0
 34 42  1  0  0  0
 36 37  4  0  0  0
 36 41  4  0  0  0
 37 38  1  0  0  0
 37 39  4  0  0  0
 39 40  4  0  0  0
 40 41  4  0  0  0
 41 42  1  0  0  0
  5 43  1  0  0  0
  5 44  1  0  0  0
  7 45  1  0  0  0
  7 46  1  0  0  0
  7 47  1  0  0  0
 12 48  1  0  0  0
 13 49  1  0  0  0
 14 50  1  0  0  0
 15 51  1  0  0  0
 18 52  1  0  0  0
 24 53  1  0  0  0
 25 54  1  0  0  0
 28 55  1  0  0  0
 29 56  1  0  0  0
 29 57  1  0  0  0
 29 58  1  0  0  0
 30 59  1  0  0  0
 30 60  1  0  0  0
 30 61  1  0  0  0
 35 62  1  0  0  0
 35 63  1  0  0  0
 38 64  1  0  0  0
 38 65  1  0  0  0
 38 66  1  0  0  0
M  END
$$$$
