1ke8_ligand
  -I-interpret- 

 41 44  0  0  0  0  0  0  0  0999 V2000
  -10.8190   52.1550   11.8230 O   0  0  0  0  0
  -10.0070   51.9120   12.7190 C   0  0  0  0  0
   -9.5010   52.7810   13.6290 N   0  0  0  0  0
   -8.6060   52.1330   14.4470 C   0  0  0  0  0
   -7.8120   52.6600   15.5750 C   0  0  0  0  0
   -6.9680   51.7230   16.3700 C   0  0  0  0  0
   -6.9040   50.2770   16.0150 C   0  0  0  0  0
   -7.6760   49.7610   14.8490 C   0  0  0  0  0
   -8.5240   50.7210   14.0790 C   0  0  0  0  0
   -9.3810   50.5430   12.9320 C   0  0  0  0  0
   -9.5920   49.4490   12.1800 C   0  0  0  0  0
  -10.3110   49.4570   10.8820 N   0  0  0  0  0
  -10.2960   48.4740    9.9550 C   0  0  0  0  0
   -9.1870   47.4670    9.7740 C   0  0  0  0  0
   -9.2960   46.4410    8.7540 C   0  0  0  0  0
  -10.4760   46.4250    7.8570 C   0  0  0  0  0
  -11.5790   47.3970    8.0280 C   0  0  0  0  0
  -11.4850   48.4260    9.0790 C   0  0  0  0  0
  -10.5600   45.1590    6.6180 S   0  0  0  0  0
  -11.6480   45.3940    5.7120 O   0  0  0  0  0
   -9.2440   45.0910    6.0680 O   0  0  0  0  0
  -10.8840   43.7170    7.4040 N   0  0  0  0  0
  -12.1880   43.4200    8.0910 C   0  0  0  0  0
  -12.3050   42.4420    9.4760 S   0  0  0  0  0
  -13.9770   42.6840    9.6300 C   0  0  0  0  0
  -14.4510   43.4440    8.5470 C   0  0  0  0  0
  -13.4300   43.8560    7.7220 N   0  0  0  0  0
   -9.7477   53.7684   13.6965 H   0  0  0  0  0
   -7.8426   53.7209   15.8233 H   0  0  0  0  0
   -6.3936   52.0982   17.2170 H   0  0  0  0  0
   -6.2927   49.5968   16.6080 H   0  0  0  0  0
   -7.6234   48.7099   14.5651 H   0  0  0  0  0
   -9.2109   48.4959   12.5468 H   0  0  0  0  0
  -10.8699   50.2833   10.6692 H   0  0  0  0  0
   -8.3030   47.5104   10.4102 H   0  0  0  0  0
   -8.5157   45.6873    8.6480 H   0  0  0  0  0
  -12.4550   47.3521    7.3809 H   0  0  0  0  0
  -12.2900   49.1492    9.2096 H   0  0  0  0  0
  -10.1575   43.0011    7.4176 H   0  0  0  0  0
  -14.5919   42.3064   10.4470 H   0  0  0  0  0
  -15.5023   43.6790    8.3805 H   0  0  0  0  0
  1  2  2  0  0  0
  2 10  1  0  0  0
  2  3  1  0  0  0
  3  4  1  0  0  0
  4  9  4  0  0  0
  4  5  4  0  0  0
  5  6  4  0  0  0
  6  7  4  0  0  0
  7  8  4  0  0  0
  8  9  4  0  0  0
  9 10  1  0  0  0
 10 11  2  0  0  0
 11 12  1  0  0  0
 12 13  1  0  0  0
 13 18  4  0  0  0
 13 14  4  0  0  0
 14 15  4  0  0  0
 15 16  4  0  0  0
 16 19  1  0  0  0
 16 17  4  0  0  0
 17 18  4  0  0  0
 19 22  1  0  0  0
 19 21  2  0  0  0
 19 20  2  0  0  0
 22 23  1  0  0  0
 23 27  4  0  0  0
 23 24  4  0  0  0
 24 25  4  0  0  0
 25 26  4  0  0  0
 26 27  4  0  0  0
  3 28  1  0  0  0
  5 29  1  0  0  0
  6 30  1  0  0  0
  7 31  1  0  0  0
  8 32  1  0  0  0
 11 33  1  0  0  0
 12 34  1  0  0  0
 14 35  1  0  0  0
 15 36  1  0  0  0
 17 37  1  0  0  0
 18 38  1  0  0  0
 22 39  1  0  0  0
 25 40  1  0  0  0
 26 41  1  0  0  0
M  END
$$$$
