6h4a_ligand
  -I-interpret- 

 52 55  0  0  0  0  0  0  0  0999 V2000
  -24.9310  -17.4070   20.2030 C   0  0  0  0  0
  -28.2680  -16.0390   20.2810 C   0  0  0  0  0
  -26.2010  -13.1020   18.0760 C   0  0  0  0  0
  -26.6270  -10.9340   16.9360 C   0  0  0  0  0
  -27.2580   -9.7150   17.1680 C   0  0  0  0  0
  -26.5520   -8.9270   15.0280 C   0  0  0  0  0
  -25.8570  -10.1170   14.7330 C   0  0  0  0  0
  -25.8980  -11.1280   15.7260 C   0  0  0  0  0
  -27.2940   -6.7060   12.5240 C   0  0  0  0  0
  -26.6300   -5.8210   13.4870 C   0  0  0  0  0
  -28.3500  -14.3780   21.9900 C   0  0  0  0  0
  -29.0200  -16.6730   19.0690 C   0  0  0  0  0
  -26.2120  -17.1930   20.3200 N   0  0  0  0  0
  -26.7820  -18.3770   20.5630 N   0  0  0  0  0
  -25.9000  -19.2660   20.6360 C   0  0  0  0  0
  -24.5920  -18.6790   20.3950 C   0  0  0  0  0
  -26.2240  -20.9230   20.9530 Cl  0  0  0  0  0
  -24.0490  -16.3370   19.8410 N   0  0  0  0  0
  -24.5220  -15.2360   19.4410 C   0  0  0  0  0
  -26.0070  -15.0480   19.4990 C   0  0  0  0  0
  -26.7570  -16.0410   20.0550 C   0  0  0  0  0
  -26.5070  -13.8380   19.1520 N   0  0  0  0  0
  -28.7740  -14.7340   20.6580 O   0  0  0  0  0
  -26.7880  -11.8820   17.9910 N   0  0  0  0  0
  -25.4330  -13.5230   17.2140 O   0  0  0  0  0
  -27.2020   -8.7800   16.2140 N   0  0  0  0  0
  -24.9210  -10.3420   13.2270 Cl  0  0  0  0  0
  -26.6540   -7.8470   14.2160 N   0  0  0  0  0
  -27.3130   -7.8660   13.0470 N   0  0  0  0  0
  -26.2930   -6.5650   14.4590 N   0  0  0  0  0
  -30.5360  -16.8830   19.3210 C   0  0  0  0  0
  -28.7300  -15.8970   17.8930 O   0  0  0  0  0
  -28.8750  -16.6760   16.6940 C   0  0  0  0  0
  -28.4727  -16.6768   21.1409 H   0  0  0  0  0
  -27.7845   -9.5275   18.1038 H   0  0  0  0  0
  -25.3657  -12.0651   15.5625 H   0  0  0  0  0
  -27.6936   -6.4247   11.5497 H   0  0  0  0  0
  -26.4612   -4.7487   13.3887 H   0  0  0  0  0
  -28.7251  -15.1163   22.6988 H   0  0  0  0  0
  -27.2609  -14.3552   22.0293 H   0  0  0  0  0
  -28.7447  -13.3945   22.2449 H   0  0  0  0  0
  -28.6518  -17.6876   18.9170 H   0  0  0  0  0
  -23.6089  -19.1494   20.3767 H   0  0  0  0  0
  -23.8699  -14.4475   19.0654 H   0  0  0  0  0
  -27.1995  -13.4397   19.7862 H   0  0  0  0  0
  -27.4061  -11.6155   18.7574 H   0  0  0  0  0
  -31.0202  -15.9142   19.4438 H   0  0  0  0  0
  -30.9754  -17.4051   18.4710 H   0  0  0  0  0
  -30.6740  -17.4767   20.2246 H   0  0  0  0  0
  -28.1879  -17.5215   16.7263 H   0  0  0  0  0
  -29.8994  -17.0412   16.6212 H   0  0  0  0  0
  -28.6473  -16.0540   15.8284 H   0  0  0  0  0
 13  1  4  0  0  0
  1 16  4  0  0  0
 18  1  4  0  0  0
  2 12  1  0  0  0
 21  2  1  0  0  0
  2 23  1  0  0  0
  3 22  1  0  0  0
 24  3  1  0  0  0
  3 25  2  0  0  0
  5  4  4  0  0  0
  8  4  4  0  0  0
  4 24  1  0  0  0
 26  5  4  0  0  0
  6  7  4  0  0  0
  6 26  4  0  0  0
 28  6  1  0  0  0
  7  8  4  0  0  0
  7 27  1  0  0  0
  9 10  4  0  0  0
 29  9  4  0  0  0
 10 30  4  0  0  0
 23 11  1  0  0  0
 12 31  1  0  0  0
 12 32  1  0  0  0
 13 14  4  0  0  0
 21 13  4  0  0  0
 14 15  4  0  0  0
 15 16  4  0  0  0
 15 17  1  0  0  0
 19 18  4  0  0  0
 20 19  4  0  0  0
 20 21  4  0  0  0
 22 20  1  0  0  0
 28 29  4  0  0  0
 28 30  4  0  0  0
 32 33  1  0  0  0
  2 34  1  0  0  0
  5 35  1  0  0  0
  8 36  1  0  0  0
  9 37  1  0  0  0
 10 38  1  0  0  0
 11 39  1  0  0  0
 11 40  1  0  0  0
 11 41  1  0  0  0
 12 42  1  0  0  0
 16 43  1  0  0  0
 19 44  1  0  0  0
 22 45  1  0  0  0
 24 46  1  0  0  0
 31 47  1  0  0  0
 31 48  1  0  0  0
 31 49  1  0  0  0
 33 50  1  0  0  0
 33 51  1  0  0  0
 33 52  1  0  0  0
M  END
$$$$
