4unn_ligand
  -I-interpret- 

 42 44  0  0  0  0  0  0  0  0999 V2000
    4.2130   21.3100   -8.2960 C   0  0  0  0  0
    2.3610   13.7160   -7.9140 C   0  0  0  0  0
    2.6110   15.0500   -8.2240 C   0  0  0  0  0
    7.8010   19.1770   -7.8690 C   0  0  0  0  0
    6.7430   20.9110   -6.6050 C   0  0  0  0  0
    9.0500   19.6910   -7.5670 C   0  0  0  0  0
    8.0130   21.4330   -6.3000 C   0  0  0  0  0
    3.2500   12.9900   -7.1520 C   0  0  0  0  0
    4.6700   14.9200   -7.0070 C   0  0  0  0  0
    6.6260   19.7680   -7.4020 C   0  0  0  0  0
    3.7750   15.6620   -7.7830 C   0  0  0  0  0
    9.1750   20.8190   -6.7840 C   0  0  0  0  0
    4.4100   13.5930   -6.7100 C   0  0  0  0  0
    5.1700   17.7380   -7.6330 C   0  0  0  0  0
    4.2000   19.8970   -8.1990 C   0  0  0  0  0
    5.3000   19.1450   -7.7290 C   0  0  0  0  0
    4.0160   17.1000   -7.9900 C   0  0  0  0  0
    2.9580   19.2610   -8.5600 C   0  0  0  0  0
   10.5440   21.3370   -6.4610 C   0  0  0  0  0
    6.2960   13.5160   -5.1630 C   0  0  0  0  0
    4.1510   22.4500   -8.3130 N   0  0  0  0  0
    2.9430   17.8840   -8.4290 N   0  0  0  0  0
    1.9540   19.8390   -8.9750 O   0  0  0  0  0
   10.8370   22.5150   -6.3930 O   0  0  0  0  0
   11.4250   20.4030   -6.2590 O   0  0  0  0  0
    5.3010   12.8610   -5.9440 O   0  0  0  0  0
    1.4507   13.2401   -8.2787 H   0  0  0  0  0
    1.8901   15.6150   -8.8149 H   0  0  0  0  0
    7.7329   18.2839   -8.4902 H   0  0  0  0  0
    5.8478   21.3987   -6.2191 H   0  0  0  0  0
    9.9435   19.1994   -7.9518 H   0  0  0  0  0
    8.0938   22.3257   -5.6798 H   0  0  0  0  0
    3.0394   11.9504   -6.9009 H   0  0  0  0  0
    5.5796   15.3898   -6.6328 H   0  0  0  0  0
    6.0110   17.1500   -7.2654 H   0  0  0  0  0
    5.2207   19.5644   -8.3878 H   0  0  0  0  0
    4.7175   16.6840   -8.7131 H   0  0  0  0  0
    6.9405   14.1037   -5.8167 H   0  0  0  0  0
    5.8137   14.1733   -4.4395 H   0  0  0  0  0
    6.8925   12.7704   -4.6373 H   0  0  0  0  0
    2.0787   17.4002   -8.6724 H   0  0  0  0  0
   11.0071   19.5442   -6.3555 H   0  0  0  0  0
 15  1  1  0  0  0
  1 21  3  0  0  0
  3  2  4  0  0  0
  2  8  4  0  0  0
 11  3  4  0  0  0
  4  6  4  0  0  0
 10  4  4  0  0  0
  5  7  4  0  0  0
 10  5  4  0  0  0
  6 12  4  0  0  0
  7 12  4  0  0  0
 13  8  4  0  0  0
 11  9  4  0  0  0
  9 13  4  0  0  0
 16 10  1  0  0  0
 17 11  1  0  0  0
 12 19  1  0  0  0
 13 26  1  0  0  0
 16 14  2  0  0  0
 14 17  1  0  0  0
 15 16  1  0  0  0
 15 18  1  0  0  0
 17 22  1  0  0  0
 18 22  1  0  0  0
 18 23  2  0  0  0
 19 24  2  0  0  0
 19 25  1  0  0  0
 26 20  1  0  0  0
  2 27  1  0  0  0
  3 28  1  0  0  0
  4 29  1  0  0  0
  5 30  1  0  0  0
  6 31  1  0  0  0
  7 32  1  0  0  0
  8 33  1  0  0  0
  9 34  1  0  0  0
 14 35  1  0  0  0
 15 36  1  0  0  0
 17 37  1  0  0  0
 20 38  1  0  0  0
 20 39  1  0  0  0
 20 40  1  0  0  0
 22 41  1  0  0  0
 25 42  1  0  0  0
M  END
$$$$
