3mbl_ligand
  -I-interpret- 

 42 43  0  0  0  0  0  0  0  0999 V2000
   35.9590   28.1310   43.4100 C   0  0  0  0  0
   36.8190   27.3050   42.6850 C   0  0  0  0  0
   36.3010   26.4990   41.6310 C   0  0  0  0  0
   34.9600   26.5160   41.2970 C   0  0  0  0  0
   34.0630   27.3150   41.9990 C   0  0  0  0  0
   34.6000   28.1440   43.0990 C   0  0  0  0  0
   33.7140   28.8930   43.7720 F   0  0  0  0  0
   38.8950   27.2220   43.1730 I   0  0  0  0  0
   32.7170   27.3530   41.7890 N   0  0  0  0  0
   32.0440   26.6710   40.8290 C   0  0  0  0  0
   32.1490   25.3610   40.5930 N   0  0  0  0  0
   31.3390   25.1350   39.5260 C   0  0  0  0  0
   30.6900   26.3240   39.0710 C   0  0  0  0  0
   31.0990   27.3460   39.8960 C   0  0  0  0  0
   30.8190   28.7990   40.0490 C   0  0  0  0  0
   31.2800   29.3920   41.0480 O   0  0  0  0  0
   30.0550   29.4550   39.1800 N   0  0  0  0  0
   29.6830   30.8670   39.4560 O   0  0  0  0  0
   28.5140   31.5320   38.9290 C   0  0  0  0  0
   28.1550   32.7440   39.7870 C   0  0  0  0  0
   27.1380   33.5050   39.1040 O   0  0  0  0  0
   33.0240   24.4060   41.3140 C   0  0  0  0  0
   31.1730   23.8080   38.8880 C   0  0  0  0  0
   31.8090   22.7950   39.2000 O   0  0  0  0  0
   30.1550   23.8370   37.7960 C   0  0  0  0  0
   36.3460   28.7599   44.2117 H   0  0  0  0  0
   36.9792   25.8526   41.0739 H   0  0  0  0  0
   34.6013   25.8968   40.4748 H   0  0  0  0  0
   32.1667   27.9473   42.4090 H   0  0  0  0  0
   30.0016   26.4057   38.2299 H   0  0  0  0  0
   29.7274   28.9930   38.3317 H   0  0  0  0  0
   27.6769   30.8339   38.9346 H   0  0  0  0  0
   28.7251   31.8672   37.9135 H   0  0  0  0  0
   29.0386   33.3624   39.9447 H   0  0  0  0  0
   27.7839   32.4152   40.7577 H   0  0  0  0  0
   26.9031   34.2706   39.6334 H   0  0  0  0  0
   34.0640   24.7128   41.2027 H   0  0  0  0  0
   32.7574   24.3977   42.3709 H   0  0  0  0  0
   32.8917   23.4078   40.8967 H   0  0  0  0  0
   30.6279   23.5636   36.8528 H   0  0  0  0  0
   29.3593   23.1278   38.0239 H   0  0  0  0  0
   29.7373   24.8407   37.7170 H   0  0  0  0  0
  1  2  4  0  0  0
  1  6  4  0  0  0
  2  3  4  0  0  0
  2  8  1  0  0  0
  3  4  4  0  0  0
  4  5  4  0  0  0
  5  6  4  0  0  0
  5  9  1  0  0  0
  6  7  1  0  0  0
  9 10  1  0  0  0
 10 11  4  0  0  0
 10 14  4  0  0  0
 11 12  4  0  0  0
 11 22  1  0  0  0
 12 13  4  0  0  0
 12 23  1  0  0  0
 13 14  4  0  0  0
 14 15  1  0  0  0
 15 16  2  0  0  0
 15 17  1  0  0  0
 17 18  1  0  0  0
 18 19  1  0  0  0
 19 20  1  0  0  0
 20 21  1  0  0  0
 23 24  2  0  0  0
 23 25  1  0  0  0
  1 26  1  0  0  0
  3 27  1  0  0  0
  4 28  1  0  0  0
  9 29  1  0  0  0
 13 30  1  0  0  0
 17 31  1  0  0  0
 19 32  1  0  0  0
 19 33  1  0  0  0
 20 34  1  0  0  0
 20 35  1  0  0  0
 21 36  1  0  0  0
 22 37  1  0  0  0
 22 38  1  0  0  0
 22 39  1  0  0  0
 25 40  1  0  0  0
 25 41  1  0  0  0
 25 42  1  0  0  0
M  END
$$$$
