5u0d_ligand
  -I-interpret- 

 28 29  0  0  0  0  0  0  0  0999 V2000
   -2.6540    4.0060   14.4250 C   0  0  0  0  0
   -2.6830    5.2690   13.8510 C   0  0  0  0  0
   -5.0440    5.3110   14.1400 C   0  0  0  0  0
   -3.7980    3.3730   14.8660 C   0  0  0  0  0
   -3.8880    5.9210   13.7040 C   0  0  0  0  0
   -4.9870    4.0560   14.7200 C   0  0  0  0  0
   -4.5320    0.9130   14.8070 C   0  0  0  0  0
   -5.3140    1.0850   16.7580 C   0  0  0  0  0
   -3.7280    1.9890   15.4900 C   0  0  0  0  0
   -2.9240    7.7430   12.5190 C   0  0  0  0  0
   -6.8210    4.0710   16.2010 C   0  0  0  0  0
   -5.4350    0.3980   15.6640 N   0  0  0  0  0
   -4.3490    0.5960   13.6300 O   0  0  0  0  0
   -4.2800    1.9500   16.7970 O   0  0  0  0  0
   -4.0960    7.1940   13.1420 O   0  0  0  0  0
   -6.1240    3.4310   15.1300 O   0  0  0  0  0
   -6.1960    0.9910   18.1360 S   0  0  0  0  0
   -1.6959    3.4972   14.5310 H   0  0  0  0  0
   -1.7590    5.7421   13.5187 H   0  0  0  0  0
   -6.0030    5.8168   14.0281 H   0  0  0  0  0
   -2.6560    1.8018   15.4269 H   0  0  0  0  0
   -2.1308    7.8383   13.2605 H   0  0  0  0  0
   -2.5963    7.0810   11.7175 H   0  0  0  0  0
   -3.1587    8.7249   12.1079 H   0  0  0  0  0
   -6.1690    4.1312   17.0724 H   0  0  0  0  0
   -7.1129    5.0753   15.8940 H   0  0  0  0  0
   -7.7107    3.4929   16.4505 H   0  0  0  0  0
   -6.0802   -0.3724   15.4890 H   0  0  0  0  0
  1  2  4  0  0  0
  1  4  4  0  0  0
  2  5  4  0  0  0
  5  3  4  0  0  0
  3  6  4  0  0  0
  4  6  4  0  0  0
  4  9  1  0  0  0
  5 15  1  0  0  0
  6 16  1  0  0  0
  9  7  1  0  0  0
  7 12  1  0  0  0
  7 13  2  0  0  0
 12  8  1  0  0  0
  8 14  1  0  0  0
  8 17  2  0  0  0
  9 14  1  0  0  0
 15 10  1  0  0  0
 16 11  1  0  0  0
  1 18  1  0  0  0
  2 19  1  0  0  0
  3 20  1  0  0  0
  9 21  1  0  0  0
 10 22  1  0  0  0
 10 23  1  0  0  0
 10 24  1  0  0  0
 11 25  1  0  0  0
 11 26  1  0  0  0
 11 27  1  0  0  0
 12 28  1  0  0  0
M  END
$$$$
