5ukj_ligand
  -I-interpret- 

 54 58  0  0  0  0  0  0  0  0999 V2000
    2.7880  -12.5760  -19.1690 C   0  0  0  0  0
    3.3630  -12.8320  -17.7880 C   0  0  0  0  0
    1.8570  -11.1550  -15.0760 C   0  0  0  0  0
   -0.0730   -3.7590  -15.8280 O   0  0  0  0  0
   -2.4890   -3.6240  -14.3010 C   0  0  0  0  0
   -1.7540   -5.4910  -12.8600 C   0  0  0  0  0
    2.2450  -10.6610  -17.1870 C   0  0  0  0  0
    2.3620  -10.1300  -18.5790 C   0  0  0  0  0
    2.9670  -10.7550  -20.8890 C   0  0  0  0  0
    2.0540   -9.8750  -21.4770 C   0  0  0  0  0
    2.1220   -9.6450  -22.8410 C   0  0  0  0  0
    3.9150  -11.0460  -23.0720 C   0  0  0  0  0
    5.6280  -12.4260  -22.7120 C   0  0  0  0  0
    5.0700  -12.2240  -21.4910 C   0  0  0  0  0
    3.9550  -11.3440  -21.6950 C   0  0  0  0  0
   -0.0080   -4.5450  -14.6330 S   0  0  0  0  0
    0.7800   -4.0900  -13.5310 O   0  0  0  0  0
   -1.5350   -4.7200  -14.0910 N   0  0  0  0  0
    0.5660   -6.1480  -15.0780 C   0  0  0  0  0
    1.1550   -6.9500  -14.1140 C   0  0  0  0  0
    1.4900   -8.2530  -14.4260 C   0  0  0  0  0
    0.3460   -6.6300  -16.3620 C   0  0  0  0  0
    0.7050   -7.9320  -16.6690 C   0  0  0  0  0
    1.2810   -8.7600  -15.7050 C   0  0  0  0  0
    1.7150  -10.1390  -16.0300 C   0  0  0  0  0
    2.4590  -12.2190  -15.5620 N   0  0  0  0  0
    2.6980  -11.9090  -16.8710 N   0  0  0  0  0
    2.8460  -11.1410  -19.5210 N   0  0  0  0  0
    1.3830  -13.1540  -19.3100 C   0  0  0  0  0
    4.9410  -11.7220  -23.6690 N   0  0  0  0  0
    3.0220  -10.2200  -23.6550 N   0  0  0  0  0
    3.4135  -13.1023  -19.8900 H   0  0  0  0  0
    4.4410  -12.6710  -17.7830 H   0  0  0  0  0
    3.1940  -13.8654  -17.4852 H   0  0  0  0  0
    1.5079  -11.0731  -14.0467 H   0  0  0  0  0
   -2.1216   -2.7246  -13.8069 H   0  0  0  0  0
   -2.5947   -3.4357  -15.3694 H   0  0  0  0  0
   -3.4564   -3.9008  -13.8821 H   0  0  0  0  0
   -1.3876   -6.5080  -12.9998 H   0  0  0  0  0
   -1.2165   -5.0197  -12.0372 H   0  0  0  0  0
   -2.8198   -5.5154  -12.6328 H   0  0  0  0  0
    3.0777   -9.3080  -18.5681 H   0  0  0  0  0
    1.3713   -9.8121  -18.9039 H   0  0  0  0  0
    1.2984   -9.3763  -20.8700 H   0  0  0  0  0
    1.4013   -8.9554  -23.2805 H   0  0  0  0  0
    6.4962  -13.0563  -22.9045 H   0  0  0  0  0
    5.4031  -12.6467  -20.5431 H   0  0  0  0  0
    1.3524   -6.5557  -13.1172 H   0  0  0  0  0
    1.9246   -8.8939  -13.6589 H   0  0  0  0  0
   -0.1047   -5.9899  -17.1205 H   0  0  0  0  0
    0.5355   -8.3143  -17.6756 H   0  0  0  0  0
    0.7026  -12.6172  -18.6489 H   0  0  0  0  0
    1.0492  -13.0465  -20.3420 H   0  0  0  0  0
    1.3970  -14.2098  -19.0394 H   0  0  0  0  0
  2  1  1  0  0  0
 28  1  1  0  0  0
  1 29  1  0  0  0
 27  2  1  0  0  0
 25  3  4  0  0  0
  3 26  4  0  0  0
 16  4  2  0  0  0
 18  5  1  0  0  0
 18  6  1  0  0  0
  7  8  1  0  0  0
 25  7  4  0  0  0
  7 27  4  0  0  0
  8 28  1  0  0  0
  9 10  4  0  0  0
  9 15  4  0  0  0
 28  9  1  0  0  0
 10 11  4  0  0  0
 11 31  4  0  0  0
 15 12  4  0  0  0
 12 30  4  0  0  0
 12 31  4  0  0  0
 14 13  4  0  0  0
 13 30  4  0  0  0
 15 14  4  0  0  0
 16 17  2  0  0  0
 16 18  1  0  0  0
 19 16  1  0  0  0
 20 19  4  0  0  0
 22 19  4  0  0  0
 21 20  4  0  0  0
 24 21  4  0  0  0
 23 22  4  0  0  0
 24 23  4  0  0  0
 24 25  1  0  0  0
 26 27  4  0  0  0
  1 32  1  0  0  0
  2 33  1  0  0  0
  2 34  1  0  0  0
  3 35  1  0  0  0
  5 36  1  0  0  0
  5 37  1  0  0  0
  5 38  1  0  0  0
  6 39  1  0  0  0
  6 40  1  0  0  0
  6 41  1  0  0  0
  8 42  1  0  0  0
  8 43  1  0  0  0
 10 44  1  0  0  0
 11 45  1  0  0  0
 13 46  1  0  0  0
 14 47  1  0  0  0
 20 48  1  0  0  0
 21 49  1  0  0  0
 22 50  1  0  0  0
 23 51  1  0  0  0
 29 52  1  0  0  0
 29 53  1  0  0  0
 29 54  1  0  0  0
M  END
$$$$
