1lhv_ligand
  -I-interpret- 

 50 53  0  0  0  0  0  0  0  0999 V2000
   24.3870    9.8500   30.6970 C   0  0  0  0  0
   25.8070   10.2680   30.3260 C   0  0  0  0  0
   26.1390   11.7200   30.5610 C   0  0  0  0  0
   25.3140   12.4880   31.5200 C   0  0  0  0  0
   24.2440   11.9660   32.1810 C   0  0  0  0  0
   23.4550   12.8040   33.1720 C   0  0  0  0  0
   21.9170   12.7020   32.9620 C   0  0  0  0  0
   21.4160   11.2390   32.8990 C   0  0  0  0  0
   22.1820   10.4840   31.7820 C   0  0  0  0  0
   23.7460   10.5010   31.9740 C   0  0  0  0  0
   21.6630    9.0100   31.6260 C   0  0  0  0  0
   20.1190    8.9350   31.4350 C   0  0  0  0  0
   19.3660    9.6410   32.5950 C   0  0  0  0  0
   19.8930   11.1350   32.6490 C   0  0  0  0  0
   18.8980   11.8080   33.6140 C   0  0  0  0  0
   17.5640   11.0280   33.4140 C   0  0  0  0  0
   17.8360    9.9190   32.3720 C   0  0  0  0  0
   19.5690    8.8630   33.9500 C   0  0  0  0  0
   19.5490    7.3340   33.9450 C   0  0  0  0  0
   17.5150   10.4140   30.9880 C   0  0  0  0  0
   17.2360   10.7760   29.9140 C   0  0  0  0  0
   27.0740   12.2190   29.9750 O   0  0  0  0  0
   17.0130    8.7790   32.6010 O   0  0  0  0  0
   24.4430    8.7825   30.9101 H   0  0  0  0  0
   23.7617   10.1670   29.8624 H   0  0  0  0  0
   25.9114   10.0953   29.2548 H   0  0  0  0  0
   26.4769    9.6897   30.9623 H   0  0  0  0  0
   25.5774   13.5289   31.7076 H   0  0  0  0  0
   23.7420   13.8459   33.0296 H   0  0  0  0  0
   23.6794   12.4350   34.1728 H   0  0  0  0  0
   21.6776   13.1780   32.0111 H   0  0  0  0  0
   21.4315   13.1848   33.8101 H   0  0  0  0  0
   21.6089   10.7867   33.8718 H   0  0  0  0  0
   21.9739   11.0301   30.8619 H   0  0  0  0  0
   24.0384    9.9354   32.8587 H   0  0  0  0  0
   21.9147    8.4678   32.5374 H   0  0  0  0  0
   22.1316    8.5817   30.7399 H   0  0  0  0  0
   19.8239    7.8858   31.4203 H   0  0  0  0  0
   19.8622    9.4361   30.5017 H   0  0  0  0  0
   19.8851   11.6830   31.7068 H   0  0  0  0  0
   18.7829   12.8712   33.4032 H   0  0  0  0  0
   19.2424   11.7665   34.6473 H   0  0  0  0  0
   16.7763   11.6966   33.0668 H   0  0  0  0  0
   17.2267   10.5957   34.3561 H   0  0  0  0  0
   18.7172    9.1505   34.5664 H   0  0  0  0  0
   20.5755    9.1272   34.2746 H   0  0  0  0  0
   18.5850    6.9857   33.5741 H   0  0  0  0  0
   20.3441    6.9636   33.2979 H   0  0  0  0  0
   19.7037    6.9666   34.9595 H   0  0  0  0  0
   16.0945    9.0131   32.4489 H   0  0  0  0  0
  1  2  1  0  0  0
  1 10  1  0  0  0
  2  3  1  0  0  0
  3  4  1  0  0  0
  3 22  2  0  0  0
  4  5  2  0  0  0
  5  6  1  0  0  0
  5 10  1  0  0  0
  6  7  1  0  0  0
  7  8  1  0  0  0
  8  9  1  0  0  0
  8 14  1  0  0  0
  9 10  1  0  0  0
  9 11  1  0  0  0
 11 12  1  0  0  0
 12 13  1  0  0  0
 13 14  1  0  0  0
 13 17  1  0  0  0
 13 18  1  0  0  0
 14 15  1  0  0  0
 15 16  1  0  0  0
 16 17  1  0  0  0
 17 20  1  0  0  0
 17 23  1  0  0  0
 18 19  1  0  0  0
 20 21  3  0  0  0
  1 24  1  0  0  0
  1 25  1  0  0  0
  2 26  1  0  0  0
  2 27  1  0  0  0
  4 28  1  0  0  0
  6 29  1  0  0  0
  6 30  1  0  0  0
  7 31  1  0  0  0
  7 32  1  0  0  0
  8 33  1  0  0  0
  9 34  1  0  0  0
 10 35  1  0  0  0
 11 36  1  0  0  0
 11 37  1  0  0  0
 12 38  1  0  0  0
 12 39  1  0  0  0
 14 40  1  0  0  0
 15 41  1  0  0  0
 15 42  1  0  0  0
 16 43  1  0  0  0
 16 44  1  0  0  0
 18 45  1  0  0  0
 18 46  1  0  0  0
 19 47  1  0  0  0
 19 48  1  0  0  0
 19 49  1  0  0  0
 23 50  1  0  0  0
M  END
$$$$
