5kj2_ligand
  -I-interpret- 

 62 65  0  0  0  0  0  0  0  0999 V2000
   33.6150    8.1510  181.0870 C   0  0  0  0  0
   37.2970   11.8660  190.5160 C   0  0  0  0  0
   35.8060   10.1010  189.8610 C   0  0  0  0  0
   35.4080    6.7730  180.3070 C   0  0  0  0  0
   35.8170    8.5270  181.8730 C   0  0  0  0  0
   35.8900   12.1350  188.6070 C   0  0  0  0  0
   36.7090    9.4850  184.0730 C   0  0  0  0  0
   34.9380   11.7500  185.4200 C   0  0  0  0  0
   37.7500    7.3050  181.2290 C   0  0  0  0  0
   32.4540   12.4900  187.9840 C   0  0  0  0  0
   31.9410    4.4160  176.7040 C   0  0  0  0  0
   35.4360   13.0140  187.4960 C   0  0  0  0  0
   33.0570   12.7450  186.6160 C   0  0  0  0  0
   34.4830    8.8760  181.8790 C   0  0  0  0  0
   36.8680   12.6190  189.4450 C   0  0  0  0  0
   35.3670   10.8710  188.8090 C   0  0  0  0  0
   36.2770    7.5020  181.0920 C   0  0  0  0  0
   34.0640    7.1070  180.2950 C   0  0  0  0  0
   36.7540   10.6160  190.7100 C   0  0  0  0  0
   36.9650   11.4440  182.9440 C   0  0  0  0  0
   33.2790    5.7240  178.3350 C   0  0  0  0  0
   38.1350    8.2790  182.3360 C   0  0  0  0  0
   36.9330    9.1780  182.6160 C   0  0  0  0  0
   36.4450   11.5810  185.3500 C   0  0  0  0  0
   32.7600   14.1370  186.0890 C   0  0  0  0  0
   36.7340   10.8480  184.1460 N   0  0  0  0  0
   33.0940    6.4170  179.5260 N   0  0  0  0  0
   32.0740    5.2130  177.8990 N   0  0  0  0  0
   34.4890   12.4180  186.5580 N   0  0  0  0  0
   36.5500    8.6800  184.9820 O   0  0  0  0  0
   37.0210   12.6340  182.6600 O   0  0  0  0  0
   34.1990   11.3410  184.5290 O   0  0  0  0  0
   34.3460    5.5420  177.7550 O   0  0  0  0  0
   37.1560   10.4550  182.0320 O   0  0  0  0  0
   37.1560    9.8930  191.7440 F   0  0  0  0  0
   31.4250   14.2790  185.9330 F   0  0  0  0  0
   33.3170   14.3860  184.8880 F   0  0  0  0  0
   33.1860   15.1460  186.8710 F   0  0  0  0  0
   32.5551    8.4053  181.0849 H   0  0  0  0  0
   38.0536   12.2535  191.1982 H   0  0  0  0  0
   35.4078    9.0986  190.0179 H   0  0  0  0  0
   35.7750    5.9433  179.7029 H   0  0  0  0  0
   38.2861    7.4948  180.2991 H   0  0  0  0  0
   38.0143    6.2747  181.4671 H   0  0  0  0  0
   32.8577   13.2086  188.6973 H   0  0  0  0  0
   31.3710   12.6004  187.9286 H   0  0  0  0  0
   32.7014   11.4784  188.3059 H   0  0  0  0  0
   32.2724    4.9964  175.8430 H   0  0  0  0  0
   32.5536    3.5193  176.7968 H   0  0  0  0  0
   30.8968    4.1322  176.5724 H   0  0  0  0  0
   36.3259   13.2624  186.9177 H   0  0  0  0  0
   34.9204   13.8545  187.9605 H   0  0  0  0  0
   32.5565   12.0530  185.9387 H   0  0  0  0  0
   34.1234    9.7021  182.4925 H   0  0  0  0  0
   37.3045   13.6007  189.2611 H   0  0  0  0  0
   34.6048   10.4837  188.1328 H   0  0  0  0  0
   38.9899    8.8803  182.0268 H   0  0  0  0  0
   38.4135    7.7326  183.2371 H   0  0  0  0  0
   36.8126   11.0441  186.2245 H   0  0  0  0  0
   36.9405   12.5518  185.3373 H   0  0  0  0  0
   32.1419    6.4305  179.8917 H   0  0  0  0  0
   31.2368    5.4081  178.4480 H   0  0  0  0  0
 14  1  4  0  0  0
  1 18  4  0  0  0
 15  2  4  0  0  0
  2 19  4  0  0  0
 16  3  4  0  0  0
  3 19  4  0  0  0
 17  4  4  0  0  0
  4 18  4  0  0  0
  5 14  4  0  0  0
  5 17  4  0  0  0
 23  5  1  0  0  0
 12  6  1  0  0  0
  6 15  4  0  0  0
  6 16  4  0  0  0
  7 23  1  0  0  0
 26  7  1  0  0  0
  7 30  2  0  0  0
 24  8  1  0  0  0
  8 29  1  0  0  0
  8 32  2  0  0  0
  9 17  1  0  0  0
 22  9  1  0  0  0
 13 10  1  0  0  0
 28 11  1  0  0  0
 29 12  1  0  0  0
 13 25  1  0  0  0
 29 13  1  0  0  0
 18 27  1  0  0  0
 19 35  1  0  0  0
 26 20  1  0  0  0
 20 31  2  0  0  0
 20 34  1  0  0  0
 27 21  1  0  0  0
 21 28  1  0  0  0
 21 33  2  0  0  0
 23 22  1  0  0  0
 34 23  1  0  0  0
 24 26  1  0  0  0
 25 36  1  0  0  0
 25 37  1  0  0  0
 25 38  1  0  0  0
  1 39  1  0  0  0
  2 40  1  0  0  0
  3 41  1  0  0  0
  4 42  1  0  0  0
  9 43  1  0  0  0
  9 44  1  0  0  0
 10 45  1  0  0  0
 10 46  1  0  0  0
 10 47  1  0  0  0
 11 48  1  0  0  0
 11 49  1  0  0  0
 11 50  1  0  0  0
 12 51  1  0  0  0
 12 52  1  0  0  0
 13 53  1  0  0  0
 14 54  1  0  0  0
 15 55  1  0  0  0
 16 56  1  0  0  0
 22 57  1  0  0  0
 22 58  1  0  0  0
 24 59  1  0  0  0
 24 60  1  0  0  0
 27 61  1  0  0  0
 28 62  1  0  0  0
M  END
$$$$
