4j70_ligand
  -I-interpret- 

 86 88  0  0  0  0  0  0  0  0999 V2000
   17.8480 -146.5350   12.4500 C   0  0  0  0  0
   17.1210 -147.3660   12.9860 O   0  0  0  0  0
   18.2000 -146.6020   11.1220 O   0  0  0  0  0
   19.4880 -146.0480   10.7410 C   0  0  0  0  0
   19.9160 -146.6370    9.4100 C   0  0  0  0  0
   19.7910 -145.8600    8.2530 C   0  0  0  0  0
   20.2650 -146.3910    7.0530 C   0  0  0  0  0
   20.8470 -147.6780    7.0260 C   0  0  0  0  0
   20.9790 -148.4460    8.1880 C   0  0  0  0  0
   20.5010 -147.9080    9.3840 C   0  0  0  0  0
   18.3430 -145.4720   13.1660 N   0  0  0  0  0
   17.5760 -144.2200   13.3680 C   0  0  0  0  0
   18.1000 -143.0410   12.4730 C   0  0  0  0  0
   18.6120 -143.3220   11.3950 O   0  0  0  0  0
   17.4240 -144.0060   14.9130 C   0  0  0  0  0
   12.6670 -141.1110   12.8060 N   0  0  0  0  0
   13.7610 -141.9010   13.3150 C   0  0  0  0  0
   14.4500 -142.8330   12.3040 C   0  0  0  0  0
   15.2340 -141.6470   12.9270 C   0  0  0  0  0
   15.7590 -140.5720   11.9160 C   0  0  0  0  0
   17.3170 -140.7350   11.7490 C   0  0  0  0  0
   18.0500 -139.3800   11.8030 C   0  0  0  0  0
   18.2830 -138.5330   10.5480 C   0  0  0  0  0
   19.4010 -137.4480   10.6360 C   0  0  0  0  0
   19.6660 -136.6740   11.7840 C   0  0  0  0  0
   20.8570 -135.9310   11.9300 C   0  0  0  0  0
   21.8390 -135.8730   10.9190 C   0  0  0  0  0
   21.6160 -136.5820    9.7230 C   0  0  0  0  0
   20.4170 -137.3460    9.5420 C   0  0  0  0  0
   17.8910 -141.7080   12.7350 N   0  0  0  0  0
   13.4900 -137.8060   11.5530 O   0  0  0  0  0
   12.3380 -138.4430   11.7090 C   0  0  0  0  0
   11.4760 -138.3210   12.9820 C   0  0  0  0  0
   10.3960 -137.2070   12.8050 C   0  0  0  0  0
   10.9440 -135.8290   12.2980 C   0  0  0  0  0
   12.1920 -135.3040   13.0660 C   0  0  0  0  0
    9.5610 -136.9480   14.0870 C   0  0  0  0  0
   10.8150 -139.6600   13.4010 C   0  0  0  0  0
   10.0800 -140.2840   12.3380 O   0  0  0  0  0
   11.8920 -140.6050   13.7840 C   0  0  0  0  0
   12.0560 -140.8180   14.9690 O   0  0  0  0  0
   20.2289 -146.2923   11.5023 H   0  0  0  0  0
   19.4059 -144.9649   10.6502 H   0  0  0  0  0
   19.3370 -144.8697    8.2882 H   0  0  0  0  0
   20.1860 -145.8110    6.1335 H   0  0  0  0  0
   21.2015 -148.0821    6.0778 H   0  0  0  0  0
   21.4405 -149.4331    8.1602 H   0  0  0  0  0
   20.5842 -148.4831   10.3062 H   0  0  0  0  0
   19.2746 -145.5474   13.5744 H   0  0  0  0  0
   16.5554 -144.2777   12.9897 H   0  0  0  0  0
   16.8921 -144.8535   15.3453 H   0  0  0  0  0
   18.4120 -143.9258   15.3663 H   0  0  0  0  0
   16.8625 -143.0903   15.0982 H   0  0  0  0  0
   12.4985 -140.9527   11.8125 H   0  0  0  0  0
   13.2672 -141.9826   14.2833 H   0  0  0  0  0
   14.2559 -143.2576   11.3191 H   0  0  0  0  0
   14.5819 -143.9017   12.1349 H   0  0  0  0  0
   16.1102 -141.4581   13.5473 H   0  0  0  0  0
   15.5340 -139.5744   12.2932 H   0  0  0  0  0
   15.2714 -140.7087   10.9508 H   0  0  0  0  0
   17.4797 -141.1504   10.7545 H   0  0  0  0  0
   19.0573 -139.6461   12.1234 H   0  0  0  0  0
   17.3952 -138.7585   12.4138 H   0  0  0  0  0
   17.3526 -137.9932   10.3718 H   0  0  0  0  0
   18.5983 -139.2280    9.7697 H   0  0  0  0  0
   18.9271 -136.6485   12.5849 H   0  0  0  0  0
   21.0240 -135.3824   12.8570 H   0  0  0  0  0
   22.7504 -135.2921   11.0605 H   0  0  0  0  0
   22.3614 -136.5495    8.9284 H   0  0  0  0  0
   20.2430 -137.8589    8.5961 H   0  0  0  0  0
   18.1425 -141.3582   13.6595 H   0  0  0  0  0
   13.8594 -138.0209   10.6934 H   0  0  0  0  0
   12.6328 -139.4924   11.7087 H   0  0  0  0  0
   11.7052 -138.0036   10.9379 H   0  0  0  0  0
   12.1521 -138.0438   13.7908 H   0  0  0  0  0
    9.7599 -137.6277   12.0262 H   0  0  0  0  0
   10.1494 -135.0976   12.4455 H   0  0  0  0  0
   11.2458 -135.9697   11.2601 H   0  0  0  0  0
   11.9418 -135.1765   14.1192 H   0  0  0  0  0
   13.0057 -136.0228   12.9690 H   0  0  0  0  0
   12.4994 -134.3464   12.6457 H   0  0  0  0  0
    9.0435 -137.8637   14.3732 H   0  0  0  0  0
   10.2240 -136.6364   14.8941 H   0  0  0  0  0
    8.8310 -136.1626   13.8911 H   0  0  0  0  0
   10.1240 -139.4348   14.2133 H   0  0  0  0  0
    9.6954 -141.1045   12.6550 H   0  0  0  0  0
  1  2  2  0  0  0
  1  3  1  0  0  0
 11  1  1  0  0  0
  3  4  1  0  0  0
  4  5  1  0  0  0
  5  6  4  0  0  0
  5 10  4  0  0  0
  6  7  4  0  0  0
  7  8  4  0  0  0
  9  8  4  0  0  0
 10  9  4  0  0  0
 12 11  1  0  0  0
 13 12  1  0  0  0
 12 15  1  0  0  0
 13 14  2  0  0  0
 30 13  1  0  0  0
 16 17  1  0  0  0
 40 16  1  0  0  0
 17 18  1  0  0  0
 17 19  1  0  0  0
 19 18  1  0  0  0
 19 20  1  0  0  0
 20 21  1  0  0  0
 21 22  1  0  0  0
 21 30  1  0  0  0
 22 23  1  0  0  0
 23 24  1  0  0  0
 24 25  4  0  0  0
 24 29  4  0  0  0
 25 26  4  0  0  0
 26 27  4  0  0  0
 28 27  4  0  0  0
 29 28  4  0  0  0
 32 31  1  0  0  0
 33 32  1  0  0  0
 33 34  1  0  0  0
 38 33  1  0  0  0
 34 35  1  0  0  0
 34 37  1  0  0  0
 35 36  1  0  0  0
 38 39  1  0  0  0
 38 40  1  0  0  0
 40 41  2  0  0  0
  4 42  1  0  0  0
  4 43  1  0  0  0
  6 44  1  0  0  0
  7 45  1  0  0  0
  8 46  1  0  0  0
  9 47  1  0  0  0
 10 48  1  0  0  0
 11 49  1  0  0  0
 12 50  1  0  0  0
 15 51  1  0  0  0
 15 52  1  0  0  0
 15 53  1  0  0  0
 16 54  1  0  0  0
 17 55  1  0  0  0
 18 56  1  0  0  0
 18 57  1  0  0  0
 19 58  1  0  0  0
 20 59  1  0  0  0
 20 60  1  0  0  0
 21 61  1  0  0  0
 22 62  1  0  0  0
 22 63  1  0  0  0
 23 64  1  0  0  0
 23 65  1  0  0  0
 25 66  1  0  0  0
 26 67  1  0  0  0
 27 68  1  0  0  0
 28 69  1  0  0  0
 29 70  1  0  0  0
 30 71  1  0  0  0
 31 72  1  0  0  0
 32 73  1  0  0  0
 32 74  1  0  0  0
 33 75  1  0  0  0
 34 76  1  0  0  0
 35 77  1  0  0  0
 35 78  1  0  0  0
 36 79  1  0  0  0
 36 80  1  0  0  0
 36 81  1  0  0  0
 37 82  1  0  0  0
 37 83  1  0  0  0
 37 84  1  0  0  0
 38 85  1  0  0  0
 39 86  1  0  0  0
M  END
$$$$
