5ix0_ligand
  -I-interpret- 

 46 49  0  0  0  0  0  0  0  0999 V2000
   63.4880   28.1390    6.4780 C   0  0  0  0  0
   64.8380   27.9820    6.1740 C   0  0  0  0  0
   65.2800   28.0960    4.8620 C   0  0  0  0  0
   64.3600   28.3760    3.8330 C   0  0  0  0  0
   62.9980   28.5350    4.1690 C   0  0  0  0  0
   62.5690   28.4120    5.4790 C   0  0  0  0  0
   66.0240   29.1550    2.1030 C   0  0  0  0  0
   66.4480   29.2870    0.7840 C   0  0  0  0  0
   67.9700   30.9670   -0.2450 C   0  0  0  0  0
   67.0860   31.4530   -0.9340 O   0  0  0  0  0
   70.3710   30.4190   -0.7590 C   0  0  0  0  0
   71.8100   30.9750   -0.9000 C   0  0  0  0  0
   72.3050   31.7500    0.3480 C   0  0  0  0  0
   71.9030   33.2120    0.0470 C   0  0  0  0  0
   71.1050   33.1300   -1.2680 C   0  0  0  0  0
   69.6140   32.8360   -0.9520 C   0  0  0  0  0
   65.6400   28.7480   -0.2310 C   0  0  0  0  0
   64.4320   28.1100    0.0690 C   0  0  0  0  0
   63.0520   28.0200    7.7400 F   0  0  0  0  0
   64.8150   28.5090    2.4220 C   0  0  0  0  0
   67.6900   29.9320    0.5910 N   0  0  0  0  0
   69.3990   31.4910   -0.2180 C   0  0  0  0  0
   71.7060   31.9900   -1.9300 O   0  0  0  0  0
   65.9940   28.8530   -1.5550 N   0  0  0  0  0
   64.0310   27.9850    1.3830 C   0  0  0  0  0
   65.5516   27.7685    6.9698 H   0  0  0  0  0
   66.3372   27.9689    4.6292 H   0  0  0  0  0
   62.2739   28.7578    3.3853 H   0  0  0  0  0
   61.5132   28.5294    5.7230 H   0  0  0  0  0
   66.6408   29.5601    2.9052 H   0  0  0  0  0
   70.3906   29.5855   -0.0569 H   0  0  0  0  0
   70.0247   30.1049   -1.7436 H   0  0  0  0  0
   72.4862   30.1402   -1.0842 H   0  0  0  0  0
   73.3765   31.6366    0.5127 H   0  0  0  0  0
   71.8650   31.3775    1.2731 H   0  0  0  0  0
   72.7717   33.8643   -0.0424 H   0  0  0  0  0
   71.3155   33.6486    0.8547 H   0  0  0  0  0
   71.1324   34.0434   -1.8621 H   0  0  0  0  0
   69.0799   32.7831   -1.9007 H   0  0  0  0  0
   69.2525   33.6299   -0.2985 H   0  0  0  0  0
   63.8095   27.7129   -0.7328 H   0  0  0  0  0
   68.4701   29.5789    1.1452 H   0  0  0  0  0
   69.6113   31.7011    0.8303 H   0  0  0  0  0
   66.8575   29.3292   -1.8158 H   0  0  0  0  0
   65.3932   28.4547   -2.2767 H   0  0  0  0  0
   63.0966   27.4745    1.6162 H   0  0  0  0  0
  2  1  4  0  0  0
  6  1  4  0  0  0
  1 19  1  0  0  0
  3  2  4  0  0  0
  4  3  4  0  0  0
  4  5  4  0  0  0
 20  4  1  0  0  0
  5  6  4  0  0  0
  8  7  4  0  0  0
  7 20  4  0  0  0
  8 17  4  0  0  0
 21  8  1  0  0  0
  9 10  2  0  0  0
  9 21  1  0  0  0
 22  9  1  0  0  0
 11 12  1  0  0  0
 11 22  1  0  0  0
 12 13  1  0  0  0
 12 23  1  0  0  0
 13 14  1  0  0  0
 14 15  1  0  0  0
 15 16  1  0  0  0
 15 23  1  0  0  0
 16 22  1  0  0  0
 17 18  4  0  0  0
 17 24  1  0  0  0
 18 25  4  0  0  0
 20 25  4  0  0  0
  2 26  1  0  0  0
  3 27  1  0  0  0
  5 28  1  0  0  0
  6 29  1  0  0  0
  7 30  1  0  0  0
 11 31  1  0  0  0
 11 32  1  0  0  0
 12 33  1  0  0  0
 13 34  1  0  0  0
 13 35  1  0  0  0
 14 36  1  0  0  0
 14 37  1  0  0  0
 15 38  1  0  0  0
 16 39  1  0  0  0
 16 40  1  0  0  0
 18 41  1  0  0  0
 21 42  1  0  0  0
 22 43  1  0  0  0
 24 44  1  0  0  0
 24 45  1  0  0  0
 25 46  1  0  0  0
M  END
$$$$
