6iot_ligand
  -I-interpret- 

 27 26  0  0  0  0  0  0  0  0999 V2000
   18.5830   13.5760   92.4390 N   0  3  0  0  0
   18.5410   12.6770   91.2920 C   0  0  0  0  0
   17.4020   13.0450   90.3500 C   0  0  0  0  0
   17.6200   13.3470   89.1770 O   0  0  0  0  0
   18.3880   11.2260   91.7520 C   0  0  0  0  0
   18.8400   10.2010   90.7300 C   0  0  0  0  0
   20.2580   10.4900   90.2750 C   0  0  0  0  0
   21.1930   10.5550   91.3940 N   0  0  0  0  0
   21.9070    9.5250   91.8340 C   0  0  0  0  0
   22.7330    9.6790   92.8590 N   0  0  0  0  0
   21.7980    8.3410   91.2480 N   0  0  0  0  0
   16.2360   13.0500   90.7440 O   0  0  0  0  0
   18.6851   14.5370   92.1127 H   0  0  0  0  0
   17.7176   13.4866   92.9714 H   0  0  0  0  0
   19.3756   13.3312   93.0325 H   0  0  0  0  0
   19.4826   12.7808   90.7528 H   0  0  0  0  0
   17.3266   11.0552   91.9321 H   0  0  0  0  0
   19.0155   11.0998   92.6343 H   0  0  0  0  0
   18.1760   10.2464   89.8668 H   0  0  0  0  0
   18.8101    9.2112   91.1855 H   0  0  0  0  0
   20.2626   11.4571   89.7723 H   0  0  0  0  0
   20.5740    9.6820   89.6152 H   0  0  0  0  0
   21.3055   11.4504   91.8694 H   0  0  0  0  0
   22.8209   10.5892   93.3109 H   0  0  0  0  0
   22.3489    7.5519   91.5862 H   0  0  0  0  0
   21.1633    8.2190   90.4589 H   0  0  0  0  0
   16.2112   12.7973   91.6698 H   0  0  0  0  0
  1  2  1  0  0  0
  2  3  1  0  0  0
  2  5  1  0  0  0
  3  4  2  0  0  0
  3 12  1  0  0  0
  5  6  1  0  0  0
  6  7  1  0  0  0
  7  8  1  0  0  0
  8  9  1  0  0  0
  9 10  2  0  0  0
  9 11  1  0  0  0
  1 13  1  0  0  0
  1 14  1  0  0  0
  1 15  1  0  0  0
  2 16  1  0  0  0
  5 17  1  0  0  0
  5 18  1  0  0  0
  6 19  1  0  0  0
  6 20  1  0  0  0
  7 21  1  0  0  0
  7 22  1  0  0  0
  8 23  1  0  0  0
 10 24  1  0  0  0
 11 25  1  0  0  0
 11 26  1  0  0  0
 12 27  1  0  0  0
M  END
$$$$
