3v01_ligand
  -I-interpret- 

 42 44  0  0  0  0  0  0  0  0999 V2000
   36.3800   32.1770  -12.8910 C   0  0  0  0  0
   32.7410   27.3960  -18.1450 F   0  0  0  0  0
   36.5850   23.7900  -17.6960 I   0  0  0  0  0
   36.8750   31.5010  -13.9350 N   0  0  0  0  0
   32.8520   31.0430  -13.1490 O   0  0  0  0  0
   35.0390   32.0570  -12.5640 C   0  0  0  0  0
   30.2320   29.8790  -13.3730 N   0  0  0  0  0
   30.8060   29.2540  -15.4270 O   0  0  0  0  0
   36.1230   30.7070  -14.7220 C   0  0  0  0  0
   33.5250   29.0010  -16.0330 N   0  0  0  0  0
   28.9490   29.4740  -13.5820 O   0  0  0  0  0
   34.7800   30.5670  -14.4360 C   0  0  0  0  0
   26.9180   30.0690  -15.6720 O   0  0  0  0  0
   34.2430   31.2440  -13.3460 C   0  0  0  0  0
   25.5900   32.1070  -14.9150 O   0  0  0  0  0
   32.5000   30.1870  -14.1460 C   0  0  0  0  0
   33.6850   29.8850  -14.9840 C   0  0  0  0  0
   31.1120   29.7240  -14.3440 C   0  0  0  0  0
   34.2220   27.8520  -16.3270 C   0  0  0  0  0
   35.3510   27.4330  -15.6190 C   0  0  0  0  0
   36.0340   26.2920  -15.9800 C   0  0  0  0  0
   35.6090   25.5470  -17.0820 C   0  0  0  0  0
   34.5000   25.9410  -17.7900 C   0  0  0  0  0
   33.8150   27.0770  -17.4160 C   0  0  0  0  0
   27.8900   30.4230  -13.4050 C   0  0  0  0  0
   26.6570   30.0690  -14.2410 C   0  0  0  0  0
   25.5890   31.1000  -13.8980 C   0  0  0  0  0
   37.0308   32.8207  -12.2992 H   0  0  0  0  0
   34.6226   32.5914  -11.7101 H   0  0  0  0  0
   30.5076   30.2942  -12.4830 H   0  0  0  0  0
   36.5672   30.1846  -15.5693 H   0  0  0  0  0
   32.7785   29.2350  -16.6875 H   0  0  0  0  0
   26.1130   29.8414  -16.1430 H   0  0  0  0  0
   24.9211   32.7652  -14.7127 H   0  0  0  0  0
   35.6973   28.0182  -14.7671 H   0  0  0  0  0
   36.9040   25.9717  -15.4067 H   0  0  0  0  0
   34.1623   25.3565  -18.6458 H   0  0  0  0  0
   28.2507   31.4001  -13.7264 H   0  0  0  0  0
   27.6015   30.4198  -12.3539 H   0  0  0  0  0
   26.3397   29.0537  -14.0032 H   0  0  0  0  0
   24.6110   30.6214  -13.8480 H   0  0  0  0  0
   25.8022   31.5493  -12.9281 H   0  0  0  0  0
  4  1  4  0  0  0
  6  1  4  0  0  0
 24  2  1  0  0  0
 22  3  1  0  0  0
  9  4  4  0  0  0
  5 14  4  0  0  0
 16  5  4  0  0  0
 14  6  4  0  0  0
 11  7  1  0  0  0
  7 18  1  0  0  0
 18  8  2  0  0  0
 12  9  4  0  0  0
 17 10  1  0  0  0
 10 19  1  0  0  0
 25 11  1  0  0  0
 12 14  4  0  0  0
 17 12  4  0  0  0
 26 13  1  0  0  0
 27 15  1  0  0  0
 16 17  4  0  0  0
 18 16  1  0  0  0
 19 20  4  0  0  0
 19 24  4  0  0  0
 20 21  4  0  0  0
 21 22  4  0  0  0
 23 22  4  0  0  0
 24 23  4  0  0  0
 26 25  1  0  0  0
 26 27  1  0  0  0
  1 28  1  0  0  0
  6 29  1  0  0  0
  7 30  1  0  0  0
  9 31  1  0  0  0
 10 32  1  0  0  0
 13 33  1  0  0  0
 15 34  1  0  0  0
 20 35  1  0  0  0
 21 36  1  0  0  0
 23 37  1  0  0  0
 25 38  1  0  0  0
 25 39  1  0  0  0
 26 40  1  0  0  0
 27 41  1  0  0  0
 27 42  1  0  0  0
M  END
$$$$
