6eea_ligand
  -I-interpret- 

 39 40  0  0  0  0  0  0  0  0999 V2000
   -3.1260    9.0620   11.0210 C   0  0  0  0  0
   -4.8240   10.3940   10.0230 C   0  0  0  0  0
   -5.2390    8.0570   10.4430 C   0  0  0  0  0
   -4.5580    0.7130   13.5240 C   0  0  0  0  0
   -4.1560    1.0350   12.2430 C   0  0  0  0  0
   -3.7500    2.3160   11.9570 C   0  0  0  0  0
   -3.7610    3.2680   12.9480 C   0  0  0  0  0
   -4.1540    2.9840   14.2480 C   0  0  0  0  0
   -4.5560    1.6880   14.5150 C   0  0  0  0  0
   -3.3240    2.6990   10.6760 O   0  0  0  0  0
   -3.2880    4.5530   12.5280 N   0  0  0  0  0
   -4.1240    5.5500   11.9160 C   0  0  0  0  0
   -3.4040    6.7390   11.5090 N   0  0  0  0  0
   -5.2860    5.3840   11.7610 O   0  0  0  0  0
   -3.9540    7.9540   10.9530 C   0  0  0  0  0
   -3.5520   10.2840   10.5480 C   0  0  0  0  0
   -5.6680    9.2900    9.9670 C   0  0  0  0  0
   -5.1020    1.1770   16.1650 S   0  0  0  0  0
   -4.2080    1.6870   17.2030 O   0  0  0  0  0
   -6.4370    1.6770   16.4740 O   0  0  0  0  0
   -5.0340   -0.4880   16.1920 N   0  0  0  0  0
   -4.1750    0.0230   11.2180 N   0  0  0  0  0
   -4.0530   -1.1060   11.5230 O   0  0  0  0  0
   -4.3790    0.3990    9.8860 O   0  0  0  0  0
   -5.2750   11.7520    9.4980 C   0  0  0  0  0
   -4.1870   12.4390    9.0380 F   0  0  0  0  0
   -6.1800   11.5650    8.4940 F   0  0  0  0  0
   -5.8450   12.4640   10.5090 F   0  0  0  0  0
   -2.1294    8.9666   11.4521 H   0  0  0  0  0
   -5.8985    7.1896   10.4160 H   0  0  0  0  0
   -4.8761   -0.3030   13.7577 H   0  0  0  0  0
   -4.1462    3.7487   15.0247 H   0  0  0  0  0
   -3.0844    3.6286   10.6843 H   0  0  0  0  0
   -2.3024    4.7733   12.6711 H   0  0  0  0  0
   -2.3913    6.7160   11.6287 H   0  0  0  0  0
   -2.8937   11.1519   10.5878 H   0  0  0  0  0
   -6.6692    9.3923    9.5484 H   0  0  0  0  0
   -4.4327   -0.9630   16.8652 H   0  0  0  0  0
   -5.5937   -1.0320   15.5353 H   0  0  0  0  0
 15  1  4  0  0  0
  1 16  4  0  0  0
 16  2  4  0  0  0
 17  2  4  0  0  0
  2 25  1  0  0  0
 15  3  4  0  0  0
  3 17  4  0  0  0
  5  4  4  0  0  0
  9  4  4  0  0  0
  6  5  4  0  0  0
  5 22  1  0  0  0
  7  6  4  0  0  0
  6 10  1  0  0  0
  7  8  4  0  0  0
 11  7  1  0  0  0
  8  9  4  0  0  0
  9 18  1  0  0  0
 12 11  1  0  0  0
 13 12  1  0  0  0
 12 14  2  0  0  0
 13 15  1  0  0  0
 18 19  2  0  0  0
 18 20  2  0  0  0
 18 21  1  0  0  0
 22 23  2  0  0  0
 22 24  2  0  0  0
 25 26  1  0  0  0
 25 27  1  0  0  0
 25 28  1  0  0  0
  1 29  1  0  0  0
  3 30  1  0  0  0
  4 31  1  0  0  0
  8 32  1  0  0  0
 10 33  1  0  0  0
 11 34  1  0  0  0
 13 35  1  0  0  0
 16 36  1  0  0  0
 17 37  1  0  0  0
 21 38  1  0  0  0
 21 39  1  0  0  0
M  END
$$$$
