3vb7_ligand
  -I-interpret- 

 66 65  0  0  0  0  0  0  0  0999 V2000
   -1.9420  -20.2680   36.4730 N   0  3  0  0  0
   -1.9560  -18.8170   36.5680 C   0  0  0  0  0
   -1.1490  -18.3530   37.7520 C   0  0  0  0  0
   -1.2210  -18.9440   38.8170 O   0  0  0  0  0
   -3.3890  -18.3080   36.7120 C   0  0  0  0  0
   -0.3850  -17.2730   37.5740 N   0  0  0  0  0
    0.4350  -16.7170   38.6460 C   0  0  0  0  0
    0.2220  -15.2310   38.7650 C   0  0  0  0  0
    0.4190  -14.5000   37.8080 O   0  0  0  0  0
    1.8790  -16.9650   38.2090 C   0  0  0  0  0
    2.8550  -16.1370   39.0350 C   0  0  0  0  0
    2.2490  -18.4470   38.2530 C   0  0  0  0  0
   -0.1780  -14.7460   39.9390 N   0  0  0  0  0
   -0.3880  -13.3070   40.1030 C   0  0  0  0  0
    0.9270  -12.5760   40.1940 C   0  0  0  0  0
    1.5640  -12.5150   41.2380 O   0  0  0  0  0
   -1.2120  -13.1560   41.3760 C   0  0  0  0  0
   -2.6780  -13.5070   41.1030 C   0  0  0  0  0
   -3.5830  -12.6810   42.0010 C   0  0  0  0  0
   -3.0890  -13.2980   39.6430 C   0  0  0  0  0
    2.5820   -9.8310   39.2230 C   0  0  0  0  0
    3.5880   -9.3380   39.7990 N   0  0  0  0  0
    2.6000  -11.3010   38.9140 C   0  0  0  0  0
    1.3370  -12.0200   39.0590 N   0  0  0  0  0
    2.8800  -11.4690   37.4280 C   0  0  0  0  0
    4.3400  -11.8080   37.1890 C   0  0  0  0  0
    4.4750  -12.1890   35.7400 C   0  0  0  0  0
    3.7040  -11.7230   34.9060 O   0  0  0  0  0
    5.4570  -13.0450   35.4560 N   0  0  0  0  0
   -0.9796  -20.5920   36.3774 H   0  0  0  0  0
   -2.3541  -20.6668   37.3166 H   0  0  0  0  0
   -2.4826  -20.5594   35.6586 H   0  0  0  0  0
   -1.5158  -18.4174   35.6544 H   0  0  0  0  0
   -3.8229  -18.7029   37.6306 H   0  0  0  0  0
   -3.3842  -17.2187   36.7499 H   0  0  0  0  0
   -3.9789  -18.6405   35.8578 H   0  0  0  0  0
   -0.3738  -16.8217   36.6594 H   0  0  0  0  0
    0.1888  -17.1698   39.6065 H   0  0  0  0  0
    1.9537  -16.6448   37.1698 H   0  0  0  0  0
    2.6297  -15.0782   38.9076 H   0  0  0  0  0
    2.7584  -16.4063   40.0868 H   0  0  0  0  0
    3.8728  -16.3361   38.6996 H   0  0  0  0  0
    2.1341  -18.8188   39.2712 H   0  0  0  0  0
    1.5920  -19.0042   37.5851 H   0  0  0  0  0
    3.2838  -18.5714   37.9340 H   0  0  0  0  0
   -0.3380  -15.3775   40.7239 H   0  0  0  0  0
   -0.9062  -12.8717   39.2485 H   0  0  0  0  0
   -1.1507  -12.1235   41.7200 H   0  0  0  0  0
   -0.8196  -13.8307   42.1368 H   0  0  0  0  0
   -2.7864  -14.5700   41.3184 H   0  0  0  0  0
   -3.3499  -12.8939   43.0443 H   0  0  0  0  0
   -3.4228  -11.6216   41.8005 H   0  0  0  0  0
   -4.6234  -12.9369   41.8003 H   0  0  0  0  0
   -2.9454  -12.2519   39.3726 H   0  0  0  0  0
   -2.4746  -13.9284   39.0001 H   0  0  0  0  0
   -4.1385  -13.5655   39.5205 H   0  0  0  0  0
    1.7259   -9.2108   38.9573 H   0  0  0  0  0
    4.3803   -9.9334   40.0402 H   0  0  0  0  0
    3.3291  -11.6966   39.6211 H   0  0  0  0  0
    0.7339  -12.1001   38.2403 H   0  0  0  0  0
    2.6488  -10.5333   36.9190 H   0  0  0  0  0
    2.2633  -12.2816   37.0440 H   0  0  0  0  0
    4.6545  -12.6290   37.8333 H   0  0  0  0  0
    4.9762  -10.9544   37.4230 H   0  0  0  0  0
    5.6037  -13.3521   34.4944 H   0  0  0  0  0
    6.0615  -13.3928   36.2003 H   0  0  0  0  0
  2  1  1  0  0  0
  3  2  1  0  0  0
  2  5  1  0  0  0
  3  4  2  0  0  0
  6  3  1  0  0  0
  7  6  1  0  0  0
  8  7  1  0  0  0
  7 10  1  0  0  0
  8  9  2  0  0  0
 13  8  1  0  0  0
 10 11  1  0  0  0
 10 12  1  0  0  0
 14 13  1  0  0  0
 15 14  1  0  0  0
 14 17  1  0  0  0
 15 16  2  0  0  0
 24 15  1  0  0  0
 17 18  1  0  0  0
 18 19  1  0  0  0
 18 20  1  0  0  0
 21 22  2  0  0  0
 23 21  1  0  0  0
 23 24  1  0  0  0
 23 25  1  0  0  0
 25 26  1  0  0  0
 26 27  1  0  0  0
 27 28  2  0  0  0
 27 29  1  0  0  0
  1 30  1  0  0  0
  1 31  1  0  0  0
  1 32  1  0  0  0
  2 33  1  0  0  0
  5 34  1  0  0  0
  5 35  1  0  0  0
  5 36  1  0  0  0
  6 37  1  0  0  0
  7 38  1  0  0  0
 10 39  1  0  0  0
 11 40  1  0  0  0
 11 41  1  0  0  0
 11 42  1  0  0  0
 12 43  1  0  0  0
 12 44  1  0  0  0
 12 45  1  0  0  0
 13 46  1  0  0  0
 14 47  1  0  0  0
 17 48  1  0  0  0
 17 49  1  0  0  0
 18 50  1  0  0  0
 19 51  1  0  0  0
 19 52  1  0  0  0
 19 53  1  0  0  0
 20 54  1  0  0  0
 20 55  1  0  0  0
 20 56  1  0  0  0
 21 57  1  0  0  0
 22 58  1  0  0  0
 23 59  1  0  0  0
 24 60  1  0  0  0
 25 61  1  0  0  0
 25 62  1  0  0  0
 26 63  1  0  0  0
 26 64  1  0  0  0
 29 65  1  0  0  0
 29 66  1  0  0  0
M  END
$$$$
