### 
### Created by X-TOOL on Mon Sep 10 21:13:10 2018
### 

@<TRIPOS>MOLECULE
3vb7_ligand
   66    65     1     0     0
SMALL
GAST_HUCK


@<TRIPOS>ATOM
      1 N          -1.9420  -20.2680   36.4730 N.4       1 ALA         0.2377
      2 CA         -1.9560  -18.8170   36.5680 C.3       1 ALA         0.0621
      3 C          -1.1490  -18.3530   37.7520 C.2       1 ALA         0.2264
      4 O          -1.2210  -18.9440   38.8170 O.2       1 ALA        -0.3907
      5 CB         -3.3890  -18.3080   36.7120 C.3       1 ALA        -0.0040
      6 N          -0.3850  -17.2730   37.5740 N.am      1 VAL        -0.2608
      7 CA          0.4350  -16.7170   38.6460 C.3       1 VAL         0.1334
      8 C           0.2220  -15.2310   38.7650 C.2       1 VAL         0.2042
      9 O           0.4190  -14.5000   37.8080 O.2       1 VAL        -0.3944
     10 CB          1.8790  -16.9650   38.2090 C.3       1 VAL        -0.0063
     11 CG1         2.8550  -16.1370   39.0350 C.3       1 VAL        -0.0584
     12 CG2         2.2490  -18.4470   38.2530 C.3       1 VAL        -0.0584
     13 N          -0.1780  -14.7460   39.9390 N.am      1 LEU        -0.2637
     14 CA         -0.3880  -13.3070   40.1030 C.3       1 LEU         0.1313
     15 C           0.9270  -12.5760   40.1940 C.2       1 LEU         0.2048
     16 O           1.5640  -12.5150   41.2380 O.2       1 LEU        -0.3943
     17 CB         -1.2120  -13.1560   41.3760 C.3       1 LEU        -0.0101
     18 CG         -2.6780  -13.5070   41.1030 C.3       1 LEU        -0.0425
     19 CD1        -3.5830  -12.6810   42.0010 C.3       1 LEU        -0.0625
     20 CD2        -3.0890  -13.2980   39.6430 C.3       1 LEU        -0.0625
     21 C           2.5820   -9.8310   39.2230 C.2       1 0JU         0.0208
     22 NF          3.5880   -9.3380   39.7990 N.2       1 0JU        -0.3619
     23 CA          2.6000  -11.3010   38.9140 C.3       1 0JU         0.1028
     24 N           1.3370  -12.0200   39.0590 N.am      1 0JU        -0.2623
     25 CB          2.8800  -11.4690   37.4280 C.3       1 0JU         0.0052
     26 CG          4.3400  -11.8080   37.1890 C.3       1 0JU         0.0421
     27 CD          4.4750  -12.1890   35.7400 C.2       1 0JU         0.1738
     28 OE          3.7040  -11.7230   34.9060 O.2       1 0JU        -0.3973
     29 NE          5.4570  -13.0450   35.4560 N.am      1 0JU        -0.3009
     30 H          -0.9796  -20.5920   36.3774 H         1 ALA         0.2015
     31 H          -2.3541  -20.6668   37.3166 H         1 ALA         0.2015
     32 H          -2.4826  -20.5594   35.6586 H         1 ALA         0.2015
     33 H          -1.5158  -18.4174   35.6544 H         1 ALA         0.1095
     34 H          -3.8229  -18.7029   37.6306 H         1 ALA         0.0310
     35 H          -3.3842  -17.2187   36.7499 H         1 ALA         0.0310
     36 H          -3.9789  -18.6405   35.8578 H         1 ALA         0.0310
     37 H          -0.3738  -16.8217   36.6594 H         1 VAL         0.1885
     38 H           0.1888  -17.1698   39.6065 H         1 VAL         0.0802
     39 H           1.9537  -16.6448   37.1698 H         1 VAL         0.0343
     40 H           2.6297  -15.0782   38.9076 H         1 VAL         0.0234
     41 H           2.7584  -16.4063   40.0868 H         1 VAL         0.0234
     42 H           3.8728  -16.3361   38.6996 H         1 VAL         0.0234
     43 H           2.1341  -18.8188   39.2712 H         1 VAL         0.0234
     44 H           1.5920  -19.0042   37.5851 H         1 VAL         0.0234
     45 H           3.2838  -18.5714   37.9340 H         1 VAL         0.0234
     46 H          -0.3380  -15.3775   40.7239 H         1 LEU         0.1883
     47 H          -0.9062  -12.8717   39.2485 H         1 LEU         0.0800
     48 H          -1.1507  -12.1235   41.7200 H         1 LEU         0.0315
     49 H          -0.8196  -13.8307   42.1368 H         1 LEU         0.0315
     50 H          -2.7864  -14.5700   41.3184 H         1 LEU         0.0298
     51 H          -3.3499  -12.8939   43.0443 H         1 LEU         0.0232
     52 H          -3.4228  -11.6216   41.8005 H         1 LEU         0.0232
     53 H          -4.6234  -12.9369   41.8003 H         1 LEU         0.0232
     54 H          -2.9454  -12.2519   39.3726 H         1 LEU         0.0232
     55 H          -2.4746  -13.9284   39.0001 H         1 LEU         0.0232
     56 H          -4.1385  -13.5655   39.5205 H         1 LEU         0.0232
     57 H           1.7259   -9.2108   38.9573 H         1 0JU         0.1225
     58 H           4.3803   -9.9334   40.0402 H         1 0JU         0.1054
     59 H           3.3291  -11.6966   39.6211 H         1 0JU         0.0841
     60 H           0.7339  -12.1001   38.2403 H         1 0JU         0.1897
     61 H           2.6488  -10.5333   36.9190 H         1 0JU         0.0348
     62 H           2.2633  -12.2816   37.0440 H         1 0JU         0.0348
     63 H           4.6545  -12.6290   37.8333 H         1 0JU         0.0505
     64 H           4.9762  -10.9544   37.4230 H         1 0JU         0.0505
     65 H           5.6037  -13.3521   34.4944 H         1 0JU         0.1814
     66 H           6.0615  -13.3928   36.2003 H         1 0JU         0.1814
@<TRIPOS>BOND
     1    2    1 1  
     2    3    2 1  
     3    2    5 1  
     4    3    4 2  
     5    6    3 am 
     6    7    6 1  
     7    8    7 1  
     8    7   10 1  
     9    8    9 2  
    10   13    8 am 
    11   10   11 1  
    12   10   12 1  
    13   14   13 1  
    14   15   14 1  
    15   14   17 1  
    16   15   16 2  
    17   24   15 am 
    18   17   18 1  
    19   18   19 1  
    20   18   20 1  
    21   21   22 2  
    22   23   21 1  
    23   23   24 1  
    24   23   25 1  
    25   25   26 1  
    26   26   27 1  
    27   27   28 2  
    28   27   29 am 
    29    1   30 1  
    30    1   31 1  
    31    1   32 1  
    32    2   33 1  
    33    5   34 1  
    34    5   35 1  
    35    5   36 1  
    36    6   37 1  
    37    7   38 1  
    38   10   39 1  
    39   11   40 1  
    40   11   41 1  
    41   11   42 1  
    42   12   43 1  
    43   12   44 1  
    44   12   45 1  
    45   13   46 1  
    46   14   47 1  
    47   17   48 1  
    48   17   49 1  
    49   18   50 1  
    50   19   51 1  
    51   19   52 1  
    52   19   53 1  
    53   20   54 1  
    54   20   55 1  
    55   20   56 1  
    56   21   57 1  
    57   22   58 1  
    58   23   59 1  
    59   24   60 1  
    60   25   61 1  
    61   25   62 1  
    62   26   63 1  
    63   26   64 1  
    64   29   65 1  
    65   29   66 1  
@<TRIPOS>SUBSTRUCTURE
     1 ALA         1

