### 
### Created by X-TOOL on Mon Sep 10 21:13:14 2018
### 

@<TRIPOS>MOLECULE
3vfj_ligand
  181   192     1     0     0
SMALL
GAST_HUCK


@<TRIPOS>ATOM
      1 N           9.4810   35.2720    9.8570 N.4       1 GHP         0.2481
      2 CA          8.0620   35.6240   10.0230 C.3       1 GHP         0.0913
      3 C           7.8600   36.8670   10.9260 C.2       1 GHP         0.2367
      4 O           8.6470   37.8110   10.9110 O.2       1 GHP        -0.3881
      5 C1          7.4540   35.8610    8.6460 C.ar      1 GHP         0.0050
      6 C2          7.1640   34.7500    7.8600 C.ar      1 GHP        -0.0716
      7 C3          6.6000   34.9150    6.6060 C.ar      1 GHP        -0.0464
      8 C4          6.3240   36.1910    6.1390 C.ar      1 GHP         0.1144
      9 O4          5.7710   36.3540    4.9070 O.3       1 GHP        -0.3402
     10 C5          6.6020   37.3040    6.9230 C.ar      1 GHP         0.1387
     11 C6          7.1720   37.1450    8.1860 C.ar      1 GHP        -0.0273
     12 OBD         1.4110   34.9360   14.1580 O.3       1 3MY        -0.2694
     13 CZ          2.6410   35.5100   14.1410 C.ar      1 3MY         0.1201
     14 CE2         2.7270   36.8240   14.5890 C.ar      1 3MY         0.0656
     15 CD2         3.9480   37.4760   14.5730 C.ar      1 3MY        -0.0538
     16 CL          1.3540   37.6480   15.1550 Cl        1 3MY        -0.0796
     17 CE1         3.7510   34.8310   13.6700 C.ar      1 3MY        -0.0347
     18 CD1         4.9730   35.4890   13.6650 C.ar      1 3MY        -0.0675
     19 CG          5.0660   36.8040   14.1060 C.ar      1 3MY        -0.0482
     20 CB          6.2880   37.4570   14.0840 C.3       1 3MY         0.0166
     21 CA          6.5910   37.9760   12.6640 C.3       1 3MY         0.1395
     22 C           5.5720   38.9930   12.1070 C.2       1 3MY         0.2075
     23 O           5.6240   40.1640   12.5330 O.2       1 3MY        -0.3941
     24 N           6.7870   36.8730   11.7080 N.am      1 3MY        -0.2579
     25 N           4.7070   38.6070   11.1750 N.am      1 3FG        -0.2533
     26 OD1         6.3140   38.5340    6.4020 O.3       1 3FG        -0.2674
     27 CD1         5.6020   39.4510    7.1560 C.ar      1 3FG         0.0986
     28 CG1         5.0340   39.0780    8.3720 C.ar      1 3FG        -0.0346
     29 CZ          5.5670   40.7840    6.7570 C.ar      1 3FG        -0.0083
     30 CD2         4.9850   41.7440    7.5710 C.ar      1 3FG         0.0737
     31 OD2         4.9690   43.0400    7.1640 O.3       1 3FG        -0.3374
     32 CG2         4.4240   41.3760    8.7920 C.ar      1 3FG        -0.0385
     33 CB          4.4560   40.0360    9.1880 C.ar      1 3FG        -0.0157
     34 CA          3.8530   39.6210   10.5280 C.3       1 3FG         0.1600
     35 C           2.3920   39.2120   10.3390 C.2       1 3FG         0.2169
     36 O           1.5390   40.1220   10.3640 O.2       1 3FG        -0.3912
     37 N           2.0910   37.9340   10.1440 N.am      1 GHP        -0.2531
     38 CA          0.6870   37.5270   10.0040 C.3       1 GHP         0.1555
     39 C           0.3750   37.2120    8.5380 C.2       1 GHP         0.2152
     40 O           1.1760   36.5130    7.8980 O.2       1 GHP        -0.3916
     41 C1          0.3930   36.2980   10.8900 C.ar      1 GHP        -0.0249
     42 C2          1.0320   36.1660   12.1230 C.ar      1 GHP        -0.0411
     43 C3          0.7730   35.0620   12.9360 C.ar      1 GHP         0.1306
     44 C4         -0.1220   34.0860   12.5180 C.ar      1 GHP         0.1526
     45 O4         -0.3810   33.0200   13.3250 O.3       1 GHP        -0.2970
     46 C5         -0.7720   34.2060   11.2910 C.ar      1 GHP         0.1304
     47 C6         -0.5140   35.3140   10.4780 C.ar      1 GHP        -0.0411
     48 N          -0.7290   37.7330    8.0140 N.am      1 GHP        -0.2531
     49 CA         -1.3230   37.1810    6.7850 C.3       1 GHP         0.1588
     50 C          -2.8320   37.1890    6.9840 C.2       1 GHP         0.2141
     51 O          -3.3200   37.9940    7.8030 O.2       1 GHP        -0.3918
     52 C1         -1.0820   37.9630    5.4920 C.ar      1 GHP        -0.0135
     53 C2         -0.5750   37.2760    4.3930 C.ar      1 GHP        -0.0626
     54 C3         -0.3860   37.9260    3.1820 C.ar      1 GHP        -0.0068
     55 C4         -0.6980   39.2800    3.0730 C.ar      1 GHP         0.0843
     56 O4         -0.5050   39.9270    1.8970 O.3       1 GHP        -0.3377
     57 C5         -1.2160   39.9690    4.1680 C.ar      1 GHP        -0.0419
     58 C6         -1.4170   39.3110    5.3810 C.ar      1 GHP        -0.0677
     59 N          -3.5560   36.3380    6.2710 N.am      1 OMX        -0.2584
     60 CA         -2.9550   35.3460    5.3720 C.3       1 OMX         0.1654
     61 C          -3.2320   35.8200    3.9450 C.2       1 OMX         0.2096
     62 O          -4.2420   36.5230    3.7230 O.2       1 OMX        -0.3940
     63 CB         -3.6010   34.0240    5.7240 C.3       1 OMX         0.1244
     64 OC         -4.9840   34.3380    5.6850 O.3       1 OMX        -0.3762
     65 CG         -3.1610   33.8030    7.0320 C.ar      1 OMX        -0.0205
     66 CD1        -1.8990   33.2420    7.2130 C.ar      1 OMX        -0.0653
     67 CD2        -3.9010   34.1810    8.1500 C.ar      1 OMX        -0.0653
     68 CE1        -1.3880   33.0280    8.4900 C.ar      1 OMX        -0.0354
     69 CE2        -3.3930   33.9690    9.4340 C.ar      1 OMX        -0.0354
     70 CZ         -2.1300   33.4000    9.6080 C.ar      1 OMX         0.1058
     71 OH         -1.6180   33.1890   10.8620 O.3       1 OMX        -0.2703
     72 N          -2.3560   35.4720    3.0090 N.am      1 3FG        -0.2587
     73 OD1         2.1150   38.0560    2.3520 O.3       1 3FG        -0.3356
     74 CD1         1.2810   37.2430    1.6090 C.ar      1 3FG         0.0825
     75 CG1        -0.0200   37.1830    2.0530 C.ar      1 3FG         0.0040
     76 CZ          1.8570   36.5820    0.5380 C.ar      1 3FG        -0.0111
     77 CD2         1.0080   35.7410   -0.1700 C.ar      1 3FG         0.0737
     78 OD2         1.4890   35.0410   -1.2350 O.3       1 3FG        -0.3370
     79 CG2        -0.3300   35.6190    0.2230 C.ar      1 3FG        -0.0382
     80 CB         -0.8420   36.3290    1.3150 C.ar      1 3FG        -0.0133
     81 CA         -2.3100   36.1640    1.7090 C.3       1 3FG         0.1242
     82 C          -3.0760   35.4080    0.6150 C.2       1 3FG         0.0721
     83 O          -3.4930   36.0940   -0.3450 O.co2     1 3FG        -0.5641
     84 OXT        -3.2370   34.1760    0.7670 O.co2     1 3FG        -0.5641
     85 C1          0.5450   32.0010   13.4650 C.3       1 GCS         0.2010
     86 C2          0.1880   31.2040   14.7160 C.3       1 GCS         0.1245
     87 C3          1.2050   30.1000   14.8630 C.3       1 GCS         0.1114
     88 C4          1.1410   29.2260   13.6140 C.3       1 GCS         0.1117
     89 C5          1.4850   30.0810   12.3910 C.3       1 GCS         0.1133
     90 C6          1.4400   29.2300   11.1160 C.3       1 GCS         0.0730
     91 N2          0.3790   32.1960   15.7810 N.am      1 GCS        -0.2761
     92 O3          0.8170   29.3110   15.9940 O.3       1 GCS        -0.3867
     93 O4          2.0910   28.1710   13.7170 O.3       1 GCS        -0.3865
     94 O5          0.5260   31.1760   12.2800 O.3       1 GCS        -0.3378
     95 O6          0.1200   28.7020   10.9490 O.3       1 GCS        -0.3924
     96 CAD        -4.1270   38.4090   11.4850 C.3       1 T55        -0.0627
     97 CAE        -3.2310   38.2330   12.7070 C.3       1 T55        -0.0467
     98 CAG        -2.8590   36.7670   12.7870 C.3       1 T55        -0.0507
     99 CAH        -1.9990   36.4130   14.0110 C.3       1 T55        -0.0528
    100 CAI        -2.7350   36.6970   15.3170 C.3       1 T55        -0.0529
    101 CAJ        -1.8550   36.2220   16.4790 C.3       1 T55        -0.0510
    102 CAK        -1.6370   34.7460   16.1880 C.3       1 T55        -0.0361
    103 CAL        -0.8190   33.9100   17.1880 C.3       1 T55         0.0372
    104 CAF        -1.9630   39.0360   12.4430 C.3       1 T55        -0.0627
    105 C          -0.7940   32.5610   16.4530 C.2       1 T55         0.1764
    106 O          -1.8490   31.9760   16.2130 O.2       1 T55        -0.3971
    107 H1          9.8956   35.1124   10.7618 H         1 GHP         0.2027
    108 H2          9.9628   36.0274    9.3952 H         1 GHP         0.2027
    109 H3          9.5567   34.4350    9.3004 H         1 GHP         0.2027
    110 H4          7.5475   34.7741   10.4951 H         1 GHP         0.1237
    111 H5          7.3798   33.7541    8.2297 H         1 GHP         0.0448
    112 H6          6.3753   34.0503    5.9922 H         1 GHP         0.0495
    113 H7          5.6455   37.2803    4.7375 H         1 GHP         0.2425
    114 H8          7.3927   38.0095    8.8016 H         1 GHP         0.0467
    115 H9          4.0284   38.4993   14.9214 H         1 3MY         0.0536
    116 H10         3.6681   33.8105   13.3138 H         1 3MY         0.0534
    117 H11         5.8605   34.9742   13.3150 H         1 3MY         0.0534
    118 H12         7.0791   36.7572   14.3912 H         1 3MY         0.0454
    119 H13         6.2583   38.3064   14.7823 H         1 3MY         0.0454
    120 H14         7.5500   38.5100   12.7361 H         1 3MY         0.0821
    121 H15         6.1164   36.1335   11.6482 H         1 3MY         0.1887
    122 H16         4.6361   37.6437   10.9161 H         1 3FG         0.1909
    123 H17         5.0444   38.0385    8.6793 H         1 3FG         0.0403
    124 H18         5.9970   41.0732    5.8049 H         1 3FG         0.0418
    125 H19         4.5399   43.5725    7.8234 H         1 3FG         0.2477
    126 H20         3.9662   42.1233    9.4300 H         1 3FG         0.0398
    127 H21         3.8539   40.5033   11.1849 H         1 3FG         0.0957
    128 H22         2.8186   37.2499   10.0925 H         1 GHP         0.1908
    129 H23         0.0446   38.3580   10.3309 H         1 GHP         0.0937
    130 H24         1.7332   36.9248   12.4511 H         1 GHP         0.0383
    131 H25        -1.0188   35.4117    9.5237 H         1 GHP         0.0383
    132 H26        -1.1643   38.5138    8.4621 H         1 GHP         0.1908
    133 H27        -0.9527   36.1540    6.6505 H         1 GHP         0.0938
    134 H28        -0.3259   36.2249    4.4839 H         1 GHP         0.0497
    135 H29        -0.7652   40.8359    1.9905 H         1 GHP         0.2460
    136 H30        -1.4636   41.0204    4.0765 H         1 GHP         0.0515
    137 H31        -1.8302   39.8435    6.2300 H         1 GHP         0.0506
    138 H32        -4.5523   36.3734    6.3488 H         1 OMX         0.1887
    139 H33        -1.8684   35.2773    5.5288 H         1 OMX         0.0848
    140 H34        -3.3384   33.1970    5.0479 H         1 OMX         0.0786
    141 H35        -5.2143   34.6412    4.8147 H         1 OMX         0.2130
    142 H36        -1.3066   32.9683    6.3474 H         1 OMX         0.0532
    143 H37        -4.8743   34.6412    8.0233 H         1 OMX         0.0532
    144 H38        -0.4125   32.5718    8.6141 H         1 OMX         0.0534
    145 H39        -3.9826   34.2478   10.2999 H         1 OMX         0.0534
    146 H40        -1.7153   34.7259    3.1902 H         1 3FG         0.1902
    147 H41         1.7815   38.9455    2.3398 H         1 3FG         0.2488
    148 H42         2.8993   36.7118    0.2701 H         1 3FG         0.0412
    149 H43         0.7909   34.5164   -1.6091 H         1 3FG         0.2482
    150 H44        -0.9858   34.9582   -0.3323 H         1 3FG         0.0398
    151 H45        -2.7660   37.1585    1.8229 H         1 3FG         0.0887
    152 H46         1.5511   32.4292   13.5853 H         1 GHP         0.0979
    153 H47        -0.8368   30.8049   14.6914 H         1 GHP         0.0637
    154 H48         2.2162   30.5109   14.9995 H         1 GHP         0.0645
    155 H49         0.1299   28.8066   13.5056 H         1 GHP         0.0647
    156 H50         2.4970   30.4946   12.5129 H         1 GHP         0.0647
    157 H51         2.1594   28.4022   11.2006 H         1 GHP         0.0584
    158 H52         1.6992   29.8538   10.2479 H         1 GHP         0.0584
    159 H53         1.2740   32.5799   16.0081 H         1 GHP         0.1857
    160 H54         1.4104   28.5745   16.0835 H         1 GHP         0.2100
    161 H55         2.9615   28.5387   13.8148 H         1 GHP         0.2100
    162 H56        -0.4996   29.4184   10.8768 H         1 GHP         0.2095
    163 H57        -4.4189   39.4656   11.3935 H         1 GHP         0.0232
    164 H58        -5.0280   37.7883   11.5985 H         1 GHP         0.0232
    165 H59        -3.5803   38.1002   10.5819 H         1 GHP         0.0232
    166 H60        -3.7324   38.5676   13.6271 H         1 GHP         0.0295
    167 H61        -2.2971   36.5014   11.8794 H         1 GHP         0.0268
    168 H62        -3.7854   36.1756   12.8310 H         1 GHP         0.0268
    169 H63        -1.0765   37.0115   13.9840 H         1 GHP         0.0265
    170 H64        -1.7438   35.3438   13.9706 H         1 GHP         0.0265
    171 H65        -3.6922   36.1552   15.3299 H         1 GHP         0.0265
    172 H66        -2.9235   37.7767   15.4105 H         1 GHP         0.0265
    173 H67        -2.3689   36.3600   17.4417 H         1 GHP         0.0267
    174 H68        -0.8980   36.7642   16.4931 H         1 GHP         0.0267
    175 H69        -1.1264   34.6793   15.2160 H         1 GHP         0.0290
    176 H70        -2.6307   34.2803   16.1129 H         1 GHP         0.0290
    177 H71        -1.3218   33.8338   18.1634 H         1 GHP         0.0502
    178 H72         0.1933   34.3170   17.3280 H         1 GHP         0.0502
    179 H73        -2.2125   40.1055   12.3814 H         1 GHP         0.0232
    180 H74        -1.5130   38.7092   11.4940 H         1 GHP         0.0232
    181 H75        -1.2483   38.8729   13.2631 H         1 GHP         0.0232
@<TRIPOS>BOND
     1    2    1 1  
     2    3    2 1  
     3    2    5 1  
     4    3    4 2  
     5   24    3 am 
     6    5    6 ar 
     7    5   11 ar 
     8    6    7 ar 
     9    8    7 ar 
    10    8    9 1  
    11   10    8 ar 
    12   10   11 ar 
    13   26   10 1  
    14   12   13 1  
    15   43   12 1  
    16   13   14 ar 
    17   13   17 ar 
    18   14   15 ar 
    19   14   16 1  
    20   15   19 ar 
    21   17   18 ar 
    22   18   19 ar 
    23   19   20 1  
    24   20   21 1  
    25   21   22 1  
    26   21   24 1  
    27   22   23 2  
    28   25   22 am 
    29   34   25 1  
    30   27   26 1  
    31   28   27 ar 
    32   27   29 ar 
    33   33   28 ar 
    34   30   29 ar 
    35   30   31 1  
    36   32   30 ar 
    37   33   32 ar 
    38   34   33 1  
    39   35   34 1  
    40   35   36 2  
    41   37   35 am 
    42   38   37 1  
    43   38   39 1  
    44   41   38 1  
    45   39   40 2  
    46   39   48 am 
    47   42   41 ar 
    48   47   41 ar 
    49   43   42 ar 
    50   44   43 ar 
    51   45   44 1  
    52   44   46 ar 
    53   85   45 1  
    54   46   47 ar 
    55   46   71 1  
    56   48   49 1  
    57   49   50 1  
    58   49   52 1  
    59   50   51 2  
    60   50   59 am 
    61   52   53 ar 
    62   52   58 ar 
    63   53   54 ar 
    64   54   55 ar 
    65   54   75 1  
    66   55   56 1  
    67   57   55 ar 
    68   58   57 ar 
    69   60   59 1  
    70   60   61 1  
    71   63   60 1  
    72   61   62 2  
    73   61   72 am 
    74   63   64 1  
    75   65   63 1  
    76   66   65 ar 
    77   67   65 ar 
    78   68   66 ar 
    79   69   67 ar 
    80   70   68 ar 
    81   70   69 ar 
    82   71   70 1  
    83   72   81 1  
    84   74   73 1  
    85   75   74 ar 
    86   74   76 ar 
    87   75   80 ar 
    88   76   77 ar 
    89   77   78 1  
    90   79   77 ar 
    91   80   79 ar 
    92   81   80 1  
    93   81   82 1  
    94   82   83 ar 
    95   82   84 ar 
    96   86   85 1  
    97   85   94 1  
    98   86   87 1  
    99   91   86 1  
   100   87   88 1  
   101   87   92 1  
   102   88   89 1  
   103   88   93 1  
   104   89   90 1  
   105   94   89 1  
   106   90   95 1  
   107  105   91 am 
   108   97   96 1  
   109   98   97 1  
   110   97  104 1  
   111   99   98 1  
   112  100   99 1  
   113  101  100 1  
   114  102  101 1  
   115  103  102 1  
   116  103  105 1  
   117  105  106 2  
   118    1  107 1  
   119    1  108 1  
   120    1  109 1  
   121    2  110 1  
   122    6  111 1  
   123    7  112 1  
   124    9  113 1  
   125   11  114 1  
   126   15  115 1  
   127   17  116 1  
   128   18  117 1  
   129   20  118 1  
   130   20  119 1  
   131   21  120 1  
   132   24  121 1  
   133   25  122 1  
   134   28  123 1  
   135   29  124 1  
   136   31  125 1  
   137   32  126 1  
   138   34  127 1  
   139   37  128 1  
   140   38  129 1  
   141   42  130 1  
   142   47  131 1  
   143   48  132 1  
   144   49  133 1  
   145   53  134 1  
   146   56  135 1  
   147   57  136 1  
   148   58  137 1  
   149   59  138 1  
   150   60  139 1  
   151   63  140 1  
   152   64  141 1  
   153   66  142 1  
   154   67  143 1  
   155   68  144 1  
   156   69  145 1  
   157   72  146 1  
   158   73  147 1  
   159   76  148 1  
   160   78  149 1  
   161   79  150 1  
   162   81  151 1  
   163   85  152 1  
   164   86  153 1  
   165   87  154 1  
   166   88  155 1  
   167   89  156 1  
   168   90  157 1  
   169   90  158 1  
   170   91  159 1  
   171   92  160 1  
   172   93  161 1  
   173   95  162 1  
   174   96  163 1  
   175   96  164 1  
   176   96  165 1  
   177   97  166 1  
   178   98  167 1  
   179   98  168 1  
   180   99  169 1  
   181   99  170 1  
   182  100  171 1  
   183  100  172 1  
   184  101  173 1  
   185  101  174 1  
   186  102  175 1  
   187  102  176 1  
   188  103  177 1  
   189  103  178 1  
   190  104  179 1  
   191  104  180 1  
   192  104  181 1  
@<TRIPOS>SUBSTRUCTURE
     1 GHP         1

