6mli_ligand
  -I-interpret- 

 20 20  0  0  0  0  0  0  0  0999 V2000
   19.0200    1.0270  -12.1850 N   0  3  0  0  0
   19.2430    1.9300  -11.0570 C   0  0  0  0  0
   19.5650    1.1710   -9.7620 C   0  0  0  0  0
   19.8570   -0.0260   -9.8110 O   0  0  0  0  0
   18.0310    2.8570  -10.8930 C   0  0  0  0  0
   16.7400    2.1540  -10.6050 C   0  0  0  0  0
   16.2570    1.1220  -11.3750 N   0  0  0  0  0
   15.7960    2.3970   -9.6680 C   0  0  0  0  0
   15.0900    0.7240  -10.8940 C   0  0  0  0  0
   14.7850    1.4850   -9.8640 N   0  0  0  0  0
   19.5910    1.7100   -8.6430 O   0  0  0  0  0
   19.8269    0.4123  -12.2915 H   0  0  0  0  0
   18.1853    0.4672  -12.0110 H   0  0  0  0  0
   18.8928    1.5737  -13.0366 H   0  0  0  0  0
   20.1212    2.5390  -11.2714 H   0  0  0  0  0
   17.9023    3.3816  -11.8397 H   0  0  0  0  0
   18.2383    3.5023  -10.0394 H   0  0  0  0  0
   15.8298    3.1707   -8.9009 H   0  0  0  0  0
   14.4847   -0.0943  -11.2841 H   0  0  0  0  0
   19.3477    2.6347   -8.7287 H   0  0  0  0  0
  1  2  1  0  0  0
  2  3  1  0  0  0
  2  5  1  0  0  0
  3  4  2  0  0  0
  3 11  1  0  0  0
  5  6  1  0  0  0
  6  7  4  0  0  0
  6  8  4  0  0  0
  7  9  4  0  0  0
  8 10  4  0  0  0
  9 10  4  0  0  0
  1 12  1  0  0  0
  1 13  1  0  0  0
  1 14  1  0  0  0
  2 15  1  0  0  0
  5 16  1  0  0  0
  5 17  1  0  0  0
  8 18  1  0  0  0
  9 19  1  0  0  0
 11 20  1  0  0  0
M  END
$$$$
