5yc8_ligand
  -I-interpret- 

 47 50  0  0  0  0  0  0  0  0999 V2000
  185.7280   24.1890  526.9790 C   0  0  0  0  0
  181.5930   26.6450  526.1350 C   0  0  0  0  0
  181.0870   29.1070  525.5720 C   0  0  0  0  0
  182.5420   29.1050  527.4900 C   0  0  0  0  0
  180.0010   30.7090  527.1130 C   0  0  0  0  0
  178.9060   28.7380  526.6140 C   0  0  0  0  0
  181.1050   28.5860  527.7550 C   0  0  0  0  0
  180.2600   29.2960  526.7740 N   0  3  0  0  0
  181.0420   27.6380  525.0910 C   0  0  0  0  0
  182.5290   29.4660  526.0270 C   0  0  0  0  0
  182.7760   30.4800  527.0530 O   0  0  0  0  0
  181.0870   27.0610  527.5370 C   0  0  0  0  0
  183.0370   26.5390  526.0310 O   0  0  0  0  0
  183.6130   25.5220  526.7250 C   0  0  0  0  0
  183.0010   24.6100  527.2810 O   0  0  0  0  0
  185.1430   25.5820  526.7410 C   0  0  0  0  0
  185.3580   23.3320  525.8950 O   0  0  0  0  0
  185.5650   26.4660  527.7310 C   0  0  0  0  0
  186.0710   27.7100  527.3720 C   0  0  0  0  0
  186.4920   28.6000  528.3520 C   0  0  0  0  0
  186.4080   28.2470  529.6930 C   0  0  0  0  0
  185.9010   27.0030  530.0540 C   0  0  0  0  0
  185.4790   26.1120  529.0730 C   0  0  0  0  0
  185.3405   23.7843  527.9140 H   0  0  0  0  0
  186.8144   24.2539  527.0396 H   0  0  0  0  0
  181.2205   25.6382  525.9460 H   0  0  0  0  0
  180.7371   29.7207  524.7419 H   0  0  0  0  0
  183.0739   28.5248  528.2440 H   0  0  0  0  0
  179.4914   30.7630  528.0750 H   0  0  0  0  0
  180.9473   31.2467  527.1710 H   0  0  0  0  0
  179.3737   31.1571  526.3424 H   0  0  0  0  0
  178.9781   27.7030  526.2798 H   0  0  0  0  0
  178.3831   28.7770  527.5696 H   0  0  0  0  0
  178.3585   29.3226  525.8747 H   0  0  0  0  0
  180.7491   28.7670  528.7692 H   0  0  0  0  0
  179.9990   27.3809  524.9061 H   0  0  0  0  0
  181.6639   27.5614  524.1991 H   0  0  0  0  0
  183.0448   29.3132  525.0790 H   0  0  0  0  0
  181.7502   26.6119  528.2763 H   0  0  0  0  0
  180.0546   26.7242  527.6310 H   0  0  0  0  0
  185.4975   25.9382  525.7737 H   0  0  0  0  0
  185.7238   22.4566  526.0414 H   0  0  0  0  0
  186.1375   27.9875  526.3200 H   0  0  0  0  0
  186.8882   29.5752  528.0688 H   0  0  0  0  0
  186.7393   28.9447  530.4621 H   0  0  0  0  0
  185.8344   26.7264  531.1062 H   0  0  0  0  0
  185.0813   25.1373  529.3558 H   0  0  0  0  0
 16  1  1  0  0  0
  1 17  1  0  0  0
  2  9  1  0  0  0
  2 12  1  0  0  0
 13  2  1  0  0  0
  3  8  1  0  0  0
  9  3  1  0  0  0
  3 10  1  0  0  0
  7  4  1  0  0  0
  4 10  1  0  0  0
  4 11  1  0  0  0
  8  5  1  0  0  0
  8  6  1  0  0  0
  7  8  1  0  0  0
 12  7  1  0  0  0
 10 11  1  0  0  0
 14 13  1  0  0  0
 14 15  2  0  0  0
 14 16  1  0  0  0
 16 18  1  0  0  0
 18 19  4  0  0  0
 18 23  4  0  0  0
 19 20  4  0  0  0
 20 21  4  0  0  0
 21 22  4  0  0  0
 22 23  4  0  0  0
  1 24  1  0  0  0
  1 25  1  0  0  0
  2 26  1  0  0  0
  3 27  1  0  0  0
  4 28  1  0  0  0
  5 29  1  0  0  0
  5 30  1  0  0  0
  5 31  1  0  0  0
  6 32  1  0  0  0
  6 33  1  0  0  0
  6 34  1  0  0  0
  7 35  1  0  0  0
  9 36  1  0  0  0
  9 37  1  0  0  0
 10 38  1  0  0  0
 12 39  1  0  0  0
 12 40  1  0  0  0
 16 41  1  0  0  0
 17 42  1  0  0  0
 19 43  1  0  0  0
 20 44  1  0  0  0
 21 45  1  0  0  0
 22 46  1  0  0  0
 23 47  1  0  0  0
M  END
$$$$
