6o3x_ligand
  -I-interpret- 

 90 91  0  0  0  0  0  0  0  0999 V2000
   62.0640  117.9510   14.4860 N   0  3  0  0  0
   60.7320  117.7270   13.9280 C   0  0  0  0  0
   60.1930  116.3960   14.4200 C   0  0  0  0  0
   59.6130  115.6180   13.6630 O   0  0  0  0  0
   60.7630  117.7530   12.3990 C   0  0  0  0  0
   59.4240  118.1340   11.7990 C   0  0  0  0  0
   58.5480  118.6000   12.5600 O   0  0  0  0  0
   59.2480  117.9690   10.5710 O   0  0  0  0  0
   60.4140  116.1270   15.6980 N   0  0  0  0  0
   59.9530  114.8770   16.2640 C   0  0  0  0  0
   58.4310  114.8680   16.3500 C   0  0  0  0  0
   57.7540  115.8720   16.1090 O   0  0  0  0  0
   60.5710  114.6530   17.6440 C   0  0  0  0  0
   61.7690  113.7220   17.6010 C   0  0  0  0  0
   61.7200  112.7280   16.8420 O   0  0  0  0  0
   62.7560  113.9840   18.3200 O   0  0  0  0  0
   57.8950  113.6930   16.6540 N   0  0  0  0  0
   56.5100  113.5290   17.0690 C   0  0  0  0  0
   56.5280  112.8630   18.4330 C   0  0  0  0  0
   57.0960  111.7770   18.5920 O   0  0  0  0  0
   55.7210  112.6820   16.0730 C   0  0  0  0  0
   54.2620  112.4520   16.4230 C   0  0  0  0  0
   53.2810  113.3570   16.0340 C   0  0  0  0  0
   53.8610  111.3120   17.1070 C   0  0  0  0  0
   51.9440  113.1380   16.3350 C   0  0  0  0  0
   52.5280  111.0820   17.4060 C   0  0  0  0  0
   51.5740  112.0010   17.0180 C   0  0  0  0  0
   50.2480  111.7760   17.3170 O   0  0  0  0  0
   55.9370  113.5200   19.4140 N   0  0  0  0  0
   55.6920  112.8870   20.7040 C   0  0  0  0  0
   54.1930  112.8830   20.9240 C   0  0  0  0  0
   53.5800  113.9670   20.9990 O   0  0  0  0  0
   56.4190  113.6090   21.8380 C   0  0  0  0  0
   57.8160  113.2880   21.7820 O   0  0  0  0  0
   55.8570  113.1890   23.1970 C   0  0  0  0  0
   53.5540  111.7200   20.9790 N   0  0  0  0  0
   52.1150  111.6880   21.2670 C   0  0  0  0  0
   51.8430  112.1990   22.6740 C   0  0  0  0  0
   52.5490  111.8510   23.6230 O   0  0  0  0  0
   51.7460  110.2050   21.1290 C   0  0  0  0  0
   52.9540  109.5200   20.5510 C   0  0  0  0  0
   54.1410  110.3740   20.8420 C   0  0  0  0  0
   50.8160  113.0360   22.7990 N   0  0  0  0  0
   50.4840  113.6530   24.0820 C   0  0  0  0  0
   49.3270  112.9320   24.7590 C   0  0  0  0  0
   48.2060  112.9390   24.2610 O   0  0  0  0  0
   50.1420  115.1340   23.8930 C   0  0  0  0  0
   51.1640  115.8120   23.1810 O   0  0  0  0  0
   49.4940  112.3310   25.8150 O   0  0  0  0  0
   62.0129  117.9284   15.5045 H   0  0  0  0  0
   62.6954  117.2194   14.1597 H   0  0  0  0  0
   62.4101  118.8610   14.1819 H   0  0  0  0  0
   60.0760  118.5308   14.2621 H   0  0  0  0  0
   61.0157  116.7517   12.0502 H   0  0  0  0  0
   61.4952  118.4989   12.0896 H   0  0  0  0  0
   60.0447  117.6018   10.1812 H   0  0  0  0  0
   60.9088  116.8003   16.2830 H   0  0  0  0  0
   60.2689  114.0620   15.6128 H   0  0  0  0  0
   59.8136  114.1967   18.2814 H   0  0  0  0  0
   60.9088  115.6181   18.0216 H   0  0  0  0  0
   60.8761  112.7174   16.3846 H   0  0  0  0  0
   58.4838  112.8623   16.5937 H   0  0  0  0  0
   56.0170  114.5002   17.1119 H   0  0  0  0  0
   56.1948  111.7005   16.0563 H   0  0  0  0  0
   55.7317  113.2241   15.1274 H   0  0  0  0  0
   53.5666  114.2534   15.4835 H   0  0  0  0  0
   54.6106  110.5830   17.4150 H   0  0  0  0  0
   51.1893  113.8636   16.0318 H   0  0  0  0  0
   52.2344  110.1809   17.9443 H   0  0  0  0  0
   50.1646  110.9456   17.7914 H   0  0  0  0  0
   55.6470  114.4867   19.2667 H   0  0  0  0  0
   56.0813  111.8689   20.7015 H   0  0  0  0  0
   56.2744  114.6828   21.7190 H   0  0  0  0  0
   58.2758  113.7400   22.4932 H   0  0  0  0  0
   54.7969  113.4384   23.2432 H   0  0  0  0  0
   55.9845  112.1141   23.3250 H   0  0  0  0  0
   56.3904  113.7162   23.9880 H   0  0  0  0  0
   51.5301  112.3227   20.6012 H   0  0  0  0  0
   50.8768  110.0762   20.4840 H   0  0  0  0  0
   51.4777  109.7768   22.0948 H   0  0  0  0  0
   52.8366  109.3869   19.4755 H   0  0  0  0  0
   53.0790  108.5323   20.9949 H   0  0  0  0  0
   54.6825  110.0561   21.7330 H   0  0  0  0  0
   54.9011  110.3214   20.0625 H   0  0  0  0  0
   50.2471  113.2521   21.9804 H   0  0  0  0  0
   51.3596  113.5706   24.7260 H   0  0  0  0  0
   48.2232  113.4428   23.4440 H   0  0  0  0  0
   50.0395  115.5946   24.8756 H   0  0  0  0  0
   49.2156  115.2062   23.3232 H   0  0  0  0  0
   50.9223  116.7354   23.0783 H   0  0  0  0  0
  1  2  1  0  0  0
  2  3  1  0  0  0
  2  5  1  0  0  0
  3  4  2  0  0  0
  3  9  1  0  0  0
  5  6  1  0  0  0
  6  7  2  0  0  0
  6  8  1  0  0  0
  9 10  1  0  0  0
 10 11  1  0  0  0
 10 13  1  0  0  0
 11 12  2  0  0  0
 11 17  1  0  0  0
 13 14  1  0  0  0
 14 15  1  0  0  0
 14 16  2  0  0  0
 17 18  1  0  0  0
 18 19  1  0  0  0
 18 21  1  0  0  0
 19 20  2  0  0  0
 19 29  1  0  0  0
 21 22  1  0  0  0
 22 23  4  0  0  0
 22 24  4  0  0  0
 23 25  4  0  0  0
 24 26  4  0  0  0
 25 27  4  0  0  0
 26 27  4  0  0  0
 27 28  1  0  0  0
 29 30  1  0  0  0
 30 31  1  0  0  0
 30 33  1  0  0  0
 31 32  2  0  0  0
 31 36  1  0  0  0
 33 34  1  0  0  0
 33 35  1  0  0  0
 36 37  1  0  0  0
 36 42  1  0  0  0
 37 38  1  0  0  0
 37 40  1  0  0  0
 38 39  2  0  0  0
 38 43  1  0  0  0
 40 41  1  0  0  0
 41 42  1  0  0  0
 43 44  1  0  0  0
 44 45  1  0  0  0
 44 47  1  0  0  0
 45 46  1  0  0  0
 45 49  2  0  0  0
 47 48  1  0  0  0
  1 50  1  0  0  0
  1 51  1  0  0  0
  1 52  1  0  0  0
  2 53  1  0  0  0
  5 54  1  0  0  0
  5 55  1  0  0  0
  8 56  1  0  0  0
  9 57  1  0  0  0
 10 58  1  0  0  0
 13 59  1  0  0  0
 13 60  1  0  0  0
 15 61  1  0  0  0
 17 62  1  0  0  0
 18 63  1  0  0  0
 21 64  1  0  0  0
 21 65  1  0  0  0
 23 66  1  0  0  0
 24 67  1  0  0  0
 25 68  1  0  0  0
 26 69  1  0  0  0
 28 70  1  0  0  0
 29 71  1  0  0  0
 30 72  1  0  0  0
 33 73  1  0  0  0
 34 74  1  0  0  0
 35 75  1  0  0  0
 35 76  1  0  0  0
 35 77  1  0  0  0
 37 78  1  0  0  0
 40 79  1  0  0  0
 40 80  1  0  0  0
 41 81  1  0  0  0
 41 82  1  0  0  0
 42 83  1  0  0  0
 42 84  1  0  0  0
 43 85  1  0  0  0
 44 86  1  0  0  0
 46 87  1  0  0  0
 47 88  1  0  0  0
 47 89  1  0  0  0
 48 90  1  0  0  0
M  END
$$$$
