5f6d_ligand
  -I-interpret- 

 25 27  0  0  0  0  0  0  0  0999 V2000
  -12.7290   14.5510  -24.5010 O   0  0  0  0  0
  -11.7190   14.5470  -23.3800 S   0  0  0  0  0
  -12.4040   15.1500  -22.1880 O   0  0  0  0  0
  -11.3530   12.9450  -23.0120 C   0  0  0  0  0
  -12.3750   12.0540  -22.6350 C   0  0  0  0  0
  -12.0730   10.7290  -22.3270 C   0  0  0  0  0
  -10.7530   10.2830  -22.3950 C   0  0  0  0  0
   -9.7410   11.1560  -22.7680 C   0  0  0  0  0
  -10.0480   12.5020  -23.0760 C   0  0  0  0  0
   -8.9670   13.5120  -23.4940 C   0  0  0  0  0
   -7.6700   13.0130  -23.5400 C   0  0  0  0  0
   -6.5970   13.8780  -23.9170 C   0  0  0  0  0
   -6.8590   15.2880  -24.2480 C   0  0  0  0  0
   -8.1900   15.8000  -24.2040 C   0  0  0  0  0
   -9.2370   14.9710  -23.8430 C   0  0  0  0  0
  -10.5860   15.4910  -23.7930 N   0  0  0  0  0
  -13.4068   12.4017  -22.5837 H   0  0  0  0  0
  -12.8669   10.0422  -22.0334 H   0  0  0  0  0
  -10.5160    9.2466  -22.1546 H   0  0  0  0  0
   -8.7106   10.8049  -22.8236 H   0  0  0  0  0
   -7.4734   11.9703  -23.2905 H   0  0  0  0  0
   -5.5787   13.4915  -23.9597 H   0  0  0  0  0
   -6.0338   15.9430  -24.5276 H   0  0  0  0  0
   -8.3817   16.8433  -24.4546 H   0  0  0  0  0
  -10.7783   16.4648  -24.0276 H   0  0  0  0  0
  1  2  2  0  0  0
  2  3  2  0  0  0
  2  4  1  0  0  0
  2 16  1  0  0  0
  4  5  4  0  0  0
  4  9  4  0  0  0
  5  6  4  0  0  0
  6  7  4  0  0  0
  7  8  4  0  0  0
  8  9  4  0  0  0
  9 10  1  0  0  0
 10 11  4  0  0  0
 10 15  4  0  0  0
 11 12  4  0  0  0
 12 13  4  0  0  0
 13 14  4  0  0  0
 14 15  4  0  0  0
 15 16  1  0  0  0
  5 17  1  0  0  0
  6 18  1  0  0  0
  7 19  1  0  0  0
  8 20  1  0  0  0
 11 21  1  0  0  0
 12 22  1  0  0  0
 13 23  1  0  0  0
 14 24  1  0  0  0
 16 25  1  0  0  0
M  END
$$$$
