4p6e_ligand
  -I-interpret- 

 58 61  0  0  0  0  0  0  0  0999 V2000
   25.4220   37.3760   13.7720 C   0  0  0  0  0
   24.9280   35.9080   15.5740 C   0  0  0  0  0
   20.6190   30.8600   14.1810 C   0  0  0  0  0
   21.4930   30.0520   14.8700 C   0  0  0  0  0
   23.2890   31.4450   14.1650 C   0  0  0  0  0
   21.0640   31.9630   13.4910 C   0  0  0  0  0
   24.4680   35.1810   13.2720 C   0  0  0  0  0
   20.0660   32.7980   12.7800 C   0  0  0  0  0
   21.9480   33.9720   11.7940 C   0  0  0  0  0
   26.4080   26.9270   17.2950 C   0  0  0  0  0
   25.3600   27.2290   19.3350 C   0  0  0  0  0
   22.9650   33.4280   12.7610 C   0  0  0  0  0
   25.8720   38.0630   16.0040 C   0  0  0  0  0
   25.8820   38.3230   14.6540 C   0  0  0  0  0
   25.3890   36.8570   16.4540 C   0  0  0  0  0
   24.9480   36.1760   14.2350 C   0  0  0  0  0
   22.4130   32.2560   13.4830 C   0  0  0  0  0
   22.8330   30.3490   14.8580 C   0  0  0  0  0
   23.4650   29.0490   16.8060 C   0  0  0  0  0
   20.6250   34.1580   12.4820 C   0  0  0  0  0
   25.7410   28.1220   16.6540 C   0  0  0  0  0
   24.6820   28.4960   18.8560 C   0  0  0  0  0
   27.3880   26.0560   19.2710 C   0  0  0  0  0
   24.5740   28.4970   17.4090 N   0  0  0  0  0
   26.6620   27.1850   18.7000 N   0  3  0  0  0
   23.7460   29.5440   15.5470 N   0  0  0  0  0
   23.3790   34.4670   13.6660 N   0  0  0  0  0
   25.0400   35.0250   12.1940 O   0  0  0  0  0
   22.3670   29.0620   17.3530 O   0  0  0  0  0
   25.4339   37.5791   12.7012 H   0  0  0  0  0
   24.5510   34.9530   15.9400 H   0  0  0  0  0
   19.5553   30.6219   14.1819 H   0  0  0  0  0
   21.1256   29.1853   15.4195 H   0  0  0  0  0
   24.3548   31.6732   14.1561 H   0  0  0  0  0
   19.1864   32.9106   13.4138 H   0  0  0  0  0
   19.8059   32.3111   11.8401 H   0  0  0  0  0
   21.8261   33.2679   10.9709 H   0  0  0  0  0
   22.2930   34.9351   11.4178 H   0  0  0  0  0
   27.3557   26.7361   16.7915 H   0  0  0  0  0
   25.7506   26.0622   17.2054 H   0  0  0  0  0
   24.7706   26.3507   19.0717 H   0  0  0  0  0
   25.4581   27.2286   20.4206 H   0  0  0  0  0
   23.8443   33.0887   12.2134 H   0  0  0  0  0
   26.2432   38.8055   16.7104 H   0  0  0  0  0
   26.2542   39.2785   14.2845 H   0  0  0  0  0
   25.3716   36.6508   17.5242 H   0  0  0  0  0
   20.7552   34.7235   13.4047 H   0  0  0  0  0
   19.9413   34.7155   11.8418 H   0  0  0  0  0
   25.4435   27.8646   15.6375 H   0  0  0  0  0
   26.4410   28.9573   16.6366 H   0  0  0  0  0
   25.2754   29.3555   19.1680 H   0  0  0  0  0
   23.6819   28.5475   19.2863 H   0  0  0  0  0
   26.7897   25.1508   19.1668 H   0  0  0  0  0
   28.3341   25.9303   18.7445 H   0  0  0  0  0
   27.5808   26.2462   20.3268 H   0  0  0  0  0
   27.1981   28.0431   18.8292 H   0  0  0  0  0
   24.6394   29.3173   15.1102 H   0  0  0  0  0
   22.8904   34.6551   14.5414 H   0  0  0  0  0
  1 14  4  0  0  0
 16  1  4  0  0  0
  2 15  4  0  0  0
 16  2  4  0  0  0
  4  3  4  0  0  0
  3  6  4  0  0  0
 18  4  4  0  0  0
  5 17  4  0  0  0
 18  5  4  0  0  0
  6  8  1  0  0  0
 17  6  4  0  0  0
  7 16  1  0  0  0
 27  7  1  0  0  0
  7 28  2  0  0  0
  8 20  1  0  0  0
 12  9  1  0  0  0
  9 20  1  0  0  0
 21 10  1  0  0  0
 10 25  1  0  0  0
 11 22  1  0  0  0
 25 11  1  0  0  0
 17 12  1  0  0  0
 12 27  1  0  0  0
 14 13  4  0  0  0
 15 13  4  0  0  0
 26 18  1  0  0  0
 24 19  1  0  0  0
 19 26  1  0  0  0
 19 29  2  0  0  0
 21 24  1  0  0  0
 22 24  1  0  0  0
 25 23  1  0  0  0
  1 30  1  0  0  0
  2 31  1  0  0  0
  3 32  1  0  0  0
  4 33  1  0  0  0
  5 34  1  0  0  0
  8 35  1  0  0  0
  8 36  1  0  0  0
  9 37  1  0  0  0
  9 38  1  0  0  0
 10 39  1  0  0  0
 10 40  1  0  0  0
 11 41  1  0  0  0
 11 42  1  0  0  0
 12 43  1  0  0  0
 13 44  1  0  0  0
 14 45  1  0  0  0
 15 46  1  0  0  0
 20 47  1  0  0  0
 20 48  1  0  0  0
 21 49  1  0  0  0
 21 50  1  0  0  0
 22 51  1  0  0  0
 22 52  1  0  0  0
 23 53  1  0  0  0
 23 54  1  0  0  0
 23 55  1  0  0  0
 25 56  1  0  0  0
 26 57  1  0  0  0
 27 58  1  0  0  0
M  END
$$$$
