4ui6_ligand
  -I-interpret- 

 34 36  0  0  0  0  0  0  0  0999 V2000
  -58.8110  -46.1730   15.4730 C   0  0  0  0  0
  -57.6260  -45.4080   15.9320 O   0  0  0  0  0
  -56.9980  -44.6920   14.9600 C   0  0  0  0  0
  -56.0430  -43.7720   15.4380 C   0  0  0  0  0
  -55.8210  -43.7270   16.7900 N   0  0  0  0  0
  -57.2420  -44.8230   13.5920 C   0  0  0  0  0
  -56.4990  -44.0500   12.7010 C   0  0  0  0  0
  -55.5590  -43.1250   13.1660 C   0  0  0  0  0
  -55.3020  -42.9930   14.5200 C   0  0  0  0  0
  -54.3820  -42.0510   14.9970 C   0  0  0  0  0
  -53.7220  -41.2850   14.2680 O   0  0  0  0  0
  -54.1800  -42.0290   16.3710 N   0  0  0  0  0
  -54.9060  -42.8400   17.2800 C   0  0  0  0  0
  -54.6280  -42.7790   18.6640 C   0  0  0  0  0
  -53.4670  -42.1230   19.1740 C   0  0  0  0  0
  -53.1770  -42.1100   20.5360 C   0  0  0  0  0
  -54.0040  -42.7890   21.4490 C   0  0  0  0  0
  -53.7120  -42.7860   22.8600 C   0  0  0  0  0
  -52.3860  -43.0770   23.0660 F   0  0  0  0  0
  -54.4360  -43.7050   23.5230 F   0  0  0  0  0
  -54.0200  -41.5620   23.4480 F   0  0  0  0  0
  -55.1280  -43.4530   20.9430 C   0  0  0  0  0
  -55.4150  -43.4740   19.5600 C   0  0  0  0  0
  -59.5494  -45.4846   15.0620 H   0  0  0  0  0
  -58.5076  -46.8838   14.7044 H   0  0  0  0  0
  -59.2438  -46.7108   16.3166 H   0  0  0  0  0
  -57.9994  -45.5168   13.2271 H   0  0  0  0  0
  -56.6527  -44.1681   11.6284 H   0  0  0  0  0
  -55.0216  -42.4997   12.4531 H   0  0  0  0  0
  -53.4727  -41.3967   16.7457 H   0  0  0  0  0
  -52.7919  -41.6207   18.4812 H   0  0  0  0  0
  -52.3022  -41.5694   20.8974 H   0  0  0  0  0
  -55.7978  -43.9662   21.6330 H   0  0  0  0  0
  -56.2684  -44.0461   19.1959 H   0  0  0  0  0
  1  2  1  0  0  0
  2  3  1  0  0  0
  3  4  4  0  0  0
  3  6  4  0  0  0
  4  5  1  0  0  0
  4  9  4  0  0  0
  5 13  2  0  0  0
  6  7  4  0  0  0
  7  8  4  0  0  0
  8  9  4  0  0  0
  9 10  1  0  0  0
 10 11  2  0  0  0
 10 12  1  0  0  0
 12 13  1  0  0  0
 13 14  1  0  0  0
 14 15  4  0  0  0
 14 23  4  0  0  0
 15 16  4  0  0  0
 16 17  4  0  0  0
 17 18  1  0  0  0
 17 22  4  0  0  0
 18 19  1  0  0  0
 18 20  1  0  0  0
 18 21  1  0  0  0
 22 23  4  0  0  0
  1 24  1  0  0  0
  1 25  1  0  0  0
  1 26  1  0  0  0
  6 27  1  0  0  0
  7 28  1  0  0  0
  8 29  1  0  0  0
 12 30  1  0  0  0
 15 31  1  0  0  0
 16 32  1  0  0  0
 22 33  1  0  0  0
 23 34  1  0  0  0
M  END
$$$$
