6h4z_ligand
  -I-interpret- 

 55 59  0  0  0  0  0  0  0  0999 V2000
   78.1640   54.4030   13.4620 C   0  0  0  0  0
   83.6850   65.8920   11.6880 N   0  0  0  0  0
   77.8020   56.6730   14.1490 C   0  0  0  0  0
   79.0380   57.0440   13.6450 C   0  0  0  0  0
   79.5190   58.4770   13.7350 C   0  0  0  0  0
   82.7980   64.9330   11.5130 C   0  0  0  0  0
   85.9730   65.9590   12.4170 C   0  0  0  0  0
   86.7390   68.0370   12.9660 C   0  0  0  0  0
   80.9210   58.5720   14.3360 C   0  0  0  0  0
   90.0060   66.2020   14.8820 O   0  0  0  0  0
   89.2180   65.5730   14.1940 C   0  0  0  0  0
   88.0330   66.1620   13.5890 C   0  0  0  0  0
   87.8500   67.5390   13.6030 C   0  0  0  0  0
   85.8090   67.2760   12.3830 N   0  0  0  0  0
   89.3510   64.2670   14.0180 N   0  0  0  0  0
   88.4440   63.5240   13.3530 C   0  0  0  0  0
   87.3340   63.9740   12.8290 N   0  0  0  0  0
   87.1150   65.3140   12.9530 C   0  0  0  0  0
   84.8150   65.2340   12.0650 N   0  0  0  0  0
   84.6280   63.9020   12.1090 C   0  0  0  0  0
   83.3330   63.6580   11.7600 C   0  0  0  0  0
   82.6600   62.3130   11.6740 C   0  0  0  0  0
   82.0140   61.9130   12.9880 C   0  0  0  0  0
   81.4320   60.5670   12.9910 N   0  3  0  0  0
   80.0630   60.5850   12.4780 C   0  0  0  0  0
   79.5050   59.1740   12.3750 C   0  0  0  0  0
   81.4180   60.0100   14.3430 C   0  0  0  0  0
   79.8360   56.0810   13.0470 C   0  0  0  0  0
   79.3880   54.7820   12.9620 C   0  0  0  0  0
   80.3980   53.5960   12.1920 Cl  0  0  0  0  0
   77.3690   55.3620   14.0600 C   0  0  0  0  0
   77.8284   53.3686   13.3881 H   0  0  0  0  0
   77.1646   57.4212   14.6202 H   0  0  0  0  0
   78.8172   58.9858   14.3959 H   0  0  0  0  0
   81.7657   65.1094   11.2107 H   0  0  0  0  0
   86.6088   69.1187   12.9346 H   0  0  0  0  0
   81.6008   57.9711   13.7319 H   0  0  0  0  0
   80.8851   58.2105   15.3637 H   0  0  0  0  0
   88.5606   68.1992   14.1003 H   0  0  0  0  0
   90.1747   63.8038   14.4020 H   0  0  0  0  0
   88.6533   62.4600   13.2430 H   0  0  0  0  0
   85.3755   63.1547   12.3751 H   0  0  0  0  0
   83.4173   61.5690   11.4270 H   0  0  0  0  0
   81.8796   62.3711   10.9152 H   0  0  0  0  0
   81.1998   62.6142   13.1710 H   0  0  0  0  0
   82.7969   61.9250   13.7463 H   0  0  0  0  0
   82.0127   59.9860   12.3863 H   0  0  0  0  0
   80.0661   61.0346   11.4851 H   0  0  0  0  0
   79.4392   61.1601   13.1623 H   0  0  0  0  0
   78.4752   59.2308   12.0224 H   0  0  0  0  0
   80.1249   58.6031   11.6838 H   0  0  0  0  0
   82.4336   60.0267   14.7383 H   0  0  0  0  0
   80.7480   60.6083   14.9605 H   0  0  0  0  0
   80.8130   56.3509   12.6462 H   0  0  0  0  0
   76.3954   55.0841   14.4638 H   0  0  0  0  0
  1 29  4  0  0  0
 31  1  4  0  0  0
  6  2  4  0  0  0
 19  2  4  0  0  0
  4  3  4  0  0  0
  3 31  4  0  0  0
  5  4  1  0  0  0
  4 28  4  0  0  0
  9  5  1  0  0  0
  5 26  1  0  0  0
 21  6  4  0  0  0
  7 14  4  0  0  0
  7 18  4  0  0  0
 19  7  1  0  0  0
  8 13  4  0  0  0
 14  8  4  0  0  0
 27  9  1  0  0  0
 11 10  2  0  0  0
 12 11  1  0  0  0
 11 15  1  0  0  0
 12 13  4  0  0  0
 18 12  4  0  0  0
 16 15  1  0  0  0
 17 16  2  0  0  0
 18 17  1  0  0  0
 20 19  4  0  0  0
 21 20  4  0  0  0
 22 21  1  0  0  0
 23 22  1  0  0  0
 24 23  1  0  0  0
 24 25  1  0  0  0
 24 27  1  0  0  0
 25 26  1  0  0  0
 28 29  4  0  0  0
 29 30  1  0  0  0
  1 32  1  0  0  0
  3 33  1  0  0  0
  5 34  1  0  0  0
  6 35  1  0  0  0
  8 36  1  0  0  0
  9 37  1  0  0  0
  9 38  1  0  0  0
 13 39  1  0  0  0
 15 40  1  0  0  0
 16 41  1  0  0  0
 20 42  1  0  0  0
 22 43  1  0  0  0
 22 44  1  0  0  0
 23 45  1  0  0  0
 23 46  1  0  0  0
 24 47  1  0  0  0
 25 48  1  0  0  0
 25 49  1  0  0  0
 26 50  1  0  0  0
 26 51  1  0  0  0
 27 52  1  0  0  0
 27 53  1  0  0  0
 28 54  1  0  0  0
 31 55  1  0  0  0
M  END
$$$$
