5ngz_ligand
  -I-interpret- 

 20 21  0  0  0  0  0  0  0  0999 V2000
   -0.3930   11.5570    1.4130 N   0  0  0  0  0
   -0.2080   12.0150    0.1110 C   0  0  0  0  0
   -0.6290   11.4140   -1.1040 C   0  0  0  0  0
   -0.3550   12.0080   -2.3070 C   0  0  0  0  0
    0.3630   13.2100   -2.3540 C   0  0  0  0  0
    0.7820   13.8320   -1.1910 C   0  0  0  0  0
    0.5040   13.2350    0.0440 C   0  0  0  0  0
    0.9350   13.7770    1.6480 S   0  0  0  0  0
    0.1420   12.3490    2.2750 C   0  0  0  0  0
    0.0690   12.0810    3.7530 C   0  0  0  0  0
   -0.1540   10.6610    4.0360 N   0  3  0  0  0
   -1.1753   10.4711   -1.0792 H   0  0  0  0  0
   -0.6970   11.5436   -3.2319 H   0  0  0  0  0
    0.5946   13.6611   -3.3189 H   0  0  0  0  0
    1.3230   14.7772   -1.2363 H   0  0  0  0  0
   -0.7661   12.6483    4.1640 H   0  0  0  0  0
    1.0171   12.3760    4.2027 H   0  0  0  0  0
   -0.1975   10.5194    5.0452 H   0  0  0  0  0
   -1.0331   10.3649    3.6117 H   0  0  0  0  0
    0.6139   10.1134    3.6474 H   0  0  0  0  0
  1  2  4  0  0  0
  1  9  4  0  0  0
  2  3  4  0  0  0
  2  7  4  0  0  0
  3  4  4  0  0  0
  4  5  4  0  0  0
  5  6  4  0  0  0
  6  7  4  0  0  0
  7  8  4  0  0  0
  8  9  4  0  0  0
  9 10  1  0  0  0
 10 11  1  0  0  0
  3 12  1  0  0  0
  4 13  1  0  0  0
  5 14  1  0  0  0
  6 15  1  0  0  0
 10 16  1  0  0  0
 10 17  1  0  0  0
 11 18  1  0  0  0
 11 19  1  0  0  0
 11 20  1  0  0  0
M  END
$$$$
