3c43_ligand
  -I-interpret- 

 56 59  0  0  0  0  0  0  0  0999 V2000
   39.5940   51.5000   35.8880 C   0  0  0  0  0
   38.3650   51.0410   34.9970 C   0  0  0  0  0
   36.9970   51.0210   35.7940 C   0  0  0  0  0
   36.1850   49.9410   35.6160 N   0  0  0  0  0
   36.6830   51.9930   36.4990 O   0  0  0  0  0
   38.3070   51.7390   34.0810 N   0  3  0  0  0
   40.8450   51.9300   35.0600 C   0  0  0  0  0
   36.5860   48.6000   35.1760 C   0  0  0  0  0
   35.3990   47.7120   35.4320 C   0  0  0  0  0
   34.2160   48.6430   35.5180 C   0  0  0  0  0
   34.7530   50.0410   35.8490 C   0  0  0  0  0
   35.5550   47.0850   36.6580 F   0  0  0  0  0
   41.6050   53.1910   35.6210 C   0  0  0  0  0
   42.8510   52.6950   36.3010 C   0  0  0  0  0
   41.7850   53.4760   37.0370 C   0  0  0  0  0
   40.0740   50.3240   36.8860 C   0  0  0  0  0
   40.1590   50.3780   38.1880 N   0  0  0  0  0
   40.6140   49.1300   38.4610 C   0  0  0  0  0
   40.7710   48.4090   37.3260 N   0  0  0  0  0
   40.4250   49.1760   36.2880 O   0  0  0  0  0
   40.8770   48.5420   39.8140 C   0  0  0  0  0
   40.0550   48.9900   40.8900 C   0  0  0  0  0
   40.2000   48.4600   42.1800 C   0  0  0  0  0
   41.1770   47.4730   42.4450 C   0  0  0  0  0
   42.0260   47.0100   41.4130 C   0  0  0  0  0
   41.8810   47.5430   40.1160 C   0  0  0  0  0
   42.7160   47.0350   39.1920 F   0  0  0  0  0
   41.3250   46.7720   44.0740 S   0  0  0  0  0
   41.5880   45.3700   43.9110 O   0  0  0  0  0
   40.1130   47.1130   44.7970 O   0  0  0  0  0
   42.7440   47.6070   44.7840 C   0  0  0  0  0
   39.2179   52.3618   36.4393 H   0  0  0  0  0
   38.5277   50.0107   34.6807 H   0  0  0  0  0
   39.2013   51.7295   33.5906 H   0  0  0  0  0
   37.5707   51.4148   33.4540 H   0  0  0  0  0
   38.0979   52.6880   34.3909 H   0  0  0  0  0
   40.4907   52.1910   34.0628 H   0  0  0  0  0
   41.5472   51.0969   35.0908 H   0  0  0  0  0
   37.4656   48.2517   35.7175 H   0  0  0  0  0
   36.8644   48.5954   34.1222 H   0  0  0  0  0
   35.2815   46.9539   34.6576 H   0  0  0  0  0
   33.5227   48.3083   36.2896 H   0  0  0  0  0
   33.6725   48.6572   34.5733 H   0  0  0  0  0
   34.2906   50.8139   35.2351 H   0  0  0  0  0
   34.5237   50.3366   36.8728 H   0  0  0  0  0
   41.2625   53.8720   34.8419 H   0  0  0  0  0
   43.9319   52.6830   36.1607 H   0  0  0  0  0
   43.4415   51.7846   36.4039 H   0  0  0  0  0
   41.2111   53.3928   37.9599 H   0  0  0  0  0
   41.7255   54.3354   37.7048 H   0  0  0  0  0
   39.3021   49.7566   40.7066 H   0  0  0  0  0
   39.5545   48.8117   42.9848 H   0  0  0  0  0
   42.7818   46.2517   41.6176 H   0  0  0  0  0
   42.9677   47.1749   45.7594 H   0  0  0  0  0
   43.6035   47.4842   44.1250 H   0  0  0  0  0
   42.5204   48.6677   44.8977 H   0  0  0  0  0
  1  2  1  0  0  0
  1  7  1  0  0  0
  1 16  1  0  0  0
  2  3  1  0  0  0
  2  6  1  0  0  0
  3  4  1  0  0  0
  3  5  2  0  0  0
  4  8  1  0  0  0
  4 11  1  0  0  0
  7 13  1  0  0  0
  8  9  1  0  0  0
  9 10  1  0  0  0
  9 12  1  0  0  0
 10 11  1  0  0  0
 13 14  1  0  0  0
 13 15  1  0  0  0
 14 15  1  0  0  0
 16 17  4  0  0  0
 16 20  4  0  0  0
 17 18  4  0  0  0
 18 19  4  0  0  0
 18 21  1  0  0  0
 19 20  4  0  0  0
 21 22  4  0  0  0
 21 26  4  0  0  0
 22 23  4  0  0  0
 23 24  4  0  0  0
 24 25  4  0  0  0
 24 28  1  0  0  0
 25 26  4  0  0  0
 26 27  1  0  0  0
 28 29  2  0  0  0
 28 30  2  0  0  0
 28 31  1  0  0  0
  1 32  1  0  0  0
  2 33  1  0  0  0
  6 34  1  0  0  0
  6 35  1  0  0  0
  6 36  1  0  0  0
  7 37  1  0  0  0
  7 38  1  0  0  0
  8 39  1  0  0  0
  8 40  1  0  0  0
  9 41  1  0  0  0
 10 42  1  0  0  0
 10 43  1  0  0  0
 11 44  1  0  0  0
 11 45  1  0  0  0
 13 46  1  0  0  0
 14 47  1  0  0  0
 14 48  1  0  0  0
 15 49  1  0  0  0
 15 50  1  0  0  0
 22 51  1  0  0  0
 23 52  1  0  0  0
 25 53  1  0  0  0
 31 54  1  0  0  0
 31 55  1  0  0  0
 31 56  1  0  0  0
M  END
$$$$
