4a9m_ligand
  -I-interpret- 

 45 47  0  0  0  0  0  0  0  0999 V2000
   21.1020   12.6740  -12.7700 O   0  0  0  0  0
   19.6900   12.8060  -12.9660 S   0  0  0  0  0
   19.1180   12.4780  -14.2450 O   0  0  0  0  0
   19.3260   14.3290  -12.6780 N   0  0  0  0  0
   19.7060   14.8620  -11.3620 C   0  0  0  0  0
   20.4260   16.1850  -11.5540 C   0  0  0  0  0
   20.2630   16.8790  -10.2280 C   0  0  0  0  0
   18.9040   16.4300   -9.7270 C   0  0  0  0  0
   18.4530   15.2740  -10.6000 C   0  0  0  0  0
   18.8950   11.7690  -11.7550 C   0  0  0  0  0
   17.5020   11.7520  -11.5850 C   0  0  0  0  0
   16.5300   12.5950  -12.3890 C   0  0  0  0  0
   16.9970   10.8860  -10.6040 C   0  0  0  0  0
   17.8240   10.0720   -9.8240 C   0  0  0  0  0
   19.7170   10.9690  -10.9760 C   0  0  0  0  0
   19.2050   10.1120  -10.0120 C   0  0  0  0  0
   20.1280    9.2710   -9.2000 C   0  0  0  0  0
   20.0480    8.9300   -7.8340 C   0  0  0  0  0
   19.0070    9.2850   -6.8150 C   0  0  0  0  0
   21.2640    8.6810   -9.6490 C   0  0  0  0  0
   21.9780    8.6200  -10.9720 C   0  0  0  0  0
   21.8620    8.0190   -8.6390 O   0  0  0  0  0
   21.0610    8.1840   -7.4760 N   0  0  0  0  0
   18.8523   14.9065  -13.3727 H   0  0  0  0  0
   20.2983   14.1016  -10.8530 H   0  0  0  0  0
   20.0139   16.7655  -12.3794 H   0  0  0  0  0
   21.4729   16.0517  -11.8265 H   0  0  0  0  0
   20.3244   17.9630  -10.3247 H   0  0  0  0  0
   21.0604   16.6202   -9.5314 H   0  0  0  0  0
   18.1882   17.2502   -9.7821 H   0  0  0  0  0
   18.9670   16.1176   -8.6846 H   0  0  0  0  0
   18.0433   14.4528  -10.0119 H   0  0  0  0  0
   17.6421   15.5595  -11.2701 H   0  0  0  0  0
   16.7566   13.6506  -12.2394 H   0  0  0  0  0
   16.6252   12.3480  -13.4464 H   0  0  0  0  0
   15.5123   12.3899  -12.0569 H   0  0  0  0  0
   15.9196   10.8461  -10.4437 H   0  0  0  0  0
   17.3917    9.4102   -9.0735 H   0  0  0  0  0
   20.7958   11.0145  -11.1250 H   0  0  0  0  0
   18.9524   10.3691   -6.7157 H   0  0  0  0  0
   18.0395    8.8991   -7.1362 H   0  0  0  0  0
   19.2750    8.8440   -5.8549 H   0  0  0  0  0
   21.3212    8.1719  -11.7176 H   0  0  0  0  0
   22.2491    9.6286  -11.2839 H   0  0  0  0  0
   22.8792    8.0154  -10.8695 H   0  0  0  0  0
  1  2  2  0  0  0
  2  3  2  0  0  0
  2  4  1  0  0  0
  2 10  1  0  0  0
  4  5  1  0  0  0
  5  6  1  0  0  0
  5  9  1  0  0  0
  6  7  1  0  0  0
  7  8  1  0  0  0
  8  9  1  0  0  0
 10 11  4  0  0  0
 10 15  4  0  0  0
 11 12  1  0  0  0
 11 13  4  0  0  0
 13 14  4  0  0  0
 14 16  4  0  0  0
 15 16  4  0  0  0
 16 17  1  0  0  0
 17 18  4  0  0  0
 17 20  4  0  0  0
 18 19  1  0  0  0
 18 23  4  0  0  0
 20 21  1  0  0  0
 20 22  4  0  0  0
 22 23  4  0  0  0
  4 24  1  0  0  0
  5 25  1  0  0  0
  6 26  1  0  0  0
  6 27  1  0  0  0
  7 28  1  0  0  0
  7 29  1  0  0  0
  8 30  1  0  0  0
  8 31  1  0  0  0
  9 32  1  0  0  0
  9 33  1  0  0  0
 12 34  1  0  0  0
 12 35  1  0  0  0
 12 36  1  0  0  0
 13 37  1  0  0  0
 14 38  1  0  0  0
 15 39  1  0  0  0
 19 40  1  0  0  0
 19 41  1  0  0  0
 19 42  1  0  0  0
 21 43  1  0  0  0
 21 44  1  0  0  0
 21 45  1  0  0  0
M  END
$$$$
