5ntw_ligand
  -I-interpret- 

 74 77  0  0  0  0  0  0  0  0999 V2000
   -0.4730   12.1140   69.9670 C   0  0  0  0  0
   -0.0830   11.6050   68.7380 C   0  0  0  0  0
    1.3030   12.6790   66.9650 C   0  0  0  0  0
    1.2630   13.2710   65.5310 C   0  0  0  0  0
    2.3650   13.4340   67.8200 C   0  0  0  0  0
   -0.1580    6.7550   72.9230 C   0  0  0  0  0
    1.3080    6.6080   73.3680 C   0  0  0  0  0
    2.8310    6.0330   75.0700 C   0  0  0  0  0
    3.9210    6.3290   74.2500 C   0  0  0  0  0
    3.6940    6.7710   72.9390 C   0  0  0  0  0
    2.3740    6.9140   72.5020 C   0  0  0  0  0
    5.9250    7.7140   75.6570 C   0  0  0  0  0
    5.9590    8.8720   74.6300 C   0  0  0  0  0
   -1.2400   14.7860   67.7910 C   0  0  0  0  0
   -1.1550   16.2100   68.3910 C   0  0  0  0  0
    0.2180   16.8750   68.0400 C   0  0  0  0  0
    0.2800   10.3210   68.5740 N   0  0  0  0  0
    0.2550    9.5060   69.6430 C   0  0  0  0  0
   -0.1430    9.9710   70.9100 C   0  0  0  0  0
   -0.5120   11.3050   71.0950 C   0  0  0  0  0
   -0.1440    9.0250   72.0730 C   0  0  0  0  0
   -0.8100   13.5730   69.8420 C   0  0  0  0  0
   -0.2900   13.8890   68.4820 N   0  3  0  0  0
   -0.0980   12.6630   67.6580 C   0  0  0  0  0
   -0.0550    9.4930   73.2000 O   0  0  0  0  0
   -0.2000    7.7000   71.8200 N   0  0  0  0  0
    1.5640    6.1840   74.6290 N   0  0  0  0  0
    5.5670    6.1130   74.8870 S   0  0  0  0  0
    5.4900    5.1100   75.9360 O   0  0  0  0  0
    6.4740    5.8500   73.7870 O   0  0  0  0  0
    0.2200   18.3960   68.3520 C   0  0  0  0  0
   -0.9750   19.0300   67.5870 C   0  0  0  0  0
   -2.3060   18.4990   68.1740 C   0  0  0  0  0
   -2.3970   16.9880   67.8780 C   0  0  0  0  0
   -0.9810   20.5690   67.6400 C   0  0  0  0  0
    0.2690   21.0670   67.4990 F   0  0  0  0  0
   -1.7380   21.0370   66.6140 F   0  0  0  0  0
   -1.4910   20.9640   68.8370 F   0  0  0  0  0
    1.5972   11.6328   66.8819 H   0  0  0  0  0
    0.5932   12.6745   64.9116 H   0  0  0  0  0
    0.9020   14.2986   65.5735 H   0  0  0  0  0
    2.2659   13.2542   65.1043 H   0  0  0  0  0
    2.0444   14.4653   67.9675 H   0  0  0  0  0
    2.4673   12.9421   68.7873 H   0  0  0  0  0
    3.3235   13.4208   67.3011 H   0  0  0  0  0
   -0.7685    7.1153   73.7510 H   0  0  0  0  0
   -0.5542    5.7899   72.6073 H   0  0  0  0  0
    3.0058    5.6737   76.0841 H   0  0  0  0  0
    4.5283    6.9981   72.2753 H   0  0  0  0  0
    2.1703    7.2628   71.4896 H   0  0  0  0  0
    5.1336    7.9256   76.3761 H   0  0  0  0  0
    6.9078    7.6501   76.1241 H   0  0  0  0  0
    6.7330    8.6754   73.8881 H   0  0  0  0  0
    4.9904    8.9460   74.1356 H   0  0  0  0  0
    6.1775    9.8071   75.1458 H   0  0  0  0  0
   -0.9880   14.8276   66.7314 H   0  0  0  0  0
   -2.2525   14.4029   67.9185 H   0  0  0  0  0
   -1.1808   16.2034   69.4807 H   0  0  0  0  0
    0.3986   16.7444   66.9730 H   0  0  0  0  0
    0.9920   16.4009   68.6435 H   0  0  0  0  0
    0.5492    8.4630   69.5257 H   0  0  0  0  0
   -0.8135   11.6894   72.0694 H   0  0  0  0  0
   -0.3722   14.1885   70.6279 H   0  0  0  0  0
   -1.8727   13.7847   69.9604 H   0  0  0  0  0
    0.6180   14.3396   68.5955 H   0  0  0  0  0
   -0.8408   12.5354   66.8705 H   0  0  0  0  0
   -0.2714    7.3641   70.8596 H   0  0  0  0  0
    1.1594   18.8493   68.0355 H   0  0  0  0  0
    0.1201   18.5658   69.4240 H   0  0  0  0  0
   -0.8659   18.7430   66.5411 H   0  0  0  0  0
   -3.1490   19.0203   67.7205 H   0  0  0  0  0
   -2.3355   18.6717   69.2498 H   0  0  0  0  0
   -3.2761   16.5960   68.3895 H   0  0  0  0  0
   -2.4541   16.8584   66.7972 H   0  0  0  0  0
  1  2  4  0  0  0
  1 20  4  0  0  0
 22  1  1  0  0  0
  2 17  4  0  0  0
  2 24  1  0  0  0
  3  4  1  0  0  0
  3  5  1  0  0  0
 24  3  1  0  0  0
  6  7  1  0  0  0
 26  6  1  0  0  0
  7 11  4  0  0  0
  7 27  4  0  0  0
  8  9  4  0  0  0
 27  8  4  0  0  0
 10  9  4  0  0  0
  9 28  1  0  0  0
 11 10  4  0  0  0
 12 13  1  0  0  0
 28 12  1  0  0  0
 14 15  1  0  0  0
 23 14  1  0  0  0
 15 16  1  0  0  0
 15 34  1  0  0  0
 16 31  1  0  0  0
 17 18  4  0  0  0
 19 18  4  0  0  0
 20 19  4  0  0  0
 19 21  1  0  0  0
 21 25  2  0  0  0
 21 26  1  0  0  0
 22 23  1  0  0  0
 23 24  1  0  0  0
 28 29  2  0  0  0
 28 30  2  0  0  0
 31 32  1  0  0  0
 32 33  1  0  0  0
 32 35  1  0  0  0
 33 34  1  0  0  0
 35 36  1  0  0  0
 35 37  1  0  0  0
 35 38  1  0  0  0
  3 39  1  0  0  0
  4 40  1  0  0  0
  4 41  1  0  0  0
  4 42  1  0  0  0
  5 43  1  0  0  0
  5 44  1  0  0  0
  5 45  1  0  0  0
  6 46  1  0  0  0
  6 47  1  0  0  0
  8 48  1  0  0  0
 10 49  1  0  0  0
 11 50  1  0  0  0
 12 51  1  0  0  0
 12 52  1  0  0  0
 13 53  1  0  0  0
 13 54  1  0  0  0
 13 55  1  0  0  0
 14 56  1  0  0  0
 14 57  1  0  0  0
 15 58  1  0  0  0
 16 59  1  0  0  0
 16 60  1  0  0  0
 18 61  1  0  0  0
 20 62  1  0  0  0
 22 63  1  0  0  0
 22 64  1  0  0  0
 23 65  1  0  0  0
 24 66  1  0  0  0
 26 67  1  0  0  0
 31 68  1  0  0  0
 31 69  1  0  0  0
 32 70  1  0  0  0
 33 71  1  0  0  0
 33 72  1  0  0  0
 34 73  1  0  0  0
 34 74  1  0  0  0
M  END
$$$$
