1akq_ligand
  -I-interpret- 

 52 54  0  0  0  0  0  0  0  0999 V2000
   52.0070   40.1660   12.3960 N   0  0  0  0  0
   50.8860   40.8480   12.8220 C   0  0  0  0  0
   50.8620   41.5090   13.9930 O   0  0  0  0  0
   49.7480   40.9330   12.0510 N   0  0  0  0  0
   49.6620   40.3010   10.8090 C   0  0  0  0  0
   48.4910   40.3930   10.1210 O   0  0  0  0  0
   50.8030   39.6000   10.3340 C   0  0  0  0  0
   50.7260   38.9530    9.1080 N   0  0  0  0  0
   51.8870   38.3740    8.5960 C   0  0  0  0  0
   51.8440   37.8850    7.2690 C   0  0  0  0  0
   53.0240   37.3220    6.7760 C   0  0  0  0  0
   53.0980   36.7900    5.4410 C   0  0  0  0  0
   54.1610   37.2660    7.5850 C   0  0  0  0  0
   55.3840   36.7170    7.1220 C   0  0  0  0  0
   54.1930   37.7640    8.9040 C   0  0  0  0  0
   53.0220   38.3370    9.4360 C   0  0  0  0  0
   53.0760   38.8410   10.7440 N   0  0  0  0  0
   51.9500   39.5500   11.1530 C   0  0  0  0  0
   54.1560   38.8360   11.6360 C   0  0  0  0  0
   54.2190   37.5020   12.4320 C   0  0  0  0  0
   53.1570   37.3740   13.3870 O   0  0  0  0  0
   55.5400   37.4860   13.2390 C   0  0  0  0  0
   56.6060   37.2000   12.3410 O   0  0  0  0  0
   55.6110   36.5450   14.3770 C   0  0  0  0  0
   56.8370   36.7900   15.0930 O   0  0  0  0  0
   55.5420   35.1750   13.9900 C   0  0  0  0  0
   55.5480   34.4550   15.2120 O   0  0  0  0  0
   55.6480   32.8070   15.2870 P   0  0  0  0  0
   54.4510   32.1200   14.3780 O   0  0  0  0  0
   55.3760   32.3260   16.8820 O   0  0  0  0  0
   57.1630   32.3790   14.8620 O   0  0  0  0  0
   48.9511   41.4690   12.3946 H   0  0  0  0  0
   50.9393   37.9443    6.6640 H   0  0  0  0  0
   52.3709   35.9854    5.3311 H   0  0  0  0  0
   52.8782   37.5806    4.7235 H   0  0  0  0  0
   54.1007   36.4025    5.2607 H   0  0  0  0  0
   55.2303   35.6746    6.8428 H   0  0  0  0  0
   55.7281   37.2799    6.2543 H   0  0  0  0  0
   56.1303   36.7760    7.9143 H   0  0  0  0  0
   55.1046   37.7066    9.4988 H   0  0  0  0  0
   54.0293   39.6572   12.3414 H   0  0  0  0  0
   55.0789   38.9461   11.0666 H   0  0  0  0  0
   54.1417   36.6900   11.7090 H   0  0  0  0  0
   53.2426   36.5367   13.8487 H   0  0  0  0  0
   55.6070   38.4734   13.6958 H   0  0  0  0  0
   57.4352   37.1859   12.8246 H   0  0  0  0  0
   54.7390   36.7237   15.0061 H   0  0  0  0  0
   56.8983   36.1858   15.8365 H   0  0  0  0  0
   56.3752   34.8916   13.3469 H   0  0  0  0  0
   54.6514   34.9640   13.3980 H   0  0  0  0  0
   53.5968   32.4238   14.6935 H   0  0  0  0  0
   54.4858   32.5736   17.1423 H   0  0  0  0  0
  1  2  1  0  0  0
  1 18  2  0  0  0
  2  3  2  0  0  0
  2  4  1  0  0  0
  4  5  1  0  0  0
  5  6  2  0  0  0
  5  7  1  0  0  0
  7  8  2  0  0  0
  7 18  1  0  0  0
  8  9  1  0  0  0
  9 10  4  0  0  0
  9 16  4  0  0  0
 10 11  4  0  0  0
 11 12  1  0  0  0
 11 13  4  0  0  0
 13 14  1  0  0  0
 13 15  4  0  0  0
 15 16  4  0  0  0
 16 17  1  0  0  0
 17 18  1  0  0  0
 17 19  1  0  0  0
 19 20  1  0  0  0
 20 21  1  0  0  0
 20 22  1  0  0  0
 22 23  1  0  0  0
 22 24  1  0  0  0
 24 25  1  0  0  0
 24 26  1  0  0  0
 26 27  1  0  0  0
 27 28  1  0  0  0
 28 29  1  0  0  0
 28 30  1  0  0  0
 28 31  2  0  0  0
  4 32  1  0  0  0
 10 33  1  0  0  0
 12 34  1  0  0  0
 12 35  1  0  0  0
 12 36  1  0  0  0
 14 37  1  0  0  0
 14 38  1  0  0  0
 14 39  1  0  0  0
 15 40  1  0  0  0
 19 41  1  0  0  0
 19 42  1  0  0  0
 20 43  1  0  0  0
 21 44  1  0  0  0
 22 45  1  0  0  0
 23 46  1  0  0  0
 24 47  1  0  0  0
 25 48  1  0  0  0
 26 49  1  0  0  0
 26 50  1  0  0  0
 29 51  1  0  0  0
 30 52  1  0  0  0
M  END
$$$$
