### 
### Created by X-TOOL on Sun Sep  9 21:51:07 2018
### 

@<TRIPOS>MOLECULE
2wl5_ligand
   80    82     1     0     0
SMALL
GAST_HUCK


@<TRIPOS>ATOM
      1 N1A         5.7620   28.3270   21.1490 N.ar      1 NON        -0.2698
      2 C2A         5.7250   28.4080   22.5040 C.ar      1 NON         0.0533
      3 N3A         6.4000   27.4510   23.2580 N.ar      1 NON        -0.2714
      4 C4A         7.0720   26.4770   22.6500 C.ar      1 NON         0.1613
      5 C5A         7.1080   26.3980   21.3080 C.ar      1 NON         0.1045
      6 C6A         6.4290   27.3560   20.5580 C.ar      1 NON         0.1298
      7 N6A         6.4320   27.2350   19.1160 N.pl3     1 NON        -0.3152
      8 N7A         7.8780   25.2900   20.9370 N.2       1 NON        -0.2958
      9 C8A         8.3400   24.6670   22.1240 C.2       1 NON         0.1123
     10 N9A         7.8580   25.3740   23.1500 N.pl3     1 NON        -0.1919
     11 C1B         8.0690   25.0370   24.5430 C.3       1 NON         0.2013
     12 C2B         7.4040   23.9240   25.2750 C.3       1 NON         0.1432
     13 O2B         6.0100   23.7610   25.2070 O.3       1 NON        -0.3832
     14 C3B         8.0900   23.9410   26.5890 C.3       1 NON         0.1487
     15 O3B         7.3910   24.4270   27.7040 O.3       1 NON        -0.2674
     16 P3B         7.5370   23.6700   29.1510 P.3       1 NON         0.2013
     17 O7A         6.8280   24.5990   30.3220 O.co2     1 NON        -0.5537
     18 O8A         9.1400   23.4950   29.4930 O.co2     1 NON        -0.5537
     19 O9A         6.8630   22.3190   29.0770 O.co2     1 NON        -0.5537
     20 C4B         9.5390   24.3510   26.2600 C.3       1 NON         0.1235
     21 O4B         9.4470   25.1460   25.0140 O.3       1 NON        -0.3360
     22 C5B        10.5880   23.2340   26.1160 C.3       1 NON         0.1131
     23 O5B        10.5480   22.5850   24.8560 O.3       1 NON        -0.2476
     24 P1A        10.8910   20.9570   24.8940 P.3       1 NON         0.2972
     25 O1A         9.9960   20.2320   26.0800 O.co2     1 NON        -0.6127
     26 O2A        10.6810   20.2670   23.5720 O.co2     1 NON        -0.6127
     27 O3A        12.4990   20.8410   25.3190 O.3       1 NON        -0.1319
     28 P2A        13.1450   19.3380   25.0500 P.3       1 NON         0.2971
     29 O4A        14.3710   19.0780   26.1230 O.co2     1 NON        -0.6127
     30 O5A        12.0340   18.3280   25.2270 O.co2     1 NON        -0.6127
     31 O6A        13.6470   19.2970   23.4570 O.3       1 NON        -0.2496
     32 CBP        15.1020   20.2900   21.7590 C.3       1 NON         0.0367
     33 CCP        14.0050   20.5180   22.8130 C.3       1 NON         0.0936
     34 CDP        15.2400   21.4690   20.7910 C.3       1 NON        -0.0528
     35 CEP        16.4110   20.0460   22.5130 C.3       1 NON        -0.0528
     36 CAP        14.6700   18.9930   21.0370 C.3       1 NON         0.1510
     37 OAP        13.3420   18.9740   20.6090 O.3       1 NON        -0.3708
     38 C9P        15.6140   18.6340   19.8720 C.2       1 NON         0.2057
     39 O9P        16.6980   18.1870   20.0930 O.2       1 NON        -0.3942
     40 N8P        15.1730   19.0700   18.5330 N.am      1 NON        -0.2826
     41 C7P        16.0670   18.8640   17.3840 C.3       1 NON         0.0477
     42 C6P        16.3060   17.3730   17.0700 C.3       1 NON         0.0574
     43 C5P        17.2840   17.0570   15.9280 C.2       1 NON         0.1779
     44 O5P        18.3030   17.6590   15.8280 O.2       1 NON        -0.3970
     45 N4P        16.8590   16.1270   14.8790 N.am      1 NON        -0.2861
     46 C3P        17.6730   15.9670   13.6890 C.3       1 NON         0.0396
     47 C2P        17.9920   17.2570   12.9420 C.3       1 NON         0.0109
     48 S1P        19.6310   17.2800   12.1570 S.3       1 NON        -0.1763
     49 H           5.1747   29.2108   22.9948 H         1 NON         0.0996
     50 H           6.9241   26.4607   18.6702 H         1 NON         0.1820
     51 H           5.9420   27.9240   18.5454 H         1 NON         0.1820
     52 H           8.9693   23.7793   22.1874 H         1 NON         0.1349
     53 H           7.4113   25.8612   24.8190 H         1 NON         0.0996
     54 H           7.5266   22.9705   24.7613 H         1 NON         0.0680
     55 H           5.5799   24.5486   25.5478 H         1 NON         0.2101
     56 H           8.1239   22.9695   27.0821 H         1 NON         0.0704
     57 H           9.9225   24.8952   27.1231 H         1 NON         0.0654
     58 H          10.3776   22.4846   26.8790 H         1 NON         0.0648
     59 H          11.5720   23.6913   26.2196 H         1 NON         0.0648
     60 H          14.3836   21.2101   23.5652 H         1 NON         0.0628
     61 H          13.1227   20.9207   22.3155 H         1 NON         0.0628
     62 H          14.2963   21.6194   20.2667 H         1 NON         0.0238
     63 H          15.4936   22.3693   21.3507 H         1 NON         0.0238
     64 H          16.0280   21.2544   20.0691 H         1 NON         0.0238
     65 H          16.6431   20.9166   23.1265 H         1 NON         0.0238
     66 H          16.3033   19.1687   23.1509 H         1 NON         0.0238
     67 H          17.2157   19.8795   21.7969 H         1 NON         0.0238
     68 H          14.7477   18.2260   21.8076 H         1 NON         0.0844
     69 H          12.7613   19.0754   21.3667 H         1 NON         0.2133
     70 H          14.2607   19.5082   18.4063 H         1 NON         0.1853
     71 H          17.0305   19.3118   17.6271 H         1 NON         0.0545
     72 H          15.5973   19.3172   16.5110 H         1 NON         0.0545
     73 H          15.3410   16.9732   16.7584 H         1 NON         0.0522
     74 H          16.7460   16.9433   17.9699 H         1 NON         0.0522
     75 H          15.9953   15.5948   14.9848 H         1 NON         0.1851
     76 H          17.1035   15.3406   13.0024 H         1 NON         0.0528
     77 H          18.6260   15.5508   14.0156 H         1 NON         0.0528
     78 H          17.9754   18.0643   13.6741 H         1 NON         0.0393
     79 H          17.2537   17.3582   12.1465 H         1 NON         0.0393
     80 H          19.8072   18.4429   11.5362 H         1 NON         0.1017
@<TRIPOS>BOND
     1    1    2 ar 
     2    1    6 ar 
     3    2    3 ar 
     4    3    4 ar 
     5    4    5 ar 
     6    4   10 1  
     7    5    6 ar 
     8    5    8 1  
     9    6    7 1  
    10    8    9 2  
    11    9   10 1  
    12   10   11 1  
    13   11   12 1  
    14   11   21 1  
    15   12   13 1  
    16   12   14 1  
    17   14   15 1  
    18   14   20 1  
    19   15   16 1  
    20   16   17 ar 
    21   16   18 ar 
    22   16   19 ar 
    23   20   21 1  
    24   20   22 1  
    25   22   23 1  
    26   23   24 1  
    27   24   25 ar 
    28   24   26 ar 
    29   24   27 1  
    30   27   28 1  
    31   28   29 ar 
    32   28   30 ar 
    33   28   31 1  
    34   31   33 1  
    35   33   32 1  
    36   32   34 1  
    37   32   35 1  
    38   32   36 1  
    39   36   37 1  
    40   36   38 1  
    41   38   39 2  
    42   38   40 am 
    43   40   41 1  
    44   41   42 1  
    45   42   43 1  
    46   43   44 2  
    47   43   45 am 
    48   45   46 1  
    49   46   47 1  
    50   47   48 1  
    51    2   49 1  
    52    7   50 1  
    53    7   51 1  
    54    9   52 1  
    55   11   53 1  
    56   12   54 1  
    57   13   55 1  
    58   14   56 1  
    59   20   57 1  
    60   22   58 1  
    61   22   59 1  
    62   33   60 1  
    63   33   61 1  
    64   34   62 1  
    65   34   63 1  
    66   34   64 1  
    67   35   65 1  
    68   35   66 1  
    69   35   67 1  
    70   36   68 1  
    71   37   69 1  
    72   40   70 1  
    73   41   71 1  
    74   41   72 1  
    75   42   73 1  
    76   42   74 1  
    77   45   75 1  
    78   46   76 1  
    79   46   77 1  
    80   47   78 1  
    81   47   79 1  
    82   48   80 1  
@<TRIPOS>SUBSTRUCTURE
     1 NON         1

