2wl5_ligand
  -I-interpret- 

 84 86  0  0  0  0  0  0  0  0999 V2000
    5.7620   28.3270   21.1490 N   0  0  0  0  0
    5.7250   28.4080   22.5040 C   0  0  0  0  0
    6.4000   27.4510   23.2580 N   0  0  0  0  0
    7.0720   26.4770   22.6500 C   0  0  0  0  0
    7.1080   26.3980   21.3080 C   0  0  0  0  0
    6.4290   27.3560   20.5580 C   0  0  0  0  0
    6.4320   27.2350   19.1160 N   0  0  0  0  0
    7.8780   25.2900   20.9370 N   0  0  0  0  0
    8.3400   24.6670   22.1240 C   0  0  0  0  0
    7.8580   25.3740   23.1500 N   0  0  0  0  0
    8.0690   25.0370   24.5430 C   0  0  0  0  0
    7.4040   23.9240   25.2750 C   0  0  0  0  0
    6.0100   23.7610   25.2070 O   0  0  0  0  0
    8.0900   23.9410   26.5890 C   0  0  0  0  0
    7.3910   24.4270   27.7040 O   0  0  0  0  0
    7.5370   23.6700   29.1510 P   0  0  0  0  0
    6.8280   24.5990   30.3220 O   0  0  0  0  0
    9.1400   23.4950   29.4930 O   0  0  0  0  0
    6.8630   22.3190   29.0770 O   0  0  0  0  0
    9.5390   24.3510   26.2600 C   0  0  0  0  0
    9.4470   25.1460   25.0140 O   0  0  0  0  0
   10.5880   23.2340   26.1160 C   0  0  0  0  0
   10.5480   22.5850   24.8560 O   0  0  0  0  0
   10.8910   20.9570   24.8940 P   0  0  0  0  0
    9.9960   20.2320   26.0800 O   0  0  0  0  0
   10.6810   20.2670   23.5720 O   0  0  0  0  0
   12.4990   20.8410   25.3190 O   0  0  0  0  0
   13.1450   19.3380   25.0500 P   0  0  0  0  0
   14.3710   19.0780   26.1230 O   0  0  0  0  0
   12.0340   18.3280   25.2270 O   0  0  0  0  0
   13.6470   19.2970   23.4570 O   0  0  0  0  0
   15.1020   20.2900   21.7590 C   0  0  0  0  0
   14.0050   20.5180   22.8130 C   0  0  0  0  0
   15.2400   21.4690   20.7910 C   0  0  0  0  0
   16.4110   20.0460   22.5130 C   0  0  0  0  0
   14.6700   18.9930   21.0370 C   0  0  0  0  0
   13.3420   18.9740   20.6090 O   0  0  0  0  0
   15.6140   18.6340   19.8720 C   0  0  0  0  0
   16.6980   18.1870   20.0930 O   0  0  0  0  0
   15.1730   19.0700   18.5330 N   0  0  0  0  0
   16.0670   18.8640   17.3840 C   0  0  0  0  0
   16.3060   17.3730   17.0700 C   0  0  0  0  0
   17.2840   17.0570   15.9280 C   0  0  0  0  0
   18.3030   17.6590   15.8280 O   0  0  0  0  0
   16.8590   16.1270   14.8790 N   0  0  0  0  0
   17.6730   15.9670   13.6890 C   0  0  0  0  0
   17.9920   17.2570   12.9420 C   0  0  0  0  0
   19.6310   17.2800   12.1570 S   0  0  0  0  0
    5.1747   29.2108   22.9948 H   0  0  0  0  0
    5.9146   27.9050   18.5469 H   0  0  0  0  0
    6.9515   26.4798   18.6687 H   0  0  0  0  0
    8.9693   23.7793   22.1874 H   0  0  0  0  0
    7.4113   25.8612   24.8190 H   0  0  0  0  0
    7.5266   22.9705   24.7613 H   0  0  0  0  0
    5.7518   23.0009   25.7334 H   0  0  0  0  0
    8.1239   22.9695   27.0821 H   0  0  0  0  0
    7.2644   25.4533   30.3590 H   0  0  0  0  0
    9.5531   24.3605   29.5365 H   0  0  0  0  0
    9.9225   24.8952   27.1231 H   0  0  0  0  0
   10.3776   22.4846   26.8790 H   0  0  0  0  0
   11.5720   23.6913   26.2196 H   0  0  0  0  0
   10.1435   20.6856   26.9131 H   0  0  0  0  0
   15.0591   19.7333   25.9859 H   0  0  0  0  0
   14.3836   21.2101   23.5652 H   0  0  0  0  0
   13.1227   20.9207   22.3155 H   0  0  0  0  0
   14.2963   21.6194   20.2667 H   0  0  0  0  0
   15.4936   22.3693   21.3507 H   0  0  0  0  0
   16.0280   21.2544   20.0691 H   0  0  0  0  0
   16.6431   20.9166   23.1265 H   0  0  0  0  0
   16.3033   19.1687   23.1509 H   0  0  0  0  0
   17.2157   19.8795   21.7969 H   0  0  0  0  0
   14.7477   18.2260   21.8076 H   0  0  0  0  0
   13.1591   18.1381   20.1738 H   0  0  0  0  0
   14.2607   19.5082   18.4063 H   0  0  0  0  0
   17.0305   19.3118   17.6271 H   0  0  0  0  0
   15.5973   19.3172   16.5110 H   0  0  0  0  0
   15.3410   16.9732   16.7584 H   0  0  0  0  0
   16.7460   16.9433   17.9699 H   0  0  0  0  0
   15.9953   15.5948   14.9848 H   0  0  0  0  0
   17.1035   15.3406   13.0024 H   0  0  0  0  0
   18.6260   15.5508   14.0156 H   0  0  0  0  0
   17.9754   18.0643   13.6741 H   0  0  0  0  0
   17.2537   17.3582   12.1465 H   0  0  0  0  0
   19.8072   18.4429   11.5362 H   0  0  0  0  0
  1  2  4  0  0  0
  1  6  4  0  0  0
  2  3  4  0  0  0
  3  4  4  0  0  0
  4  5  4  0  0  0
  4 10  4  0  0  0
  5  6  4  0  0  0
  5  8  4  0  0  0
  6  7  1  0  0  0
  8  9  4  0  0  0
  9 10  4  0  0  0
 10 11  1  0  0  0
 11 12  1  0  0  0
 11 21  1  0  0  0
 12 13  1  0  0  0
 12 14  1  0  0  0
 14 15  1  0  0  0
 14 20  1  0  0  0
 15 16  1  0  0  0
 16 17  1  0  0  0
 16 18  1  0  0  0
 16 19  2  0  0  0
 20 21  1  0  0  0
 20 22  1  0  0  0
 22 23  1  0  0  0
 23 24  1  0  0  0
 24 25  1  0  0  0
 24 26  2  0  0  0
 24 27  1  0  0  0
 27 28  1  0  0  0
 28 29  1  0  0  0
 28 30  2  0  0  0
 28 31  1  0  0  0
 31 33  1  0  0  0
 33 32  1  0  0  0
 32 34  1  0  0  0
 32 35  1  0  0  0
 32 36  1  0  0  0
 36 37  1  0  0  0
 36 38  1  0  0  0
 38 39  2  0  0  0
 38 40  1  0  0  0
 40 41  1  0  0  0
 41 42  1  0  0  0
 42 43  1  0  0  0
 43 44  2  0  0  0
 43 45  1  0  0  0
 45 46  1  0  0  0
 46 47  1  0  0  0
 47 48  1  0  0  0
  2 49  1  0  0  0
  7 50  1  0  0  0
  7 51  1  0  0  0
  9 52  1  0  0  0
 11 53  1  0  0  0
 12 54  1  0  0  0
 13 55  1  0  0  0
 14 56  1  0  0  0
 17 57  1  0  0  0
 18 58  1  0  0  0
 20 59  1  0  0  0
 22 60  1  0  0  0
 22 61  1  0  0  0
 25 62  1  0  0  0
 29 63  1  0  0  0
 33 64  1  0  0  0
 33 65  1  0  0  0
 34 66  1  0  0  0
 34 67  1  0  0  0
 34 68  1  0  0  0
 35 69  1  0  0  0
 35 70  1  0  0  0
 35 71  1  0  0  0
 36 72  1  0  0  0
 37 73  1  0  0  0
 40 74  1  0  0  0
 41 75  1  0  0  0
 41 76  1  0  0  0
 42 77  1  0  0  0
 42 78  1  0  0  0
 45 79  1  0  0  0
 46 80  1  0  0  0
 46 81  1  0  0  0
 47 82  1  0  0  0
 47 83  1  0  0  0
 48 84  1  0  0  0
M  END
$$$$
