5e2m_ligand
  -I-interpret- 

 51 52  0  0  0  0  0  0  0  0999 V2000
   13.5500   34.8870   17.8670 F   0  0  0  0  0
   14.3590   35.6210   17.0830 C   0  0  0  0  0
   15.1720   36.5860   17.7520 C   0  0  0  0  0
   15.0650   36.8710   19.5300 S   0  0  0  0  0
   14.8400   35.5920   20.1910 O   0  0  0  0  0
   16.4730   37.5980   19.9630 N   0  0  0  0  0
   14.0080   37.9460   19.7630 O   0  0  0  0  0
   16.0070   37.3230   16.9130 C   0  0  0  0  0
   16.8320   38.2780   17.3620 F   0  0  0  0  0
   16.0690   37.1420   15.5670 C   0  0  0  0  0
   16.9500   37.9510   14.9060 F   0  0  0  0  0
   14.4480   35.4000   15.6930 C   0  0  0  0  0
   15.3320   36.1650   14.9180 C   0  0  0  0  0
   15.4900   36.1100   13.1450 S   0  0  0  0  0
   14.6480   34.9290   12.6320 O   0  0  0  0  0
   16.9750   35.8520   12.9020 O   0  0  0  0  0
   14.9970   37.6180   12.2400 C   0  0  0  0  0
   13.5060   37.9470   12.2100 C   0  0  0  0  0
   12.7420   37.1530   13.0700 O   0  0  0  0  0
   13.6150   34.4250   15.0470 N   0  0  0  0  0
   12.1880   34.2350   15.3450 C   0  0  0  0  0
   11.4040   35.5670   15.4060 C   0  0  0  0  0
    9.9040   35.2440   15.4680 C   0  0  0  0  0
    9.1020   35.9590   14.3620 C   0  0  0  0  0
    8.5480   34.9490   13.3520 C   0  0  0  0  0
    9.5320   33.8040   13.0880 C   0  0  0  0  0
   10.0130   33.1800   14.4160 C   0  0  0  0  0
   11.5520   33.1800   14.4070 C   0  0  0  0  0
   17.0929   37.1485   20.6369 H   0  0  0  0  0
   16.7274   38.4989   19.5580 H   0  0  0  0  0
   15.2878   37.4528   11.2026 H   0  0  0  0  0
   15.4762   38.4483   12.7588 H   0  0  0  0  0
   13.1511   37.7660   11.1954 H   0  0  0  0  0
   13.3925   38.9820   12.5325 H   0  0  0  0  0
   11.8190   37.4086   13.0042 H   0  0  0  0  0
   14.0395   33.8274   14.3377 H   0  0  0  0  0
   12.1184   33.8295   16.3544 H   0  0  0  0  0
   11.6200   36.1678   14.5225 H   0  0  0  0  0
   11.7002   36.1341   16.2884 H   0  0  0  0  0
    9.5256   35.5839   16.4320 H   0  0  0  0  0
    9.7846   34.1694   15.3298 H   0  0  0  0  0
    9.7629   36.6512   13.8403 H   0  0  0  0  0
    8.2683   36.4908   14.8205 H   0  0  0  0  0
    8.3701   35.4698   12.4111 H   0  0  0  0  0
    7.6319   34.5239   13.7620 H   0  0  0  0  0
   10.3949   34.1979   12.5510 H   0  0  0  0  0
    9.0294   33.0362   12.4998 H   0  0  0  0  0
    9.6356   32.1621   14.5139 H   0  0  0  0  0
    9.6400   33.7574   15.2619 H   0  0  0  0  0
   11.8771   32.1998   14.7557 H   0  0  0  0  0
   11.8691   33.4175   13.3916 H   0  0  0  0  0
  1  2  1  0  0  0
  2  3  4  0  0  0
  2 12  4  0  0  0
  3  4  1  0  0  0
  3  8  4  0  0  0
  4  5  2  0  0  0
  4  6  1  0  0  0
  4  7  2  0  0  0
  8  9  1  0  0  0
  8 10  4  0  0  0
 10 11  1  0  0  0
 10 13  4  0  0  0
 12 13  4  0  0  0
 12 20  1  0  0  0
 13 14  1  0  0  0
 14 15  2  0  0  0
 14 16  2  0  0  0
 14 17  1  0  0  0
 17 18  1  0  0  0
 18 19  1  0  0  0
 20 21  1  0  0  0
 21 22  1  0  0  0
 21 28  1  0  0  0
 22 23  1  0  0  0
 23 24  1  0  0  0
 24 25  1  0  0  0
 25 26  1  0  0  0
 26 27  1  0  0  0
 27 28  1  0  0  0
  6 29  1  0  0  0
  6 30  1  0  0  0
 17 31  1  0  0  0
 17 32  1  0  0  0
 18 33  1  0  0  0
 18 34  1  0  0  0
 19 35  1  0  0  0
 20 36  1  0  0  0
 21 37  1  0  0  0
 22 38  1  0  0  0
 22 39  1  0  0  0
 23 40  1  0  0  0
 23 41  1  0  0  0
 24 42  1  0  0  0
 24 43  1  0  0  0
 25 44  1  0  0  0
 25 45  1  0  0  0
 26 46  1  0  0  0
 26 47  1  0  0  0
 27 48  1  0  0  0
 27 49  1  0  0  0
 28 50  1  0  0  0
 28 51  1  0  0  0
M  END
$$$$
