5xva_ligand
  -I-interpret- 

 47 50  0  0  0  0  0  0  0  0999 V2000
   -6.9720  -12.2070   18.9590 C   0  0  0  0  0
   -7.0290  -13.6030   18.5490 C   0  0  0  0  0
   -6.2570  -14.0590   17.4110 C   0  0  0  0  0
   -5.4450  -13.1660   16.7230 N   0  0  0  0  0
   -6.2110  -11.3730   18.2990 N   0  0  0  0  0
   -5.4150  -11.8650   17.1460 C   0  0  0  0  0
   -7.8330  -14.4560   19.2290 C   0  0  0  0  0
   -7.8720  -15.8830   18.7700 C   0  0  0  0  0
   -7.1650  -16.3110   17.7490 C   0  0  0  0  0
   -6.2880  -15.3640   16.9960 C   0  0  0  0  0
   -7.6120  -10.4540   20.6260 C   0  0  0  0  0
   -6.9190   -9.3070   20.1640 C   0  0  0  0  0
   -7.1470   -8.3040   21.0860 C   0  0  0  0  0
   -6.6270   -6.8580   21.0700 C   0  0  0  0  0
   -4.5330  -10.8530   16.4570 C   0  0  0  0  0
   -4.2030   -8.8470   15.0910 C   0  0  0  0  0
   -4.7850   -7.4310   15.1570 C   0  0  0  0  0
   -6.9700   -8.2280   15.5410 C   0  0  0  0  0
   -6.5630   -9.6860   15.5520 C   0  0  0  0  0
   -3.9400   -6.5480   14.3030 C   0  0  0  0  0
   -7.7380  -11.7690   20.0650 N   0  0  0  0  0
   -7.9540   -8.8200   22.0870 N   0  0  0  0  0
   -8.2340  -10.1400   21.7960 N   0  0  0  0  0
   -5.1250   -9.7900   15.6990 N   0  0  0  0  0
   -6.1250   -7.4840   14.6540 N   0  3  0  0  0
   -3.3280  -10.9350   16.5970 O   0  0  0  0  0
   -8.8770  -16.9970   19.6250 Cl  0  0  0  0  0
   -8.4285  -14.1178   20.0770 H   0  0  0  0  0
   -7.2181  -17.3580   17.4507 H   0  0  0  0  0
   -5.6937  -15.6999   16.1462 H   0  0  0  0  0
   -6.3211   -9.2311   19.2558 H   0  0  0  0  0
   -5.5371   -6.8651   21.0798 H   0  0  0  0  0
   -6.9803   -6.3561   20.1692 H   0  0  0  0  0
   -6.9961   -6.3308   21.9497 H   0  0  0  0  0
   -3.2562   -8.8717   15.6304 H   0  0  0  0  0
   -4.0438   -9.1217   14.0483 H   0  0  0  0  0
   -4.7966   -7.0426   16.1754 H   0  0  0  0  0
   -6.8734   -7.8233   16.5485 H   0  0  0  0  0
   -8.0023   -8.1486   15.2002 H   0  0  0  0  0
   -6.8653  -10.1528   14.6146 H   0  0  0  0  0
   -7.0492  -10.1908   16.3868 H   0  0  0  0  0
   -2.9165   -6.5537   14.6777 H   0  0  0  0  0
   -3.9546   -6.9151   13.2768 H   0  0  0  0  0
   -4.3333   -5.5319   14.3323 H   0  0  0  0  0
   -8.4083  -12.4153   20.4814 H   0  0  0  0  0
   -6.1174   -7.9432   13.7432 H   0  0  0  0  0
   -6.4855   -6.5331   14.5753 H   0  0  0  0  0
  1  2  4  0  0  0
  5  1  4  0  0  0
  1 21  1  0  0  0
  3  2  4  0  0  0
  2  7  4  0  0  0
  4  3  4  0  0  0
  3 10  4  0  0  0
  6  4  4  0  0  0
  6  5  4  0  0  0
 15  6  1  0  0  0
  7  8  4  0  0  0
  9  8  4  0  0  0
  8 27  1  0  0  0
 10  9  4  0  0  0
 11 12  4  0  0  0
 21 11  1  0  0  0
 11 23  4  0  0  0
 12 13  4  0  0  0
 13 14  1  0  0  0
 13 22  4  0  0  0
 24 15  1  0  0  0
 15 26  2  0  0  0
 17 16  1  0  0  0
 16 24  1  0  0  0
 17 20  1  0  0  0
 25 17  1  0  0  0
 18 19  1  0  0  0
 18 25  1  0  0  0
 19 24  1  0  0  0
 22 23  4  0  0  0
  7 28  1  0  0  0
  9 29  1  0  0  0
 10 30  1  0  0  0
 12 31  1  0  0  0
 14 32  1  0  0  0
 14 33  1  0  0  0
 14 34  1  0  0  0
 16 35  1  0  0  0
 16 36  1  0  0  0
 17 37  1  0  0  0
 18 38  1  0  0  0
 18 39  1  0  0  0
 19 40  1  0  0  0
 19 41  1  0  0  0
 20 42  1  0  0  0
 20 43  1  0  0  0
 20 44  1  0  0  0
 21 45  1  0  0  0
 25 46  1  0  0  0
 25 47  1  0  0  0
M  END
$$$$
