### 
### Created by X-TOOL on Mon Sep 10 21:12:46 2018
### 

@<TRIPOS>MOLECULE
3gbq_ligand
  183   187     1     0     0
SMALL
GAST_HUCK


@<TRIPOS>ATOM
      1 C          -7.6340  -14.3060   -9.7660 C.2       1 ACE         0.1751
      2 O          -8.2170  -13.3920  -10.3250 O.2       1 ACE        -0.3972
      3 CH3        -6.1800  -14.6350  -10.0970 C.3       1 ACE         0.0258
      4 N          -8.1320  -15.0440   -8.7580 N.am      1 VAL        -0.2656
      5 CA         -9.2130  -14.5910   -7.8880 C.3       1 VAL         0.1334
      6 C          -8.5520  -14.0210   -6.6190 C.2       1 VAL         0.2066
      7 O          -8.0320  -14.7740   -5.8010 O.2       1 VAL        -0.3942
      8 CB        -10.1340  -15.7890   -7.5640 C.3       1 VAL        -0.0062
      9 CG1       -10.9910  -15.6600   -6.2790 C.3       1 VAL        -0.0584
     10 CG2       -11.0270  -16.1290   -8.7550 C.3       1 VAL        -0.0584
     11 N          -8.5050  -12.6590   -6.5190 N.am      1 PRO        -0.2498
     12 CA         -7.9590  -12.0510   -5.3310 C.3       1 PRO         0.1340
     13 C          -8.8330  -12.2400   -4.0790 C.2       1 PRO         0.2066
     14 O         -10.0250  -12.5140   -4.1570 O.2       1 PRO        -0.3942
     15 CB         -7.7930  -10.5680   -5.6380 C.3       1 PRO        -0.0104
     16 CG         -8.2410  -10.3430   -7.0780 C.3       1 PRO        -0.0281
     17 CD         -8.7580  -11.6850   -7.5930 C.3       1 PRO         0.0369
     18 N          -8.1480  -12.0610   -2.9160 N.am      1 PRO        -0.2498
     19 CA         -8.7880  -12.1580   -1.6030 C.3       1 PRO         0.1340
     20 C         -10.0350  -11.2770   -1.3640 C.2       1 PRO         0.2066
     21 O         -10.2360  -10.2570   -2.0080 O.2       1 PRO        -0.3942
     22 CB         -7.7140  -11.5640   -0.6610 C.3       1 PRO        -0.0104
     23 CG         -6.3650  -11.7430   -1.3590 C.3       1 PRO        -0.0281
     24 CD         -6.6890  -11.8350   -2.8470 C.3       1 PRO         0.0369
     25 N         -10.8440  -11.6840   -0.3380 N.am      1 PRO        -0.2498
     26 CA        -11.9950  -10.8830    0.0920 C.3       1 PRO         0.1338
     27 C         -11.3920   -9.6890    0.8470 C.2       1 PRO         0.2041
     28 O         -10.6280   -9.8470    1.7920 O.2       1 PRO        -0.3944
     29 CB        -12.7810  -11.8030    1.0360 C.3       1 PRO        -0.0104
     30 CG        -11.7870  -12.8770    1.4950 C.3       1 PRO        -0.0281
     31 CD        -10.6860  -12.9230    0.4300 C.3       1 PRO         0.0369
     32 N         -11.7640   -8.5020    0.3520 N.am      1 VAL        -0.2635
     33 CA        -11.2470   -7.2560    0.8960 C.3       1 VAL         0.1334
     34 C         -11.8080   -7.0960    2.3120 C.2       1 VAL         0.2066
     35 O         -12.9240   -7.5270    2.5800 O.2       1 VAL        -0.3942
     36 CB        -11.6540   -6.1110   -0.0230 C.3       1 VAL        -0.0062
     37 CG1       -10.8570   -4.8200    0.1890 C.3       1 VAL        -0.0584
     38 CG2       -11.5470   -6.4080   -1.5120 C.3       1 VAL        -0.0584
     39 N         -10.9940   -6.5430    3.2450 N.am      1 PRO        -0.2498
     40 CA        -11.5040   -6.3530    4.5790 C.3       1 PRO         0.1340
     41 C         -12.6620   -5.3820    4.6450 C.2       1 PRO         0.2066
     42 O         -12.7970   -4.4890    3.8170 O.2       1 PRO        -0.3942
     43 CB        -10.3560   -5.6850    5.3280 C.3       1 PRO        -0.0104
     44 CG         -9.0820   -5.9670    4.5510 C.3       1 PRO        -0.0281
     45 CD         -9.5600   -6.2580    3.1370 C.3       1 PRO         0.0369
     46 N         -13.4660   -5.5370    5.7240 N.am      1 PRO        -0.2498
     47 CA        -14.5320   -4.5770    5.9140 C.3       1 PRO         0.1338
     48 C         -13.8200   -3.2780    6.3210 C.2       1 PRO         0.2041
     49 O         -13.2570   -3.2080    7.4070 O.2       1 PRO        -0.3944
     50 CB        -15.3080   -5.1100    7.1300 C.3       1 PRO        -0.0104
     51 CG        -14.3900   -6.1360    7.8220 C.3       1 PRO        -0.0281
     52 CD        -13.3560   -6.5540    6.7720 C.3       1 PRO         0.0369
     53 N         -13.8370   -2.2780    5.4010 N.am      1 ARG        -0.2637
     54 CA        -13.2250   -1.0130    5.8110 C.3       1 ARG         0.1311
     55 C         -14.3040   -0.4290    6.6720 C.2       1 ARG         0.2039
     56 O         -15.4830   -0.6890    6.4650 O.2       1 ARG        -0.3944
     57 CB        -12.7760    0.0440    4.7760 C.3       1 ARG        -0.0092
     58 CG        -13.3070   -0.0060    3.3450 C.3       1 ARG        -0.0156
     59 CD        -14.8160   -0.0400    3.1610 C.3       1 ARG         0.0627
     60 NE        -15.4130    1.2830    3.0410 N.pl3     1 ARG        -0.2723
     61 CZ        -16.7240    1.3460    2.7640 C.cat     1 ARG         0.2882
     62 NH1       -17.4420    0.2160    2.7310 N.pl3     1 ARG        -0.2849
     63 NH2       -17.3380    2.4880    2.5250 N.pl3     1 ARG        -0.2849
     64 N         -13.7850    0.3420    7.6290 N.am      1 ARG        -0.2637
     65 CA        -14.5090    1.0090    8.6470 C.3       1 ARG         0.1311
     66 C         -14.3110    0.1310    9.8450 C.2       1 ARG         0.2039
     67 O         -14.8520   -0.9650    9.9180 O.2       1 ARG        -0.3944
     68 CB        -16.0300    0.9170    8.6130 C.3       1 ARG        -0.0092
     69 CG        -16.8110    1.6090    7.5560 C.3       1 ARG        -0.0156
     70 CD        -18.2660    1.2950    7.8840 C.3       1 ARG         0.0627
     71 NE        -18.8180    2.4780    8.4740 N.pl3     1 ARG        -0.2723
     72 CZ        -20.0840    2.4690    8.9310 C.cat     1 ARG         0.2882
     73 NH1       -20.5910    1.4230    9.5920 N.pl3     1 ARG        -0.2849
     74 NH2       -20.7860    3.5580    8.6940 N.pl3     1 ARG        -0.2849
     75 N         -13.5140    0.6250   10.7740 N.am      1 ARG        -0.2637
     76 CA        -13.5760   -0.2000   11.9890 C.3       1 ARG         0.1307
     77 C         -14.9240    0.0880   12.6850 C.2       1 ARG         0.1992
     78 O         -15.7360   -0.7620   13.0720 O.2       1 ARG        -0.3947
     79 CB        -12.4360    0.1200   12.9080 C.3       1 ARG        -0.0092
     80 CG        -11.4460   -1.0310   12.8630 C.3       1 ARG        -0.0156
     81 CD        -10.1860   -0.6720   12.0670 C.3       1 ARG         0.0627
     82 NE         -9.0910   -1.0140   12.9510 N.pl3     1 ARG        -0.2723
     83 CZ         -8.9840   -0.3490   14.1170 C.cat     1 ARG         0.2882
     84 NH1        -9.3520    0.9210   14.2340 N.pl3     1 ARG        -0.2849
     85 NH2        -8.5120   -1.0130   15.1580 N.pl3     1 ARG        -0.2849
     86 N         -15.0550    1.4360   12.5650 N.am      1 NH2        -0.2990
     87 H1         -5.8485  -15.4870   -9.4853 H         1 ACE         0.0467
     88 H2         -5.5480  -13.7609   -9.8814 H         1 ACE         0.0467
     89 H3         -6.0961  -14.8942  -11.1627 H         1 ACE         0.0467
     90 H4         -7.7414  -15.9502   -8.5961 H         1 VAL         0.1883
     91 H5         -9.8001  -13.8054   -8.3862 H         1 VAL         0.0803
     92 H6         -9.4671  -16.6487   -7.4023 H         1 VAL         0.0343
     93 H7        -11.6015  -16.5663   -6.1529 H         1 VAL         0.0234
     94 H8        -11.6497  -14.7831   -6.3640 H         1 VAL         0.0234
     95 H9        -10.3301  -15.5391   -5.4081 H         1 VAL         0.0234
     96 H10       -10.4106  -16.2185   -9.6617 H         1 VAL         0.0234
     97 H11       -11.7712  -15.3312   -8.8949 H         1 VAL         0.0234
     98 H12       -11.5424  -17.0823   -8.5665 H         1 VAL         0.0234
     99 H13        -6.9735  -12.4955   -5.1281 H         1 PRO         0.0802
    100 H14        -6.7385  -10.2768   -5.5233 H         1 PRO         0.0313
    101 H15        -8.4146   -9.9714   -4.9542 H         1 PRO         0.0313
    102 H16        -7.3924  -10.0038   -7.6902 H         1 PRO         0.0287
    103 H17        -9.0421   -9.5900   -7.1123 H         1 PRO         0.0287
    104 H18        -9.8354  -11.6227   -7.8060 H         1 PRO         0.0524
    105 H19        -8.2197  -11.9761   -8.5070 H         1 PRO         0.0524
    106 H20        -9.0235  -13.2076   -1.3731 H         1 PRO         0.0802
    107 H21        -7.7165  -12.0983    0.3005 H         1 PRO         0.0313
    108 H22        -7.9116  -10.4959   -0.4875 H         1 PRO         0.0313
    109 H23        -5.8725  -12.6643   -1.0146 H         1 PRO         0.0287
    110 H24        -5.7111  -10.8812   -1.1599 H         1 PRO         0.0287
    111 H25        -6.4196  -10.8991   -3.3584 H         1 PRO         0.0524
    112 H26        -6.1471  -12.6739   -3.3080 H         1 PRO         0.0524
    113 H27       -12.6173  -10.5489   -0.7513 H         1 PRO         0.0802
    114 H28       -13.6262  -12.2651    0.5049 H         1 PRO         0.0313
    115 H29       -13.1570  -11.2349    1.8996 H         1 PRO         0.0313
    116 H30       -12.2877  -13.8537    1.5684 H         1 PRO         0.0287
    117 H31       -11.3606  -12.6091    2.4730 H         1 PRO         0.0287
    118 H32        -9.6934  -12.9604    0.9025 H         1 PRO         0.0524
    119 H33       -10.8154  -13.8000   -0.2212 H         1 PRO         0.0524
    120 H34       -12.4120   -8.4713   -0.4090 H         1 VAL         0.1883
    121 H35       -10.1490   -7.2985    0.9467 H         1 VAL         0.0803
    122 H36       -12.7096   -5.8995    0.2028 H         1 VAL         0.0343
    123 H37       -11.2133   -4.0500   -0.5111 H         1 VAL         0.0234
    124 H38        -9.7895   -5.0142    0.0082 H         1 VAL         0.0234
    125 H39       -10.9960   -4.4687    1.2221 H         1 VAL         0.0234
    126 H40       -12.1004   -7.3303   -1.7426 H         1 VAL         0.0234
    127 H41       -10.4893   -6.5371   -1.7851 H         1 VAL         0.0234
    128 H42       -11.9740   -5.5714   -2.0844 H         1 VAL         0.0234
    129 H43       -11.7874   -7.3169    5.0269 H         1 PRO         0.0802
    130 H44       -10.2770   -6.1008    6.3433 H         1 PRO         0.0313
    131 H45       -10.5272   -4.6001    5.3884 H         1 PRO         0.0313
    132 H46        -8.5543   -6.8363    4.9704 H         1 PRO         0.0287
    133 H47        -8.4157   -5.0919    4.5645 H         1 PRO         0.0287
    134 H48        -9.3917   -5.3848    2.4896 H         1 PRO         0.0524
    135 H49        -9.0275   -7.1280    2.7252 H         1 PRO         0.0524
    136 H50       -15.1696   -4.4490    5.0268 H         1 PRO         0.0802
    137 H51       -16.2400   -5.5943    6.8031 H         1 PRO         0.0313
    138 H52       -15.5450   -4.2866    7.8199 H         1 PRO         0.0313
    139 H53       -14.9728   -7.0083    8.1527 H         1 PRO         0.0287
    140 H54       -13.8908   -5.6785    8.6889 H         1 PRO         0.0287
    141 H55       -12.3442   -6.5598    7.2035 H         1 PRO         0.0524
    142 H56       -13.5897   -7.5516    6.3718 H         1 PRO         0.0524
    143 H57       -14.2443   -2.3993    4.4958 H         1 ARG         0.1883
    144 H58       -12.3375   -1.2501    6.4161 H         1 ARG         0.0800
    145 H59       -11.6802   -0.0242    4.7092 H         1 ARG         0.0313
    146 H60       -13.0581    1.0259    5.1839 H         1 ARG         0.0313
    147 H61       -12.8962   -0.9100    2.8717 H         1 ARG         0.0301
    148 H62       -12.9305    0.8853    2.8217 H         1 ARG         0.0301
    149 H63       -15.2621   -0.5465    4.0296 H         1 ARG         0.0689
    150 H64       -15.0434   -0.6094    2.2478 H         1 ARG         0.0689
    151 H65       -14.8505    2.1370    3.1640 H         1 ARG         0.2642
    152 H66       -18.4494    0.2519    2.5194 H         1 ARG         0.2615
    153 H67       -16.9868   -0.6890    2.9172 H         1 ARG         0.2615
    154 H68       -16.8085    3.3713    2.5443 H         1 ARG         0.2615
    155 H69       -18.3471    2.4969    2.3189 H         1 ARG         0.2615
    156 H70       -12.7920    0.4600    7.6274 H         1 ARG         0.1883
    157 H71       -14.1595    2.0457    8.7609 H         1 ARG         0.0800
    158 H72       -16.3895    1.3091    9.5758 H         1 ARG         0.0313
    159 H73       -16.2779   -0.1520    8.5368 H         1 ARG         0.0313
    160 H74       -16.5453    1.2224    6.5611 H         1 ARG         0.0301
    161 H75       -16.6313    2.6937    7.5879 H         1 ARG         0.0301
    162 H76       -18.3225    0.4558    8.5928 H         1 ARG         0.0689
    163 H77       -18.8148    1.0374    6.9661 H         1 ARG         0.0689
    164 H78       -18.2479    3.3327    8.5482 H         1 ARG         0.2642
    165 H79       -21.5642    1.4489    9.9283 H         1 ARG         0.2615
    166 H80       -20.0083    0.5914    9.7649 H         1 ARG         0.2615
    167 H81       -20.3606    4.3435    8.1812 H         1 ARG         0.2615
    168 H82       -21.7603    3.6241    9.0214 H         1 ARG         0.2615
    169 H83       -12.9491    1.4431   10.6666 H         1 ARG         0.1883
    170 H84       -13.5242   -1.2635   11.7128 H         1 ARG         0.0800
    171 H85       -12.8107    0.2477   13.9343 H         1 ARG         0.0313
    172 H86       -11.9431    1.0469   12.5796 H         1 ARG         0.0313
    173 H87       -11.9302   -1.8980   12.3899 H         1 ARG         0.0301
    174 H88       -11.1548   -1.2897   13.8917 H         1 ARG         0.0301
    175 H89       -10.1707    0.4011   11.8258 H         1 ARG         0.0689
    176 H90       -10.1330   -1.2576   11.1374 H         1 ARG         0.0689
    177 H91        -8.4128   -1.7457   12.6949 H         1 ARG         0.2642
    178 H92        -9.2581    1.4031   15.1394 H         1 ARG         0.2615
    179 H93        -9.7314    1.4244   13.4194 H         1 ARG         0.2615
    180 H94        -8.2295   -1.9982   15.0555 H         1 ARG         0.2615
    181 H95        -8.4267   -0.5452   16.0717 H         1 ARG         0.2615
    182 H96       -15.8602    1.8954   12.9399 H         1 NH2         0.1815
    183 H97       -14.3461    1.9680   12.1018 H         1 NH2         0.1815
@<TRIPOS>BOND
     1    1    2 2  
     2    1    3 1  
     3    1    4 am 
     4    4    5 1  
     5    5    6 1  
     6    5    8 1  
     7    6    7 2  
     8    6   11 am 
     9    8    9 1  
    10    8   10 1  
    11   11   12 1  
    12   11   17 1  
    13   12   13 1  
    14   12   15 1  
    15   13   14 2  
    16   13   18 am 
    17   15   16 1  
    18   16   17 1  
    19   18   19 1  
    20   18   24 1  
    21   19   20 1  
    22   19   22 1  
    23   20   21 2  
    24   20   25 am 
    25   22   23 1  
    26   23   24 1  
    27   25   26 1  
    28   25   31 1  
    29   26   27 1  
    30   26   29 1  
    31   27   28 2  
    32   27   32 am 
    33   29   30 1  
    34   30   31 1  
    35   32   33 1  
    36   33   34 1  
    37   33   36 1  
    38   34   35 2  
    39   34   39 am 
    40   36   37 1  
    41   36   38 1  
    42   39   40 1  
    43   39   45 1  
    44   40   41 1  
    45   40   43 1  
    46   41   42 2  
    47   41   46 am 
    48   43   44 1  
    49   44   45 1  
    50   46   47 1  
    51   46   52 1  
    52   47   48 1  
    53   47   50 1  
    54   48   49 2  
    55   48   53 am 
    56   50   51 1  
    57   51   52 1  
    58   53   54 1  
    59   54   55 1  
    60   54   57 1  
    61   55   56 2  
    62   55   64 am 
    63   57   58 1  
    64   58   59 1  
    65   59   60 1  
    66   60   61 ar 
    67   61   62 ar 
    68   61   63 ar 
    69   64   65 1  
    70   65   66 1  
    71   65   68 1  
    72   66   67 2  
    73   66   75 am 
    74   68   69 1  
    75   69   70 1  
    76   70   71 1  
    77   71   72 ar 
    78   72   73 ar 
    79   72   74 ar 
    80   75   76 1  
    81   76   77 1  
    82   76   79 1  
    83   77   78 2  
    84   77   86 am 
    85   79   80 1  
    86   80   81 1  
    87   81   82 1  
    88   82   83 ar 
    89   83   84 ar 
    90   83   85 ar 
    91    3   87 1  
    92    3   88 1  
    93    3   89 1  
    94    4   90 1  
    95    5   91 1  
    96    8   92 1  
    97    9   93 1  
    98    9   94 1  
    99    9   95 1  
   100   10   96 1  
   101   10   97 1  
   102   10   98 1  
   103   12   99 1  
   104   15  100 1  
   105   15  101 1  
   106   16  102 1  
   107   16  103 1  
   108   17  104 1  
   109   17  105 1  
   110   19  106 1  
   111   22  107 1  
   112   22  108 1  
   113   23  109 1  
   114   23  110 1  
   115   24  111 1  
   116   24  112 1  
   117   26  113 1  
   118   29  114 1  
   119   29  115 1  
   120   30  116 1  
   121   30  117 1  
   122   31  118 1  
   123   31  119 1  
   124   32  120 1  
   125   33  121 1  
   126   36  122 1  
   127   37  123 1  
   128   37  124 1  
   129   37  125 1  
   130   38  126 1  
   131   38  127 1  
   132   38  128 1  
   133   40  129 1  
   134   43  130 1  
   135   43  131 1  
   136   44  132 1  
   137   44  133 1  
   138   45  134 1  
   139   45  135 1  
   140   47  136 1  
   141   50  137 1  
   142   50  138 1  
   143   51  139 1  
   144   51  140 1  
   145   52  141 1  
   146   52  142 1  
   147   53  143 1  
   148   54  144 1  
   149   57  145 1  
   150   57  146 1  
   151   58  147 1  
   152   58  148 1  
   153   59  149 1  
   154   59  150 1  
   155   60  151 1  
   156   62  152 1  
   157   62  153 1  
   158   63  154 1  
   159   63  155 1  
   160   64  156 1  
   161   65  157 1  
   162   68  158 1  
   163   68  159 1  
   164   69  160 1  
   165   69  161 1  
   166   70  162 1  
   167   70  163 1  
   168   71  164 1  
   169   73  165 1  
   170   73  166 1  
   171   74  167 1  
   172   74  168 1  
   173   75  169 1  
   174   76  170 1  
   175   79  171 1  
   176   79  172 1  
   177   80  173 1  
   178   80  174 1  
   179   81  175 1  
   180   81  176 1  
   181   82  177 1  
   182   84  178 1  
   183   84  179 1  
   184   85  180 1  
   185   85  181 1  
   186   86  182 1  
   187   86  183 1  
@<TRIPOS>SUBSTRUCTURE
     1 ACE         1

