3gbq_ligand
  -I-interpret- 

180184  0  0  0  0  0  0  0  0999 V2000
   -7.6340  -14.3060   -9.7660 C   0  0  0  0  0
   -8.2170  -13.3920  -10.3250 O   0  0  0  0  0
   -6.1800  -14.6350  -10.0970 C   0  0  0  0  0
   -8.1320  -15.0440   -8.7580 N   0  0  0  0  0
   -9.2130  -14.5910   -7.8880 C   0  0  0  0  0
   -8.5520  -14.0210   -6.6190 C   0  0  0  0  0
   -8.0320  -14.7740   -5.8010 O   0  0  0  0  0
  -10.1340  -15.7890   -7.5640 C   0  0  0  0  0
  -10.9910  -15.6600   -6.2790 C   0  0  0  0  0
  -11.0270  -16.1290   -8.7550 C   0  0  0  0  0
   -8.5050  -12.6590   -6.5190 N   0  0  0  0  0
   -7.9590  -12.0510   -5.3310 C   0  0  0  0  0
   -8.8330  -12.2400   -4.0790 C   0  0  0  0  0
  -10.0250  -12.5140   -4.1570 O   0  0  0  0  0
   -7.7930  -10.5680   -5.6380 C   0  0  0  0  0
   -8.2410  -10.3430   -7.0780 C   0  0  0  0  0
   -8.7580  -11.6850   -7.5930 C   0  0  0  0  0
   -8.1480  -12.0610   -2.9160 N   0  0  0  0  0
   -8.7880  -12.1580   -1.6030 C   0  0  0  0  0
  -10.0350  -11.2770   -1.3640 C   0  0  0  0  0
  -10.2360  -10.2570   -2.0080 O   0  0  0  0  0
   -7.7140  -11.5640   -0.6610 C   0  0  0  0  0
   -6.3650  -11.7430   -1.3590 C   0  0  0  0  0
   -6.6890  -11.8350   -2.8470 C   0  0  0  0  0
  -10.8440  -11.6840   -0.3380 N   0  0  0  0  0
  -11.9950  -10.8830    0.0920 C   0  0  0  0  0
  -11.3920   -9.6890    0.8470 C   0  0  0  0  0
  -10.6280   -9.8470    1.7920 O   0  0  0  0  0
  -12.7810  -11.8030    1.0360 C   0  0  0  0  0
  -11.7870  -12.8770    1.4950 C   0  0  0  0  0
  -10.6860  -12.9230    0.4300 C   0  0  0  0  0
  -11.7640   -8.5020    0.3520 N   0  0  0  0  0
  -11.2470   -7.2560    0.8960 C   0  0  0  0  0
  -11.8080   -7.0960    2.3120 C   0  0  0  0  0
  -12.9240   -7.5270    2.5800 O   0  0  0  0  0
  -11.6540   -6.1110   -0.0230 C   0  0  0  0  0
  -10.8570   -4.8200    0.1890 C   0  0  0  0  0
  -11.5470   -6.4080   -1.5120 C   0  0  0  0  0
  -10.9940   -6.5430    3.2450 N   0  0  0  0  0
  -11.5040   -6.3530    4.5790 C   0  0  0  0  0
  -12.6620   -5.3820    4.6450 C   0  0  0  0  0
  -12.7970   -4.4890    3.8170 O   0  0  0  0  0
  -10.3560   -5.6850    5.3280 C   0  0  0  0  0
   -9.0820   -5.9670    4.5510 C   0  0  0  0  0
   -9.5600   -6.2580    3.1370 C   0  0  0  0  0
  -13.4660   -5.5370    5.7240 N   0  0  0  0  0
  -14.5320   -4.5770    5.9140 C   0  0  0  0  0
  -13.8200   -3.2780    6.3210 C   0  0  0  0  0
  -13.2570   -3.2080    7.4070 O   0  0  0  0  0
  -15.3080   -5.1100    7.1300 C   0  0  0  0  0
  -14.3900   -6.1360    7.8220 C   0  0  0  0  0
  -13.3560   -6.5540    6.7720 C   0  0  0  0  0
  -13.8370   -2.2780    5.4010 N   0  0  0  0  0
  -13.2250   -1.0130    5.8110 C   0  0  0  0  0
  -14.3040   -0.4290    6.6720 C   0  0  0  0  0
  -15.4830   -0.6890    6.4650 O   0  0  0  0  0
  -12.7760    0.0440    4.7760 C   0  0  0  0  0
  -13.3070   -0.0060    3.3450 C   0  0  0  0  0
  -14.8160   -0.0400    3.1610 C   0  0  0  0  0
  -15.4130    1.2830    3.0410 N   0  0  0  0  0
  -16.7240    1.3460    2.7640 C   0  0  0  0  0
  -17.4420    0.2160    2.7310 N   0  0  0  0  0
  -17.3380    2.4880    2.5250 N   0  0  0  0  0
  -13.7850    0.3420    7.6290 N   0  0  0  0  0
  -14.5090    1.0090    8.6470 C   0  0  0  0  0
  -14.3110    0.1310    9.8450 C   0  0  0  0  0
  -14.8520   -0.9650    9.9180 O   0  0  0  0  0
  -16.0300    0.9170    8.6130 C   0  0  0  0  0
  -16.8110    1.6090    7.5560 C   0  0  0  0  0
  -18.2660    1.2950    7.8840 C   0  0  0  0  0
  -18.8180    2.4780    8.4740 N   0  0  0  0  0
  -20.0840    2.4690    8.9310 C   0  0  0  0  0
  -20.5910    1.4230    9.5920 N   0  0  0  0  0
  -20.7860    3.5580    8.6940 N   0  0  0  0  0
  -13.5140    0.6250   10.7740 N   0  0  0  0  0
  -13.5760   -0.2000   11.9890 C   0  0  0  0  0
  -14.9240    0.0880   12.6850 C   0  0  0  0  0
  -15.7360   -0.7620   13.0720 O   0  0  0  0  0
  -12.4360    0.1200   12.9080 C   0  0  0  0  0
  -11.4460   -1.0310   12.8630 C   0  0  0  0  0
  -10.1860   -0.6720   12.0670 C   0  0  0  0  0
   -9.0910   -1.0140   12.9510 N   0  0  0  0  0
   -8.9840   -0.3490   14.1170 C   0  0  0  0  0
   -9.3520    0.9210   14.2340 N   0  0  0  0  0
   -8.5120   -1.0130   15.1580 N   0  0  0  0  0
  -15.0550    1.4360   12.5650 N   0  0  0  0  0
   -6.0983  -14.8916  -11.1532 H   0  0  0  0  0
   -5.5549  -13.7681   -9.8830 H   0  0  0  0  0
   -5.8527  -15.4793   -9.4903 H   0  0  0  0  0
   -7.7336  -15.9683   -8.5929 H   0  0  0  0  0
   -9.8285  -13.8236   -8.3574 H   0  0  0  0  0
   -9.4397  -16.6037   -7.3582 H   0  0  0  0  0
  -11.7279  -14.8681   -6.4132 H   0  0  0  0  0
  -11.5011  -16.6041   -6.0877 H   0  0  0  0  0
  -10.3446  -15.4174   -5.4356 H   0  0  0  0  0
  -11.5372  -17.0737   -8.5670 H   0  0  0  0  0
  -11.7639  -15.3377   -8.8925 H   0  0  0  0  0
  -10.4151  -16.2174   -9.6527 H   0  0  0  0  0
   -7.0124  -12.5356   -5.0919 H   0  0  0  0  0
   -6.7529  -10.2675   -5.5118 H   0  0  0  0  0
   -8.3941   -9.9684   -4.9545 H   0  0  0  0  0
   -7.4133   -9.9853   -7.6904 H   0  0  0  0  0
   -9.0201   -9.5823   -7.1275 H   0  0  0  0  0
   -9.8196  -11.6318   -7.8345 H   0  0  0  0  0
   -8.2527  -11.9745   -8.5144 H   0  0  0  0  0
   -9.1158  -13.1888   -1.4682 H   0  0  0  0  0
   -7.7213  -12.0717    0.3035 H   0  0  0  0  0
   -7.9114  -10.5102   -0.4644 H   0  0  0  0  0
   -5.8464  -12.6344   -1.0060 H   0  0  0  0  0
   -5.6907  -10.9135   -1.1463 H   0  0  0  0  0
   -6.3982  -10.9282   -3.3774 H   0  0  0  0  0
   -6.1353  -12.6408   -3.3288 H   0  0  0  0  0
  -12.6462  -10.5225   -0.7043 H   0  0  0  0  0
  -13.6404  -12.2466    0.5332 H   0  0  0  0  0
  -13.1863  -11.2495    1.8830 H   0  0  0  0  0
  -12.2751  -13.8461    1.5979 H   0  0  0  0  0
  -11.3755  -12.6384    2.4758 H   0  0  0  0  0
   -9.6950  -12.9953    0.8782 H   0  0  0  0  0
  -10.7764  -13.8045   -0.2048 H   0  0  0  0  0
  -12.4250   -8.4707   -0.4242 H   0  0  0  0  0
  -10.1585   -7.2553    0.9539 H   0  0  0  0  0
  -12.6976   -5.9845    0.2650 H   0  0  0  0  0
  -10.9955   -4.4730    1.2130 H   0  0  0  0  0
   -9.7995   -5.0138    0.0096 H   0  0  0  0  0
  -11.2109   -4.0579   -0.5052 H   0  0  0  0  0
  -10.5141   -6.6537   -1.7589 H   0  0  0  0  0
  -12.1917   -7.2511   -1.7603 H   0  0  0  0  0
  -11.8588   -5.5311   -2.0794 H   0  0  0  0  0
  -11.8482   -7.3091    4.9734 H   0  0  0  0  0
  -10.2805   -6.0789    6.3415 H   0  0  0  0  0
  -10.5252   -4.6112    5.4076 H   0  0  0  0  0
   -8.5199   -6.7999    4.9734 H   0  0  0  0  0
   -8.3871   -5.1279    4.5844 H   0  0  0  0  0
   -9.3747   -5.4114    2.4759 H   0  0  0  0  0
   -9.0217   -7.1013    2.7043 H   0  0  0  0  0
  -15.1808   -4.4236    5.0517 H   0  0  0  0  0
  -16.2458   -5.5721    6.8216 H   0  0  0  0  0
  -15.5696   -4.2999    7.8108 H   0  0  0  0  0
  -14.9577   -6.9947    8.1805 H   0  0  0  0  0
  -13.9087   -5.7056    8.7002 H   0  0  0  0  0
  -12.3496   -6.6054    7.1875 H   0  0  0  0  0
  -13.5448   -7.5570    6.3894 H   0  0  0  0  0
  -14.2524   -2.4018    4.4777 H   0  0  0  0  0
  -12.2527   -1.2530    6.2413 H   0  0  0  0  0
  -11.7031   -0.1181    4.6721 H   0  0  0  0  0
  -13.1533    0.9870    5.1716 H   0  0  0  0  0
  -12.9378   -0.9422    2.9262 H   0  0  0  0  0
  -12.9734    0.9188    2.8744 H   0  0  0  0  0
  -15.2443   -0.5154    4.0434 H   0  0  0  0  0
  -15.0226   -0.5792    2.2365 H   0  0  0  0  0
  -14.8559    2.1287    3.1628 H   0  0  0  0  0
  -18.4402    0.2519    2.5245 H   0  0  0  0  0
  -16.9906   -0.6805    2.9124 H   0  0  0  0  0
  -16.8143    3.3630    2.5472 H   0  0  0  0  0
  -12.7721    0.4623    7.6273 H   0  0  0  0  0
  -14.1797    2.0467    8.5928 H   0  0  0  0  0
  -16.3462    1.4012    9.5370 H   0  0  0  0  0
  -16.2284   -0.1408    8.4404 H   0  0  0  0  0
  -16.5360    1.2686    6.5577 H   0  0  0  0  0
  -16.6186    2.6818    7.5440 H   0  0  0  0  0
  -18.3367    0.4496    8.5684 H   0  0  0  0  0
  -18.8158    1.0157    6.9852 H   0  0  0  0  0
  -18.2535    3.3244    8.5475 H   0  0  0  0  0
  -21.5524    1.4516    9.9317 H   0  0  0  0  0
  -20.0164    0.5965    9.7565 H   0  0  0  0  0
  -20.3625    4.3387    8.1925 H   0  0  0  0  0
  -12.9378    1.4595   10.6645 H   0  0  0  0  0
  -13.4989   -1.2556   11.7284 H   0  0  0  0  0
  -12.8038    0.2560   13.9250 H   0  0  0  0  0
  -11.9497    1.0427   12.5916 H   0  0  0  0  0
  -11.9287   -1.8775   12.3746 H   0  0  0  0  0
  -11.1487   -1.2657   13.8851 H   0  0  0  0  0
  -10.1682    0.3798   11.7815 H   0  0  0  0  0
  -10.1320   -1.2111   11.1212 H   0  0  0  0  0
   -8.4194   -1.7386   12.6974 H   0  0  0  0  0
   -9.2719    1.3943   15.1340 H   0  0  0  0  0
   -9.7149    1.4235   13.4239 H   0  0  0  0  0
   -8.2446   -1.9924   15.0597 H   0  0  0  0  0
  -15.9347    1.8872   12.8157 H   0  0  0  0  0
  -14.2735    1.9960   12.2243 H   0  0  0  0  0
  1  2  2  0  0  0
  1  3  1  0  0  0
  1  4  1  0  0  0
  4  5  1  0  0  0
  5  6  1  0  0  0
  5  8  1  0  0  0
  6  7  2  0  0  0
  6 11  1  0  0  0
  8  9  1  0  0  0
  8 10  1  0  0  0
 11 12  1  0  0  0
 11 17  1  0  0  0
 12 13  1  0  0  0
 12 15  1  0  0  0
 13 14  2  0  0  0
 13 18  1  0  0  0
 15 16  1  0  0  0
 16 17  1  0  0  0
 18 19  1  0  0  0
 18 24  1  0  0  0
 19 20  1  0  0  0
 19 22  1  0  0  0
 20 21  2  0  0  0
 20 25  1  0  0  0
 22 23  1  0  0  0
 23 24  1  0  0  0
 25 26  1  0  0  0
 25 31  1  0  0  0
 26 27  1  0  0  0
 26 29  1  0  0  0
 27 28  2  0  0  0
 27 32  1  0  0  0
 29 30  1  0  0  0
 30 31  1  0  0  0
 32 33  1  0  0  0
 33 34  1  0  0  0
 33 36  1  0  0  0
 34 35  2  0  0  0
 34 39  1  0  0  0
 36 37  1  0  0  0
 36 38  1  0  0  0
 39 40  1  0  0  0
 39 45  1  0  0  0
 40 41  1  0  0  0
 40 43  1  0  0  0
 41 42  2  0  0  0
 41 46  1  0  0  0
 43 44  1  0  0  0
 44 45  1  0  0  0
 46 47  1  0  0  0
 46 52  1  0  0  0
 47 48  1  0  0  0
 47 50  1  0  0  0
 48 49  2  0  0  0
 48 53  1  0  0  0
 50 51  1  0  0  0
 51 52  1  0  0  0
 53 54  1  0  0  0
 54 55  1  0  0  0
 54 57  1  0  0  0
 55 56  2  0  0  0
 55 64  1  0  0  0
 57 58  1  0  0  0
 58 59  1  0  0  0
 59 60  1  0  0  0
 60 61  1  0  0  0
 61 62  1  0  0  0
 61 63  2  0  0  0
 64 65  1  0  0  0
 65 66  1  0  0  0
 65 68  1  0  0  0
 66 67  2  0  0  0
 66 75  1  0  0  0
 68 69  1  0  0  0
 69 70  1  0  0  0
 70 71  1  0  0  0
 71 72  1  0  0  0
 72 73  1  0  0  0
 72 74  2  0  0  0
 75 76  1  0  0  0
 76 77  1  0  0  0
 76 79  1  0  0  0
 77 78  2  0  0  0
 77 86  1  0  0  0
 79 80  1  0  0  0
 80 81  1  0  0  0
 81 82  1  0  0  0
 82 83  1  0  0  0
 83 84  1  0  0  0
 83 85  2  0  0  0
  3 87  1  0  0  0
  3 88  1  0  0  0
  3 89  1  0  0  0
  4 90  1  0  0  0
  5 91  1  0  0  0
  8 92  1  0  0  0
  9 93  1  0  0  0
  9 94  1  0  0  0
  9 95  1  0  0  0
 10 96  1  0  0  0
 10 97  1  0  0  0
 10 98  1  0  0  0
 12 99  1  0  0  0
 15100  1  0  0  0
 15101  1  0  0  0
 16102  1  0  0  0
 16103  1  0  0  0
 17104  1  0  0  0
 17105  1  0  0  0
 19106  1  0  0  0
 22107  1  0  0  0
 22108  1  0  0  0
 23109  1  0  0  0
 23110  1  0  0  0
 24111  1  0  0  0
 24112  1  0  0  0
 26113  1  0  0  0
 29114  1  0  0  0
 29115  1  0  0  0
 30116  1  0  0  0
 30117  1  0  0  0
 31118  1  0  0  0
 31119  1  0  0  0
 32120  1  0  0  0
 33121  1  0  0  0
 36122  1  0  0  0
 37123  1  0  0  0
 37124  1  0  0  0
 37125  1  0  0  0
 38126  1  0  0  0
 38127  1  0  0  0
 38128  1  0  0  0
 40129  1  0  0  0
 43130  1  0  0  0
 43131  1  0  0  0
 44132  1  0  0  0
 44133  1  0  0  0
 45134  1  0  0  0
 45135  1  0  0  0
 47136  1  0  0  0
 50137  1  0  0  0
 50138  1  0  0  0
 51139  1  0  0  0
 51140  1  0  0  0
 52141  1  0  0  0
 52142  1  0  0  0
 53143  1  0  0  0
 54144  1  0  0  0
 57145  1  0  0  0
 57146  1  0  0  0
 58147  1  0  0  0
 58148  1  0  0  0
 59149  1  0  0  0
 59150  1  0  0  0
 60151  1  0  0  0
 62152  1  0  0  0
 62153  1  0  0  0
 63154  1  0  0  0
 64155  1  0  0  0
 65156  1  0  0  0
 68157  1  0  0  0
 68158  1  0  0  0
 69159  1  0  0  0
 69160  1  0  0  0
 70161  1  0  0  0
 70162  1  0  0  0
 71163  1  0  0  0
 73164  1  0  0  0
 73165  1  0  0  0
 74166  1  0  0  0
 75167  1  0  0  0
 76168  1  0  0  0
 79169  1  0  0  0
 79170  1  0  0  0
 80171  1  0  0  0
 80172  1  0  0  0
 81173  1  0  0  0
 81174  1  0  0  0
 82175  1  0  0  0
 84176  1  0  0  0
 84177  1  0  0  0
 85178  1  0  0  0
 86179  1  0  0  0
 86180  1  0  0  0
M  END
$$$$
