5kax_ligand
  -I-interpret- 

 65 68  0  0  0  0  0  0  0  0999 V2000
   -3.2580   22.4770  -10.7370 C   0  0  0  0  0
   -1.9150   22.7360  -10.3930 C   0  0  0  0  0
   -1.1850   21.7260   -9.7450 C   0  0  0  0  0
   -1.7550   20.4710   -9.4330 C   0  0  0  0  0
   -3.0830   20.2020   -9.7760 C   0  0  0  0  0
   -3.8340   21.2040  -10.4240 C   0  0  0  0  0
   -4.0030   23.4510  -11.3770 O   0  0  0  0  0
   -3.4890   24.6810  -11.7010 C   0  0  0  0  0
   -2.1620   25.0170  -11.3920 C   0  0  0  0  0
   -1.3080   24.0460  -10.7130 C   0  0  0  0  0
   -4.3190   25.6280  -12.3500 C   0  0  0  0  0
   -3.8070   26.8850  -12.6930 C   0  0  0  0  0
   -2.5150   27.2010  -12.3940 C   0  0  0  0  0
   -1.6810   26.2940  -11.7420 C   0  0  0  0  0
   -4.6240   27.8950  -13.3690 N   0  0  0  0  0
    0.1690   24.3040  -10.3370 C   0  0  0  0  0
    0.5830   24.2180   -8.8810 C   0  0  0  0  0
    1.9120   24.4150   -8.4800 C   0  0  0  0  0
    2.9680   24.7210   -9.5090 C   0  0  0  0  0
    2.6230   24.7940  -10.8400 C   0  0  0  0  0
    1.1760   24.5760  -11.2710 C   0  0  0  0  0
   -2.0090   28.5400  -12.7780 C   0  0  0  0  0
   -0.8970   19.4290   -8.7320 C   0  0  0  0  0
   -6.0530   27.7480  -13.3770 C   0  0  0  0  0
   -6.7310   28.9710  -13.9340 C   0  0  0  0  0
   -3.6540   18.8950   -9.4350 N   0  0  0  0  0
   -4.8210   18.3710  -10.1340 C   0  0  0  0  0
   -5.3070   17.0960   -9.4730 C   0  0  0  0  0
    0.9200   24.6820  -12.7620 C   0  0  0  0  0
    0.1380   23.9260  -13.3020 O   0  0  0  0  0
    1.5770   25.6290  -13.5230 O   0  0  0  0  0
    0.7800   26.4850  -14.3030 C   0  0  0  0  0
    1.3030   26.5770  -15.6850 C   0  0  0  0  0
   -0.1464   21.9161   -9.4743 H   0  0  0  0  0
   -4.8719   21.0060  -10.6916 H   0  0  0  0  0
   -0.6655   24.9223  -10.6277 H   0  0  0  0  0
   -5.3544   25.3784  -12.5819 H   0  0  0  0  0
   -0.6550   26.5733  -11.5026 H   0  0  0  0  0
   -4.1841   28.6925  -13.8282 H   0  0  0  0  0
   -0.1721   23.9973   -8.1265 H   0  0  0  0  0
    2.1802   24.3468   -7.4257 H   0  0  0  0  0
    4.0010   24.8840   -9.2015 H   0  0  0  0  0
    3.3863   25.0082  -11.5881 H   0  0  0  0  0
   -2.0829   28.6587  -13.8590 H   0  0  0  0  0
   -2.6058   29.3076  -12.2853 H   0  0  0  0  0
   -0.9674   28.6351  -12.4711 H   0  0  0  0  0
   -0.0339   19.1925   -9.3543 H   0  0  0  0  0
   -0.5586   19.8237   -7.7740 H   0  0  0  0  0
   -1.4858   18.5267   -8.5671 H   0  0  0  0  0
   -6.3907   27.6036  -12.3507 H   0  0  0  0  0
   -6.3086   26.8953  -14.0060 H   0  0  0  0  0
   -6.4763   29.8364  -13.3222 H   0  0  0  0  0
   -6.3952   29.1366  -14.9577 H   0  0  0  0  0
   -7.8108   28.8225  -13.9240 H   0  0  0  0  0
   -3.2257   18.3411   -8.6933 H   0  0  0  0  0
   -4.5474   18.1529  -11.1663 H   0  0  0  0  0
   -5.6178   19.1139  -10.0996 H   0  0  0  0  0
   -4.5131   16.3495   -9.4987 H   0  0  0  0  0
   -5.5775   17.3051   -8.4380 H   0  0  0  0  0
   -6.1786   16.7199  -10.0088 H   0  0  0  0  0
    0.7911   27.4792  -13.8563 H   0  0  0  0  0
   -0.2341   26.0868  -14.3370 H   0  0  0  0  0
    2.3204   26.9676  -15.6619 H   0  0  0  0  0
    1.3032   25.5859  -16.1388 H   0  0  0  0  0
    0.6692   27.2450  -16.2683 H   0  0  0  0  0
  1  2  4  0  0  0
  1  6  4  0  0  0
  1  7  1  0  0  0
  2  3  4  0  0  0
  2 10  1  0  0  0
  3  4  4  0  0  0
  4  5  4  0  0  0
  4 23  1  0  0  0
  5  6  4  0  0  0
  5 26  1  0  0  0
  7  8  1  0  0  0
  8  9  4  0  0  0
  8 11  4  0  0  0
  9 10  1  0  0  0
  9 14  4  0  0  0
 10 16  1  0  0  0
 11 12  4  0  0  0
 12 13  4  0  0  0
 12 15  1  0  0  0
 13 14  4  0  0  0
 13 22  1  0  0  0
 15 24  1  0  0  0
 16 17  4  0  0  0
 16 21  4  0  0  0
 17 18  4  0  0  0
 18 19  4  0  0  0
 19 20  4  0  0  0
 20 21  4  0  0  0
 21 29  1  0  0  0
 24 25  1  0  0  0
 26 27  1  0  0  0
 27 28  1  0  0  0
 29 30  2  0  0  0
 29 31  1  0  0  0
 31 32  1  0  0  0
 32 33  1  0  0  0
  3 34  1  0  0  0
  6 35  1  0  0  0
 10 36  1  0  0  0
 11 37  1  0  0  0
 14 38  1  0  0  0
 15 39  1  0  0  0
 17 40  1  0  0  0
 18 41  1  0  0  0
 19 42  1  0  0  0
 20 43  1  0  0  0
 22 44  1  0  0  0
 22 45  1  0  0  0
 22 46  1  0  0  0
 23 47  1  0  0  0
 23 48  1  0  0  0
 23 49  1  0  0  0
 24 50  1  0  0  0
 24 51  1  0  0  0
 25 52  1  0  0  0
 25 53  1  0  0  0
 25 54  1  0  0  0
 26 55  1  0  0  0
 27 56  1  0  0  0
 27 57  1  0  0  0
 28 58  1  0  0  0
 28 59  1  0  0  0
 28 60  1  0  0  0
 32 61  1  0  0  0
 32 62  1  0  0  0
 33 63  1  0  0  0
 33 64  1  0  0  0
 33 65  1  0  0  0
M  END
$$$$
