3mnu_ligand
  -I-interpret- 

 39 40  0  0  0  0  0  0  0  0999 V2000
   -5.0350    6.8770   12.6790 B   0  0  0  0  0
   -4.7000    2.9870   14.6850 C   0  0  0  0  0
   -5.2300   -0.6310   16.1300 N   0  0  0  0  0
   -6.8580    1.2100   16.0640 O   0  0  0  0  0
   -5.4890    0.9080   16.3630 S   0  0  0  0  0
   -5.9570    3.6560   14.6490 C   0  0  0  0  0
   -4.5210    1.6990   15.2960 N   0  0  0  0  0
   -5.0090    1.2590   17.6670 O   0  0  0  0  0
   -6.0590    4.9150   14.0080 C   0  0  0  0  0
   -3.9810    7.7330   12.5110 O   0  0  0  0  0
   -4.9260    5.5080   13.4060 C   0  0  0  0  0
   -6.1850    7.3330   12.0990 O   0  0  0  0  0
   -3.6890    4.8460   13.4530 C   0  0  0  0  0
   -3.5680    3.5940   14.0860 C   0  0  0  0  0
   -4.2180    8.4890   11.2640 C   0  0  0  0  0
   -5.7900    8.2040   10.9680 C   0  0  0  0  0
   -3.2260    7.9560   10.2280 C   0  0  0  0  0
   -3.8420    9.9440   11.5550 C   0  0  0  0  0
   -6.7050    9.4210   11.0320 C   0  0  0  0  0
   -6.1040    7.4340    9.6790 C   0  0  0  0  0
   -5.9895   -1.2338   15.8136 H   0  0  0  0  0
   -4.3031   -1.0230   16.2958 H   0  0  0  0  0
   -6.8338    3.2025   15.1112 H   0  0  0  0  0
   -3.6701    1.2039   15.0290 H   0  0  0  0  0
   -7.0189    5.4306   13.9788 H   0  0  0  0  0
   -2.8133    5.3058   12.9949 H   0  0  0  0  0
   -2.6017    3.0906   14.1154 H   0  0  0  0  0
   -2.2087    8.1110   10.5876 H   0  0  0  0  0
   -3.4002    6.8910   10.0744 H   0  0  0  0  0
   -3.3649    8.4877    9.2867 H   0  0  0  0  0
   -4.4652   10.3241   12.3645 H   0  0  0  0  0
   -2.7932    9.9954   11.8474 H   0  0  0  0  0
   -4.0007   10.5450   10.6596 H   0  0  0  0  0
   -7.7422    9.0995   10.9374 H   0  0  0  0  0
   -6.5662    9.9285   11.9866 H   0  0  0  0  0
   -6.4588   10.1023   10.2176 H   0  0  0  0  0
   -5.5367    6.5033    9.6659 H   0  0  0  0  0
   -7.1704    7.2116    9.6408 H   0  0  0  0  0
   -5.8272    8.0419    8.8176 H   0  0  0  0  0
  1 10  1  0  0  0
 11  1  1  0  0  0
  1 12  1  0  0  0
  6  2  4  0  0  0
  2  7  1  0  0  0
  2 14  4  0  0  0
  5  3  1  0  0  0
  5  4  2  0  0  0
  7  5  1  0  0  0
  5  8  2  0  0  0
  9  6  4  0  0  0
  9 11  4  0  0  0
 10 15  1  0  0  0
 11 13  4  0  0  0
 12 16  1  0  0  0
 13 14  4  0  0  0
 15 16  1  0  0  0
 15 17  1  0  0  0
 15 18  1  0  0  0
 16 19  1  0  0  0
 16 20  1  0  0  0
  3 21  1  0  0  0
  3 22  1  0  0  0
  6 23  1  0  0  0
  7 24  1  0  0  0
  9 25  1  0  0  0
 13 26  1  0  0  0
 14 27  1  0  0  0
 17 28  1  0  0  0
 17 29  1  0  0  0
 17 30  1  0  0  0
 18 31  1  0  0  0
 18 32  1  0  0  0
 18 33  1  0  0  0
 19 34  1  0  0  0
 19 35  1  0  0  0
 19 36  1  0  0  0
 20 37  1  0  0  0
 20 38  1  0  0  0
 20 39  1  0  0  0
M  END
$$$$
