### 
### Created by X-TOOL on Mon Sep 10 21:13:02 2018
### 

@<TRIPOS>MOLECULE
3mnu_ligand
   39    40     1     0     0
SMALL
GAST_HUCK


@<TRIPOS>ATOM
      1 B          -5.0350    6.8770   12.6790 B         1 BON         3.0000
      2 C1         -4.7000    2.9870   14.6850 C.ar      1 BON        -0.0335
      3 N1         -5.2300   -0.6310   16.1300 N.am      1 BON        -0.2441
      4 O1         -6.8580    1.2100   16.0640 O.2       1 BON        -0.1300
      5 S1         -5.4890    0.9080   16.3630 S.o2      1 BON         0.1339
      6 C2         -5.9570    3.6560   14.6490 C.ar      1 BON        -0.1610
      7 N2         -4.5210    1.6990   15.2960 N.am      1 BON        -0.1945
      8 O2         -5.0090    1.2590   17.6670 O.2       1 BON        -0.1300
      9 C3         -6.0590    4.9150   14.0080 C.ar      1 BON        -0.1881
     10 O3         -3.9810    7.7330   12.5110 O.3       1 BON        -0.8518
     11 C4         -4.9260    5.5080   13.4060 C.ar      1 BON        -0.1635
     12 O4         -6.1850    7.3330   12.0990 O.3       1 BON        -0.8518
     13 C5         -3.6890    4.8460   13.4530 C.ar      1 BON        -0.1881
     14 C6         -3.5680    3.5940   14.0860 C.ar      1 BON        -0.1610
     15 C7         -4.2180    8.4890   11.2640 C.3       1 BON        -0.1298
     16 C8         -5.7900    8.2040   10.9680 C.3       1 BON        -0.1298
     17 C9         -3.2260    7.9560   10.2280 C.3       1 BON        -0.0758
     18 C10        -3.8420    9.9440   11.5550 C.3       1 BON        -0.0758
     19 C11        -6.7050    9.4210   11.0320 C.3       1 BON        -0.0758
     20 C12        -6.1040    7.4340    9.6790 C.3       1 BON        -0.0758
     21 H          -5.9895   -1.2338   15.8136 H         1 BON         0.1653
     22 H          -4.3031   -1.0230   16.2958 H         1 BON         0.1653
     23 H          -6.8338    3.2025   15.1112 H         1 BON        -0.0263
     24 H          -3.6701    1.2039   15.0290 H         1 BON         0.2157
     25 H          -7.0189    5.4306   13.9788 H         1 BON        -0.0169
     26 H          -2.8133    5.3058   12.9949 H         1 BON        -0.0169
     27 H          -2.6017    3.0906   14.1154 H         1 BON        -0.0263
     28 H          -2.2087    8.1110   10.5876 H         1 BON         0.0222
     29 H          -3.4002    6.8910   10.0744 H         1 BON         0.0222
     30 H          -3.3649    8.4877    9.2867 H         1 BON         0.0222
     31 H          -4.4652   10.3241   12.3645 H         1 BON         0.0222
     32 H          -2.7932    9.9954   11.8474 H         1 BON         0.0222
     33 H          -4.0007   10.5450   10.6596 H         1 BON         0.0222
     34 H          -7.7422    9.0995   10.9374 H         1 BON         0.0222
     35 H          -6.5662    9.9285   11.9866 H         1 BON         0.0222
     36 H          -6.4588   10.1023   10.2176 H         1 BON         0.0222
     37 H          -5.5367    6.5033    9.6659 H         1 BON         0.0222
     38 H          -7.1704    7.2116    9.6408 H         1 BON         0.0222
     39 H          -5.8272    8.0419    8.8176 H         1 BON         0.0222
@<TRIPOS>BOND
     1    1   10 1  
     2   11    1 1  
     3    1   12 1  
     4    6    2 ar 
     5    2    7 1  
     6    2   14 ar 
     7    5    3 am 
     8    5    4 2  
     9    7    5 am 
    10    5    8 2  
    11    9    6 ar 
    12    9   11 ar 
    13   10   15 1  
    14   11   13 ar 
    15   12   16 1  
    16   13   14 ar 
    17   15   16 1  
    18   15   17 1  
    19   15   18 1  
    20   16   19 1  
    21   16   20 1  
    22    3   21 1  
    23    3   22 1  
    24    6   23 1  
    25    7   24 1  
    26    9   25 1  
    27   13   26 1  
    28   14   27 1  
    29   17   28 1  
    30   17   29 1  
    31   17   30 1  
    32   18   31 1  
    33   18   32 1  
    34   18   33 1  
    35   19   34 1  
    36   19   35 1  
    37   19   36 1  
    38   20   37 1  
    39   20   38 1  
    40   20   39 1  
@<TRIPOS>SUBSTRUCTURE
     1 BON         1

