3tt0_ligand
  -I-interpret- 

 70 73  0  0  0  0  0  0  0  0999 V2000
  -14.7870    7.6160   11.0550 O   0  0  0  0  0
  -15.0830    8.6010   11.7220 C   0  0  0  0  0
  -14.2230    9.6760   11.8470 N   0  0  0  0  0
  -12.9940    9.6860   11.1660 C   0  0  0  0  0
  -11.8980    8.9800   11.6190 C   0  0  0  0  0
  -11.9720    8.0680   13.0810 Cl  0  0  0  0  0
  -10.7150    9.0150   10.9080 C   0  0  0  0  0
   -9.6610    8.2710   11.4250 O   0  0  0  0  0
   -8.5480    8.2950   10.5400 C   0  0  0  0  0
  -10.6310    9.7380    9.7320 C   0  0  0  0  0
  -11.7240   10.4550    9.2800 C   0  0  0  0  0
  -11.7250   11.2120    8.1100 O   0  0  0  0  0
  -10.4850   11.0810    7.4190 C   0  0  0  0  0
  -12.9000   10.4130    9.9980 C   0  0  0  0  0
  -14.2670   11.2940    9.4520 Cl  0  0  0  0  0
  -16.2870    8.7110   12.4160 N   0  0  0  0  0
  -17.2270    7.6110   12.3330 C   0  0  0  0  0
  -16.6840    9.8550   13.1610 C   0  0  0  0  0
  -18.0240   10.0120   13.4610 C   0  0  0  0  0
  -18.4230   11.1230   14.1770 C   0  0  0  0  0
  -17.5340   12.0480   14.5600 N   0  0  0  0  0
  -16.2620   11.8130   14.2190 C   0  0  0  0  0
  -15.7790   10.7660   13.5430 N   0  0  0  0  0
  -19.7720   11.3540   14.5090 N   0  0  0  0  0
  -20.8340   10.4330   14.5710 C   0  0  0  0  0
  -21.2860    9.7510   13.4590 C   0  0  0  0  0
  -22.3480    8.8740   13.5560 C   0  0  0  0  0
  -22.9940    8.6710   14.7650 C   0  0  0  0  0
  -22.5480    9.3700   15.8690 C   0  0  0  0  0
  -21.4830   10.2410   15.7750 C   0  0  0  0  0
  -24.0890    7.7890   14.9220 N   0  0  0  0  0
  -25.2060    8.4450   15.6040 C   0  0  0  0  0
  -26.2870    7.4190   15.8840 C   0  0  0  0  0
  -26.6260    6.7980   14.5730 N   0  3  0  0  0
  -27.8920    6.0240   14.6160 C   0  0  0  0  0
  -29.0250    7.0140   14.7620 C   0  0  0  0  0
  -25.4980    6.0430   13.9490 C   0  0  0  0  0
  -24.3750    7.0340   13.7000 C   0  0  0  0  0
  -14.4821   10.4666   12.4371 H   0  0  0  0  0
   -8.8406    7.8724    9.5788 H   0  0  0  0  0
   -8.2185    9.3246   10.4005 H   0  0  0  0  0
   -7.7349    7.7064   10.9648 H   0  0  0  0  0
   -9.7026    9.7428    9.1609 H   0  0  0  0  0
   -9.6747   11.4271    8.0606 H   0  0  0  0  0
  -10.3236   10.0346    7.1602 H   0  0  0  0  0
  -10.5120   11.6815    6.5097 H   0  0  0  0  0
  -17.4435    7.2433   13.3360 H   0  0  0  0  0
  -18.1485    7.9568   11.8647 H   0  0  0  0  0
  -16.7935    6.8086   11.7361 H   0  0  0  0  0
  -18.7543    9.2704   13.1374 H   0  0  0  0  0
  -15.5343   12.5631   14.5287 H   0  0  0  0  0
  -20.0116   12.3194   14.7351 H   0  0  0  0  0
  -20.8001    9.9063   12.4957 H   0  0  0  0  0
  -22.6826    8.3343   12.6701 H   0  0  0  0  0
  -23.0451    9.2313   16.8291 H   0  0  0  0  0
  -21.1500   10.7834   16.6599 H   0  0  0  0  0
  -25.6071    9.2376   14.9723 H   0  0  0  0  0
  -24.8595    8.8783   16.5422 H   0  0  0  0  0
  -27.1630    7.8862   16.3340 H   0  0  0  0  0
  -25.9400    6.6687   16.5945 H   0  0  0  0  0
  -26.7928    7.5817   13.9418 H   0  0  0  0  0
  -27.8844    5.3270   15.4540 H   0  0  0  0  0
  -28.0122    5.4388   13.7043 H   0  0  0  0  0
  -28.8934    7.5816   15.6832 H   0  0  0  0  0
  -29.0228    7.6948   13.9108 H   0  0  0  0  0
  -29.9729    6.4769   14.7969 H   0  0  0  0  0
  -25.8164    5.5820   13.0140 H   0  0  0  0  0
  -25.1628    5.2417   14.6075 H   0  0  0  0  0
  -23.4796    6.4910   13.3975 H   0  0  0  0  0
  -24.6770    7.7265   12.9143 H   0  0  0  0  0
  1  2  2  0  0  0
  2  3  1  0  0  0
  2 16  1  0  0  0
  3  4  1  0  0  0
  4  5  4  0  0  0
  4 14  4  0  0  0
  5  6  1  0  0  0
  5  7  4  0  0  0
  7  8  1  0  0  0
  7 10  4  0  0  0
  8  9  1  0  0  0
 10 11  4  0  0  0
 11 12  1  0  0  0
 11 14  4  0  0  0
 12 13  1  0  0  0
 14 15  1  0  0  0
 16 17  1  0  0  0
 16 18  1  0  0  0
 18 19  4  0  0  0
 18 23  4  0  0  0
 19 20  4  0  0  0
 20 21  4  0  0  0
 20 24  1  0  0  0
 21 22  4  0  0  0
 22 23  4  0  0  0
 24 25  1  0  0  0
 25 26  4  0  0  0
 25 30  4  0  0  0
 26 27  4  0  0  0
 27 28  4  0  0  0
 28 29  4  0  0  0
 28 31  1  0  0  0
 29 30  4  0  0  0
 31 32  1  0  0  0
 31 38  1  0  0  0
 32 33  1  0  0  0
 33 34  1  0  0  0
 34 35  1  0  0  0
 34 37  1  0  0  0
 35 36  1  0  0  0
 37 38  1  0  0  0
  3 39  1  0  0  0
  9 40  1  0  0  0
  9 41  1  0  0  0
  9 42  1  0  0  0
 10 43  1  0  0  0
 13 44  1  0  0  0
 13 45  1  0  0  0
 13 46  1  0  0  0
 17 47  1  0  0  0
 17 48  1  0  0  0
 17 49  1  0  0  0
 19 50  1  0  0  0
 22 51  1  0  0  0
 24 52  1  0  0  0
 26 53  1  0  0  0
 27 54  1  0  0  0
 29 55  1  0  0  0
 30 56  1  0  0  0
 32 57  1  0  0  0
 32 58  1  0  0  0
 33 59  1  0  0  0
 33 60  1  0  0  0
 34 61  1  0  0  0
 35 62  1  0  0  0
 35 63  1  0  0  0
 36 64  1  0  0  0
 36 65  1  0  0  0
 36 66  1  0  0  0
 37 67  1  0  0  0
 37 68  1  0  0  0
 38 69  1  0  0  0
 38 70  1  0  0  0
M  END
$$$$
