### 
### Created by X-TOOL on Mon Sep 10 21:13:10 2018
### 

@<TRIPOS>MOLECULE
3tt0_ligand
   69    72     1     0     0
SMALL
GAST_HUCK


@<TRIPOS>ATOM
      1 O1        -14.7870    7.6160   11.0550 O.2       1 07J        -0.3767
      2 C2        -15.0830    8.6010   11.7220 C.2       1 07J         0.3271
      3 N3        -14.2230    9.6760   11.8470 N.am      1 07J        -0.2159
      4 C4        -12.9940    9.6860   11.1660 C.ar      1 07J         0.0785
      5 C5        -11.8980    8.9800   11.6190 C.ar      1 07J         0.0747
      6 CL1       -11.9720    8.0680   13.0810 Cl        1 07J        -0.1012
      7 C7        -10.7150    9.0150   10.9080 C.ar      1 07J         0.0840
      8 O8         -9.6610    8.2710   11.4250 O.3       1 07J        -0.3264
      9 C9         -8.5480    8.2950   10.5400 C.3       1 07J         0.0592
     10 C10       -10.6310    9.7380    9.7320 C.ar      1 07J        -0.0187
     11 C11       -11.7240   10.4550    9.2800 C.ar      1 07J         0.0840
     12 O12       -11.7250   11.2120    8.1100 O.3       1 07J        -0.3264
     13 C13       -10.4850   11.0810    7.4190 C.3       1 07J         0.0592
     14 C14       -12.9000   10.4130    9.9980 C.ar      1 07J         0.0747
     15 CL2       -14.2670   11.2940    9.4520 Cl        1 07J        -0.1012
     16 N16       -16.2870    8.7110   12.4160 N.am      1 07J        -0.1833
     17 C17       -17.2270    7.6110   12.3330 C.3       1 07J         0.0510
     18 C18       -16.6840    9.8550   13.1610 C.ar      1 07J         0.1442
     19 C19       -18.0240   10.0120   13.4610 C.ar      1 07J         0.0270
     20 C20       -18.4230   11.1230   14.1770 C.ar      1 07J         0.1267
     21 N21       -17.5340   12.0480   14.5600 N.ar      1 07J        -0.2703
     22 C22       -16.2620   11.8130   14.2190 C.ar      1 07J         0.0543
     23 N23       -15.7790   10.7660   13.5430 N.ar      1 07J        -0.2688
     24 N24       -19.7720   11.3540   14.5090 N.pl3     1 07J        -0.2651
     25 C25       -20.8340   10.4330   14.5710 C.ar      1 07J         0.0507
     26 C26       -21.2860    9.7510   13.4590 C.ar      1 07J        -0.0492
     27 C27       -22.3480    8.8740   13.5560 C.ar      1 07J        -0.0529
     28 C28       -22.9940    8.6710   14.7650 C.ar      1 07J         0.0291
     29 C29       -22.5480    9.3700   15.8690 C.ar      1 07J        -0.0529
     30 C30       -21.4830   10.2410   15.7750 C.ar      1 07J        -0.0492
     31 N31       -24.0890    7.7890   14.9220 N.pl3     1 07J        -0.3186
     32 C32       -25.2060    8.4450   15.6040 C.3       1 07J         0.0061
     33 C33       -26.2870    7.4190   15.8840 C.3       1 07J        -0.0932
     34 N34       -26.6260    6.7980   14.5730 N.4       1 07J         0.4053
     35 C35       -27.8920    6.0240   14.6160 C.3       1 07J        -0.1157
     36 C36       -29.0250    7.0140   14.7620 C.3       1 07J        -0.0840
     37 C37       -25.4980    6.0430   13.9490 C.3       1 07J        -0.0932
     38 C38       -24.3750    7.0340   13.7000 C.3       1 07J         0.0061
     39 H         -14.4821   10.4666   12.4371 H         1 07J         0.2269
     40 H          -8.8406    7.8724    9.5788 H         1 07J         0.0578
     41 H          -8.2185    9.3246   10.4005 H         1 07J         0.0578
     42 H          -7.7349    7.7064   10.9648 H         1 07J         0.0578
     43 H          -9.7026    9.7428    9.1609 H         1 07J         0.0346
     44 H          -9.6747   11.4271    8.0606 H         1 07J         0.0578
     45 H         -10.3236   10.0346    7.1602 H         1 07J         0.0578
     46 H         -10.5120   11.6815    6.5097 H         1 07J         0.0578
     47 H         -17.4435    7.2433   13.3360 H         1 07J         0.0561
     48 H         -18.1485    7.9568   11.8647 H         1 07J         0.0561
     49 H         -16.7935    6.8086   11.7361 H         1 07J         0.0561
     50 H         -18.7543    9.2704   13.1374 H         1 07J         0.0542
     51 H         -15.5343   12.5631   14.5287 H         1 07J         0.1036
     52 H         -20.0116   12.3194   14.7351 H         1 07J         0.2116
     53 H         -20.8001    9.9063   12.4957 H         1 07J         0.0506
     54 H         -22.6826    8.3343   12.6701 H         1 07J         0.0490
     55 H         -23.0451    9.2313   16.8291 H         1 07J         0.0490
     56 H         -21.1500   10.7834   16.6599 H         1 07J         0.0506
     57 H         -25.6071    9.2376   14.9723 H         1 07J         0.0489
     58 H         -24.8595    8.8783   16.5422 H         1 07J         0.0489
     59 H         -27.1630    7.8862   16.3340 H         1 07J         0.0036
     60 H         -25.9400    6.6687   16.5945 H         1 07J         0.0036
     61 H         -27.8844    5.3270   15.4540 H         1 07J         0.0014
     62 H         -28.0122    5.4388   13.7043 H         1 07J         0.0014
     63 H         -28.8934    7.5816   15.6832 H         1 07J         0.0210
     64 H         -29.0228    7.6948   13.9108 H         1 07J         0.0210
     65 H         -29.9729    6.4769   14.7969 H         1 07J         0.0210
     66 H         -25.8164    5.5820   13.0140 H         1 07J         0.0036
     67 H         -25.1628    5.2417   14.6075 H         1 07J         0.0036
     68 H         -23.4796    6.4910   13.3975 H         1 07J         0.0489
     69 H         -24.6770    7.7265   12.9143 H         1 07J         0.0489
@<TRIPOS>BOND
     1    1    2 2  
     2    2    3 am 
     3    2   16 am 
     4    3    4 1  
     5    4    5 ar 
     6    4   14 ar 
     7    5    6 1  
     8    5    7 ar 
     9    7    8 1  
    10    7   10 ar 
    11    8    9 1  
    12   10   11 ar 
    13   11   12 1  
    14   11   14 ar 
    15   12   13 1  
    16   14   15 1  
    17   16   17 1  
    18   16   18 1  
    19   18   19 ar 
    20   18   23 ar 
    21   19   20 ar 
    22   20   21 ar 
    23   20   24 1  
    24   21   22 ar 
    25   22   23 ar 
    26   24   25 1  
    27   25   26 ar 
    28   25   30 ar 
    29   26   27 ar 
    30   27   28 ar 
    31   28   29 ar 
    32   28   31 1  
    33   29   30 ar 
    34   31   32 1  
    35   31   38 1  
    36   32   33 1  
    37   33   34 1  
    38   34   35 1  
    39   34   37 1  
    40   35   36 1  
    41   37   38 1  
    42    3   39 1  
    43    9   40 1  
    44    9   41 1  
    45    9   42 1  
    46   10   43 1  
    47   13   44 1  
    48   13   45 1  
    49   13   46 1  
    50   17   47 1  
    51   17   48 1  
    52   17   49 1  
    53   19   50 1  
    54   22   51 1  
    55   24   52 1  
    56   26   53 1  
    57   27   54 1  
    58   29   55 1  
    59   30   56 1  
    60   32   57 1  
    61   32   58 1  
    62   33   59 1  
    63   33   60 1  
    64   35   61 1  
    65   35   62 1  
    66   36   63 1  
    67   36   64 1  
    68   36   65 1  
    69   37   66 1  
    70   37   67 1  
    71   38   68 1  
    72   38   69 1  
@<TRIPOS>SUBSTRUCTURE
     1 07J         1

