5bvo_ligand
  -I-interpret- 

 52 56  0  0  0  0  0  0  0  0999 V2000
   22.2630   34.8620   38.3990 C   0  0  0  0  0
   23.2590   35.6010   37.5150 C   0  0  0  0  0
   24.5610   34.9500   37.6610 N   0  0  0  0  0
   25.0150   34.0140   36.7810 C   0  0  0  0  0
   25.3110   32.6640   35.1330 C   0  0  0  0  0
   25.2840   31.8740   33.9580 C   0  0  0  0  0
   27.3580   30.8480   34.6540 C   0  0  0  0  0
   27.3800   31.6260   35.8060 C   0  0  0  0  0
   26.3420   32.5210   36.0120 C   0  0  0  0  0
   23.2550   37.0900   37.8110 C   0  0  0  0  0
   24.3150   37.7510   38.4170 C   0  0  0  0  0
   23.0860   41.3300   38.5820 C   0  0  0  0  0
   19.6240   39.5040   37.6650 C   0  0  0  0  0
   18.4970   40.2030   37.0150 C   0  0  0  0  0
   18.4760   40.9740   35.8860 C   0  0  0  0  0
   16.4320   40.9500   36.6090 C   0  0  0  0  0
   15.0540   41.0890   36.8670 C   0  0  0  0  0
   16.6000   39.5720   38.5820 C   0  0  0  0  0
   17.1840   40.1800   37.4900 N   0  0  0  0  0
   24.4660   33.6270   35.6400 N   0  0  0  0  0
   26.3180   30.9900   33.7640 C   0  0  0  0  0
   26.3120   30.2200   32.6410 F   0  0  0  0  0
   26.1860   33.3630   37.0680 O   0  0  0  0  0
   24.2490   39.1140   38.6590 C   0  0  0  0  0
   23.1200   39.8510   38.3020 C   0  0  0  0  0
   22.0530   39.1880   37.6920 C   0  0  0  0  0
   20.8810   39.8770   37.3060 N   0  0  0  0  0
   19.4260   38.6200   38.4980 O   0  0  0  0  0
   17.2030   41.4350   35.6350 N   0  0  0  0  0
   14.4840   40.4700   37.9700 C   0  0  0  0  0
   15.2620   39.7150   38.8210 C   0  0  0  0  0
   22.1360   37.8260   37.4570 C   0  0  0  0  0
   22.5285   35.0101   39.4457 H   0  0  0  0  0
   21.2608   35.2507   38.2185 H   0  0  0  0  0
   22.2894   33.7981   38.1632 H   0  0  0  0  0
   22.9786   35.5402   36.4634 H   0  0  0  0  0
   25.1516   35.2067   38.4520 H   0  0  0  0  0
   24.4735   31.9638   33.2347 H   0  0  0  0  0
   28.1566   30.1326   34.4577 H   0  0  0  0  0
   28.1917   31.5346   36.5277 H   0  0  0  0  0
   25.2063   37.1934   38.7047 H   0  0  0  0  0
   23.1915   41.4981   39.6538 H   0  0  0  0  0
   23.9057   41.8174   38.0541 H   0  0  0  0  0
   22.1363   41.7415   38.2401 H   0  0  0  0  0
   19.3475   41.1936   35.2692 H   0  0  0  0  0
   14.4335   41.6849   36.1977 H   0  0  0  0  0
   17.2098   38.9735   39.2588 H   0  0  0  0  0
   25.0909   39.6169   39.1348 H   0  0  0  0  0
   20.9848   40.7063   36.7213 H   0  0  0  0  0
   13.4172   40.5811   38.1642 H   0  0  0  0  0
   14.8093   39.2310   39.6864 H   0  0  0  0  0
   21.2974   37.3187   36.9801 H   0  0  0  0  0
  2  1  1  0  0  0
  2  3  1  0  0  0
 10  2  1  0  0  0
  3  4  1  0  0  0
  4 20  4  0  0  0
  4 23  4  0  0  0
  5  6  4  0  0  0
  9  5  4  0  0  0
 20  5  4  0  0  0
  6 21  4  0  0  0
  8  7  4  0  0  0
  7 21  4  0  0  0
  9  8  4  0  0  0
 23  9  4  0  0  0
 11 10  4  0  0  0
 10 32  4  0  0  0
 24 11  4  0  0  0
 25 12  1  0  0  0
 13 14  1  0  0  0
 27 13  1  0  0  0
 13 28  2  0  0  0
 14 15  4  0  0  0
 14 19  4  0  0  0
 15 29  4  0  0  0
 16 17  4  0  0  0
 19 16  4  0  0  0
 16 29  4  0  0  0
 17 30  4  0  0  0
 19 18  4  0  0  0
 18 31  4  0  0  0
 21 22  1  0  0  0
 25 24  4  0  0  0
 26 25  4  0  0  0
 26 27  1  0  0  0
 26 32  4  0  0  0
 30 31  4  0  0  0
  1 33  1  0  0  0
  1 34  1  0  0  0
  1 35  1  0  0  0
  2 36  1  0  0  0
  3 37  1  0  0  0
  6 38  1  0  0  0
  7 39  1  0  0  0
  8 40  1  0  0  0
 11 41  1  0  0  0
 12 42  1  0  0  0
 12 43  1  0  0  0
 12 44  1  0  0  0
 15 45  1  0  0  0
 17 46  1  0  0  0
 18 47  1  0  0  0
 24 48  1  0  0  0
 27 49  1  0  0  0
 30 50  1  0  0  0
 31 51  1  0  0  0
 32 52  1  0  0  0
M  END
$$$$
