5jt9_ligand
  -I-interpret- 

 48 48  0  0  0  0  0  0  0  0999 V2000
   15.0620   40.6890  -12.6620 C   0  0  0  0  0
   16.3070   40.3010  -13.1870 C   0  0  0  0  0
   17.4700   40.4280  -12.4140 C   0  0  0  0  0
   13.5910   41.6190  -10.8240 C   0  0  0  0  0
   12.6710   40.9390   -8.7510 C   0  0  0  0  0
   11.9750   40.0980   -6.6050 C   0  0  0  0  0
    9.2730   37.8910   -1.1600 C   0  0  0  0  0
    9.1180   36.3700   -1.2950 C   0  0  0  0  0
    9.5470   38.2970    0.3020 C   0  0  0  0  0
    8.9310   39.3210   -3.8590 C   0  0  0  0  0
   10.1660   38.0560   -6.4990 O   0  0  0  0  0
   11.5060   38.4680   -5.9360 P   0  0  0  0  0
   14.9650   41.2060  -11.3730 C   0  0  0  0  0
   17.3770   40.9740  -11.1220 C   0  0  0  0  0
   16.1380   41.3430  -10.6050 C   0  0  0  0  0
   11.3010   38.7890   -4.1840 N   0  0  0  0  0
   10.0680   38.3750   -3.5680 C   0  0  0  0  0
   10.4060   38.4210   -2.0700 C   0  0  0  0  0
    7.7760   38.8980   -3.8960 O   0  0  0  0  0
    9.2510   40.6110   -4.0490 N   0  0  0  0  0
   12.5950   37.4700   -6.1840 O   0  0  0  0  0
   12.6840   39.9420   -7.8560 N   0  0  0  0  0
   11.9520   41.9270   -8.7120 O   0  0  0  0  0
   13.3900   40.5890   -9.8170 O   0  0  0  0  0
   14.1636   40.5840  -13.2702 H   0  0  0  0  0
   16.3685   39.9000  -14.1987 H   0  0  0  0  0
   18.4337   40.1075  -12.8098 H   0  0  0  0  0
   12.8049   41.6662  -11.5776 H   0  0  0  0  0
   13.5529   42.6367  -10.4356 H   0  0  0  0  0
   12.6233   40.6034   -5.8891 H   0  0  0  0  0
   11.0728   40.6847   -6.7780 H   0  0  0  0  0
    8.3312   38.3392   -1.4765 H   0  0  0  0  0
   10.0348   35.8819   -0.9643 H   0  0  0  0  0
    8.2838   36.0350   -0.6786 H   0  0  0  0  0
    8.9258   36.1168   -2.3376 H   0  0  0  0  0
    8.7156   37.9749    0.9291 H   0  0  0  0  0
   10.4667   37.8219    0.6434 H   0  0  0  0  0
    9.6517   39.3802    0.3634 H   0  0  0  0  0
    9.5164   38.7360   -6.3062 H   0  0  0  0  0
   18.2776   41.1089  -10.5231 H   0  0  0  0  0
   16.0748   41.7430   -9.5930 H   0  0  0  0  0
   12.0329   39.2491   -3.6426 H   0  0  0  0  0
    9.7362   37.4027   -3.9321 H   0  0  0  0  0
   11.2757   37.7831   -1.9125 H   0  0  0  0  0
   10.5745   39.4650   -1.8059 H   0  0  0  0  0
    8.5186   41.2961   -4.2352 H   0  0  0  0  0
   10.2265   40.9060   -4.0071 H   0  0  0  0  0
   13.1902   39.0792   -8.0554 H   0  0  0  0  0
  1  2  4  0  0  0
 13  1  4  0  0  0
  2  3  4  0  0  0
 14  3  4  0  0  0
  4 13  1  0  0  0
 24  4  1  0  0  0
 22  5  1  0  0  0
  5 23  2  0  0  0
  5 24  1  0  0  0
 12  6  1  0  0  0
  6 22  1  0  0  0
  7  8  1  0  0  0
  7  9  1  0  0  0
 18  7  1  0  0  0
 17 10  1  0  0  0
 10 19  2  0  0  0
 10 20  1  0  0  0
 12 11  1  0  0  0
 16 12  1  0  0  0
 12 21  2  0  0  0
 13 15  4  0  0  0
 15 14  4  0  0  0
 17 16  1  0  0  0
 17 18  1  0  0  0
  1 25  1  0  0  0
  2 26  1  0  0  0
  3 27  1  0  0  0
  4 28  1  0  0  0
  4 29  1  0  0  0
  6 30  1  0  0  0
  6 31  1  0  0  0
  7 32  1  0  0  0
  8 33  1  0  0  0
  8 34  1  0  0  0
  8 35  1  0  0  0
  9 36  1  0  0  0
  9 37  1  0  0  0
  9 38  1  0  0  0
 11 39  1  0  0  0
 14 40  1  0  0  0
 15 41  1  0  0  0
 16 42  1  0  0  0
 17 43  1  0  0  0
 18 44  1  0  0  0
 18 45  1  0  0  0
 20 46  1  0  0  0
 20 47  1  0  0  0
 22 48  1  0  0  0
M  END
$$$$
