5tvn_ligand
  -I-interpret- 

 49 52  0  0  0  0  0  0  0  0999 V2000
  -25.9760  -12.8170    6.9610 N   0  0  0  0  0
  -21.8640  -20.0230   10.8660 N   0  0  0  0  0
  -26.2210  -12.9890    9.3950 C   0  0  0  0  0
  -25.8660  -13.7760   10.4900 C   0  0  0  0  0
  -24.6890  -15.2200    9.0070 C   0  0  0  0  0
  -24.7790  -14.6110    6.7450 C   0  0  0  0  0
  -25.3380  -13.5970    6.0820 C   0  0  0  0  0
  -23.3290  -17.0780    9.7390 C   0  0  0  0  0
  -23.0070  -18.8370    8.1620 C   0  0  0  0  0
  -23.9880  -15.6910    6.3520 C   0  0  0  0  0
  -20.5340  -20.0170   10.2380 C   0  0  0  0  0
  -22.7720  -22.2560   11.3810 C   0  0  0  0  0
  -22.9350  -17.8090    7.1160 N   0  3  0  0  0
  -23.2260  -18.4270    5.8140 C   0  0  0  0  0
  -23.9920  -16.8260    7.3920 C   0  0  0  0  0
  -25.0800  -14.4300    8.0190 C   0  0  0  0  0
  -25.8120  -13.3390    8.1770 C   0  0  0  0  0
  -25.0860  -14.9140   10.3020 C   0  0  0  0  0
  -23.9390  -16.3500    8.7140 C   0  0  0  0  0
  -22.5970  -18.2470    9.5090 C   0  0  0  0  0
  -22.8570  -19.1710   10.5330 C   0  0  0  0  0
  -23.9590  -19.1900   11.0810 O   0  0  0  0  0
  -22.0400  -21.0270   11.9280 C   0  0  0  0  0
  -19.4950  -19.6690   11.3030 C   0  0  0  0  0
  -26.8283  -12.0947    9.5349 H   0  0  0  0  0
  -26.1984  -13.5009   11.4910 H   0  0  0  0  0
  -25.2838  -13.4323    5.0059 H   0  0  0  0  0
  -23.4282  -16.7187   10.7633 H   0  0  0  0  0
  -22.3298  -19.6525    7.9084 H   0  0  0  0  0
  -24.0304  -19.2058    8.2304 H   0  0  0  0  0
  -22.9630  -15.3372    6.2411 H   0  0  0  0  0
  -24.3922  -16.0849    5.4195 H   0  0  0  0  0
  -20.5052  -19.2796    9.4358 H   0  0  0  0  0
  -20.3183  -20.9982    9.8151 H   0  0  0  0  0
  -23.7512  -21.9574   11.0068 H   0  0  0  0  0
  -22.1895  -22.6931   10.5700 H   0  0  0  0  0
  -22.8944  -22.9891   12.1783 H   0  0  0  0  0
  -22.0110  -17.3772    7.1020 H   0  0  0  0  0
  -22.4934  -19.2084    5.6123 H   0  0  0  0  0
  -24.2257  -18.8610    5.8346 H   0  0  0  0  0
  -23.1739  -17.6681    5.0333 H   0  0  0  0  0
  -24.9490  -17.3387    7.2952 H   0  0  0  0  0
  -24.7967  -15.5437   11.1433 H   0  0  0  0  0
  -21.5311  -18.0193    9.4962 H   0  0  0  0  0
  -22.6291  -20.5918   12.7352 H   0  0  0  0  0
  -21.0602  -21.3309   12.2965 H   0  0  0  0  0
  -19.7158  -18.6849   11.7163 H   0  0  0  0  0
  -19.5278  -20.4141   12.0979 H   0  0  0  0  0
  -18.5028  -19.6607   10.8518 H   0  0  0  0  0
  7  1  4  0  0  0
 17  1  4  0  0  0
  2 11  1  0  0  0
 21  2  1  0  0  0
  2 23  1  0  0  0
  4  3  4  0  0  0
 17  3  4  0  0  0
 18  4  4  0  0  0
  5 16  4  0  0  0
  5 18  4  0  0  0
 19  5  1  0  0  0
  6  7  4  0  0  0
 10  6  1  0  0  0
 16  6  4  0  0  0
  8 19  2  0  0  0
 20  8  1  0  0  0
  9 13  1  0  0  0
 20  9  1  0  0  0
 15 10  1  0  0  0
 11 24  1  0  0  0
 23 12  1  0  0  0
 13 14  1  0  0  0
 13 15  1  0  0  0
 19 15  1  0  0  0
 16 17  4  0  0  0
 20 21  1  0  0  0
 21 22  2  0  0  0
  3 25  1  0  0  0
  4 26  1  0  0  0
  7 27  1  0  0  0
  8 28  1  0  0  0
  9 29  1  0  0  0
  9 30  1  0  0  0
 10 31  1  0  0  0
 10 32  1  0  0  0
 11 33  1  0  0  0
 11 34  1  0  0  0
 12 35  1  0  0  0
 12 36  1  0  0  0
 12 37  1  0  0  0
 13 38  1  0  0  0
 14 39  1  0  0  0
 14 40  1  0  0  0
 14 41  1  0  0  0
 15 42  1  0  0  0
 18 43  1  0  0  0
 20 44  1  0  0  0
 23 45  1  0  0  0
 23 46  1  0  0  0
 24 47  1  0  0  0
 24 48  1  0  0  0
 24 49  1  0  0  0
M  END
$$$$
