### 
### Created by X-TOOL on Mon Sep 10 21:13:16 2018
### 

@<TRIPOS>MOLECULE
4k6v_ligand
  179   184     1     0     0
SMALL
GAST_HUCK


@<TRIPOS>ATOM
      1 C1        -19.1900   17.8630  -29.5770 C.2       1 18D         0.1041
      2 C2        -20.1460   17.3930  -28.4840 C.3       1 18D         0.2204
      3 C3        -20.2430   15.8600  -28.3640 C.3       1 18D         0.0353
      4 C4        -19.0230   15.2320  -27.6960 C.3       1 18D         0.0850
      5 C5        -18.7450   15.9480  -26.3660 C.3       1 18D         0.0964
      6 C6        -18.5590   17.4480  -26.6460 C.3       1 18D         0.1143
      7 C7        -18.2140   18.3230  -25.4290 C.3       1 18D         0.1114
      8 C8        -18.1750   19.8170  -25.7770 C.3       1 18D         0.1065
      9 C9        -17.3290   20.5830  -24.7640 C.3       1 18D         0.0727
     10 C10       -17.6610   14.6870  -24.5550 C.2       1 18D         0.1761
     11 C11       -16.3600   14.1660  -23.9800 C.3       1 18D         0.0344
     12 N5        -17.5760   15.3870  -25.6910 N.am      1 18D        -0.2788
     13 O1        -18.4350   18.8420  -29.3670 O.co2     1 18D        -0.5426
     14 O3        -19.1770   17.2540  -30.6620 O.co2     1 18D        -0.5426
     15 O4        -19.2600   13.8100  -27.5350 O.3       1 18D        -0.3893
     16 O6        -19.7680   17.9680  -27.2270 O.3       1 18D        -0.3384
     17 O7        -19.1880   18.1130  -24.3890 O.3       1 18D        -0.3865
     18 O8        -17.6010   20.0700  -27.0680 O.3       1 18D        -0.3869
     19 O9        -15.9520   20.1710  -24.9220 O.3       1 18D        -0.3924
     20 C22       -16.5920   12.9270  -23.0650 C.3       1 18D        -0.0482
     21 O10       -18.7580   14.4860  -24.0280 O.2       1 18D        -0.3971
     22 OAA       -28.5530   11.8580  -30.7110 O.3       1 1P4        -0.3467
     23 CAG       -29.4390   12.5480  -31.6260 C.3       1 1P4         0.0526
     24 CAJ       -28.7420   12.8400  -32.9550 C.3       1 1P4         0.0010
     25 CAM       -27.6810   13.9270  -32.7850 C.3       1 1P4         0.0775
     26 NBC       -28.2700   15.2430  -32.4970 N.pl3     1 1P4        -0.1810
     27 CAD       -27.5260   16.0980  -31.8220 C.2       1 1P4         0.0744
     28 NAV       -29.4330   15.8130  -32.7750 N.2       1 1P4        -0.1018
     29 NAS       -29.4370   17.0260  -32.2840 N.2       1 1P4        -0.2212
     30 CAY       -28.2530   17.1980  -31.6870 C.2       1 1P4         0.0810
     31 CAP       -27.7820   18.4500  -30.9420 C.3       1 1P4         0.0053
     32 NBB       -27.8100   18.2530  -29.4660 N.4       1 1P4         0.2614
     33 CAR       -27.8840   19.5140  -28.6290 C.3       1 1P4         0.0053
     34 CBA       -28.7440   18.8810  -27.5180 C.2       1 1P4         0.0810
     35 CAF       -29.2440   19.4040  -26.4140 C.2       1 1P4         0.0744
     36 NAU       -29.1060   17.6050  -27.5540 N.2       1 1P4        -0.2212
     37 NAX       -29.7630   17.3640  -26.5680 N.2       1 1P4        -0.1018
     38 NBE       -29.8810   18.3820  -25.8250 N.pl3     1 1P4        -0.1810
     39 CAO       -30.6990   18.2290  -24.6080 C.3       1 1P4         0.0775
     40 CAL       -29.9460   17.7670  -23.3640 C.3       1 1P4         0.0010
     41 CAI       -28.4490   17.8760  -23.5280 C.3       1 1P4         0.0526
     42 OAC       -27.9730   16.6090  -23.0140 O.3       1 1P4        -0.3467
     43 CAQ       -26.7010   17.3890  -29.0170 C.3       1 1P4         0.0053
     44 CAZ       -25.5130   18.2700  -29.3670 C.2       1 1P4         0.0810
     45 CAE       -24.4420   17.9450  -30.0530 C.2       1 1P4         0.0744
     46 NAT       -25.4350   19.5550  -29.0430 N.2       1 1P4        -0.2212
     47 NAW       -24.4570   19.9870  -29.4370 N.2       1 1P4        -0.1018
     48 NBD       -23.7730   19.0930  -30.0700 N.pl3     1 1P4        -0.1810
     49 CAN       -22.5190   19.2430  -30.7000 C.3       1 1P4         0.0775
     50 CAK       -21.6570   20.1570  -29.8730 C.3       1 1P4         0.0010
     51 CAH       -21.5610   19.4680  -28.5090 C.3       1 1P4         0.0526
     52 OAB       -21.4170   18.0130  -28.6760 O.3       1 1P4        -0.3467
     53 C1        -28.0750   16.7610  -20.6510 C.2       1 18D         0.1041
     54 C2        -27.9000   15.8040  -21.8210 C.3       1 18D         0.2204
     55 C3        -26.5230   15.1290  -21.8460 C.3       1 18D         0.0353
     56 C4        -26.4040   14.0250  -20.8000 C.3       1 18D         0.0850
     57 C5        -27.5470   13.0290  -20.9250 C.3       1 18D         0.0964
     58 C6        -28.8490   13.8070  -20.7580 C.3       1 18D         0.1143
     59 C7        -30.1200   12.9470  -20.7650 C.3       1 18D         0.1114
     60 C8        -31.3940   13.8050  -20.6680 C.3       1 18D         0.1065
     61 C9        -32.5660   12.9690  -20.1660 C.3       1 18D         0.0727
     62 C10       -27.1850   10.6820  -20.2130 C.2       1 18D         0.1761
     63 C11       -27.1450    9.7170  -19.0550 C.3       1 18D         0.0344
     64 N5        -27.4460   11.9710  -19.9200 N.am      1 18D        -0.2788
     65 O1        -29.1450   16.7530  -19.9880 O.co2     1 18D        -0.5426
     66 O3        -27.1490   17.5530  -20.4000 O.co2     1 18D        -0.5426
     67 O4        -25.1470   13.3560  -20.9630 O.3       1 18D        -0.3893
     68 O6        -28.9330   14.8180  -21.7880 O.3       1 18D        -0.3384
     69 O7        -30.1630   12.1880  -21.9770 O.3       1 18D        -0.3865
     70 O8        -31.2240   14.9000  -19.7550 O.3       1 18D        -0.3869
     71 O9        -32.3370   12.5650  -18.7960 O.3       1 18D        -0.3924
     72 C22       -26.2270    8.4880  -19.3510 C.3       1 18D        -0.0482
     73 O10       -27.0000   10.3190  -21.3670 O.2       1 18D        -0.3971
     74 C1        -29.4980    9.7600  -31.2680 C.2       1 18D         0.1041
     75 C2        -28.2460   10.4690  -30.7970 C.3       1 18D         0.2204
     76 C3        -27.7800   10.0300  -29.4020 C.3       1 18D         0.0353
     77 C4        -27.1170    8.6610  -29.4330 C.3       1 18D         0.0850
     78 C5        -26.0150    8.6300  -30.4980 C.3       1 18D         0.0964
     79 C6        -26.6500    8.9870  -31.8380 C.3       1 18D         0.1143
     80 C7        -25.7050    8.8990  -33.0390 C.3       1 18D         0.1114
     81 C8        -26.3860    9.3270  -34.3430 C.3       1 18D         0.1065
     82 C9        -25.5960    8.8180  -35.5480 C.3       1 18D         0.0727
     83 C10       -24.1170    7.0890  -30.2760 C.2       1 18D         0.1761
     84 C11       -23.6140    5.6840  -30.4200 C.3       1 18D         0.0344
     85 N5        -25.4080    7.3100  -30.5790 N.am      1 18D        -0.2788
     86 O1        -30.4510    9.6630  -30.4720 O.co2     1 18D        -0.5426
     87 O3        -29.5530    9.3330  -32.4530 O.co2     1 18D        -0.5426
     88 O4        -26.5930    8.3520  -28.1350 O.3       1 18D        -0.3893
     89 O6        -27.2030   10.3120  -31.7630 O.3       1 18D        -0.3384
     90 O7        -24.5660    9.7170  -32.7760 O.3       1 18D        -0.3865
     91 O8        -27.7320    8.8220  -34.4210 O.3       1 18D        -0.3869
     92 O9        -26.0130    9.5000  -36.7450 O.3       1 18D        -0.3924
     93 C22       -22.4470    5.3460  -29.4340 C.3       1 18D        -0.0482
     94 O10       -23.3950    7.9950  -29.8800 O.2       1 18D        -0.3971
     95 H1        -20.3460   15.4359  -29.3737 H         1 18D         0.0336
     96 H2        -21.1342   15.6113  -27.7691 H         1 18D         0.0336
     97 H3        -18.1474   15.3655  -28.3483 H         1 18D         0.0618
     98 H4        -19.6162   15.8175  -25.7073 H         1 18D         0.0608
     99 H5        -17.7389   17.5480  -27.3723 H         1 18D         0.0646
    100 H6        -17.2224   18.0247  -25.0578 H         1 18D         0.0647
    101 H7        -19.2052   20.2022  -25.7604 H         1 18D         0.0643
    102 H8        -17.6714   20.3542  -23.7440 H         1 18D         0.0584
    103 H9        -17.4175   21.6641  -24.9466 H         1 18D         0.0584
    104 H10       -15.8869   14.9632  -23.3879 H         1 18D         0.0500
    105 H11       -15.6939   13.8790  -24.8070 H         1 18D         0.0500
    106 H12       -16.6736   15.5331  -26.0964 H         1 18D         0.1856
    107 H13       -18.4953   13.4051  -27.1428 H         1 18D         0.2099
    108 H14       -20.0421   18.3949  -24.6949 H         1 18D         0.2100
    109 H15       -18.1007   19.6088  -27.7314 H         1 18D         0.2100
    110 H16       -15.6629   20.3683  -25.8052 H         1 18D         0.2095
    111 H17       -15.6271   12.5788  -22.6677 H         1 18D         0.0254
    112 H18       -17.0598   12.1215  -23.6501 H         1 18D         0.0254
    113 H19       -17.2528   13.2057  -22.2310 H         1 18D         0.0254
    114 H20       -29.7562   13.4978  -31.1708 H         1 1P4         0.0560
    115 H21       -30.3214   11.9188  -31.8142 H         1 1P4         0.0560
    116 H22       -29.4898   13.1776  -33.6877 H         1 1P4         0.0316
    117 H23       -28.2608   11.9204  -33.3194 H         1 1P4         0.0316
    118 H24       -27.0951   13.9975  -33.7133 H         1 1P4         0.0648
    119 H25       -27.0179   13.6468  -31.9533 H         1 1P4         0.0648
    120 H26       -26.5159   15.9330  -31.4499 H         1 1P4         0.0900
    121 H27       -28.4426   19.2901  -31.2025 H         1 18D         0.0932
    122 H28       -26.7526   18.6834  -31.2514 H         1 18D         0.0932
    123 H29       -28.6623   17.7494  -29.2761 H         1 18D         0.2064
    124 H30       -28.3904   20.3432  -29.1447 H         1 18D         0.0932
    125 H31       -26.8999   19.8510  -28.2714 H         1 18D         0.0932
    126 H32       -29.1586   20.4310  -26.0621 H         1 18D         0.0900
    127 H33       -31.4874   17.4919  -24.8201 H         1 18D         0.0648
    128 H34       -31.1584   19.2030  -24.3838 H         1 18D         0.0648
    129 H35       -30.2045   16.7168  -23.1635 H         1 18D         0.0316
    130 H36       -30.2549   18.3899  -22.5116 H         1 18D         0.0316
    131 H37       -28.0471   18.7163  -22.9429 H         1 18D         0.0560
    132 H38       -28.1751   18.0016  -24.5859 H         1 18D         0.0560
    133 H39       -26.6780   16.4369  -29.5675 H         1 18D         0.0932
    134 H40       -26.7538   17.1869  -27.9370 H         1 18D         0.0932
    135 H41       -24.1724   16.9859  -30.4929 H         1 18D         0.0900
    136 H42       -22.6596   19.6761  -31.7013 H         1 18D         0.0648
    137 H43       -22.0326   18.2605  -30.7904 H         1 18D         0.0648
    138 H44       -22.1240   21.1481  -29.7753 H         1 18D         0.0316
    139 H45       -20.6598   20.2644  -30.3248 H         1 18D         0.0316
    140 H46       -22.4740   19.6776  -27.9324 H         1 18D         0.0560
    141 H47       -20.6872   19.8584  -27.9668 H         1 18D         0.0560
    142 H48       -25.7523   15.8887  -21.6486 H         1 18D         0.0336
    143 H49       -26.3605   14.6921  -22.8423 H         1 18D         0.0336
    144 H50       -26.4411   14.4790  -19.7988 H         1 18D         0.0618
    145 H51       -27.5207   12.5689  -21.9238 H         1 18D         0.0608
    146 H52       -28.8049   14.3121  -19.7818 H         1 18D         0.0646
    147 H53       -30.0882   12.2610  -19.9057 H         1 18D         0.0647
    148 H54       -31.6281   14.2000  -21.6676 H         1 18D         0.0643
    149 H55       -32.6710   12.0739  -20.7966 H         1 18D         0.0584
    150 H56       -33.4884   13.5659  -20.2200 H         1 18D         0.0584
    151 H57       -28.1656    9.3584  -18.8557 H         1 18D         0.0500
    152 H58       -26.7610   10.2420  -18.1679 H         1 18D         0.0500
    153 H59       -27.5783   12.2186  -18.9602 H         1 18D         0.1856
    154 H60       -25.0550   12.6895  -20.2924 H         1 18D         0.2099
    155 H61       -30.2092   12.7800  -22.7186 H         1 18D         0.2100
    156 H62       -30.4979   15.4409  -20.0427 H         1 18D         0.2100
    157 H63       -32.2475   13.3373  -18.2500 H         1 18D         0.2095
    158 H64       -26.2273    7.8126  -18.4828 H         1 18D         0.0254
    159 H65       -25.2014    8.8348  -19.5454 H         1 18D         0.0254
    160 H66       -26.6060    7.9512  -20.2332 H         1 18D         0.0254
    161 H67       -28.6515    9.9885  -28.7321 H         1 1P4         0.0336
    162 H68       -27.0582   10.7666  -29.0195 H         1 1P4         0.0336
    163 H69       -27.8741    7.9068  -29.6937 H         1 1P4         0.0618
    164 H70       -25.2397    9.3684  -30.2457 H         1 1P4         0.0608
    165 H71       -27.4709    8.2760  -32.0129 H         1 1P4         0.0646
    166 H72       -25.3761    7.8553  -33.1506 H         1 1P4         0.0647
    167 H73       -26.4180   10.4261  -34.3751 H         1 1P4         0.0643
    168 H74       -25.7707    7.7384  -35.6663 H         1 1P4         0.0584
    169 H75       -24.5240    9.0000  -35.3819 H         1 1P4         0.0584
    170 H76       -23.2535    5.5450  -31.4499 H         1 1P4         0.0500
    171 H77       -24.4471    4.9923  -30.2266 H         1 1P4         0.0500
    172 H78       -25.9725    6.5380  -30.8711 H         1 1P4         0.1856
    173 H79       -26.2084    7.4834  -28.1485 H         1 1P4         0.2099
    174 H80       -23.9453    9.6328  -33.4903 H         1 1P4         0.2100
    175 H81       -28.2300    9.1343  -33.6747 H         1 1P4         0.2100
    176 H82       -25.5139    9.1734  -37.4844 H         1 1P4         0.2095
    177 H83       -22.1250    4.3058  -29.5898 H         1 1P4         0.0254
    178 H84       -22.7946    5.4709  -28.3979 H         1 1P4         0.0254
    179 H85       -21.6009    6.0236  -29.6212 H         1 1P4         0.0254
@<TRIPOS>BOND
     1    2    1 1  
     2    1   13 ar 
     3    1   14 ar 
     4    2    3 1  
     5    2   16 1  
     6   52    2 1  
     7    3    4 1  
     8    4    5 1  
     9    4   15 1  
    10    6    5 1  
    11    5   12 1  
    12    6    7 1  
    13   16    6 1  
    14    7    8 1  
    15    7   17 1  
    16    8    9 1  
    17    8   18 1  
    18    9   19 1  
    19   10   11 1  
    20   12   10 am 
    21   10   21 2  
    22   11   20 1  
    23   22   23 1  
    24   75   22 1  
    25   23   24 1  
    26   24   25 1  
    27   25   26 1  
    28   26   27 1  
    29   26   28 1  
    30   27   30 2  
    31   28   29 2  
    32   29   30 1  
    33   30   31 1  
    34   31   32 1  
    35   32   33 1  
    36   32   43 1  
    37   33   34 1  
    38   34   35 2  
    39   34   36 1  
    40   35   38 1  
    41   36   37 2  
    42   37   38 1  
    43   38   39 1  
    44   39   40 1  
    45   40   41 1  
    46   41   42 1  
    47   42   54 1  
    48   43   44 1  
    49   44   45 2  
    50   44   46 1  
    51   45   48 1  
    52   46   47 2  
    53   47   48 1  
    54   48   49 1  
    55   49   50 1  
    56   50   51 1  
    57   51   52 1  
    58   54   53 1  
    59   53   65 ar 
    60   53   66 ar 
    61   54   55 1  
    62   54   68 1  
    63   55   56 1  
    64   56   57 1  
    65   56   67 1  
    66   58   57 1  
    67   57   64 1  
    68   58   59 1  
    69   68   58 1  
    70   59   60 1  
    71   59   69 1  
    72   60   61 1  
    73   60   70 1  
    74   61   71 1  
    75   62   63 1  
    76   64   62 am 
    77   62   73 2  
    78   63   72 1  
    79   75   74 1  
    80   74   86 ar 
    81   74   87 ar 
    82   76   75 1  
    83   89   75 1  
    84   77   76 1  
    85   78   77 1  
    86   77   88 1  
    87   78   79 1  
    88   85   78 1  
    89   79   80 1  
    90   79   89 1  
    91   80   81 1  
    92   80   90 1  
    93   81   82 1  
    94   81   91 1  
    95   82   92 1  
    96   83   84 1  
    97   83   85 am 
    98   83   94 2  
    99   84   93 1  
   100    3   95 1  
   101    3   96 1  
   102    4   97 1  
   103    5   98 1  
   104    6   99 1  
   105    7  100 1  
   106    8  101 1  
   107    9  102 1  
   108    9  103 1  
   109   11  104 1  
   110   11  105 1  
   111   12  106 1  
   112   15  107 1  
   113   17  108 1  
   114   18  109 1  
   115   19  110 1  
   116   20  111 1  
   117   20  112 1  
   118   20  113 1  
   119   23  114 1  
   120   23  115 1  
   121   24  116 1  
   122   24  117 1  
   123   25  118 1  
   124   25  119 1  
   125   27  120 1  
   126   31  121 1  
   127   31  122 1  
   128   32  123 1  
   129   33  124 1  
   130   33  125 1  
   131   35  126 1  
   132   39  127 1  
   133   39  128 1  
   134   40  129 1  
   135   40  130 1  
   136   41  131 1  
   137   41  132 1  
   138   43  133 1  
   139   43  134 1  
   140   45  135 1  
   141   49  136 1  
   142   49  137 1  
   143   50  138 1  
   144   50  139 1  
   145   51  140 1  
   146   51  141 1  
   147   55  142 1  
   148   55  143 1  
   149   56  144 1  
   150   57  145 1  
   151   58  146 1  
   152   59  147 1  
   153   60  148 1  
   154   61  149 1  
   155   61  150 1  
   156   63  151 1  
   157   63  152 1  
   158   64  153 1  
   159   67  154 1  
   160   69  155 1  
   161   70  156 1  
   162   71  157 1  
   163   72  158 1  
   164   72  159 1  
   165   72  160 1  
   166   76  161 1  
   167   76  162 1  
   168   77  163 1  
   169   78  164 1  
   170   79  165 1  
   171   80  166 1  
   172   81  167 1  
   173   82  168 1  
   174   82  169 1  
   175   84  170 1  
   176   84  171 1  
   177   85  172 1  
   178   88  173 1  
   179   90  174 1  
   180   91  175 1  
   181   92  176 1  
   182   93  177 1  
   183   93  178 1  
   184   93  179 1  
@<TRIPOS>SUBSTRUCTURE
     1 18D         1

