4k6v_ligand
  -I-interpret- 

182187  0  0  0  0  0  0  0  0999 V2000
  -19.1900   17.8630  -29.5770 C   0  0  0  0  0
  -20.1460   17.3930  -28.4840 C   0  0  0  0  0
  -20.2430   15.8600  -28.3640 C   0  0  0  0  0
  -19.0230   15.2320  -27.6960 C   0  0  0  0  0
  -18.7450   15.9480  -26.3660 C   0  0  0  0  0
  -18.5590   17.4480  -26.6460 C   0  0  0  0  0
  -18.2140   18.3230  -25.4290 C   0  0  0  0  0
  -18.1750   19.8170  -25.7770 C   0  0  0  0  0
  -17.3290   20.5830  -24.7640 C   0  0  0  0  0
  -17.6610   14.6870  -24.5550 C   0  0  0  0  0
  -16.3600   14.1660  -23.9800 C   0  0  0  0  0
  -17.5760   15.3870  -25.6910 N   0  0  0  0  0
  -18.4350   18.8420  -29.3670 O   0  0  0  0  0
  -19.1770   17.2540  -30.6620 O   0  0  0  0  0
  -19.2600   13.8100  -27.5350 O   0  0  0  0  0
  -19.7680   17.9680  -27.2270 O   0  0  0  0  0
  -19.1880   18.1130  -24.3890 O   0  0  0  0  0
  -17.6010   20.0700  -27.0680 O   0  0  0  0  0
  -15.9520   20.1710  -24.9220 O   0  0  0  0  0
  -16.5920   12.9270  -23.0650 C   0  0  0  0  0
  -18.7580   14.4860  -24.0280 O   0  0  0  0  0
  -28.5530   11.8580  -30.7110 O   0  0  0  0  0
  -29.4390   12.5480  -31.6260 C   0  0  0  0  0
  -28.7420   12.8400  -32.9550 C   0  0  0  0  0
  -27.6810   13.9270  -32.7850 C   0  0  0  0  0
  -28.2700   15.2430  -32.4970 N   0  0  0  0  0
  -27.5260   16.0980  -31.8220 C   0  0  0  0  0
  -29.4330   15.8130  -32.7750 N   0  0  0  0  0
  -29.4370   17.0260  -32.2840 N   0  0  0  0  0
  -28.2530   17.1980  -31.6870 C   0  0  0  0  0
  -27.7820   18.4500  -30.9420 C   0  0  0  0  0
  -27.8100   18.2530  -29.4660 N   0  3  0  0  0
  -27.8840   19.5140  -28.6290 C   0  0  0  0  0
  -28.7440   18.8810  -27.5180 C   0  0  0  0  0
  -29.2440   19.4040  -26.4140 C   0  0  0  0  0
  -29.1060   17.6050  -27.5540 N   0  0  0  0  0
  -29.7630   17.3640  -26.5680 N   0  0  0  0  0
  -29.8810   18.3820  -25.8250 N   0  0  0  0  0
  -30.6990   18.2290  -24.6080 C   0  0  0  0  0
  -29.9460   17.7670  -23.3640 C   0  0  0  0  0
  -28.4490   17.8760  -23.5280 C   0  0  0  0  0
  -27.9730   16.6090  -23.0140 O   0  0  0  0  0
  -26.7010   17.3890  -29.0170 C   0  0  0  0  0
  -25.5130   18.2700  -29.3670 C   0  0  0  0  0
  -24.4420   17.9450  -30.0530 C   0  0  0  0  0
  -25.4350   19.5550  -29.0430 N   0  0  0  0  0
  -24.4570   19.9870  -29.4370 N   0  0  0  0  0
  -23.7730   19.0930  -30.0700 N   0  0  0  0  0
  -22.5190   19.2430  -30.7000 C   0  0  0  0  0
  -21.6570   20.1570  -29.8730 C   0  0  0  0  0
  -21.5610   19.4680  -28.5090 C   0  0  0  0  0
  -21.4170   18.0130  -28.6760 O   0  0  0  0  0
  -28.0750   16.7610  -20.6510 C   0  0  0  0  0
  -27.9000   15.8040  -21.8210 C   0  0  0  0  0
  -26.5230   15.1290  -21.8460 C   0  0  0  0  0
  -26.4040   14.0250  -20.8000 C   0  0  0  0  0
  -27.5470   13.0290  -20.9250 C   0  0  0  0  0
  -28.8490   13.8070  -20.7580 C   0  0  0  0  0
  -30.1200   12.9470  -20.7650 C   0  0  0  0  0
  -31.3940   13.8050  -20.6680 C   0  0  0  0  0
  -32.5660   12.9690  -20.1660 C   0  0  0  0  0
  -27.1850   10.6820  -20.2130 C   0  0  0  0  0
  -27.1450    9.7170  -19.0550 C   0  0  0  0  0
  -27.4460   11.9710  -19.9200 N   0  0  0  0  0
  -29.1450   16.7530  -19.9880 O   0  0  0  0  0
  -27.1490   17.5530  -20.4000 O   0  0  0  0  0
  -25.1470   13.3560  -20.9630 O   0  0  0  0  0
  -28.9330   14.8180  -21.7880 O   0  0  0  0  0
  -30.1630   12.1880  -21.9770 O   0  0  0  0  0
  -31.2240   14.9000  -19.7550 O   0  0  0  0  0
  -32.3370   12.5650  -18.7960 O   0  0  0  0  0
  -26.2270    8.4880  -19.3510 C   0  0  0  0  0
  -27.0000   10.3190  -21.3670 O   0  0  0  0  0
  -29.4980    9.7600  -31.2680 C   0  0  0  0  0
  -28.2460   10.4690  -30.7970 C   0  0  0  0  0
  -27.7800   10.0300  -29.4020 C   0  0  0  0  0
  -27.1170    8.6610  -29.4330 C   0  0  0  0  0
  -26.0150    8.6300  -30.4980 C   0  0  0  0  0
  -26.6500    8.9870  -31.8380 C   0  0  0  0  0
  -25.7050    8.8990  -33.0390 C   0  0  0  0  0
  -26.3860    9.3270  -34.3430 C   0  0  0  0  0
  -25.5960    8.8180  -35.5480 C   0  0  0  0  0
  -24.1170    7.0890  -30.2760 C   0  0  0  0  0
  -23.6140    5.6840  -30.4200 C   0  0  0  0  0
  -25.4080    7.3100  -30.5790 N   0  0  0  0  0
  -30.4510    9.6630  -30.4720 O   0  0  0  0  0
  -29.5530    9.3330  -32.4530 O   0  0  0  0  0
  -26.5930    8.3520  -28.1350 O   0  0  0  0  0
  -27.2030   10.3120  -31.7630 O   0  0  0  0  0
  -24.5660    9.7170  -32.7760 O   0  0  0  0  0
  -27.7320    8.8220  -34.4210 O   0  0  0  0  0
  -26.0130    9.5000  -36.7450 O   0  0  0  0  0
  -22.4470    5.3460  -29.4340 C   0  0  0  0  0
  -23.3950    7.9950  -29.8800 O   0  0  0  0  0
  -20.3138   15.4531  -29.3727 H   0  0  0  0  0
  -21.1122   15.6309  -27.7475 H   0  0  0  0  0
  -18.1309   15.3491  -28.3113 H   0  0  0  0  0
  -19.5917   15.8040  -25.6948 H   0  0  0  0  0
  -17.6975   17.5011  -27.3117 H   0  0  0  0  0
  -17.2197   18.0288  -25.0928 H   0  0  0  0  0
  -19.2137   20.1473  -25.7671 H   0  0  0  0  0
  -17.6707   20.3680  -23.7515 H   0  0  0  0  0
  -17.4210   21.6558  -24.9338 H   0  0  0  0  0
  -15.9077   14.9563  -23.3809 H   0  0  0  0  0
  -15.7138   13.8678  -24.8056 H   0  0  0  0  0
  -16.6556   15.5360  -26.1046 H   0  0  0  0  0
  -18.5876   19.1780  -28.4808 H   0  0  0  0  0
  -19.4274   13.4154  -28.3940 H   0  0  0  0  0
  -19.2190   17.1801  -24.1648 H   0  0  0  0  0
  -17.5999   21.0150  -27.2369 H   0  0  0  0  0
  -15.4035   20.6435  -24.2915 H   0  0  0  0  0
  -17.2469   13.2044  -22.2390 H   0  0  0  0  0
  -17.0556   12.1296  -23.6459 H   0  0  0  0  0
  -15.6353   12.5829  -22.6720 H   0  0  0  0  0
  -29.7378   13.4940  -31.1744 H   0  0  0  0  0
  -30.3038   11.9130  -31.8186 H   0  0  0  0  0
  -29.4858   13.1846  -33.6734 H   0  0  0  0  0
  -28.2579   11.9284  -33.3054 H   0  0  0  0  0
  -27.1233   14.0035  -33.7184 H   0  0  0  0  0
  -27.0454   13.6500  -31.9439 H   0  0  0  0  0
  -26.5150   15.9328  -31.4496 H   0  0  0  0  0
  -28.4523   19.2722  -31.1924 H   0  0  0  0  0
  -26.7559   18.6632  -31.2415 H   0  0  0  0  0
  -28.7009   17.7849  -29.3000 H   0  0  0  0  0
  -28.2722   20.4113  -29.1110 H   0  0  0  0  0
  -26.9407   19.9716  -28.3308 H   0  0  0  0  0
  -29.1585   20.4320  -26.0617 H   0  0  0  0  0
  -31.4392   17.4593  -24.8264 H   0  0  0  0  0
  -31.1015   19.2156  -24.3786 H   0  0  0  0  0
  -30.1920   16.7197  -23.1889 H   0  0  0  0  0
  -30.2428   18.4056  -22.5320 H   0  0  0  0  0
  -28.0271   18.7316  -23.0006 H   0  0  0  0  0
  -28.1486   18.0530  -24.5607 H   0  0  0  0  0
  -26.6821   16.4048  -29.4850 H   0  0  0  0  0
  -26.7528   17.1033  -27.9664 H   0  0  0  0  0
  -24.1722   16.9851  -30.4933 H   0  0  0  0  0
  -22.6572   19.6698  -31.6934 H   0  0  0  0  0
  -22.0370   18.2697  -30.7924 H   0  0  0  0  0
  -22.0819   21.1578  -29.7950 H   0  0  0  0  0
  -20.6758   20.3091  -30.3227 H   0  0  0  0  0
  -22.4710   19.6715  -27.9445 H   0  0  0  0  0
  -20.6894   19.8517  -27.9788 H   0  0  0  0  0
  -25.7699   15.8861  -21.6275 H   0  0  0  0  0
  -26.3825   14.6810  -22.8297 H   0  0  0  0  0
  -26.4576   14.4728  -19.8077 H   0  0  0  0  0
  -27.5106   12.5401  -21.8985 H   0  0  0  0  0
  -28.8093   14.2530  -19.7642 H   0  0  0  0  0
  -30.0869   12.2914  -19.8949 H   0  0  0  0  0
  -31.5911   14.1862  -21.6700 H   0  0  0  0  0
  -32.6648   12.0804  -20.7895 H   0  0  0  0  0
  -33.4777   13.5644  -20.2160 H   0  0  0  0  0
  -28.1571    9.3526  -18.8791 H   0  0  0  0  0
  -26.7444   10.2413  -18.1874 H   0  0  0  0  0
  -27.5809   12.2236  -18.9410 H   0  0  0  0  0
  -29.7295   16.0746  -20.3340 H   0  0  0  0  0
  -25.0685   12.6603  -20.3062 H   0  0  0  0  0
  -30.9565   11.6477  -21.9869 H   0  0  0  0  0
  -32.0344   15.4133  -19.7182 H   0  0  0  0  0
  -33.0800   12.0397  -18.4900 H   0  0  0  0  0
  -26.6036    7.9570  -20.2253 H   0  0  0  0  0
  -25.2111    8.8329  -19.5435 H   0  0  0  0  0
  -26.2281    7.8196  -18.4900 H   0  0  0  0  0
  -28.6526    9.9736  -28.7512 H   0  0  0  0  0
  -27.0515   10.7555  -29.0399 H   0  0  0  0  0
  -27.8561    7.9044  -29.6963 H   0  0  0  0  0
  -25.2319    9.3419  -30.2369 H   0  0  0  0  0
  -27.4221    8.2375  -32.0119 H   0  0  0  0  0
  -25.4042    7.8600  -33.1735 H   0  0  0  0  0
  -26.4160   10.4165  -34.3525 H   0  0  0  0  0
  -25.7775    7.7497  -35.6662 H   0  0  0  0  0
  -24.5353    9.0067  -35.3828 H   0  0  0  0  0
  -23.2333    5.5708  -31.4351 H   0  0  0  0  0
  -24.4419    5.0112  -30.1965 H   0  0  0  0  0
  -25.9838    6.5226  -30.8770 H   0  0  0  0  0
  -28.7177    9.5061  -32.8934 H   0  0  0  0  0
  -26.1753    7.4879  -28.1572 H   0  0  0  0  0
  -23.9625    9.6725  -33.5213 H   0  0  0  0  0
  -28.1317    9.1057  -35.2465 H   0  0  0  0  0
  -25.5086    9.1700  -37.4922 H   0  0  0  0  0
  -21.6094    6.0181  -29.6204 H   0  0  0  0  0
  -22.7927    5.4702  -28.4077 H   0  0  0  0  0
  -22.1289    4.3151  -29.5894 H   0  0  0  0  0
  2  1  1  0  0  0
  1 13  1  0  0  0
  1 14  2  0  0  0
  2  3  1  0  0  0
  2 16  1  0  0  0
 52  2  1  0  0  0
  3  4  1  0  0  0
  4  5  1  0  0  0
  4 15  1  0  0  0
  6  5  1  0  0  0
  5 12  1  0  0  0
  6  7  1  0  0  0
 16  6  1  0  0  0
  7  8  1  0  0  0
  7 17  1  0  0  0
  8  9  1  0  0  0
  8 18  1  0  0  0
  9 19  1  0  0  0
 10 11  1  0  0  0
 12 10  1  0  0  0
 10 21  2  0  0  0
 11 20  1  0  0  0
 22 23  1  0  0  0
 75 22  1  0  0  0
 23 24  1  0  0  0
 24 25  1  0  0  0
 25 26  1  0  0  0
 26 27  4  0  0  0
 26 28  4  0  0  0
 27 30  4  0  0  0
 28 29  4  0  0  0
 29 30  4  0  0  0
 30 31  1  0  0  0
 31 32  1  0  0  0
 32 33  1  0  0  0
 32 43  1  0  0  0
 33 34  1  0  0  0
 34 35  4  0  0  0
 34 36  4  0  0  0
 35 38  4  0  0  0
 36 37  4  0  0  0
 37 38  4  0  0  0
 38 39  1  0  0  0
 39 40  1  0  0  0
 40 41  1  0  0  0
 41 42  1  0  0  0
 42 54  1  0  0  0
 43 44  1  0  0  0
 44 45  4  0  0  0
 44 46  4  0  0  0
 45 48  4  0  0  0
 46 47  4  0  0  0
 47 48  4  0  0  0
 48 49  1  0  0  0
 49 50  1  0  0  0
 50 51  1  0  0  0
 51 52  1  0  0  0
 54 53  1  0  0  0
 53 65  1  0  0  0
 53 66  2  0  0  0
 54 55  1  0  0  0
 54 68  1  0  0  0
 55 56  1  0  0  0
 56 57  1  0  0  0
 56 67  1  0  0  0
 58 57  1  0  0  0
 57 64  1  0  0  0
 58 59  1  0  0  0
 68 58  1  0  0  0
 59 60  1  0  0  0
 59 69  1  0  0  0
 60 61  1  0  0  0
 60 70  1  0  0  0
 61 71  1  0  0  0
 62 63  1  0  0  0
 64 62  1  0  0  0
 62 73  2  0  0  0
 63 72  1  0  0  0
 75 74  1  0  0  0
 74 86  2  0  0  0
 74 87  1  0  0  0
 76 75  1  0  0  0
 89 75  1  0  0  0
 77 76  1  0  0  0
 78 77  1  0  0  0
 77 88  1  0  0  0
 78 79  1  0  0  0
 85 78  1  0  0  0
 79 80  1  0  0  0
 79 89  1  0  0  0
 80 81  1  0  0  0
 80 90  1  0  0  0
 81 82  1  0  0  0
 81 91  1  0  0  0
 82 92  1  0  0  0
 83 84  1  0  0  0
 83 85  1  0  0  0
 83 94  2  0  0  0
 84 93  1  0  0  0
  3 95  1  0  0  0
  3 96  1  0  0  0
  4 97  1  0  0  0
  5 98  1  0  0  0
  6 99  1  0  0  0
  7100  1  0  0  0
  8101  1  0  0  0
  9102  1  0  0  0
  9103  1  0  0  0
 11104  1  0  0  0
 11105  1  0  0  0
 12106  1  0  0  0
 13107  1  0  0  0
 15108  1  0  0  0
 17109  1  0  0  0
 18110  1  0  0  0
 19111  1  0  0  0
 20112  1  0  0  0
 20113  1  0  0  0
 20114  1  0  0  0
 23115  1  0  0  0
 23116  1  0  0  0
 24117  1  0  0  0
 24118  1  0  0  0
 25119  1  0  0  0
 25120  1  0  0  0
 27121  1  0  0  0
 31122  1  0  0  0
 31123  1  0  0  0
 32124  1  0  0  0
 33125  1  0  0  0
 33126  1  0  0  0
 35127  1  0  0  0
 39128  1  0  0  0
 39129  1  0  0  0
 40130  1  0  0  0
 40131  1  0  0  0
 41132  1  0  0  0
 41133  1  0  0  0
 43134  1  0  0  0
 43135  1  0  0  0
 45136  1  0  0  0
 49137  1  0  0  0
 49138  1  0  0  0
 50139  1  0  0  0
 50140  1  0  0  0
 51141  1  0  0  0
 51142  1  0  0  0
 55143  1  0  0  0
 55144  1  0  0  0
 56145  1  0  0  0
 57146  1  0  0  0
 58147  1  0  0  0
 59148  1  0  0  0
 60149  1  0  0  0
 61150  1  0  0  0
 61151  1  0  0  0
 63152  1  0  0  0
 63153  1  0  0  0
 64154  1  0  0  0
 65155  1  0  0  0
 67156  1  0  0  0
 69157  1  0  0  0
 70158  1  0  0  0
 71159  1  0  0  0
 72160  1  0  0  0
 72161  1  0  0  0
 72162  1  0  0  0
 76163  1  0  0  0
 76164  1  0  0  0
 77165  1  0  0  0
 78166  1  0  0  0
 79167  1  0  0  0
 80168  1  0  0  0
 81169  1  0  0  0
 82170  1  0  0  0
 82171  1  0  0  0
 84172  1  0  0  0
 84173  1  0  0  0
 85174  1  0  0  0
 87175  1  0  0  0
 88176  1  0  0  0
 90177  1  0  0  0
 91178  1  0  0  0
 92179  1  0  0  0
 93180  1  0  0  0
 93181  1  0  0  0
 93182  1  0  0  0
M  END
$$$$
