4re3_ligand
  -I-interpret- 

 26 27  0  0  0  0  0  0  0  0999 V2000
    8.3490   13.6630   12.9840 C   0  0  0  0  0
    8.1120   12.2010   13.1710 C   0  0  0  0  0
    9.1970   14.1970   12.0980 N   0  0  0  0  0
    9.0130   11.3970   12.2200 C   0  0  0  0  0
    9.2400   12.1150   10.8960 C   0  0  0  0  0
   10.0440   13.3850   11.1790 C   0  0  0  0  0
   10.4640   14.1910    9.9380 C   0  0  0  0  0
    8.2350   15.8410   13.1810 C   0  0  0  0  0
    9.1430   15.5330   12.2020 C   0  0  0  0  0
    7.7600   14.6760   13.6510 N   0  0  0  0  0
    8.4530   10.1010   12.0020 O   0  0  0  0  0
    8.3860   11.8260   14.5310 O   0  0  0  0  0
    9.9080   11.2670    9.9540 O   0  0  0  0  0
    9.3500   14.8710    9.3220 O   0  0  0  0  0
    7.0681   11.9831   12.9452 H   0  0  0  0  0
    9.9889   11.2943   12.6945 H   0  0  0  0  0
    8.2833   12.3794   10.4456 H   0  0  0  0  0
   11.0025   13.1066   11.6171 H   0  0  0  0  0
   10.8803   13.4959    9.2089 H   0  0  0  0  0
   11.1867   14.9437   10.2530 H   0  0  0  0  0
    7.9525   16.8396   13.5143 H   0  0  0  0  0
    9.7188   16.2467   11.6128 H   0  0  0  0  0
    8.3178    9.6658   12.8469 H   0  0  0  0  0
    7.8211   12.3306   15.1209 H   0  0  0  0  0
    9.3777   10.4818    9.7998 H   0  0  0  0  0
    9.6588   15.3588    8.5550 H   0  0  0  0  0
  1  2  1  0  0  0
  1  3  4  0  0  0
  1 10  4  0  0  0
  2  4  1  0  0  0
  2 12  1  0  0  0
  3  6  1  0  0  0
  3  9  4  0  0  0
  4  5  1  0  0  0
  4 11  1  0  0  0
  5  6  1  0  0  0
  5 13  1  0  0  0
  6  7  1  0  0  0
  7 14  1  0  0  0
  9  8  4  0  0  0
  8 10  4  0  0  0
  2 15  1  0  0  0
  4 16  1  0  0  0
  5 17  1  0  0  0
  6 18  1  0  0  0
  7 19  1  0  0  0
  7 20  1  0  0  0
  8 21  1  0  0  0
  9 22  1  0  0  0
 11 23  1  0  0  0
 12 24  1  0  0  0
 13 25  1  0  0  0
 14 26  1  0  0  0
M  END
$$$$
