4rfc_ligand
  -I-interpret- 

 47 47  0  0  0  0  0  0  0  0999 V2000
   23.7300   11.0580   12.8220 C   0  0  0  0  0
   24.1630   11.9070   13.9720 C   0  0  0  0  0
   24.7410   13.1820   13.4480 C   0  0  0  0  0
   25.2110   11.1790   14.7500 C   0  0  0  0  0
   23.0930   12.1940   14.7980 O   0  0  0  0  0
   21.9520   11.8400   14.5160 C   0  0  0  0  0
   20.9940   12.8060   14.3160 O   0  0  0  0  0
   21.5240   10.5180   14.8740 N   0  0  0  0  0
   20.2680   10.2110   14.2570 C   0  0  0  0  0
   19.5650    8.9520   14.6480 C   0  0  0  0  0
   19.3240    7.8870   13.6340 C   0  0  0  0  0
   18.9180    6.5240   14.0970 C   0  0  0  0  0
   17.6160    6.1280   13.9040 O   0  0  0  0  0
   17.1030    5.0580   14.5990 C   0  0  0  0  0
   15.7810    5.0630   15.0230 C   0  0  0  0  0
   15.2600    3.9900   15.7240 C   0  0  0  0  0
   16.0560    2.8900   16.0150 C   0  0  0  0  0
   15.3960    1.5190   16.9180 S   0  0  0  0  0
   15.9260    1.6000   18.2860 O   0  0  0  0  0
   13.9270    1.6060   16.9510 O   0  0  0  0  0
   15.9060    0.1240   16.2480 N   0  0  0  0  0
   17.3780    2.8830   15.5940 C   0  0  0  0  0
   17.8960    3.9560   14.8900 C   0  0  0  0  0
   23.3143   10.1233   13.1983 H   0  0  0  0  0
   22.9719   11.5883   12.2457 H   0  0  0  0  0
   24.5889   10.8450   12.1856 H   0  0  0  0  0
   23.9790   13.7202   12.8842 H   0  0  0  0  0
   25.0789   13.7963   14.2826 H   0  0  0  0  0
   25.5851   12.9560   12.7964 H   0  0  0  0  0
   25.5471   11.8038   15.5775 H   0  0  0  0  0
   24.7930   10.2510   15.1402 H   0  0  0  0  0
   26.0546   10.9530   14.0977 H   0  0  0  0  0
   22.0420    9.8848   15.4832 H   0  0  0  0  0
   20.4946   10.0915   13.1975 H   0  0  0  0  0
   19.5986   11.0155   14.5618 H   0  0  0  0  0
   18.5676    9.2775   14.9434 H   0  0  0  0  0
   20.2258    8.4870   15.3796 H   0  0  0  0  0
   20.2871    7.7421   13.1445 H   0  0  0  0  0
   18.4805    8.2462   13.0444 H   0  0  0  0  0
   19.0551    6.5372   15.1783 H   0  0  0  0  0
   19.5176    5.8315   13.5062 H   0  0  0  0  0
   15.1468    5.9214   14.8013 H   0  0  0  0  0
   14.2199    4.0082   16.0494 H   0  0  0  0  0
   16.4941   -0.5142   16.7840 H   0  0  0  0  0
   15.6372   -0.1111   15.2926 H   0  0  0  0  0
   18.0131    2.0263   15.8193 H   0  0  0  0  0
   18.9350    3.9358   14.5613 H   0  0  0  0  0
  1  2  1  0  0  0
  2  3  1  0  0  0
  2  4  1  0  0  0
  2  5  1  0  0  0
  5  6  1  0  0  0
  6  7  2  0  0  0
  6  8  1  0  0  0
  8  9  1  0  0  0
  9 10  1  0  0  0
 10 11  1  0  0  0
 11 12  1  0  0  0
 12 13  1  0  0  0
 13 14  1  0  0  0
 14 15  4  0  0  0
 14 23  4  0  0  0
 15 16  4  0  0  0
 16 17  4  0  0  0
 17 18  1  0  0  0
 17 22  4  0  0  0
 18 19  2  0  0  0
 18 20  2  0  0  0
 18 21  1  0  0  0
 22 23  4  0  0  0
  1 24  1  0  0  0
  1 25  1  0  0  0
  1 26  1  0  0  0
  3 27  1  0  0  0
  3 28  1  0  0  0
  3 29  1  0  0  0
  4 30  1  0  0  0
  4 31  1  0  0  0
  4 32  1  0  0  0
  8 33  1  0  0  0
  9 34  1  0  0  0
  9 35  1  0  0  0
 10 36  1  0  0  0
 10 37  1  0  0  0
 11 38  1  0  0  0
 11 39  1  0  0  0
 12 40  1  0  0  0
 12 41  1  0  0  0
 15 42  1  0  0  0
 16 43  1  0  0  0
 21 44  1  0  0  0
 21 45  1  0  0  0
 22 46  1  0  0  0
 23 47  1  0  0  0
M  END
$$$$
