4jmu_ligand
  -I-interpret- 

 76 79  0  0  0  0  0  0  0  0999 V2000
   19.0790    1.5030   13.2800 C   0  0  0  0  0
   19.3680    1.6130   14.6400 C   0  0  0  0  0
   18.3740    2.1030   15.5560 C   0  0  0  0  0
   17.1050    2.4830   15.1070 C   0  0  0  0  0
   16.7960    2.3880   13.7410 C   0  0  0  0  0
   17.7820    1.8910   12.8040 C   0  0  0  0  0
   18.6700    2.2400   16.8900 O   0  0  0  0  0
   19.4470    1.2950   17.5430 C   0  0  0  0  0
   20.1960    1.8310   18.6160 C   0  0  0  0  0
   21.0370    0.9870   19.3810 C   0  0  0  0  0
   21.1450   -0.3560   19.0860 C   0  0  0  0  0
   20.3930   -0.9240   17.9920 C   0  0  0  0  0
   19.5570   -0.1130   17.2060 C   0  0  0  0  0
   20.1550    0.9600   12.3830 C   0  0  0  0  0
   21.2770    1.6030   12.3970 O   0  0  0  0  0
   19.8540   -0.0440   11.6480 O   0  0  0  0  0
   17.4140    1.8000   11.4330 N   0  0  0  0  0
   17.6960    2.9210   10.4630 C   0  0  0  0  0
   17.3510    4.3140   11.0070 C   0  0  0  0  0
   19.1680    2.9420    9.9590 C   0  0  0  0  0
   16.7700    0.6730   10.9480 C   0  0  0  0  0
   16.4310   -0.5260   11.9490 C   0  0  0  0  0
   16.4450    0.6070    9.7790 O   0  0  0  0  0
   14.9600   -0.3200   12.4090 C   0  0  0  0  0
   14.5260   -1.3980   13.4170 C   0  0  0  0  0
   14.5860   -2.7810   12.7610 C   0  0  0  0  0
   16.0150   -3.0660   12.1880 C   0  0  0  0  0
   16.5490   -1.9140   11.2620 C   0  0  0  0  0
   14.1930   -3.8680   13.8010 C   0  0  0  0  0
   21.9490   -1.1280   19.9370 N   0  0  0  0  0
   22.2020   -2.4630   20.0190 C   0  0  0  0  0
   21.7930   -3.3260   19.2150 O   0  0  0  0  0
   23.0460   -2.9140   21.1900 C   0  0  0  0  0
   23.4270   -4.2830   21.3020 C   0  0  0  0  0
   24.2150   -4.6900   22.3620 C   0  0  0  0  0
   24.6580   -3.7660   23.3270 C   0  0  0  0  0
   24.2760   -2.4040   23.2360 C   0  0  0  0  0
   23.4850   -1.9660   22.1530 C   0  0  0  0  0
   25.4500   -4.0880   24.3870 O   0  0  0  0  0
   26.4210   -5.1320   24.1350 C   0  0  0  0  0
   20.3522    1.3261   15.0102 H   0  0  0  0  0
   16.3607    2.8506   15.8134 H   0  0  0  0  0
   15.8110    2.6892   13.3845 H   0  0  0  0  0
   20.1260    2.8924   18.8539 H   0  0  0  0  0
   21.6056    1.4034   20.2125 H   0  0  0  0  0
   20.4744   -1.9890   17.7744 H   0  0  0  0  0
   19.0047   -0.5306   16.3641 H   0  0  0  0  0
   21.2304    2.3116   13.0430 H   0  0  0  0  0
   17.0326    2.6997    9.6269 H   0  0  0  0  0
   16.2891    4.3552   11.2495 H   0  0  0  0  0
   17.9378    4.5076   11.9049 H   0  0  0  0  0
   17.5819    5.0651   10.2516 H   0  0  0  0  0
   19.8398    3.0649   10.8085 H   0  0  0  0  0
   19.3902    2.0035    9.4512 H   0  0  0  0  0
   19.3014    3.7723    9.2655 H   0  0  0  0  0
   17.1376   -0.5142   12.7789 H   0  0  0  0  0
   14.3131   -0.3859   11.5342 H   0  0  0  0  0
   14.8833    0.6541   12.8920 H   0  0  0  0  0
   13.5043   -1.1975   13.7396 H   0  0  0  0  0
   15.1975   -1.3782   14.2754 H   0  0  0  0  0
   13.8807   -2.8057   11.9303 H   0  0  0  0  0
   15.9559   -3.9735   11.5871 H   0  0  0  0  0
   16.6985   -3.1560   13.0323 H   0  0  0  0  0
   17.6009   -2.1039   11.0484 H   0  0  0  0  0
   15.9503   -1.8992   10.3512 H   0  0  0  0  0
   14.8874   -3.8338   14.6405 H   0  0  0  0  0
   13.1805   -3.6788   14.1575 H   0  0  0  0  0
   14.2366   -4.8508   13.3316 H   0  0  0  0  0
   22.4453   -0.5769   20.6372 H   0  0  0  0  0
   23.0984   -5.0056   20.5550 H   0  0  0  0  0
   24.4968   -5.7391   22.4518 H   0  0  0  0  0
   24.5930   -1.6960   24.0017 H   0  0  0  0  0
   23.2143   -0.9146   22.0563 H   0  0  0  0  0
   25.9029   -6.0459   23.8444 H   0  0  0  0  0
   27.0880   -4.8198   23.3314 H   0  0  0  0  0
   27.0006   -5.3135   25.0401 H   0  0  0  0  0
  1  2  4  0  0  0
  1  6  4  0  0  0
  1 14  1  0  0  0
  2  3  4  0  0  0
  3  4  4  0  0  0
  3  7  1  0  0  0
  4  5  4  0  0  0
  5  6  4  0  0  0
  6 17  1  0  0  0
  7  8  1  0  0  0
  8  9  4  0  0  0
  8 13  4  0  0  0
  9 10  4  0  0  0
 10 11  4  0  0  0
 11 12  4  0  0  0
 11 30  1  0  0  0
 12 13  4  0  0  0
 14 15  1  0  0  0
 14 16  2  0  0  0
 17 18  1  0  0  0
 17 21  1  0  0  0
 18 19  1  0  0  0
 18 20  1  0  0  0
 21 22  1  0  0  0
 21 23  2  0  0  0
 22 24  1  0  0  0
 22 28  1  0  0  0
 24 25  1  0  0  0
 25 26  1  0  0  0
 26 27  1  0  0  0
 26 29  1  0  0  0
 27 28  1  0  0  0
 30 31  1  0  0  0
 31 32  2  0  0  0
 31 33  1  0  0  0
 33 34  4  0  0  0
 33 38  4  0  0  0
 34 35  4  0  0  0
 35 36  4  0  0  0
 36 37  4  0  0  0
 36 39  1  0  0  0
 37 38  4  0  0  0
 39 40  1  0  0  0
  2 41  1  0  0  0
  4 42  1  0  0  0
  5 43  1  0  0  0
  9 44  1  0  0  0
 10 45  1  0  0  0
 12 46  1  0  0  0
 13 47  1  0  0  0
 15 48  1  0  0  0
 18 49  1  0  0  0
 19 50  1  0  0  0
 19 51  1  0  0  0
 19 52  1  0  0  0
 20 53  1  0  0  0
 20 54  1  0  0  0
 20 55  1  0  0  0
 22 56  1  0  0  0
 24 57  1  0  0  0
 24 58  1  0  0  0
 25 59  1  0  0  0
 25 60  1  0  0  0
 26 61  1  0  0  0
 27 62  1  0  0  0
 27 63  1  0  0  0
 28 64  1  0  0  0
 28 65  1  0  0  0
 29 66  1  0  0  0
 29 67  1  0  0  0
 29 68  1  0  0  0
 30 69  1  0  0  0
 34 70  1  0  0  0
 35 71  1  0  0  0
 37 72  1  0  0  0
 38 73  1  0  0  0
 40 74  1  0  0  0
 40 75  1  0  0  0
 40 76  1  0  0  0
M  END
$$$$
