5xag_ligand
  -I-interpret- 

 51 53  0  0  0  0  0  0  0  0999 V2000
   19.7100  -68.3370  -43.3100 C   0  0  0  0  0
   18.9210  -69.3560  -42.7510 O   0  0  0  0  0
   19.1800  -66.9180  -42.7890 C   0  0  0  0  0
   19.0500  -66.8240  -41.2890 C   0  0  0  0  0
   19.6880  -66.8970  -40.2900 O   0  0  0  0  0
   17.3940  -66.4660  -41.6930 N   0  0  0  0  0
   16.1980  -66.1880  -40.9070 C   0  0  0  0  0
   16.3450  -66.0660  -39.5270 C   0  0  0  0  0
   15.2470  -65.8100  -38.7080 C   0  0  0  0  0
   15.4790  -65.7010  -37.3330 O   0  0  0  0  0
   16.6100  -66.4150  -36.9150 C   0  0  0  0  0
   13.9690  -65.6800  -39.2890 C   0  0  0  0  0
   12.7780  -65.4060  -38.5460 O   0  0  0  0  0
   12.6480  -65.9670  -37.2380 C   0  0  0  0  0
   13.8560  -65.8100  -40.6820 C   0  0  0  0  0
   12.6070  -65.6830  -41.3040 O   0  0  0  0  0
   12.7170  -65.9990  -42.6850 C   0  0  0  0  0
   14.9590  -66.0630  -41.4910 C   0  0  0  0  0
   17.8870  -66.7100  -43.0830 C   0  0  0  0  0
   17.6620  -65.5410  -44.0970 C   0  0  0  0  0
   17.8800  -65.8130  -45.4540 C   0  0  0  0  0
   17.6980  -64.8120  -46.4130 C   0  0  0  0  0
   17.9160  -65.0650  -47.7950 O   0  0  0  0  0
   17.2990  -63.5420  -46.0030 C   0  0  0  0  0
   17.1240  -62.5740  -47.0110 O   0  0  0  0  0
   16.7380  -61.2910  -46.5710 C   0  0  0  0  0
   17.0730  -63.2620  -44.6460 C   0  0  0  0  0
   17.2540  -64.2680  -43.6770 C   0  0  0  0  0
   19.6434  -68.3765  -44.3972 H   0  0  0  0  0
   20.7494  -68.4724  -43.0110 H   0  0  0  0  0
   19.2351  -70.2087  -43.0606 H   0  0  0  0  0
   19.9054  -66.2431  -43.2433 H   0  0  0  0  0
   17.3339  -66.1724  -39.0811 H   0  0  0  0  0
   16.4779  -67.4715  -37.1484 H   0  0  0  0  0
   17.4903  -66.0345  -37.4331 H   0  0  0  0  0
   16.7385  -66.2924  -35.8396 H   0  0  0  0  0
   12.6925  -67.0541  -37.3042 H   0  0  0  0  0
   13.4605  -65.6066  -36.6071 H   0  0  0  0  0
   11.6922  -65.6667  -36.8086 H   0  0  0  0  0
   13.4243  -65.3172  -43.1572 H   0  0  0  0  0
   13.0702  -67.0243  -42.7948 H   0  0  0  0  0
   11.7406  -65.8970  -43.1586 H   0  0  0  0  0
   14.8432  -66.1606  -42.5704 H   0  0  0  0  0
   17.3690  -67.5096  -43.6125 H   0  0  0  0  0
   18.1931  -66.8101  -45.7637 H   0  0  0  0  0
   17.7426  -64.2652  -48.2968 H   0  0  0  0  0
   15.7853  -61.3598  -46.0458 H   0  0  0  0  0
   17.4981  -60.8954  -45.8972 H   0  0  0  0  0
   16.6333  -60.6296  -47.4310 H   0  0  0  0  0
   16.7569  -62.2642  -44.3417 H   0  0  0  0  0
   17.0801  -64.0604  -42.6212 H   0  0  0  0  0
  1  2  1  0  0  0
  1  3  1  0  0  0
  3  4  1  0  0  0
  3 19  1  0  0  0
  4  5  2  0  0  0
  4  6  1  0  0  0
  6  7  1  0  0  0
  6 19  1  0  0  0
  7  8  4  0  0  0
  7 18  4  0  0  0
  8  9  4  0  0  0
  9 10  1  0  0  0
  9 12  4  0  0  0
 10 11  1  0  0  0
 12 13  1  0  0  0
 12 15  4  0  0  0
 13 14  1  0  0  0
 15 16  1  0  0  0
 15 18  4  0  0  0
 16 17  1  0  0  0
 19 20  1  0  0  0
 20 21  4  0  0  0
 20 28  4  0  0  0
 21 22  4  0  0  0
 22 23  1  0  0  0
 22 24  4  0  0  0
 24 25  1  0  0  0
 24 27  4  0  0  0
 25 26  1  0  0  0
 27 28  4  0  0  0
  1 29  1  0  0  0
  1 30  1  0  0  0
  2 31  1  0  0  0
  3 32  1  0  0  0
  8 33  1  0  0  0
 11 34  1  0  0  0
 11 35  1  0  0  0
 11 36  1  0  0  0
 14 37  1  0  0  0
 14 38  1  0  0  0
 14 39  1  0  0  0
 17 40  1  0  0  0
 17 41  1  0  0  0
 17 42  1  0  0  0
 18 43  1  0  0  0
 19 44  1  0  0  0
 21 45  1  0  0  0
 23 46  1  0  0  0
 26 47  1  0  0  0
 26 48  1  0  0  0
 26 49  1  0  0  0
 27 50  1  0  0  0
 28 51  1  0  0  0
M  END
$$$$
