1ule_ligand
  -I-interpret- 

 72 74  0  0  0  0  0  0  0  0999 V2000
   38.7030   14.5150   32.4830 C   0  0  0  0  0
   38.3890   15.2860   33.7630 C   0  0  0  0  0
   36.9560   15.8200   33.7120 C   0  0  0  0  0
   36.7560   16.6610   32.4480 C   0  0  0  0  0
   37.1170   15.8290   31.2130 C   0  0  0  0  0
   37.0410   16.6260   29.9210 C   0  0  0  0  0
   38.5340   14.4240   34.8810 O   0  0  0  0  0
   36.7070   16.6140   34.8610 O   0  0  0  0  0
   37.5900   17.8090   32.5110 O   0  0  0  0  0
   38.4700   15.3340   31.3330 O   0  0  0  0  0
   37.2670   15.7930   28.7920 O   0  0  0  0  0
   36.9660   10.8190   29.8670 C   0  0  0  0  0
   36.8270   11.6740   31.1130 C   0  0  0  0  0
   38.0500   12.5720   31.2450 C   0  0  0  0  0
   39.3370   11.7350   31.2400 C   0  0  0  0  0
   39.3600   10.8400   29.9940 C   0  0  0  0  0
   40.5370    9.8950   29.9690 C   0  0  0  0  0
   35.6520   12.4650   31.0020 O   0  0  0  0  0
   37.9560   13.3310   32.4610 O   0  0  0  0  0
   39.4090   10.9370   32.4130 O   0  0  0  0  0
   38.1650   10.0290   29.9350 O   0  0  0  0  0
   40.5700    9.1630   28.7530 O   0  0  0  0  0
   33.9100    7.8150   26.8560 C   0  0  0  0  0
   35.0110    7.0550   27.6000 C   0  0  0  0  0
   35.3300    7.8060   28.8920 C   0  0  0  0  0
   35.7180    9.2480   28.5660 C   0  0  0  0  0
   34.6240    9.9200   27.7190 C   0  0  0  0  0
   34.9730   11.3270   27.2620 C   0  0  0  0  0
   35.0020    4.6910   27.1340 C   0  0  0  0  0
   34.6250    3.2820   27.5760 C   0  0  0  0  0
   34.5790    5.7020   27.8890 N   0  0  0  0  0
   33.6260    7.1670   25.6690 O   0  0  0  0  0
   36.3940    7.1690   29.5860 O   0  0  0  0  0
   35.8840    9.9670   29.7950 O   0  0  0  0  0
   34.3660    9.1390   26.5390 O   0  0  0  0  0
   36.2320   11.3670   26.6050 O   0  0  0  0  0
   35.6760    4.8520   26.1170 O   0  0  0  0  0
   39.7585   14.2439   32.4609 H   0  0  0  0  0
   39.0795   16.1244   33.8551 H   0  0  0  0  0
   36.2602   14.9812   33.6923 H   0  0  0  0  0
   35.7135   16.9715   32.3783 H   0  0  0  0  0
   36.3898   15.0182   31.1694 H   0  0  0  0  0
   37.8084   17.3997   29.9428 H   0  0  0  0  0
   36.0457   17.0627   29.8386 H   0  0  0  0  0
   39.4335   14.0899   34.9115 H   0  0  0  0  0
   36.8338   16.0819   35.6499 H   0  0  0  0  0
   37.3609   18.3275   33.2858 H   0  0  0  0  0
   37.2136   16.3198   27.9912 H   0  0  0  0  0
   37.0111   11.4668   28.9916 H   0  0  0  0  0
   36.7535   11.0401   31.9966 H   0  0  0  0  0
   38.0839   13.2534   30.3949 H   0  0  0  0  0
   40.1978   12.4034   31.2212 H   0  0  0  0  0
   39.4299   11.5195   29.1446 H   0  0  0  0  0
   40.4429    9.1943   30.7986 H   0  0  0  0  0
   41.4556   10.4754   30.0549 H   0  0  0  0  0
   35.5582   13.0086   31.7877 H   0  0  0  0  0
   40.2173   10.4193   32.3974 H   0  0  0  0  0
   41.3246    8.5696   28.7584 H   0  0  0  0  0
   33.0238    7.8611   27.4890 H   0  0  0  0  0
   35.9063    6.9947   26.9812 H   0  0  0  0  0
   34.4448    7.8019   29.5281 H   0  0  0  0  0
   36.6476    9.2534   27.9969 H   0  0  0  0  0
   33.7530    9.9820   28.3714 H   0  0  0  0  0
   35.0222   11.9716   28.1396 H   0  0  0  0  0
   34.2081   11.6607   26.5608 H   0  0  0  0  0
   34.0425    2.7999   26.7909 H   0  0  0  0  0
   35.5316    2.7065   27.7630 H   0  0  0  0  0
   34.0322    3.3354   28.4892 H   0  0  0  0  0
   33.9500    5.5245   28.6721 H   0  0  0  0  0
   32.9355    7.6438   25.2027 H   0  0  0  0  0
   36.5820    7.6520   30.3940 H   0  0  0  0  0
   36.4201   12.2675   26.3307 H   0  0  0  0  0
  1  2  1  0  0  0
  1 10  1  0  0  0
 19  1  1  0  0  0
  2  3  1  0  0  0
  2  7  1  0  0  0
  3  4  1  0  0  0
  3  8  1  0  0  0
  5  4  1  0  0  0
  4  9  1  0  0  0
  5  6  1  0  0  0
 10  5  1  0  0  0
  6 11  1  0  0  0
 12 13  1  0  0  0
 12 21  1  0  0  0
 34 12  1  0  0  0
 13 14  1  0  0  0
 13 18  1  0  0  0
 14 15  1  0  0  0
 14 19  1  0  0  0
 16 15  1  0  0  0
 15 20  1  0  0  0
 16 17  1  0  0  0
 21 16  1  0  0  0
 17 22  1  0  0  0
 24 23  1  0  0  0
 23 32  1  0  0  0
 23 35  1  0  0  0
 24 25  1  0  0  0
 31 24  1  0  0  0
 25 26  1  0  0  0
 25 33  1  0  0  0
 26 27  1  0  0  0
 26 34  1  0  0  0
 27 28  1  0  0  0
 35 27  1  0  0  0
 28 36  1  0  0  0
 29 30  1  0  0  0
 29 31  1  0  0  0
 29 37  2  0  0  0
  1 38  1  0  0  0
  2 39  1  0  0  0
  3 40  1  0  0  0
  4 41  1  0  0  0
  5 42  1  0  0  0
  6 43  1  0  0  0
  6 44  1  0  0  0
  7 45  1  0  0  0
  8 46  1  0  0  0
  9 47  1  0  0  0
 11 48  1  0  0  0
 12 49  1  0  0  0
 13 50  1  0  0  0
 14 51  1  0  0  0
 15 52  1  0  0  0
 16 53  1  0  0  0
 17 54  1  0  0  0
 17 55  1  0  0  0
 18 56  1  0  0  0
 20 57  1  0  0  0
 22 58  1  0  0  0
 23 59  1  0  0  0
 24 60  1  0  0  0
 25 61  1  0  0  0
 26 62  1  0  0  0
 27 63  1  0  0  0
 28 64  1  0  0  0
 28 65  1  0  0  0
 30 66  1  0  0  0
 30 67  1  0  0  0
 30 68  1  0  0  0
 31 69  1  0  0  0
 32 70  1  0  0  0
 33 71  1  0  0  0
 36 72  1  0  0  0
M  END
$$$$
