5t70_ligand
  -I-interpret- 

161162  0  0  0  0  0  0  0  0999 V2000
    2.5670  -13.3050  -12.1460 N   0  3  0  0  0
    2.4760  -11.9330  -12.6460 C   0  0  0  0  0
    1.1810  -11.2450  -12.2270 C   0  0  0  0  0
    0.1100  -11.8500  -12.2340 O   0  0  0  0  0
    2.7790  -11.7730  -14.1540 C   0  0  0  0  0
    1.6490  -12.1190  -14.9560 O   0  0  0  0  0
    3.9970  -12.5140  -14.5890 C   0  0  0  0  0
    1.3110   -9.9690  -11.8760 N   0  0  0  0  0
    0.2350   -9.1030  -11.4150 C   0  0  0  0  0
   -0.7320   -8.8050  -12.5390 C   0  0  0  0  0
   -0.3400   -8.8350  -13.7060 O   0  0  0  0  0
    0.8280   -7.8040  -10.8930 C   0  0  0  0  0
    1.6410   -7.2060  -11.8890 O   0  0  0  0  0
   -1.9950   -8.4880  -12.1780 N   0  0  0  0  0
   -3.0480   -8.1290  -13.1180 C   0  0  0  0  0
   -2.7220   -6.7470  -13.7250 C   0  0  0  0  0
   -2.4000   -5.8190  -12.9830 O   0  0  0  0  0
   -4.3860   -8.0830  -12.3630 C   0  0  0  0  0
   -5.6050   -7.7580  -13.1980 C   0  0  0  0  0
   -5.7240   -8.1360  -14.3650 O   0  0  0  0  0
   -6.5800   -7.1200  -12.5840 N   0  0  0  0  0
   -2.7410   -6.6300  -15.0750 N   0  0  0  0  0
   -2.4870   -5.3540  -15.7700 C   0  0  0  0  0
   -3.5430   -4.3440  -15.2870 C   0  0  0  0  0
   -4.7410   -4.6430  -15.2900 O   0  0  0  0  0
   -2.4950   -5.5160  -17.2980 C   0  0  0  0  0
   -1.3750   -6.4080  -17.8560 C   0  0  0  0  0
   -1.7760   -7.0760  -19.1800 C   0  0  0  0  0
   -0.0290   -5.6750  -17.9370 C   0  0  0  0  0
   -3.0630   -3.2200  -14.7200 N   0  0  0  0  0
   -3.9060   -2.1960  -14.1110 C   0  0  0  0  0
   -4.9580   -1.6520  -15.0740 C   0  0  0  0  0
   -4.6280   -1.2710  -16.1940 O   0  0  0  0  0
   -3.0460   -1.0500  -13.5100 C   0  0  0  0  0
   -3.8430    0.0110  -12.6950 C   0  0  0  0  0
   -4.7240   -0.5900  -11.6040 C   0  0  0  0  0
   -4.2550   -1.2790  -10.6850 O   0  0  0  0  0
   -6.0320   -0.3840  -11.7160 N   0  0  0  0  0
   -6.1900   -1.5820  -14.6120 N   0  0  0  0  0
   -7.2910   -1.0260  -15.3700 C   0  0  0  0  0
   -7.1100    0.4530  -15.4770 C   0  0  0  0  0
   -6.6710    1.1040  -14.5430 O   0  0  0  0  0
   -8.5990   -1.2390  -14.6380 C   0  0  0  0  0
   -9.1250   -2.6360  -14.6580 C   0  0  0  0  0
   -8.6290   -3.4590  -13.4920 C   0  0  0  0  0
   -8.0190   -2.8780  -12.5950 O   0  0  0  0  0
   -8.8400   -4.6920  -13.4830 O   0  0  0  0  0
   -7.4950    1.0020  -16.6080 N   0  0  0  0  0
   -7.4240    2.4260  -16.7440 C   0  0  0  0  0
   -8.4000    3.0620  -15.7410 C   0  0  0  0  0
   -8.3520    4.2490  -15.4540 O   0  0  0  0  0
   -7.7030    2.8120  -18.1850 C   0  0  0  0  0
   -6.4450    2.9880  -18.9710 C   0  0  0  0  0
   -6.5470    2.5340  -20.4080 C   0  0  0  0  0
   -6.4420    3.3440  -21.3280 O   0  0  0  0  0
   -6.7270    1.2370  -20.6150 N   0  0  0  0  0
   -9.2550    2.2330  -15.1780 N   0  0  0  0  0
  -10.3280    2.6930  -14.3330 C   0  0  0  0  0
  -10.1910    2.3650  -12.8400 C   0  0  0  0  0
   -9.8060    1.2860  -12.4370 O   0  0  0  0  0
  -11.6350    2.1630  -14.8930 C   0  0  0  0  0
  -12.5530    1.6350  -13.7830 C   0  0  0  0  0
  -11.3210    1.1100  -15.9580 C   0  0  0  0  0
  -13.3330    2.6850  -13.1200 C   0  0  0  0  0
  -10.5250    3.3450  -12.0340 N   0  0  0  0  0
  -10.4020    3.2570  -10.5890 C   0  0  0  0  0
  -11.7380    3.2070   -9.8730 C   0  0  0  0  0
  -12.7250    2.7160  -10.4150 O   0  0  0  0  0
  -11.7690    3.7000   -8.6450 N   0  0  0  0  0
  -12.9540    3.6670   -7.7880 C   0  0  0  0  0
  -14.0390    4.6740   -8.2070 C   0  0  0  0  0
  -15.2200    4.5030   -7.8000 O   0  0  0  0  0
  -12.5480    3.8260   -6.3170 C   0  0  0  0  0
  -11.9620    2.5920   -5.6690 C   0  0  0  0  0
  -11.3760    1.5250   -6.2930 C   0  0  0  0  0
  -11.8830    2.3230   -4.2530 C   0  0  0  0  0
  -10.9440    0.6060   -5.3550 N   0  0  0  0  0
  -11.2660    1.0590   -4.0990 C   0  0  0  0  0
  -12.2680    3.0340   -3.0990 C   0  0  0  0  0
  -11.0480    0.4790   -2.8430 C   0  0  0  0  0
  -12.0920    2.4390   -1.8550 C   0  0  0  0  0
  -11.4930    1.1720   -1.7340 C   0  0  0  0  0
  -13.7000    5.6240   -8.9440 O   0  0  0  0  0
    2.3530  -13.3171  -11.1488 H   0  0  0  0  0
    1.8993  -13.8926  -12.6454 H   0  0  0  0  0
    3.5119  -13.6585  -12.2965 H   0  0  0  0  0
    3.2910  -11.4046  -12.1514 H   0  0  0  0  0
    2.9924  -10.7151  -14.3068 H   0  0  0  0  0
    0.8813  -11.6281  -14.6540 H   0  0  0  0  0
    3.8206  -13.5858  -14.4978 H   0  0  0  0  0
    4.2188  -12.2680  -15.6275 H   0  0  0  0  0
    4.8391  -12.2282  -13.9587 H   0  0  0  0  0
    2.2444   -9.5620  -11.9347 H   0  0  0  0  0
   -0.3092   -9.6106  -10.6186 H   0  0  0  0  0
    1.4363   -8.0158  -10.0137 H   0  0  0  0  0
    0.0198   -7.1206  -10.6324 H   0  0  0  0  0
    2.0103   -6.3873  -11.5500 H   0  0  0  0  0
   -2.2255   -8.5010  -11.1845 H   0  0  0  0  0
   -3.1167   -8.8622  -13.9216 H   0  0  0  0  0
   -4.2960   -7.2839  -11.6272 H   0  0  0  0  0
   -4.5466   -9.0837  -11.9618 H   0  0  0  0  0
   -7.4538   -6.9303  -13.0747 H   0  0  0  0  0
   -6.4612   -6.8156  -11.6178 H   0  0  0  0  0
   -2.9394   -7.4596  -15.6343 H   0  0  0  0  0
   -1.4883   -4.9906  -15.5278 H   0  0  0  0  0
   -2.3503   -4.5227  -17.7228 H   0  0  0  0  0
   -3.4398   -5.9916  -17.5613 H   0  0  0  0  0
   -1.2285   -7.2169  -17.1402 H   0  0  0  0  0
   -2.6578   -7.6964  -19.0200 H   0  0  0  0  0
   -2.0001   -6.3076  -19.9199 H   0  0  0  0  0
   -0.9536   -7.6963  -19.5362 H   0  0  0  0  0
   -0.1274   -4.8085  -18.5909 H   0  0  0  0  0
    0.2656   -5.3478  -16.9399 H   0  0  0  0  0
    0.7273   -6.3500  -18.3375 H   0  0  0  0  0
   -2.0531   -3.0766  -14.7161 H   0  0  0  0  0
   -4.4491   -2.6782  -13.2982 H   0  0  0  0  0
   -2.5895   -0.5251  -14.3492 H   0  0  0  0  0
   -2.3413   -1.5136  -12.8196 H   0  0  0  0  0
   -4.4979    0.5335  -13.3923 H   0  0  0  0  0
   -3.1165    0.6605  -12.2067 H   0  0  0  0  0
   -6.6731   -0.7960  -11.0380 H   0  0  0  0  0
   -6.3949    0.1861  -12.4800 H   0  0  0  0  0
   -6.3772   -1.9370  -13.6743 H   0  0  0  0  0
   -7.3095   -1.5114  -16.3458 H   0  0  0  0  0
   -9.3415   -0.6200  -15.1417 H   0  0  0  0  0
   -8.4142   -0.9913  -13.5927 H   0  0  0  0  0
   -8.7798   -3.1118  -15.5759 H   0  0  0  0  0
  -10.2121   -2.5865  -14.5959 H   0  0  0  0  0
   -9.3297   -4.9375  -14.2714 H   0  0  0  0  0
   -7.8382    0.4239  -17.3751 H   0  0  0  0  0
   -6.4270    2.8005  -16.5120 H   0  0  0  0  0
   -8.2408    3.7601  -18.1858 H   0  0  0  0  0
   -8.2836    2.0127  -18.6456 H   0  0  0  0  0
   -5.6784    2.3776  -18.4936 H   0  0  0  0  0
   -6.2200    4.0544  -18.9849 H   0  0  0  0  0
   -6.7835    0.8755  -21.5671 H   0  0  0  0  0
   -6.8090    0.6006  -19.8221 H   0  0  0  0  0
   -9.1542    1.2319  -15.3457 H   0  0  0  0  0
  -10.2941    3.7823  -14.3545 H   0  0  0  0  0
  -12.1907    2.9739  -15.3638 H   0  0  0  0  0
  -11.9195    1.1708  -13.0271 H   0  0  0  0  0
  -13.2590    0.9436  -14.2430 H   0  0  0  0  0
  -10.7334    1.5653  -16.7552 H   0  0  0  0  0
  -10.7538    0.2961  -15.5063 H   0  0  0  0  0
  -12.2529    0.7211  -16.3685 H   0  0  0  0  0
  -12.6550    3.4083  -12.6670 H   0  0  0  0  0
  -13.9632    3.1863  -13.8546 H   0  0  0  0  0
  -13.9586    2.2381  -12.3473 H   0  0  0  0  0
  -10.8874    4.2076  -12.4402 H   0  0  0  0  0
   -9.8799    4.1512  -10.2485 H   0  0  0  0  0
   -9.8716    2.3327  -10.3600 H   0  0  0  0  0
  -10.9193    4.1267   -8.2757 H   0  0  0  0  0
  -13.4171    2.6884   -7.9140 H   0  0  0  0  0
  -15.2571    3.7171   -7.2499 H   0  0  0  0  0
  -13.4584    4.0640   -5.7668 H   0  0  0  0  0
  -11.7716    4.5906   -6.2893 H   0  0  0  0  0
  -11.2658    1.4154   -7.3719 H   0  0  0  0  0
  -12.6963    4.0330   -3.1803 H   0  0  0  0  0
  -10.5459   -0.4834   -2.7442 H   0  0  0  0  0
  -12.4236    2.9629   -0.9585 H   0  0  0  0  0
  -11.3777    0.7281   -0.7452 H   0  0  0  0  0
  1  2  1  0  0  0
  2  3  1  0  0  0
  2  5  1  0  0  0
  3  4  2  0  0  0
  3  8  1  0  0  0
  5  6  1  0  0  0
  5  7  1  0  0  0
  8  9  1  0  0  0
  9 10  1  0  0  0
  9 12  1  0  0  0
 10 11  2  0  0  0
 10 14  1  0  0  0
 12 13  1  0  0  0
 14 15  1  0  0  0
 15 16  1  0  0  0
 15 18  1  0  0  0
 16 17  2  0  0  0
 16 22  1  0  0  0
 18 19  1  0  0  0
 19 20  2  0  0  0
 19 21  1  0  0  0
 22 23  1  0  0  0
 23 24  1  0  0  0
 23 26  1  0  0  0
 24 25  2  0  0  0
 24 30  1  0  0  0
 26 27  1  0  0  0
 27 28  1  0  0  0
 27 29  1  0  0  0
 30 31  1  0  0  0
 31 32  1  0  0  0
 31 34  1  0  0  0
 32 33  2  0  0  0
 32 39  1  0  0  0
 34 35  1  0  0  0
 35 36  1  0  0  0
 36 37  2  0  0  0
 36 38  1  0  0  0
 39 40  1  0  0  0
 40 41  1  0  0  0
 40 43  1  0  0  0
 41 42  2  0  0  0
 41 48  1  0  0  0
 43 44  1  0  0  0
 44 45  1  0  0  0
 45 46  2  0  0  0
 45 47  1  0  0  0
 48 49  1  0  0  0
 49 50  1  0  0  0
 49 52  1  0  0  0
 50 51  2  0  0  0
 50 57  1  0  0  0
 52 53  1  0  0  0
 53 54  1  0  0  0
 54 55  2  0  0  0
 54 56  1  0  0  0
 57 58  1  0  0  0
 58 59  1  0  0  0
 58 61  1  0  0  0
 59 60  2  0  0  0
 59 65  1  0  0  0
 61 62  1  0  0  0
 61 63  1  0  0  0
 62 64  1  0  0  0
 65 66  1  0  0  0
 66 67  1  0  0  0
 67 68  2  0  0  0
 67 69  1  0  0  0
 69 70  1  0  0  0
 70 71  1  0  0  0
 70 73  1  0  0  0
 71 72  1  0  0  0
 71 83  2  0  0  0
 73 74  1  0  0  0
 74 75  4  0  0  0
 74 76  4  0  0  0
 75 77  4  0  0  0
 76 78  4  0  0  0
 76 79  4  0  0  0
 77 78  4  0  0  0
 78 80  4  0  0  0
 79 81  4  0  0  0
 80 82  4  0  0  0
 81 82  4  0  0  0
  1 84  1  0  0  0
  1 85  1  0  0  0
  1 86  1  0  0  0
  2 87  1  0  0  0
  5 88  1  0  0  0
  6 89  1  0  0  0
  7 90  1  0  0  0
  7 91  1  0  0  0
  7 92  1  0  0  0
  8 93  1  0  0  0
  9 94  1  0  0  0
 12 95  1  0  0  0
 12 96  1  0  0  0
 13 97  1  0  0  0
 14 98  1  0  0  0
 15 99  1  0  0  0
 18100  1  0  0  0
 18101  1  0  0  0
 21102  1  0  0  0
 21103  1  0  0  0
 22104  1  0  0  0
 23105  1  0  0  0
 26106  1  0  0  0
 26107  1  0  0  0
 27108  1  0  0  0
 28109  1  0  0  0
 28110  1  0  0  0
 28111  1  0  0  0
 29112  1  0  0  0
 29113  1  0  0  0
 29114  1  0  0  0
 30115  1  0  0  0
 31116  1  0  0  0
 34117  1  0  0  0
 34118  1  0  0  0
 35119  1  0  0  0
 35120  1  0  0  0
 38121  1  0  0  0
 38122  1  0  0  0
 39123  1  0  0  0
 40124  1  0  0  0
 43125  1  0  0  0
 43126  1  0  0  0
 44127  1  0  0  0
 44128  1  0  0  0
 47129  1  0  0  0
 48130  1  0  0  0
 49131  1  0  0  0
 52132  1  0  0  0
 52133  1  0  0  0
 53134  1  0  0  0
 53135  1  0  0  0
 56136  1  0  0  0
 56137  1  0  0  0
 57138  1  0  0  0
 58139  1  0  0  0
 61140  1  0  0  0
 62141  1  0  0  0
 62142  1  0  0  0
 63143  1  0  0  0
 63144  1  0  0  0
 63145  1  0  0  0
 64146  1  0  0  0
 64147  1  0  0  0
 64148  1  0  0  0
 65149  1  0  0  0
 66150  1  0  0  0
 66151  1  0  0  0
 69152  1  0  0  0
 70153  1  0  0  0
 72154  1  0  0  0
 73155  1  0  0  0
 73156  1  0  0  0
 75157  1  0  0  0
 79158  1  0  0  0
 80159  1  0  0  0
 81160  1  0  0  0
 82161  1  0  0  0
M  END
$$$$
