### 
### Created by X-TOOL on Mon Sep 10 21:13:31 2018
### 

@<TRIPOS>MOLECULE
5t70_ligand
  160   161     1     0     0
SMALL
GAST_HUCK


@<TRIPOS>ATOM
      1 N           2.5670  -13.3050  -12.1460 N.4       1 THR         0.2398
      2 CA          2.4760  -11.9330  -12.6460 C.3       1 THR         0.0910
      3 C           1.1810  -11.2450  -12.2270 C.2       1 THR         0.2293
      4 O           0.1100  -11.8500  -12.2340 O.2       1 THR        -0.3906
      5 CB          2.7790  -11.7730  -14.1540 C.3       1 THR         0.1120
      6 OG1         1.6490  -12.1190  -14.9560 O.3       1 THR        -0.3840
      7 CG2         3.9970  -12.5140  -14.5890 C.3       1 THR        -0.0314
      8 N           1.3110   -9.9690  -11.8760 N.am      1 SER        -0.2588
      9 CA          0.2350   -9.1030  -11.4150 C.3       1 SER         0.1540
     10 C          -0.7320   -8.8050  -12.5390 C.2       1 SER         0.2063
     11 O          -0.3400   -8.8350  -13.7060 O.2       1 SER        -0.3943
     12 CB          0.8280   -7.8040  -10.8930 C.3       1 SER         0.0843
     13 OG          1.6410   -7.2060  -11.8890 O.3       1 SER        -0.3903
     14 N          -1.9950   -8.4880  -12.1780 N.am      1 ASN        -0.2615
     15 CA         -3.0480   -8.1290  -13.1180 C.3       1 ASN         0.1476
     16 C          -2.7220   -6.7470  -13.7250 C.2       1 ASN         0.2063
     17 O          -2.4000   -5.8190  -12.9830 O.2       1 ASN        -0.3942
     18 CB         -4.3860   -8.0830  -12.3630 C.3       1 ASN         0.0773
     19 CG         -5.6050   -7.7580  -13.1980 C.2       1 ASN         0.1780
     20 OD1        -5.7240   -8.1360  -14.3650 O.2       1 ASN        -0.3970
     21 ND2        -6.5800   -7.1200  -12.5840 N.am      1 ASN        -0.3007
     22 N          -2.7410   -6.6300  -15.0750 N.am      1 LEU        -0.2636
     23 CA         -2.4870   -5.3540  -15.7700 C.3       1 LEU         0.1312
     24 C          -3.5430   -4.3440  -15.2870 C.2       1 LEU         0.2039
     25 O          -4.7410   -4.6430  -15.2900 O.2       1 LEU        -0.3944
     26 CB         -2.4950   -5.5160  -17.2980 C.3       1 LEU        -0.0101
     27 CG         -1.3750   -6.4080  -17.8560 C.3       1 LEU        -0.0425
     28 CD1        -1.7760   -7.0760  -19.1800 C.3       1 LEU        -0.0625
     29 CD2        -0.0290   -5.6750  -17.9370 C.3       1 LEU        -0.0625
     30 N          -3.0630   -3.2200  -14.7200 N.am      1 GLN        -0.2636
     31 CA         -3.9060   -2.1960  -14.1110 C.3       1 GLN         0.1330
     32 C          -4.9580   -1.6520  -15.0740 C.2       1 GLN         0.2040
     33 O          -4.6280   -1.2710  -16.1940 O.2       1 GLN        -0.3944
     34 CB         -3.0460   -1.0500  -13.5100 C.3       1 GLN         0.0045
     35 CG         -3.8430    0.0110  -12.6950 C.3       1 GLN         0.0412
     36 CD         -4.7240   -0.5900  -11.6040 C.2       1 GLN         0.1737
     37 OE1        -4.2550   -1.2790  -10.6850 O.2       1 GLN        -0.3973
     38 NE2        -6.0320   -0.3840  -11.7160 N.am      1 GLN        -0.3009
     39 N          -6.1900   -1.5820  -14.6120 N.am      1 GLU        -0.2636
     40 CA         -7.2910   -1.0260  -15.3700 C.3       1 GLU         0.1325
     41 C          -7.1100    0.4530  -15.4770 C.2       1 GLU         0.2040
     42 O          -6.6710    1.1040  -14.5430 O.2       1 GLU        -0.3944
     43 CB         -8.5990   -1.2390  -14.6380 C.3       1 GLU        -0.0008
     44 CG         -9.1250   -2.6360  -14.6580 C.3       1 GLU         0.0044
     45 CD         -8.6290   -3.4590  -13.4920 C.2       1 GLU         0.0350
     46 OE1        -8.0190   -2.8780  -12.5950 O.co2     1 GLU        -0.5690
     47 OE2        -8.8400   -4.6920  -13.4830 O.co2     1 GLU        -0.5690
     48 N          -7.4950    1.0020  -16.6080 N.am      1 GLN        -0.2636
     49 CA         -7.4240    2.4260  -16.7440 C.3       1 GLN         0.1330
     50 C          -8.4000    3.0620  -15.7410 C.2       1 GLN         0.2041
     51 O          -8.3520    4.2490  -15.4540 O.2       1 GLN        -0.3944
     52 CB         -7.7030    2.8120  -18.1850 C.3       1 GLN         0.0045
     53 CG         -6.4450    2.9880  -18.9710 C.3       1 GLN         0.0412
     54 CD         -6.5470    2.5340  -20.4080 C.2       1 GLN         0.1737
     55 OE1        -6.4420    3.3440  -21.3280 O.2       1 GLN        -0.3973
     56 NE2        -6.7270    1.2370  -20.6150 N.am      1 GLN        -0.3009
     57 N          -9.2550    2.2330  -15.1780 N.am      1 ILE        -0.2635
     58 CA        -10.3280    2.6930  -14.3330 C.3       1 ILE         0.1335
     59 C         -10.1910    2.3650  -12.8400 C.2       1 ILE         0.2040
     60 O          -9.8060    1.2860  -12.4370 O.2       1 ILE        -0.3944
     61 CB        -11.6350    2.1630  -14.8930 C.3       1 ILE        -0.0037
     62 CG1       -12.5530    1.6350  -13.7830 C.3       1 ILE        -0.0491
     63 CG2       -11.3210    1.1100  -15.9580 C.3       1 ILE        -0.0582
     64 CD1       -13.3330    2.6850  -13.1200 C.3       1 ILE        -0.0648
     65 N         -10.5250    3.3450  -12.0340 N.am      1 GLY        -0.2664
     66 CA        -10.4020    3.2570  -10.5890 C.3       1 GLY         0.1201
     67 C         -11.7380    3.2070   -9.8730 C.2       1 GLY         0.2003
     68 O         -12.7250    2.7160  -10.4150 O.2       1 GLY        -0.3947
     69 N         -11.7690    3.7000   -8.6450 N.am      1 TRP        -0.2687
     70 CA        -12.9540    3.6670   -7.7880 C.3       1 TRP         0.0986
     71 C         -14.0390    4.6740   -8.2070 C.2       1 TRP         0.0613
     72 O         -15.2200    4.5030   -7.8000 O.co2     1 TRP        -0.5665
     73 CB        -12.5480    3.8260   -6.3170 C.3       1 TRP        -0.0013
     74 CG        -11.9620    2.5920   -5.6690 C.2       1 TRP        -0.0424
     75 CD1       -11.3760    1.5250   -6.2930 C.2       1 TRP         0.0166
     76 CD2       -11.8830    2.3230   -4.2530 C.ar      1 TRP        -0.0214
     77 NE1       -10.9440    0.6060   -5.3550 N.pl3     1 TRP        -0.2891
     78 CE2       -11.2660    1.0590   -4.0990 C.ar      1 TRP         0.0603
     79 CE3       -12.2680    3.0340   -3.0990 C.ar      1 TRP        -0.0747
     80 CZ2       -11.0480    0.4790   -2.8430 C.ar      1 TRP        -0.0443
     81 CZ3       -12.0920    2.4390   -1.8550 C.ar      1 TRP        -0.0792
     82 CH2       -11.4930    1.1720   -1.7340 C.ar      1 TRP        -0.0768
     83 OXT       -13.7000    5.6240   -8.9440 O.co2     1 TRP        -0.5665
     84 H1          2.3557  -13.3181  -11.1605 H         1 THR         0.2016
     85 H2          3.5004  -13.6554  -12.2942 H         1 THR         0.2016
     86 H3          1.9075  -13.8867  -12.6388 H         1 THR         0.2016
     87 H4          3.2801  -11.3856  -12.1325 H         1 THR         0.1125
     88 H5          2.9804  -10.7050  -14.3240 H         1 THR         0.0674
     89 H6          1.8683  -12.0100  -15.8739 H         1 THR         0.2102
     90 H7          4.1551  -12.3590  -15.6665 H         1 THR         0.0258
     91 H8          3.8643  -13.5874  -14.3886 H         1 THR         0.0258
     92 H9          4.8704  -12.1424  -14.0331 H         1 THR         0.0258
     93 H10         2.2261   -9.5700  -11.9336 H         1 SER         0.1885
     94 H11        -0.3074   -9.6068  -10.6014 H         1 SER         0.0823
     95 H12         1.4387   -8.0145  -10.0026 H         1 SER         0.0606
     96 H13         0.0143   -7.1142  -10.6248 H         1 SER         0.0606
     97 H14         2.3450   -7.8004  -12.1204 H         1 SER         0.2097
     98 H15        -2.2209   -8.5007  -11.2039 H         1 ASN         0.1885
     99 H16        -3.1044   -8.8788  -13.9208 H         1 ASN         0.0826
    100 H17        -4.3030   -7.3188  -11.5762 H         1 ASN         0.0551
    101 H18        -4.5466   -9.0685  -11.9015 H         1 ASN         0.0551
    102 H19        -7.4116   -6.8777  -13.0838 H         1 ASN         0.1814
    103 H20        -6.4887   -6.8779  -11.6180 H         1 ASN         0.1814
    104 H21        -2.9355   -7.4433  -15.6233 H         1 LEU         0.1883
    105 H22        -1.4919   -4.9874  -15.4780 H         1 LEU         0.0800
    106 H23        -2.3943   -4.5177  -17.7488 H         1 LEU         0.0315
    107 H24        -3.4602   -5.9549  -17.5908 H         1 LEU         0.0315
    108 H25        -1.2368   -7.2226  -17.1299 H         1 LEU         0.0298
    109 H26        -0.9467   -7.7024  -19.5405 H         1 LEU         0.0232
    110 H27        -2.0024   -6.3016  -19.9276 H         1 LEU         0.0232
    111 H28        -2.6659   -7.7025  -19.0199 H         1 LEU         0.0232
    112 H29         0.2002   -5.2204  -16.9619 H         1 LEU         0.0232
    113 H30        -0.0853   -4.8886  -18.7040 H         1 LEU         0.0232
    114 H31         0.7629   -6.3907  -18.2030 H         1 LEU         0.0232
    115 H32        -2.0729   -3.0794  -14.7162 H         1 GLN         0.1883
    116 H33        -4.4453   -2.6731  -13.2794 H         1 GLN         0.0801
    117 H34        -2.5383   -0.5337  -14.3380 H         1 GLN         0.0337
    118 H35        -2.2956   -1.4998  -12.8432 H         1 GLN         0.0337
    119 H36        -4.4848    0.5725  -13.3898 H         1 GLN         0.0504
    120 H37        -3.1250    0.6976  -12.2228 H         1 GLN         0.0504
    121 H38        -6.6572   -0.7550  -11.0293 H         1 GLN         0.1814
    122 H39        -6.3911    0.1420  -12.4870 H         1 GLN         0.1814
    123 H40        -6.3735   -1.9300  -13.6926 H         1 GLU         0.1883
    124 H41        -7.3293   -1.4874  -16.3678 H         1 GLU         0.0801
    125 H42        -9.3551   -0.5853  -15.0974 H         1 GLU         0.0330
    126 H43        -8.4513   -0.9472  -13.5877 H         1 GLU         0.0330
    127 H44        -8.8049   -3.1199  -15.5925 H         1 GLU         0.0433
    128 H45       -10.2238   -2.5996  -14.6216 H         1 GLU         0.0433
    129 H46        -7.8315    0.4352  -17.3600 H         1 GLN         0.1883
    130 H47        -6.4064    2.7598  -16.4929 H         1 GLN         0.0801
    131 H48        -8.2644    3.7579  -18.1969 H         1 GLN         0.0337
    132 H49        -8.3069    2.0212  -18.6539 H         1 GLN         0.0337
    133 H50        -5.6480    2.4090  -18.4816 H         1 GLN         0.0504
    134 H51        -6.1798    4.0555  -18.9641 H         1 GLN         0.0504
    135 H52        -6.8009    0.8851  -21.5481 H         1 GLN         0.1814
    136 H53        -6.7889    0.6105  -19.8380 H         1 GLN         0.1814
    137 H54        -9.1562    1.2516  -15.3425 H         1 ILE         0.1883
    138 H55       -10.3482    3.7902  -14.4091 H         1 ILE         0.0803
    139 H56       -12.1602    2.9952  -15.3846 H         1 ILE         0.0345
    140 H57       -11.9317    1.1329  -13.0268 H         1 ILE         0.0267
    141 H58       -13.2514    0.9090  -14.2247 H         1 ILE         0.0267
    142 H59       -10.6620    1.5471  -16.7226 H         1 ILE         0.0235
    143 H60       -12.2567    0.7744  -16.4289 H         1 ILE         0.0235
    144 H61       -10.8185    0.2517  -15.4881 H         1 ILE         0.0235
    145 H62       -13.9648    2.2352  -12.3399 H         1 ILE         0.0230
    146 H63       -13.9695    3.1917  -13.8603 H         1 ILE         0.0230
    147 H64       -12.6499    3.4157  -12.6624 H         1 ILE         0.0230
    148 H65       -10.8803    4.1907  -12.4323 H         1 GLY         0.1881
    149 H66        -9.8478    4.1375  -10.2319 H         1 GLY         0.0763
    150 H67        -9.8396    2.3446  -10.3418 H         1 GLY         0.0763
    151 H68       -10.9360    4.1183   -8.2830 H         1 TRP         0.1876
    152 H69       -13.3985    2.6665   -7.8949 H         1 TRP         0.0741
    153 H70       -13.4432    4.1158   -5.7473 H         1 TRP         0.0390
    154 H71       -11.7989    4.6292   -6.2566 H         1 TRP         0.0390
    155 H72       -11.2659    1.4155   -7.3709 H         1 TRP         0.0795
    156 H73       -10.4581   -0.2777   -5.5646 H         1 TRP         0.2216
    157 H74       -12.6940    4.0275   -3.1798 H         1 TRP         0.0540
    158 H75       -10.5486   -0.4781   -2.7448 H         1 TRP         0.0541
    159 H76       -12.4218    2.9600   -0.9635 H         1 TRP         0.0510
    160 H77       -11.3783    0.7305   -0.7506 H         1 TRP         0.0530
@<TRIPOS>BOND
     1    1    2 1  
     2    2    3 1  
     3    2    5 1  
     4    3    4 2  
     5    3    8 am 
     6    5    6 1  
     7    5    7 1  
     8    8    9 1  
     9    9   10 1  
    10    9   12 1  
    11   10   11 2  
    12   10   14 am 
    13   12   13 1  
    14   14   15 1  
    15   15   16 1  
    16   15   18 1  
    17   16   17 2  
    18   16   22 am 
    19   18   19 1  
    20   19   20 2  
    21   19   21 am 
    22   22   23 1  
    23   23   24 1  
    24   23   26 1  
    25   24   25 2  
    26   24   30 am 
    27   26   27 1  
    28   27   28 1  
    29   27   29 1  
    30   30   31 1  
    31   31   32 1  
    32   31   34 1  
    33   32   33 2  
    34   32   39 am 
    35   34   35 1  
    36   35   36 1  
    37   36   37 2  
    38   36   38 am 
    39   39   40 1  
    40   40   41 1  
    41   40   43 1  
    42   41   42 2  
    43   41   48 am 
    44   43   44 1  
    45   44   45 1  
    46   45   46 ar 
    47   45   47 ar 
    48   48   49 1  
    49   49   50 1  
    50   49   52 1  
    51   50   51 2  
    52   50   57 am 
    53   52   53 1  
    54   53   54 1  
    55   54   55 2  
    56   54   56 am 
    57   57   58 1  
    58   58   59 1  
    59   58   61 1  
    60   59   60 2  
    61   59   65 am 
    62   61   62 1  
    63   61   63 1  
    64   62   64 1  
    65   65   66 1  
    66   66   67 1  
    67   67   68 2  
    68   67   69 am 
    69   69   70 1  
    70   70   71 1  
    71   70   73 1  
    72   71   72 ar 
    73   71   83 ar 
    74   73   74 1  
    75   74   75 2  
    76   74   76 1  
    77   75   77 1  
    78   76   78 ar 
    79   76   79 ar 
    80   77   78 1  
    81   78   80 ar 
    82   79   81 ar 
    83   80   82 ar 
    84   81   82 ar 
    85    1   84 1  
    86    1   85 1  
    87    1   86 1  
    88    2   87 1  
    89    5   88 1  
    90    6   89 1  
    91    7   90 1  
    92    7   91 1  
    93    7   92 1  
    94    8   93 1  
    95    9   94 1  
    96   12   95 1  
    97   12   96 1  
    98   13   97 1  
    99   14   98 1  
   100   15   99 1  
   101   18  100 1  
   102   18  101 1  
   103   21  102 1  
   104   21  103 1  
   105   22  104 1  
   106   23  105 1  
   107   26  106 1  
   108   26  107 1  
   109   27  108 1  
   110   28  109 1  
   111   28  110 1  
   112   28  111 1  
   113   29  112 1  
   114   29  113 1  
   115   29  114 1  
   116   30  115 1  
   117   31  116 1  
   118   34  117 1  
   119   34  118 1  
   120   35  119 1  
   121   35  120 1  
   122   38  121 1  
   123   38  122 1  
   124   39  123 1  
   125   40  124 1  
   126   43  125 1  
   127   43  126 1  
   128   44  127 1  
   129   44  128 1  
   130   48  129 1  
   131   49  130 1  
   132   52  131 1  
   133   52  132 1  
   134   53  133 1  
   135   53  134 1  
   136   56  135 1  
   137   56  136 1  
   138   57  137 1  
   139   58  138 1  
   140   61  139 1  
   141   62  140 1  
   142   62  141 1  
   143   63  142 1  
   144   63  143 1  
   145   63  144 1  
   146   64  145 1  
   147   64  146 1  
   148   64  147 1  
   149   65  148 1  
   150   66  149 1  
   151   66  150 1  
   152   69  151 1  
   153   70  152 1  
   154   73  153 1  
   155   73  154 1  
   156   75  155 1  
   157   77  156 1  
   158   79  157 1  
   159   80  158 1  
   160   81  159 1  
   161   82  160 1  
@<TRIPOS>SUBSTRUCTURE
     1 THR         1

