4at5_ligand
  -I-interpret- 

 49 51  0  0  0  0  0  0  0  0999 V2000
   -9.2660   27.1160  -13.5870 N   0  0  0  0  0
   -8.7370   27.1420  -15.9480 C   0  0  0  0  0
   -9.4160   27.6670  -14.8070 C   0  0  0  0  0
   -7.9340   26.0530  -15.7100 C   0  0  0  0  0
   -8.4470   26.0470  -13.4930 C   0  0  0  0  0
   -7.7640   25.4820  -14.5130 N   0  0  0  0  0
   -8.8860   27.7420  -17.3330 C   0  0  0  0  0
  -10.3170   27.9800  -17.7750 C   0  0  0  0  0
  -12.0360   29.4680  -18.5870 C   0  0  0  0  0
  -10.7350   29.2380  -18.1820 C   0  0  0  0  0
  -12.9450   28.4260  -18.5890 C   0  0  0  0  0
  -11.2350   26.9370  -17.7780 C   0  0  0  0  0
  -12.5380   27.1480  -18.1800 C   0  0  0  0  0
  -13.5060   26.1830  -18.2150 O   0  0  0  0  0
  -13.1420   24.8680  -17.8090 C   0  0  0  0  0
  -14.2540   28.5460  -18.9700 O   0  0  0  0  0
  -14.7340   29.8590  -19.2850 C   0  0  0  0  0
  -16.2290   29.8190  -19.3970 C   0  0  0  0  0
  -18.2210   29.3830  -20.6830 C   0  0  0  0  0
  -16.8440   29.4230  -20.5740 C   0  0  0  0  0
  -19.0050   29.7420  -19.6030 C   0  0  0  0  0
  -17.0320   30.1760  -18.3250 C   0  0  0  0  0
  -18.4100   30.1400  -18.4210 C   0  0  0  0  0
  -20.3690   29.7050  -19.7040 O   0  0  0  0  0
  -20.9270   29.2870  -20.9460 C   0  0  0  0  0
  -10.2270   28.7230  -14.8930 N   0  0  0  0  0
   -8.3010   25.5040  -12.2830 N   0  0  0  0  0
   -7.3977   25.6243  -16.5566 H   0  0  0  0  0
   -8.4536   27.0283  -18.0343 H   0  0  0  0  0
   -8.3969   28.7158  -17.3094 H   0  0  0  0  0
  -12.3438   30.4648  -18.9030 H   0  0  0  0  0
  -10.0224   30.0628  -18.1825 H   0  0  0  0  0
  -10.9228   25.9424  -17.4597 H   0  0  0  0  0
  -12.3439   24.4982  -18.4527 H   0  0  0  0  0
  -12.7959   24.8909  -16.7757 H   0  0  0  0  0
  -14.0085   24.2115  -17.8889 H   0  0  0  0  0
  -14.3035   30.1907  -20.2299 H   0  0  0  0  0
  -14.4430   30.5551  -18.4983 H   0  0  0  0  0
  -18.6870   29.0695  -21.6172 H   0  0  0  0  0
  -16.2308   29.1380  -21.4289 H   0  0  0  0  0
  -16.5684   30.4906  -17.3900 H   0  0  0  0  0
  -19.0254   30.4245  -17.5675 H   0  0  0  0  0
  -20.5978   29.9618  -21.7362 H   0  0  0  0  0
  -20.5940   28.2735  -21.1697 H   0  0  0  0  0
  -22.0148   29.3069  -20.8792 H   0  0  0  0  0
  -10.6973   29.0742  -14.0588 H   0  0  0  0  0
  -10.3767   29.1791  -15.7930 H   0  0  0  0  0
   -8.7970   25.8985  -11.4838 H   0  0  0  0  0
   -7.6934   24.6944  -12.1572 H   0  0  0  0  0
  1  3  4  0  0  0
  1  5  4  0  0  0
  3  2  4  0  0  0
  2  4  4  0  0  0
  2  7  1  0  0  0
  3 26  1  0  0  0
  4  6  4  0  0  0
  5  6  4  0  0  0
  5 27  1  0  0  0
  7  8  1  0  0  0
  8 10  4  0  0  0
  8 12  4  0  0  0
 10  9  4  0  0  0
  9 11  4  0  0  0
 11 13  4  0  0  0
 11 16  1  0  0  0
 12 13  4  0  0  0
 13 14  1  0  0  0
 14 15  1  0  0  0
 16 17  1  0  0  0
 17 18  1  0  0  0
 18 20  4  0  0  0
 18 22  4  0  0  0
 20 19  4  0  0  0
 19 21  4  0  0  0
 21 23  4  0  0  0
 21 24  1  0  0  0
 22 23  4  0  0  0
 24 25  1  0  0  0
  4 28  1  0  0  0
  7 29  1  0  0  0
  7 30  1  0  0  0
  9 31  1  0  0  0
 10 32  1  0  0  0
 12 33  1  0  0  0
 15 34  1  0  0  0
 15 35  1  0  0  0
 15 36  1  0  0  0
 17 37  1  0  0  0
 17 38  1  0  0  0
 19 39  1  0  0  0
 20 40  1  0  0  0
 22 41  1  0  0  0
 23 42  1  0  0  0
 25 43  1  0  0  0
 25 44  1  0  0  0
 25 45  1  0  0  0
 26 46  1  0  0  0
 26 47  1  0  0  0
 27 48  1  0  0  0
 27 49  1  0  0  0
M  END
$$$$
