3t3y_ligand
  -I-interpret- 

 20 20  0  0  0  0  0  0  0  0999 V2000
   -4.5550    2.0150   -1.0340 C   0  0  0  0  0
   -3.3510    2.3330    1.0150 N   0  0  0  0  0
   -4.3460    3.2900   -1.3020 O   0  0  0  0  0
   -4.2540    1.5010    0.3520 C   0  0  0  0  0
   -1.5960    2.4280    4.2610 N   0  0  0  0  0
   -4.9610    1.2460   -1.8950 O   0  0  0  0  0
   -2.9920    2.0360    2.3550 C   0  0  0  0  0
   -3.4660    1.0410    2.8880 O   0  0  0  0  0
   -2.0390    2.8830    3.0840 C   0  0  0  0  0
   -2.1360    4.5090    1.3480 O   0  0  0  0  0
   -0.7130    3.1390    4.9650 C   0  0  0  0  0
   -0.2720    4.3590    4.4890 C   0  0  0  0  0
   -0.7400    4.8560    3.2640 C   0  0  0  0  0
   -1.6430    4.0900    2.5440 C   0  0  0  0  0
   -4.0312    3.7346   -0.5115 H   0  0  0  0  0
   -4.6861    0.5965    0.7802 H   0  0  0  0  0
   -1.7553    5.3622    1.1275 H   0  0  0  0  0
   -0.3397    2.7575    5.9154 H   0  0  0  0  0
    0.4449    4.9393    5.0699 H   0  0  0  0  0
   -0.4017    5.8213    2.8873 H   0  0  0  0  0
  1  3  1  0  0  0
  4  1  1  0  0  0
  1  6  2  0  0  0
  2  4  2  0  0  0
  7  2  1  0  0  0
  9  5  4  0  0  0
  5 11  4  0  0  0
  7  8  2  0  0  0
  7  9  1  0  0  0
  9 14  4  0  0  0
 14 10  1  0  0  0
 11 12  4  0  0  0
 12 13  4  0  0  0
 13 14  4  0  0  0
  3 15  1  0  0  0
  4 16  1  0  0  0
 10 17  1  0  0  0
 11 18  1  0  0  0
 12 19  1  0  0  0
 13 20  1  0  0  0
M  END
$$$$
