6c3n_ligand
  -I-interpret- 

 33 34  0  0  0  0  0  0  0  0999 V2000
  -15.0380  -25.8530   21.8830 C   0  0  0  0  0
  -14.4280  -25.0690   20.9070 C   0  0  0  0  0
  -14.5820  -27.1420   22.1370 C   0  0  0  0  0
  -11.1290  -23.5660   22.7430 C   0  0  0  0  0
  -10.4520  -23.4850   23.9540 C   0  0  0  0  0
  -13.3560  -25.5780   20.1820 C   0  0  0  0  0
  -13.5110  -27.6490   21.4130 C   0  0  0  0  0
  -10.4640  -23.9720   21.5850 C   0  0  0  0  0
   -8.4370  -24.2330   22.8350 C   0  0  0  0  0
  -10.5830  -27.0500   20.5490 C   0  0  0  0  0
  -11.8290  -27.3720   19.7230 C   0  0  0  0  0
   -8.5940  -25.7280   19.6400 C   0  0  0  0  0
  -12.9050  -26.8700   20.4320 C   0  0  0  0  0
   -9.1200  -24.3450   21.6240 C   0  0  0  0  0
   -9.0960  -23.8200   24.0050 N   0  0  0  0  0
   -9.4910  -26.7410   19.6320 N   0  0  0  0  0
   -8.4240  -24.6990   20.5260 N   0  0  0  0  0
   -7.5680  -25.7630   18.4530 S   0  0  0  0  0
  -15.8781  -25.4539   22.4514 H   0  0  0  0  0
  -14.7897  -24.0594   20.7119 H   0  0  0  0  0
  -15.0634  -27.7520   22.9014 H   0  0  0  0  0
  -12.1876  -23.3105   22.6972 H   0  0  0  0  0
  -10.9735  -23.1633   24.8554 H   0  0  0  0  0
  -12.8710  -24.9669   19.4208 H   0  0  0  0  0
  -13.1453  -28.6562   21.6129 H   0  0  0  0  0
  -11.0019  -23.9980   20.6373 H   0  0  0  0  0
   -7.3738  -24.4700   22.8743 H   0  0  0  0  0
  -10.3171  -27.9040   21.1720 H   0  0  0  0  0
  -10.7766  -26.1973   21.1998 H   0  0  0  0  0
  -11.9291  -28.4461   19.5669 H   0  0  0  0  0
  -11.7689  -26.9231   18.7316 H   0  0  0  0  0
   -9.3866  -27.3965   18.8575 H   0  0  0  0  0
   -7.6302  -24.0930   20.3185 H   0  0  0  0  0
  2  1  4  0  0  0
  3  1  4  0  0  0
  6  2  4  0  0  0
  7  3  4  0  0  0
  4  5  4  0  0  0
  8  4  4  0  0  0
 15  5  4  0  0  0
 13  6  4  0  0  0
 13  7  4  0  0  0
 14  8  4  0  0  0
 14  9  4  0  0  0
  9 15  4  0  0  0
 10 11  1  0  0  0
 16 10  1  0  0  0
 11 13  1  0  0  0
 12 16  1  0  0  0
 17 12  1  0  0  0
 12 18  2  0  0  0
 14 17  1  0  0  0
  1 19  1  0  0  0
  2 20  1  0  0  0
  3 21  1  0  0  0
  4 22  1  0  0  0
  5 23  1  0  0  0
  6 24  1  0  0  0
  7 25  1  0  0  0
  8 26  1  0  0  0
  9 27  1  0  0  0
 10 28  1  0  0  0
 10 29  1  0  0  0
 11 30  1  0  0  0
 11 31  1  0  0  0
 16 32  1  0  0  0
 17 33  1  0  0  0
M  END
$$$$
