4gvd_ligand
  -I-interpret- 

121122  0  0  0  0  0  0  0  0999 V2000
  -18.1580  -22.2870   -0.1290 N   0  3  0  0  0
  -17.3710  -22.2150    1.1230 C   0  0  0  0  0
  -16.1590  -21.2580    0.9870 C   0  0  0  0  0
  -15.2250  -21.5150    0.2340 O   0  0  0  0  0
  -16.9600  -23.6450    1.5090 C   0  0  0  0  0
  -16.9590  -23.7620    2.9350 O   0  0  0  0  0
  -15.5990  -24.0840    0.8460 C   0  0  0  0  0
  -16.1880  -20.1310    1.6740 N   0  0  0  0  0
  -15.1090  -19.1580    1.5390 C   0  0  0  0  0
  -14.0220  -19.4290    2.5750 C   0  0  0  0  0
  -14.2750  -19.3690    3.7530 O   0  0  0  0  0
  -15.6910  -17.7640    1.7070 C   0  0  0  0  0
  -14.8070  -16.5870    1.3290 C   0  0  0  0  0
  -15.7020  -15.6800    0.5400 C   0  0  0  0  0
  -15.3970  -14.2090    0.6460 C   0  0  0  0  0
  -16.4350  -13.6120   -0.2490 N   0  3  0  0  0
  -12.8060  -19.7170    2.1570 N   0  0  0  0  0
  -11.7300  -19.9780    3.1210 C   0  0  0  0  0
  -11.0130  -18.6910    3.6770 C   0  0  0  0  0
  -10.6910  -18.6030    4.8640 O   0  0  0  0  0
  -10.7300  -21.0040    2.5460 C   0  0  0  0  0
  -10.7870  -17.6820    2.8460 N   0  0  0  0  0
   -9.8920  -16.5630    3.2420 C   0  0  0  0  0
  -10.2450  -15.4420    2.3150 C   0  0  0  0  0
  -10.7570  -15.7390    1.2520 O   0  0  0  0  0
   -8.4090  -16.9630    2.9980 C   0  0  0  0  0
  -10.0710  -14.1830    2.7160 N   0  0  0  0  0
  -10.2260  -13.0500    1.7660 C   0  0  0  0  0
   -8.9440  -12.2790    1.9620 C   0  0  0  0  0
   -8.5000  -12.1020    3.0980 O   0  0  0  0  0
  -11.5060  -12.1800    2.0330 C   0  0  0  0  0
   -8.3080  -11.8920    0.8630 N   0  0  0  0  0
   -7.1020  -11.0930    0.8790 C   0  0  0  0  0
   -7.4400   -9.7080    0.3310 C   0  0  0  0  0
   -8.1790   -9.5740   -0.6880 O   0  0  0  0  0
   -5.9600  -11.7520    0.1030 C   0  0  0  0  0
   -5.5430  -13.0950    0.6440 C   0  0  0  0  0
   -6.2320  -14.2630    0.2600 C   0  0  0  0  0
   -4.4300  -13.2220    1.4760 C   0  0  0  0  0
   -5.8390  -15.5280    0.7230 C   0  0  0  0  0
   -4.0290  -14.4770    1.9460 C   0  0  0  0  0
   -4.7500  -15.6300    1.5750 C   0  0  0  0  0
   -6.9560   -8.6590    1.0180 N   0  0  0  0  0
   -7.1600   -7.2510    0.6380 C   0  0  0  0  0
   -5.8070   -6.6950    0.1550 C   0  0  0  0  0
   -4.9620   -6.3180    0.9620 O   0  0  0  0  0
   -7.7870   -6.4540    1.8050 C   0  0  0  0  0
   -9.1240   -6.9970    2.1940 C   0  0  0  0  0
  -10.2640   -6.6030    1.5310 C   0  0  0  0  0
   -9.2330   -8.0050    3.1440 C   0  0  0  0  0
  -11.5010   -7.1040    1.8580 C   0  0  0  0  0
  -10.4690   -8.5530    3.4740 C   0  0  0  0  0
  -11.5970   -8.0890    2.8260 C   0  0  0  0  0
  -12.8110   -8.6120    3.1300 O   0  0  0  0  0
   -5.6080   -6.7540   -1.1630 N   0  0  0  0  0
   -4.3180   -6.5890   -1.7960 C   0  0  0  0  0
   -4.0990   -5.1620   -2.3490 C   0  0  0  0  0
   -5.0790   -4.3810   -2.5300 O   0  0  0  0  0
   -4.1540   -7.6360   -2.8920 C   0  0  0  0  0
   -2.9180   -4.7810   -2.5780 O   0  0  0  0  0
  -18.4423  -21.3471   -0.4050 H   0  0  0  0  0
  -17.5861  -22.7005   -0.8654 H   0  0  0  0  0
  -18.9859  -22.8628    0.0239 H   0  0  0  0  0
  -17.9779  -21.7910    1.9230 H   0  0  0  0  0
  -17.6934  -24.3455    1.1097 H   0  0  0  0  0
  -17.8104  -23.4815    3.2786 H   0  0  0  0  0
  -14.7922  -23.4577    1.2267 H   0  0  0  0  0
  -15.3972  -25.1270    1.0902 H   0  0  0  0  0
  -15.6698  -23.9699   -0.2357 H   0  0  0  0  0
  -16.9684  -19.9395    2.3022 H   0  0  0  0  0
  -14.6508  -19.2393    0.5533 H   0  0  0  0  0
  -15.8876  -17.6538    2.7734 H   0  0  0  0  0
  -16.5458  -17.7187    1.0322 H   0  0  0  0  0
  -13.9353  -16.9001    0.7544 H   0  0  0  0  0
  -14.3938  -16.0894    2.2064 H   0  0  0  0  0
  -16.7078  -15.8164    0.9373 H   0  0  0  0  0
  -15.5679  -15.9486   -0.5078 H   0  0  0  0  0
  -14.3777  -13.9570    0.3535 H   0  0  0  0  0
  -15.4388  -13.8317    1.6677 H   0  0  0  0  0
  -16.3295  -12.5975   -0.2606 H   0  0  0  0  0
  -16.3186  -13.9779   -1.1940 H   0  0  0  0  0
  -17.3626  -13.8546    0.0990 H   0  0  0  0  0
  -12.6110  -19.7589    1.1567 H   0  0  0  0  0
  -12.2111  -20.4076    3.9997 H   0  0  0  0  0
  -11.2511  -21.9374    2.3332 H   0  0  0  0  0
  -10.2963  -20.6108    1.6266 H   0  0  0  0  0
   -9.9391  -21.1857    3.2737 H   0  0  0  0  0
  -11.2310  -17.6739    1.9277 H   0  0  0  0  0
  -10.0086  -16.2998    4.2933 H   0  0  0  0  0
   -8.1693  -17.8447    3.5924 H   0  0  0  0  0
   -8.2632  -17.1852    1.9409 H   0  0  0  0  0
   -7.7588  -16.1384    3.2903 H   0  0  0  0  0
   -9.8280  -13.9941    3.6885 H   0  0  0  0  0
  -10.3780  -13.3813    0.7388 H   0  0  0  0  0
  -12.3941  -12.8056    1.9438 H   0  0  0  0  0
  -11.4553  -11.7601    3.0376 H   0  0  0  0  0
  -11.5539  -11.3726    1.3023 H   0  0  0  0  0
   -8.6896  -12.1727   -0.0403 H   0  0  0  0  0
   -6.7416  -11.0039    1.9038 H   0  0  0  0  0
   -5.0960  -11.0917    0.1781 H   0  0  0  0  0
   -6.3120  -11.9102   -0.9164 H   0  0  0  0  0
   -7.0877  -14.1820   -0.4104 H   0  0  0  0  0
   -3.8670  -12.3338    1.7627 H   0  0  0  0  0
   -6.3840  -16.4207    0.4162 H   0  0  0  0  0
   -3.1600  -14.5632    2.5983 H   0  0  0  0  0
   -4.4504  -16.6050    1.9592 H   0  0  0  0  0
   -6.4111   -8.8510    1.8586 H   0  0  0  0  0
   -7.8747   -7.1578   -0.1797 H   0  0  0  0  0
   -7.9177   -5.4210    1.4827 H   0  0  0  0  0
   -7.1233   -6.5291    2.6663 H   0  0  0  0  0
  -10.1834   -5.8739    0.7248 H   0  0  0  0  0
   -8.3346   -8.3731    3.6396 H   0  0  0  0  0
  -12.3962   -6.7302    1.3610 H   0  0  0  0  0
  -10.5454   -9.3343    4.2302 H   0  0  0  0  0
  -12.7092   -9.2776    3.8142 H   0  0  0  0  0
   -6.4159   -6.9262   -1.7614 H   0  0  0  0  0
   -3.5520   -6.7347   -1.0344 H   0  0  0  0  0
   -5.8945   -4.8357   -2.3071 H   0  0  0  0  0
   -4.2205   -8.6320   -2.4541 H   0  0  0  0  0
   -4.9428   -7.5103   -3.6337 H   0  0  0  0  0
   -3.1818   -7.5116   -3.3690 H   0  0  0  0  0
  1  2  1  0  0  0
  2  3  1  0  0  0
  2  5  1  0  0  0
  3  4  2  0  0  0
  3  8  1  0  0  0
  5  6  1  0  0  0
  5  7  1  0  0  0
  8  9  1  0  0  0
  9 10  1  0  0  0
  9 12  1  0  0  0
 10 11  2  0  0  0
 10 17  1  0  0  0
 12 13  1  0  0  0
 13 14  1  0  0  0
 14 15  1  0  0  0
 15 16  1  0  0  0
 17 18  1  0  0  0
 18 19  1  0  0  0
 18 21  1  0  0  0
 19 20  2  0  0  0
 19 22  1  0  0  0
 22 23  1  0  0  0
 23 24  1  0  0  0
 23 26  1  0  0  0
 24 25  2  0  0  0
 24 27  1  0  0  0
 27 28  1  0  0  0
 28 29  1  0  0  0
 28 31  1  0  0  0
 29 30  2  0  0  0
 29 32  1  0  0  0
 32 33  1  0  0  0
 33 34  1  0  0  0
 33 36  1  0  0  0
 34 35  2  0  0  0
 34 43  1  0  0  0
 36 37  1  0  0  0
 37 38  4  0  0  0
 37 39  4  0  0  0
 38 40  4  0  0  0
 39 41  4  0  0  0
 40 42  4  0  0  0
 41 42  4  0  0  0
 43 44  1  0  0  0
 44 45  1  0  0  0
 44 47  1  0  0  0
 45 46  2  0  0  0
 45 55  1  0  0  0
 47 48  1  0  0  0
 48 49  4  0  0  0
 48 50  4  0  0  0
 49 51  4  0  0  0
 50 52  4  0  0  0
 51 53  4  0  0  0
 52 53  4  0  0  0
 53 54  1  0  0  0
 55 56  1  0  0  0
 56 57  1  0  0  0
 56 59  1  0  0  0
 57 58  1  0  0  0
 57 60  2  0  0  0
  1 61  1  0  0  0
  1 62  1  0  0  0
  1 63  1  0  0  0
  2 64  1  0  0  0
  5 65  1  0  0  0
  6 66  1  0  0  0
  7 67  1  0  0  0
  7 68  1  0  0  0
  7 69  1  0  0  0
  8 70  1  0  0  0
  9 71  1  0  0  0
 12 72  1  0  0  0
 12 73  1  0  0  0
 13 74  1  0  0  0
 13 75  1  0  0  0
 14 76  1  0  0  0
 14 77  1  0  0  0
 15 78  1  0  0  0
 15 79  1  0  0  0
 16 80  1  0  0  0
 16 81  1  0  0  0
 16 82  1  0  0  0
 17 83  1  0  0  0
 18 84  1  0  0  0
 21 85  1  0  0  0
 21 86  1  0  0  0
 21 87  1  0  0  0
 22 88  1  0  0  0
 23 89  1  0  0  0
 26 90  1  0  0  0
 26 91  1  0  0  0
 26 92  1  0  0  0
 27 93  1  0  0  0
 28 94  1  0  0  0
 31 95  1  0  0  0
 31 96  1  0  0  0
 31 97  1  0  0  0
 32 98  1  0  0  0
 33 99  1  0  0  0
 36100  1  0  0  0
 36101  1  0  0  0
 38102  1  0  0  0
 39103  1  0  0  0
 40104  1  0  0  0
 41105  1  0  0  0
 42106  1  0  0  0
 43107  1  0  0  0
 44108  1  0  0  0
 47109  1  0  0  0
 47110  1  0  0  0
 49111  1  0  0  0
 50112  1  0  0  0
 51113  1  0  0  0
 52114  1  0  0  0
 54115  1  0  0  0
 55116  1  0  0  0
 56117  1  0  0  0
 58118  1  0  0  0
 59119  1  0  0  0
 59120  1  0  0  0
 59121  1  0  0  0
M  END
$$$$
