### 
### Created by X-TOOL on Mon Sep 10 21:13:14 2018
### 

@<TRIPOS>MOLECULE
4gvd_ligand
  120   121     1     0     0
SMALL
GAST_HUCK


@<TRIPOS>ATOM
      1 N         -18.1580  -22.2870   -0.1290 N.4       1 THR         0.2398
      2 CA        -17.3710  -22.2150    1.1230 C.3       1 THR         0.0910
      3 C         -16.1590  -21.2580    0.9870 C.2       1 THR         0.2293
      4 O         -15.2250  -21.5150    0.2340 O.2       1 THR        -0.3906
      5 CB        -16.9600  -23.6450    1.5090 C.3       1 THR         0.1120
      6 OG1       -16.9590  -23.7620    2.9350 O.3       1 THR        -0.3840
      7 CG2       -15.5990  -24.0840    0.8460 C.3       1 THR        -0.0314
      8 N         -16.1880  -20.1310    1.6740 N.am      1 LYS        -0.2609
      9 CA        -15.1090  -19.1580    1.5390 C.3       1 LYS         0.1311
     10 C         -14.0220  -19.4290    2.5750 C.2       1 LYS         0.2039
     11 O         -14.2750  -19.3690    3.7530 O.2       1 LYS        -0.3944
     12 CB        -15.6910  -17.7640    1.7070 C.3       1 LYS        -0.0122
     13 CG        -14.8070  -16.5870    1.3290 C.3       1 LYS        -0.0440
     14 CD        -15.7020  -15.6800    0.5400 C.3       1 LYS        -0.0124
     15 CE        -15.3970  -14.2090    0.6460 C.3       1 LYS        -0.0354
     16 NZ        -16.4350  -13.6120   -0.2490 N.4       1 LYS         0.2185
     17 N         -12.8060  -19.7170    2.1570 N.am      1 GLN        -0.2640
     18 CA        -11.7300  -19.9780    3.1210 C.3       1 GLN         0.1282
     19 C         -11.0130  -18.6910    3.6770 C.2       1 GLN         0.2036
     20 O         -10.6910  -18.6030    4.8640 O.2       1 GLN        -0.3944
     21 CB        -10.7300  -21.0040    2.5460 C.3       1 GLN        -0.0244
     22 N         -10.7870  -17.6820    2.8460 N.am      1 GLU        -0.2640
     23 CA         -9.8920  -16.5630    3.2420 C.3       1 GLU         0.1282
     24 C         -10.2450  -15.4420    2.3150 C.2       1 GLU         0.2036
     25 O         -10.7570  -15.7390    1.2520 O.2       1 GLU        -0.3944
     26 CB         -8.4090  -16.9630    2.9980 C.3       1 GLU        -0.0244
     27 N         -10.0710  -14.1830    2.7160 N.am      1 GLU        -0.2640
     28 CA        -10.2260  -13.0500    1.7660 C.3       1 GLU         0.1282
     29 C          -8.9440  -12.2790    1.9620 C.2       1 GLU         0.2037
     30 O          -8.5000  -12.1020    3.0980 O.2       1 GLU        -0.3944
     31 CB        -11.5060  -12.1800    2.0330 C.3       1 GLU        -0.0244
     32 N          -8.3080  -11.8920    0.8630 N.am      1 PHE        -0.2619
     33 CA         -7.1020  -11.0930    0.8790 C.3       1 PHE         0.1404
     34 C          -7.4400   -9.7080    0.3310 C.2       1 PHE         0.2061
     35 O          -8.1790   -9.5740   -0.6880 O.2       1 PHE        -0.3942
     36 CB         -5.9600  -11.7520    0.1030 C.3       1 PHE         0.0214
     37 CG         -5.5430  -13.0950    0.6440 C.ar      1 PHE        -0.0386
     38 CD1        -6.2320  -14.2630    0.2600 C.ar      1 PHE        -0.0601
     39 CD2        -4.4300  -13.2220    1.4760 C.ar      1 PHE        -0.0601
     40 CE1        -5.8390  -15.5280    0.7230 C.ar      1 PHE        -0.0686
     41 CE2        -4.0290  -14.4770    1.9460 C.ar      1 PHE        -0.0686
     42 CZ         -4.7500  -15.6300    1.5750 C.ar      1 PHE        -0.0687
     43 N          -6.9560   -8.6590    1.0180 N.am      1 TYR        -0.2620
     44 CA         -7.1600   -7.2510    0.6380 C.3       1 TYR         0.1390
     45 C          -5.8070   -6.6950    0.1550 C.2       1 TYR         0.2052
     46 O          -4.9620   -6.3180    0.9620 O.2       1 TYR        -0.3943
     47 CB         -7.7870   -6.4540    1.8050 C.3       1 TYR         0.0163
     48 CG         -9.1240   -6.9970    2.1940 C.ar      1 TYR        -0.0493
     49 CD1       -10.2640   -6.6030    1.5310 C.ar      1 TYR        -0.0685
     50 CD2        -9.2330   -8.0050    3.1440 C.ar      1 TYR        -0.0685
     51 CE1       -11.5010   -7.1040    1.8580 C.ar      1 TYR        -0.0398
     52 CE2       -10.4690   -8.5530    3.4740 C.ar      1 TYR        -0.0398
     53 CZ        -11.5970   -8.0890    2.8260 C.ar      1 TYR         0.0805
     54 OH        -12.8110   -8.6120    3.1300 O.3       1 TYR        -0.3376
     55 N          -5.6080   -6.7540   -1.1630 N.am      1 ALA        -0.2696
     56 CA         -4.3180   -6.5890   -1.7960 C.3       1 ALA         0.0916
     57 C          -4.0990   -5.1620   -2.3490 C.2       1 ALA         0.0598
     58 O          -5.0790   -4.3810   -2.5300 O.co2     1 ALA        -0.5666
     59 CB         -4.1540   -7.6360   -2.8920 C.3       1 ALA        -0.0300
     60 OXT        -2.9180   -4.7810   -2.5780 O.co2     1 ALA        -0.5666
     61 H1        -18.4395  -21.3586   -0.4027 H         1 THR         0.2016
     62 H2        -18.9766  -22.8558    0.0209 H         1 THR         0.2016
     63 H3        -17.5938  -22.6955   -0.8576 H         1 THR         0.2016
     64 H4        -18.0186  -21.8170    1.9181 H         1 THR         0.1125
     65 H5        -17.7328  -24.3267    1.1242 H         1 THR         0.0674
     66 H6        -16.7055  -24.6445    3.1791 H         1 THR         0.2102
     67 H7        -15.3549  -25.1109    1.1555 H         1 THR         0.0258
     68 H8        -14.7975  -23.4034    1.1689 H         1 THR         0.0258
     69 H9        -15.6949  -24.0441   -0.2491 H         1 THR         0.0258
     70 H10       -16.9531  -19.9432    2.2899 H         1 LYS         0.1884
     71 H11       -14.6681  -19.2436    0.5349 H         1 LYS         0.0800
     72 H12       -15.9631  -17.6455    2.7662 H         1 LYS         0.0312
     73 H13       -16.5978  -17.7081    1.0869 H         1 LYS         0.0312
     74 H14       -13.9561  -16.9211    0.7172 H         1 LYS         0.0269
     75 H15       -14.4335  -16.0770    2.2292 H         1 LYS         0.0269
     76 H16       -16.7338  -15.8372    0.8874 H         1 LYS         0.0317
     77 H17       -15.6241  -15.9659   -0.5193 H         1 LYS         0.0317
     78 H18       -14.3820  -13.9842    0.2865 H         1 LYS         0.0813
     79 H19       -15.5073  -13.8513    1.6803 H         1 LYS         0.0813
     80 H20       -16.3317  -12.6094   -0.2612 H         1 LYS         0.1994
     81 H21       -17.3522  -13.8511    0.0940 H         1 LYS         0.1994
     82 H22       -16.3210  -13.9729   -1.1832 H         1 LYS         0.1994
     83 H23       -12.6148  -19.7581    1.1763 H         1 GLN         0.1883
     84 H24       -12.2064  -20.4547    3.9904 H         1 GLN         0.0797
     85 H25        -9.9312  -21.1882    3.2795 H         1 GLN         0.0277
     86 H26       -10.2915  -20.6083    1.6180 H         1 GLN         0.0277
     87 H27       -11.2547  -21.9465    2.3308 H         1 GLN         0.0277
     88 H28       -11.2223  -17.6740    1.9457 H         1 GLU         0.1883
     89 H29       -10.0472  -16.2807    4.2938 H         1 GLU         0.0797
     90 H30        -7.7518  -16.1316    3.2927 H         1 GLU         0.0277
     91 H31        -8.2605  -17.1875    1.9315 H         1 GLU         0.0277
     92 H32        -8.1658  -17.8527    3.5973 H         1 GLU         0.0277
     93 H33        -9.8328  -13.9978    3.6694 H         1 GLU         0.1883
     94 H34       -10.2839  -13.4303    0.7355 H         1 GLU         0.0797
     95 H35       -11.5554  -11.3648    1.2962 H         1 GLU         0.0277
     96 H36       -11.4560  -11.7555    3.0466 H         1 GLU         0.0277
     97 H37       -12.4030  -12.8103    1.9432 H         1 GLU         0.0277
     98 H38        -8.6822  -12.1672   -0.0226 H         1 PHE         0.1885
     99 H39        -6.7741  -10.9825    1.9231 H         1 PHE         0.0823
    100 H40        -5.0887  -11.0813    0.1346 H         1 PHE         0.0474
    101 H41        -6.2828  -11.8850   -0.9401 H         1 PHE         0.0474
    102 H42        -7.0830  -14.1825   -0.4067 H         1 PHE         0.0557
    103 H43        -3.8701  -12.3387    1.7612 H         1 PHE         0.0557
    104 H44        -6.3810  -16.4158    0.4178 H         1 PHE         0.0599
    105 H45        -3.1648  -14.5627    2.5948 H         1 PHE         0.0599
    106 H46        -4.4520  -16.5997    1.9571 H         1 PHE         0.0559
    107 H47        -6.4218   -8.8473    1.8421 H         1 TYR         0.1885
    108 H48        -7.8653   -7.2116   -0.2052 H         1 TYR         0.0821
    109 H49        -7.9051   -5.4048    1.4965 H         1 TYR         0.0453
    110 H50        -7.1148   -6.5072    2.6740 H         1 TYR         0.0453
    111 H51       -10.1838   -5.8779    0.7292 H         1 TYR         0.0530
    112 H52        -8.3396   -8.3711    3.6368 H         1 TYR         0.0530
    113 H53       -12.3913   -6.7323    1.3638 H         1 TYR         0.0525
    114 H54       -10.5450   -9.3300    4.2261 H         1 TYR         0.0525
    115 H55       -13.4779   -8.1894    2.6017 H         1 TYR         0.2458
    116 H56        -6.4000   -6.9228   -1.7497 H         1 ALA         0.1875
    117 H57        -3.5452   -6.7686   -1.0341 H         1 ALA         0.0723
    118 H58        -3.1732   -7.5115   -3.3742 H         1 ALA         0.0270
    119 H59        -4.9495   -7.5102   -3.6413 H         1 ALA         0.0270
    120 H60        -4.2209   -8.6417   -2.4514 H         1 ALA         0.0270
@<TRIPOS>BOND
     1    1    2 1  
     2    2    3 1  
     3    2    5 1  
     4    3    4 2  
     5    3    8 am 
     6    5    6 1  
     7    5    7 1  
     8    8    9 1  
     9    9   10 1  
    10    9   12 1  
    11   10   11 2  
    12   10   17 am 
    13   12   13 1  
    14   13   14 1  
    15   14   15 1  
    16   15   16 1  
    17   17   18 1  
    18   18   19 1  
    19   18   21 1  
    20   19   20 2  
    21   19   22 am 
    22   22   23 1  
    23   23   24 1  
    24   23   26 1  
    25   24   25 2  
    26   24   27 am 
    27   27   28 1  
    28   28   29 1  
    29   28   31 1  
    30   29   30 2  
    31   29   32 am 
    32   32   33 1  
    33   33   34 1  
    34   33   36 1  
    35   34   35 2  
    36   34   43 am 
    37   36   37 1  
    38   37   38 ar 
    39   37   39 ar 
    40   38   40 ar 
    41   39   41 ar 
    42   40   42 ar 
    43   41   42 ar 
    44   43   44 1  
    45   44   45 1  
    46   44   47 1  
    47   45   46 2  
    48   45   55 am 
    49   47   48 1  
    50   48   49 ar 
    51   48   50 ar 
    52   49   51 ar 
    53   50   52 ar 
    54   51   53 ar 
    55   52   53 ar 
    56   53   54 1  
    57   55   56 1  
    58   56   57 1  
    59   56   59 1  
    60   57   58 ar 
    61   57   60 ar 
    62    1   61 1  
    63    1   62 1  
    64    1   63 1  
    65    2   64 1  
    66    5   65 1  
    67    6   66 1  
    68    7   67 1  
    69    7   68 1  
    70    7   69 1  
    71    8   70 1  
    72    9   71 1  
    73   12   72 1  
    74   12   73 1  
    75   13   74 1  
    76   13   75 1  
    77   14   76 1  
    78   14   77 1  
    79   15   78 1  
    80   15   79 1  
    81   16   80 1  
    82   16   81 1  
    83   16   82 1  
    84   17   83 1  
    85   18   84 1  
    86   21   85 1  
    87   21   86 1  
    88   21   87 1  
    89   22   88 1  
    90   23   89 1  
    91   26   90 1  
    92   26   91 1  
    93   26   92 1  
    94   27   93 1  
    95   28   94 1  
    96   31   95 1  
    97   31   96 1  
    98   31   97 1  
    99   32   98 1  
   100   33   99 1  
   101   36  100 1  
   102   36  101 1  
   103   38  102 1  
   104   39  103 1  
   105   40  104 1  
   106   41  105 1  
   107   42  106 1  
   108   43  107 1  
   109   44  108 1  
   110   47  109 1  
   111   47  110 1  
   112   49  111 1  
   113   50  112 1  
   114   51  113 1  
   115   52  114 1  
   116   54  115 1  
   117   55  116 1  
   118   56  117 1  
   119   59  118 1  
   120   59  119 1  
   121   59  120 1  
@<TRIPOS>SUBSTRUCTURE
     1 THR         1

