4qf9_ligand
  -I-interpret- 

 33 34  0  0  0  0  0  0  0  0999 V2000
   62.0190  -27.1690  -35.8220 C   0  0  0  0  0
   58.6540  -25.2780  -37.5170 N   0  0  0  0  0
   57.6490  -23.3950  -38.2500 O   0  0  0  0  0
   60.8800  -27.9250  -36.1610 C   0  0  0  0  0
   60.9240  -23.7860  -36.8480 N   0  0  0  0  0
   59.8850  -21.9250  -37.5910 O   0  0  0  0  0
   59.7390  -27.3120  -36.7250 C   0  0  0  0  0
   61.7840  -31.5720  -34.6590 N   0  3  0  0  0
   58.2810  -31.3810  -34.4840 O   0  0  0  0  0
   62.0520  -25.7820  -36.0470 C   0  0  0  0  0
   59.7380  -33.0020  -34.9660 O   0  0  0  0  0
   60.9210  -25.1730  -36.6110 C   0  0  0  0  0
   59.7740  -25.9240  -36.9500 C   0  0  0  0  0
   58.6690  -23.8870  -37.7500 C   0  0  0  0  0
   59.8090  -23.1330  -37.4140 C   0  0  0  0  0
   60.8680  -29.3060  -35.9190 C   0  0  0  0  0
   60.3110  -29.5650  -34.5210 C   0  0  0  0  0
   60.5710  -30.9990  -34.0660 C   0  0  0  0  0
   59.4240  -31.8710  -34.5510 C   0  0  0  0  0
   62.8837  -27.6646  -35.3807 H   0  0  0  0  0
   57.8264  -25.8222  -37.7604 H   0  0  0  0  0
   61.7509  -23.2405  -36.6051 H   0  0  0  0  0
   58.8559  -27.8984  -36.9788 H   0  0  0  0  0
   61.9077  -32.5266  -34.3216 H   0  0  0  0  0
   61.6941  -31.5782  -35.6750 H   0  0  0  0  0
   62.5908  -31.0083  -34.3913 H   0  0  0  0  0
   58.3355  -30.4926  -34.1243 H   0  0  0  0  0
   62.9335  -25.1947  -35.7899 H   0  0  0  0  0
   61.8826  -29.6985  -35.9874 H   0  0  0  0  0
   60.2417  -29.8022  -36.6604 H   0  0  0  0  0
   59.2335  -29.4025  -34.5452 H   0  0  0  0  0
   60.8053  -28.8886  -33.8237 H   0  0  0  0  0
   60.6748  -30.9725  -32.9813 H   0  0  0  0  0
  4  1  4  0  0  0
  1 10  4  0  0  0
 13  2  1  0  0  0
  2 14  1  0  0  0
 14  3  2  0  0  0
  4  7  4  0  0  0
 16  4  1  0  0  0
 12  5  1  0  0  0
  5 15  1  0  0  0
 15  6  2  0  0  0
  7 13  4  0  0  0
 18  8  1  0  0  0
 19  9  1  0  0  0
 10 12  4  0  0  0
 19 11  2  0  0  0
 13 12  4  0  0  0
 14 15  1  0  0  0
 17 16  1  0  0  0
 18 17  1  0  0  0
 18 19  1  0  0  0
  1 20  1  0  0  0
  2 21  1  0  0  0
  5 22  1  0  0  0
  7 23  1  0  0  0
  8 24  1  0  0  0
  8 25  1  0  0  0
  8 26  1  0  0  0
  9 27  1  0  0  0
 10 28  1  0  0  0
 16 29  1  0  0  0
 16 30  1  0  0  0
 17 31  1  0  0  0
 17 32  1  0  0  0
 18 33  1  0  0  0
M  END
$$$$
