4qbm_ligand
  -I-interpret- 

170170  0  0  0  0  0  0  0  0999 V2000
   27.9290   -7.1910  -47.8260 N   0  3  0  0  0
   28.9880   -6.6060  -48.7000 C   0  0  0  0  0
   28.4410   -5.4430  -49.4930 C   0  0  0  0  0
   27.2430   -5.3870  -49.7710 O   0  0  0  0  0
   29.3250   -4.5240  -49.8690 N   0  0  0  0  0
   28.9260   -3.2520  -50.4430 C   0  0  0  0  0
   28.2380   -3.3810  -51.8150 C   0  0  0  0  0
   28.4960   -4.2900  -52.6060 O   0  0  0  0  0
   30.1160   -2.3220  -50.5510 C   0  0  0  0  0
   21.1970    0.3240  -57.6510 O   0  0  0  0  0
   20.9540    0.8770  -56.5720 C   0  0  0  0  0
   19.6720    1.5300  -56.2010 C   0  0  0  0  0
   21.8720    0.9310  -55.6130 N   0  0  0  0  0
   23.1860    0.3260  -55.7870 C   0  0  0  0  0
   23.7870    0.0150  -54.4070 C   0  0  0  0  0
   24.8770   -1.0380  -54.5210 C   0  0  0  0  0
   25.6500   -1.2030  -53.2160 C   0  0  0  0  0
   26.6570   -2.3430  -53.3330 C   0  0  0  0  0
   27.3160   -2.4710  -52.0450 N   0  0  0  0  0
   27.7230   -2.0110  -54.3330 C   0  0  0  0  0
   28.5670   -1.1340  -54.1000 O   0  0  0  0  0
   27.7150   -2.7210  -55.4670 N   0  0  0  0  0
   28.6760   -2.4370  -56.5180 C   0  0  0  0  0
   28.1330   -2.8710  -57.8650 C   0  0  0  0  0
   27.2230   -3.6960  -57.9240 O   0  0  0  0  0
   29.9940   -3.1630  -56.2370 C   0  0  0  0  0
   29.8430   -4.6480  -56.1050 C   0  0  0  0  0
   31.1660   -5.3040  -55.7160 C   0  0  0  0  0
   31.0160   -6.7560  -55.5860 N   0  0  0  0  0
   32.0150   -7.6110  -55.3650 C   0  0  0  0  0
   33.2720   -7.1790  -55.2350 N   0  0  0  0  0
   31.7550   -8.9140  -55.2720 N   0  0  0  0  0
   28.6750   -2.2850  -58.9170 N   0  0  0  0  0
   28.2550   -2.6320  -60.2720 C   0  0  0  0  0
   28.5760   -4.0810  -60.6130 C   0  0  0  0  0
   29.5330   -4.6660  -60.1070 O   0  0  0  0  0
   28.8270   -1.6870  -61.3450 C   0  0  0  0  0
   30.3240   -1.6140  -61.4150 C   0  0  0  0  0
   31.1170   -2.6420  -61.9020 N   0  0  0  0  0
   31.1710   -0.5950  -61.1330 C   0  0  0  0  0
   32.3840   -2.2600  -61.8990 C   0  0  0  0  0
   32.4450   -1.0250  -61.4200 N   0  0  0  0  0
   27.7380   -4.6580  -61.4810 N   0  0  0  0  0
   28.0740   -5.9480  -62.1040 C   0  0  0  0  0
   29.5500   -5.9250  -62.5460 C   0  0  0  0  0
   30.0460   -4.9280  -63.1400 O   0  0  0  0  0
   27.1980   -6.1420  -63.3500 C   0  0  0  0  0
   25.7440   -6.4590  -63.0850 C   0  0  0  0  0
   24.9450   -6.3600  -64.3730 C   0  0  0  0  0
   23.5210   -6.5840  -64.1540 N   0  0  0  0  0
   22.9640   -7.7750  -64.0060 C   0  0  0  0  0
   23.7300   -8.8610  -64.0060 N   0  0  0  0  0
   21.6730   -7.8930  -63.8060 N   0  0  0  0  0
   38.3960  -10.7710  -62.7100 O   0  0  0  0  0
   37.5860  -11.5630  -62.2330 C   0  0  0  0  0
   37.9630  -12.9610  -61.8710 C   0  0  0  0  0
   36.2820  -11.2800  -62.0150 N   0  0  0  0  0
   35.7350   -9.9570  -62.3180 C   0  0  0  0  0
   34.2180   -9.9400  -62.1820 C   0  0  0  0  0
   33.7020   -8.5830  -62.6320 C   0  0  0  0  0
   32.2080   -8.4870  -62.3660 C   0  0  0  0  0
   31.6590   -7.1010  -62.7230 C   0  0  0  0  0
   30.2490   -7.0440  -62.3450 N   0  0  0  0  0
   31.9140   -6.7660  -64.1740 C   0  0  0  0  0
   32.8700   -6.0630  -64.5040 O   0  0  0  0  0
   31.0520   -7.2530  -65.0840 N   0  0  0  0  0
   31.2100   -6.9750  -66.5060 C   0  0  0  0  0
   31.0780   -5.4810  -66.8850 C   0  0  0  0  0
   31.4400   -5.0950  -68.0100 O   0  0  0  0  0
   30.2380   -7.8260  -67.3610 C   0  0  0  0  0
   30.4860   -9.3120  -67.1320 C   0  0  0  0  0
   28.7880   -7.4980  -67.0090 C   0  0  0  0  0
   30.5590   -4.6330  -65.9780 N   0  0  0  0  0
   30.4100   -3.2220  -66.2730 C   0  0  0  0  0
   31.6100   -2.4250  -65.7610 C   0  0  0  0  0
   32.5510   -3.0050  -65.2130 O   0  0  0  0  0
   29.1210   -2.6750  -65.6620 C   0  0  0  0  0
   27.8750   -3.3310  -66.2470 C   0  0  0  0  0
   26.6460   -2.7470  -65.5590 C   0  0  0  0  0
   27.8030   -3.1850  -67.7480 C   0  0  0  0  0
   31.6110   -1.1900  -65.8780 O   0  0  0  0  0
   28.3180   -7.9735  -47.2999 H   0  0  0  0  0
   27.5922   -6.4784  -47.1786 H   0  0  0  0  0
   27.1557   -7.5195  -48.4043 H   0  0  0  0  0
   29.3373   -7.3721  -49.3923 H   0  0  0  0  0
   29.8069   -6.2521  -48.0737 H   0  0  0  0  0
   30.3189   -4.7198  -49.7499 H   0  0  0  0  0
   28.1858   -2.8351  -49.7601 H   0  0  0  0  0
   30.8255   -2.7243  -51.2741 H   0  0  0  0  0
   29.7786   -1.3389  -50.8794 H   0  0  0  0  0
   30.5976   -2.2356  -49.5770 H   0  0  0  0  0
   19.4631    2.3404  -56.8993 H   0  0  0  0  0
   18.8668    0.7965  -56.2423 H   0  0  0  0  0
   19.7489    1.9305  -55.1901 H   0  0  0  0  0
   21.6524    1.4056  -54.7372 H   0  0  0  0  0
   23.8380    1.0161  -56.3225 H   0  0  0  0  0
   23.0907   -0.5961  -56.3604 H   0  0  0  0  0
   22.9985   -0.3629  -53.7562 H   0  0  0  0  0
   24.2200    0.9276  -53.9974 H   0  0  0  0  0
   25.5770   -0.7220  -55.2945 H   0  0  0  0  0
   24.4065   -1.9913  -54.7616 H   0  0  0  0  0
   24.9476   -1.4314  -52.4144 H   0  0  0  0  0
   26.1852   -0.2779  -53.0017 H   0  0  0  0  0
   26.1366   -3.2508  -53.6384 H   0  0  0  0  0
   27.0550   -1.8334  -51.2928 H   0  0  0  0  0
   27.0300   -3.4660  -55.5940 H   0  0  0  0  0
   28.8547   -1.3620  -56.5390 H   0  0  0  0  0
   30.3788   -2.7876  -55.2888 H   0  0  0  0  0
   30.6576   -2.9752  -57.0811 H   0  0  0  0  0
   29.5228   -5.0523  -57.0653 H   0  0  0  0  0
   29.1090   -4.8557  -55.3264 H   0  0  0  0  0
   31.4876   -4.8990  -54.7565 H   0  0  0  0  0
   31.9003   -5.0973  -56.4945 H   0  0  0  0  0
   30.0757   -7.1420  -55.6711 H   0  0  0  0  0
   34.0254   -7.8454  -55.0657 H   0  0  0  0  0
   33.4787   -6.1826  -55.3050 H   0  0  0  0  0
   30.7973   -9.2512  -55.3697 H   0  0  0  0  0
   29.3984   -1.5789  -58.7811 H   0  0  0  0  0
   27.1722   -2.5072  -60.2809 H   0  0  0  0  0
   28.4803   -0.6853  -61.0912 H   0  0  0  0  0
   28.4911   -2.0729  -62.3075 H   0  0  0  0  0
   30.8932    0.3865  -60.7488 H   0  0  0  0  0
   33.2320   -2.8579  -62.2330 H   0  0  0  0  0
   26.8571   -4.1993  -61.7135 H   0  0  0  0  0
   27.9062   -6.7557  -61.3916 H   0  0  0  0  0
   27.6082   -6.9980  -63.8859 H   0  0  0  0  0
   27.2144   -5.1952  -63.8897 H   0  0  0  0  0
   25.3481   -5.7451  -62.3627 H   0  0  0  0  0
   25.6648   -7.4726  -62.6919 H   0  0  0  0  0
   25.3082   -7.1261  -65.0580 H   0  0  0  0  0
   25.0730   -5.3554  -64.7760 H   0  0  0  0  0
   22.9125   -5.7665  -64.1120 H   0  0  0  0  0
   23.3133   -9.7790  -63.8511 H   0  0  0  0  0
   24.7346   -8.7765  -64.1609 H   0  0  0  0  0
   21.0854   -7.0604  -63.7629 H   0  0  0  0  0
   38.3179  -13.4821  -62.7602 H   0  0  0  0  0
   38.7534  -12.9401  -61.1208 H   0  0  0  0  0
   37.0920  -13.4782  -61.4686 H   0  0  0  0  0
   35.6694  -12.0006  -61.6330 H   0  0  0  0  0
   35.9938   -9.7019  -63.3456 H   0  0  0  0  0
   36.1543   -9.2388  -61.6134 H   0  0  0  0  0
   33.9379  -10.1162  -61.1434 H   0  0  0  0  0
   33.7825  -10.7248  -62.8005 H   0  0  0  0  0
   33.8868   -8.4627  -63.6995 H   0  0  0  0  0
   34.2181   -7.7990  -62.0779 H   0  0  0  0  0
   32.0353   -8.6627  -61.3042 H   0  0  0  0  0
   31.7001   -9.2280  -62.9833 H   0  0  0  0  0
   32.1847   -6.3292  -62.1607 H   0  0  0  0  0
   29.7991   -7.8588  -61.9278 H   0  0  0  0  0
   30.2705   -7.8296  -64.7723 H   0  0  0  0  0
   32.2386   -7.2577  -66.7299 H   0  0  0  0  0
   30.4167   -7.5886  -68.4097 H   0  0  0  0  0
   31.5108   -9.5555  -67.4124 H   0  0  0  0  0
   30.3305   -9.5470  -66.0790 H   0  0  0  0  0
   29.7935   -9.8928  -67.7413 H   0  0  0  0  0
   28.6139   -7.7129  -65.9547 H   0  0  0  0  0
   28.5985   -6.4421  -67.2020 H   0  0  0  0  0
   28.1207   -8.1058  -67.6200 H   0  0  0  0  0
   30.2658   -4.9891  -65.0683 H   0  0  0  0  0
   30.3592   -3.1131  -67.3564 H   0  0  0  0  0
   29.0725   -1.6076  -65.8777 H   0  0  0  0  0
   29.1405   -2.8832  -64.5922 H   0  0  0  0  0
   27.9181   -4.4038  -66.0592 H   0  0  0  0  0
   26.7017   -2.9455  -64.4887 H   0  0  0  0  0
   26.6130   -1.6709  -65.7291 H   0  0  0  0  0
   25.7478   -3.2087  -65.9692 H   0  0  0  0  0
   27.7824   -2.1267  -68.0083 H   0  0  0  0  0
   28.6768   -3.6546  -68.1998 H   0  0  0  0  0
   26.8980   -3.6686  -68.1158 H   0  0  0  0  0
   30.8083   -0.9114  -66.3249 H   0  0  0  0  0
  2  1  1  0  0  0
  3  2  1  0  0  0
  3  4  2  0  0  0
  5  3  1  0  0  0
  6  5  1  0  0  0
  7  6  1  0  0  0
  6  9  1  0  0  0
  7  8  2  0  0  0
 19  7  1  0  0  0
 11 10  2  0  0  0
 11 12  1  0  0  0
 13 11  1  0  0  0
 14 13  1  0  0  0
 15 14  1  0  0  0
 16 15  1  0  0  0
 17 16  1  0  0  0
 18 17  1  0  0  0
 18 19  1  0  0  0
 20 18  1  0  0  0
 20 21  2  0  0  0
 22 20  1  0  0  0
 23 22  1  0  0  0
 24 23  1  0  0  0
 23 26  1  0  0  0
 24 25  2  0  0  0
 33 24  1  0  0  0
 26 27  1  0  0  0
 27 28  1  0  0  0
 28 29  1  0  0  0
 29 30  1  0  0  0
 30 31  1  0  0  0
 30 32  2  0  0  0
 34 33  1  0  0  0
 35 34  1  0  0  0
 34 37  1  0  0  0
 35 36  2  0  0  0
 43 35  1  0  0  0
 37 38  1  0  0  0
 38 39  4  0  0  0
 38 40  4  0  0  0
 39 41  4  0  0  0
 40 42  4  0  0  0
 42 41  4  0  0  0
 44 43  1  0  0  0
 45 44  1  0  0  0
 44 47  1  0  0  0
 45 46  2  0  0  0
 63 45  1  0  0  0
 47 48  1  0  0  0
 48 49  1  0  0  0
 49 50  1  0  0  0
 50 51  1  0  0  0
 51 52  1  0  0  0
 51 53  2  0  0  0
 55 54  2  0  0  0
 55 56  1  0  0  0
 57 55  1  0  0  0
 58 57  1  0  0  0
 59 58  1  0  0  0
 60 59  1  0  0  0
 61 60  1  0  0  0
 62 61  1  0  0  0
 62 63  1  0  0  0
 62 64  1  0  0  0
 64 65  2  0  0  0
 64 66  1  0  0  0
 66 67  1  0  0  0
 67 68  1  0  0  0
 67 70  1  0  0  0
 68 69  2  0  0  0
 68 73  1  0  0  0
 70 71  1  0  0  0
 70 72  1  0  0  0
 73 74  1  0  0  0
 74 75  1  0  0  0
 74 77  1  0  0  0
 75 76  2  0  0  0
 75 81  1  0  0  0
 77 78  1  0  0  0
 78 79  1  0  0  0
 78 80  1  0  0  0
  1 82  1  0  0  0
  1 83  1  0  0  0
  1 84  1  0  0  0
  2 85  1  0  0  0
  2 86  1  0  0  0
  5 87  1  0  0  0
  6 88  1  0  0  0
  9 89  1  0  0  0
  9 90  1  0  0  0
  9 91  1  0  0  0
 12 92  1  0  0  0
 12 93  1  0  0  0
 12 94  1  0  0  0
 13 95  1  0  0  0
 14 96  1  0  0  0
 14 97  1  0  0  0
 15 98  1  0  0  0
 15 99  1  0  0  0
 16100  1  0  0  0
 16101  1  0  0  0
 17102  1  0  0  0
 17103  1  0  0  0
 18104  1  0  0  0
 19105  1  0  0  0
 22106  1  0  0  0
 23107  1  0  0  0
 26108  1  0  0  0
 26109  1  0  0  0
 27110  1  0  0  0
 27111  1  0  0  0
 28112  1  0  0  0
 28113  1  0  0  0
 29114  1  0  0  0
 31115  1  0  0  0
 31116  1  0  0  0
 32117  1  0  0  0
 33118  1  0  0  0
 34119  1  0  0  0
 37120  1  0  0  0
 37121  1  0  0  0
 40122  1  0  0  0
 41123  1  0  0  0
 43124  1  0  0  0
 44125  1  0  0  0
 47126  1  0  0  0
 47127  1  0  0  0
 48128  1  0  0  0
 48129  1  0  0  0
 49130  1  0  0  0
 49131  1  0  0  0
 50132  1  0  0  0
 52133  1  0  0  0
 52134  1  0  0  0
 53135  1  0  0  0
 56136  1  0  0  0
 56137  1  0  0  0
 56138  1  0  0  0
 57139  1  0  0  0
 58140  1  0  0  0
 58141  1  0  0  0
 59142  1  0  0  0
 59143  1  0  0  0
 60144  1  0  0  0
 60145  1  0  0  0
 61146  1  0  0  0
 61147  1  0  0  0
 62148  1  0  0  0
 63149  1  0  0  0
 66150  1  0  0  0
 67151  1  0  0  0
 70152  1  0  0  0
 71153  1  0  0  0
 71154  1  0  0  0
 71155  1  0  0  0
 72156  1  0  0  0
 72157  1  0  0  0
 72158  1  0  0  0
 73159  1  0  0  0
 74160  1  0  0  0
 77161  1  0  0  0
 77162  1  0  0  0
 78163  1  0  0  0
 79164  1  0  0  0
 79165  1  0  0  0
 79166  1  0  0  0
 80167  1  0  0  0
 80168  1  0  0  0
 80169  1  0  0  0
 81170  1  0  0  0
M  END
$$$$
