### 
### Created by X-TOOL on Mon Sep 10 21:13:18 2018
### 

@<TRIPOS>MOLECULE
4qbm_ligand
  172   172     1     0     0
SMALL
GAST_HUCK


@<TRIPOS>ATOM
      1 N          27.9290   -7.1910  -47.8260 N.4       1 GLY         0.2357
      2 CA         28.9880   -6.6060  -48.7000 C.3       1 GLY         0.0545
      3 C          28.4410   -5.4430  -49.4930 C.2       1 GLY         0.2236
      4 O          27.2430   -5.3870  -49.7710 O.2       1 GLY        -0.3910
      5 N          29.3250   -4.5240  -49.8690 N.am      1 ALA        -0.2615
      6 CA         28.9260   -3.2520  -50.4430 C.3       1 ALA         0.1283
      7 C          28.2380   -3.3810  -51.8150 C.2       1 ALA         0.2036
      8 O          28.4960   -4.2900  -52.6060 O.2       1 ALA        -0.3944
      9 CB         30.1160   -2.3220  -50.5510 C.3       1 ALA        -0.0244
     10 OH         21.1970    0.3240  -57.6510 O.2       1 ALY        -0.3974
     11 CH         20.9540    0.8770  -56.5720 C.2       1 ALY         0.1729
     12 CH3        19.6720    1.5300  -56.2010 C.3       1 ALY         0.0256
     13 NZ         21.8720    0.9310  -55.6130 N.am      1 ALY        -0.2872
     14 CE         23.1860    0.3260  -55.7870 C.3       1 ALY         0.0309
     15 CD         23.7870    0.0150  -54.4070 C.3       1 ALY        -0.0325
     16 CG         24.8770   -1.0380  -54.5210 C.3       1 ALY        -0.0470
     17 CB         25.6500   -1.2030  -53.2160 C.3       1 ALY        -0.0123
     18 CA         26.6570   -2.3430  -53.3330 C.3       1 ALY         0.1310
     19 N          27.3160   -2.4710  -52.0450 N.am      1 ALY        -0.2637
     20 C          27.7230   -2.0110  -54.3330 C.2       1 ALY         0.2039
     21 O          28.5670   -1.1340  -54.1000 O.2       1 ALY        -0.3944
     22 N          27.7150   -2.7210  -55.4670 N.am      1 ARG        -0.2637
     23 CA         28.6760   -2.4370  -56.5180 C.3       1 ARG         0.1311
     24 C          28.1330   -2.8710  -57.8650 C.2       1 ARG         0.2040
     25 O          27.2230   -3.6960  -57.9240 O.2       1 ARG        -0.3944
     26 CB         29.9940   -3.1630  -56.2370 C.3       1 ARG        -0.0092
     27 CG         29.8430   -4.6480  -56.1050 C.3       1 ARG        -0.0156
     28 CD         31.1660   -5.3040  -55.7160 C.3       1 ARG         0.0627
     29 NE         31.0160   -6.7560  -55.5860 N.pl3     1 ARG        -0.2723
     30 CZ         32.0150   -7.6110  -55.3650 C.cat     1 ARG         0.2882
     31 NH1        33.2720   -7.1790  -55.2350 N.pl3     1 ARG        -0.2849
     32 NH2        31.7550   -8.9140  -55.2720 N.pl3     1 ARG        -0.2849
     33 N          28.6750   -2.2850  -58.9170 N.am      1 HIS        -0.2625
     34 CA         28.2550   -2.6320  -60.2720 C.3       1 HIS         0.1369
     35 C          28.5760   -4.0810  -60.6130 C.2       1 HIS         0.2054
     36 O          29.5330   -4.6660  -60.1070 O.2       1 HIS        -0.3942
     37 CB         28.8270   -1.6870  -61.3450 C.3       1 HIS         0.0145
     38 CG         30.3240   -1.6140  -61.4150 C.2       1 HIS        -0.0027
     39 ND1        31.1170   -2.6420  -61.9020 N.2       1 HIS        -0.3252
     40 CD2        31.1710   -0.5950  -61.1330 C.2       1 HIS         0.0291
     41 CE1        32.3840   -2.2600  -61.8990 C.2       1 HIS         0.0907
     42 NE2        32.4450   -1.0250  -61.4200 N.pl3     1 HIS        -0.2752
     43 N          27.7380   -4.6580  -61.4810 N.am      1 ARG        -0.2636
     44 CA         28.0740   -5.9480  -62.1040 C.3       1 ARG         0.1311
     45 C          29.5500   -5.9250  -62.5460 C.2       1 ARG         0.2039
     46 O          30.0460   -4.9280  -63.1400 O.2       1 ARG        -0.3944
     47 CB         27.1980   -6.1420  -63.3500 C.3       1 ARG        -0.0092
     48 CG         25.7440   -6.4590  -63.0850 C.3       1 ARG        -0.0156
     49 CD         24.9450   -6.3600  -64.3730 C.3       1 ARG         0.0627
     50 NE         23.5210   -6.5840  -64.1540 N.pl3     1 ARG        -0.2723
     51 CZ         22.9640   -7.7750  -64.0060 C.cat     1 ARG         0.2882
     52 NH1        23.7300   -8.8610  -64.0060 N.pl3     1 ARG        -0.2849
     53 NH2        21.6730   -7.8930  -63.8060 N.pl3     1 ARG        -0.2849
     54 OH         38.3960  -10.7710  -62.7100 O.2       1 ALY        -0.3974
     55 CH         37.5860  -11.5630  -62.2330 C.2       1 ALY         0.1729
     56 CH3        37.9630  -12.9610  -61.8710 C.3       1 ALY         0.0256
     57 NZ         36.2820  -11.2800  -62.0150 N.am      1 ALY        -0.2872
     58 CE         35.7350   -9.9570  -62.3180 C.3       1 ALY         0.0309
     59 CD         34.2180   -9.9400  -62.1820 C.3       1 ALY        -0.0325
     60 CG         33.7020   -8.5830  -62.6320 C.3       1 ALY        -0.0470
     61 CB         32.2080   -8.4870  -62.3660 C.3       1 ALY        -0.0123
     62 CA         31.6590   -7.1010  -62.7230 C.3       1 ALY         0.1310
     63 N          30.2490   -7.0440  -62.3450 N.am      1 ALY        -0.2637
     64 C          31.9140   -6.7660  -64.1740 C.2       1 ALY         0.2039
     65 O          32.8700   -6.0630  -64.5040 O.2       1 ALY        -0.3944
     66 N          31.0520   -7.2530  -65.0840 N.am      1 VAL        -0.2635
     67 CA         31.2100   -6.9750  -66.5060 C.3       1 VAL         0.1332
     68 C          31.0780   -5.4810  -66.8850 C.2       1 VAL         0.2036
     69 O          31.4400   -5.0950  -68.0100 O.2       1 VAL        -0.3944
     70 CB         30.2380   -7.8260  -67.3610 C.3       1 VAL        -0.0063
     71 CG1        30.4860   -9.3120  -67.1320 C.3       1 VAL        -0.0584
     72 CG2        28.7880   -7.4980  -67.0090 C.3       1 VAL        -0.0584
     73 N          30.5590   -4.6330  -65.9780 N.am      1 LEU        -0.2695
     74 CA         30.4100   -3.2220  -66.2730 C.3       1 LEU         0.0946
     75 C          31.6100   -2.4250  -65.7610 C.2       1 LEU         0.0601
     76 O          32.5510   -3.0050  -65.2130 O.co2     1 LEU        -0.5666
     77 CB         29.1210   -2.6750  -65.6620 C.3       1 LEU        -0.0156
     78 CG         27.8750   -3.3310  -66.2470 C.3       1 LEU        -0.0431
     79 CD1        26.6460   -2.7470  -65.5590 C.3       1 LEU        -0.0625
     80 CD2        27.8030   -3.1850  -67.7480 C.3       1 LEU        -0.0625
     81 OXT        31.6110   -1.1900  -65.8780 O.co2     1 LEU        -0.5666
     82 H1         28.3123   -7.9645  -47.3055 H         1 GLY         0.2012
     83 H2         27.1642   -7.5160  -48.3965 H         1 GLY         0.2012
     84 H3         27.5954   -6.4877  -47.1857 H         1 GLY         0.2012
     85 H4         29.3508   -7.3781  -49.3944 H         1 GLY         0.1061
     86 H5         29.8213   -6.2558  -48.0731 H         1 GLY         0.1061
     87 H6         30.2994   -4.7159  -49.7522 H         1 ALA         0.1884
     88 H7         28.2002   -2.7965  -49.7532 H         1 ALA         0.0797
     89 H8         29.7948   -1.3647  -50.9874 H         1 ALA         0.0277
     90 H9         30.8818   -2.7796  -51.1945 H         1 ALA         0.0277
     91 H10        30.5359   -2.1459  -49.5497 H         1 ALA         0.0277
     92 H11        19.7484    1.9346  -55.1810 H         1 ALY         0.0467
     93 H12        18.8585    0.7907  -56.2423 H         1 ALY         0.0467
     94 H13        19.4600    2.3482  -56.9050 H         1 ALY         0.0467
     95 H14        21.6567    1.3963  -54.7544 H         1 ALY         0.1850
     96 H15        23.8438    1.0239  -56.3257 H         1 ALY         0.0520
     97 H16        23.0885   -0.6054  -56.3640 H         1 ALY         0.0520
     98 H17        22.9931   -0.3575  -53.7430 H         1 ALY         0.0285
     99 H18        24.2167    0.9352  -53.9845 H         1 ALY         0.0285
    100 H19        25.5783   -0.7390  -55.3139 H         1 ALY         0.0268
    101 H20        24.4147   -2.0008  -54.7842 H         1 ALY         0.0268
    102 H21        24.9439   -1.4256  -52.4025 H         1 ALY         0.0312
    103 H22        26.1853   -0.2686  -52.9915 H         1 ALY         0.0312
    104 H23        26.1465   -3.2766  -53.6119 H         1 ALY         0.0800
    105 H24        27.0601   -1.8459  -51.3076 H         1 ALY         0.1883
    106 H25        27.0434   -3.4514  -55.5915 H         1 ARG         0.1883
    107 H26        28.8636   -1.3534  -56.5425 H         1 ARG         0.0800
    108 H27        30.4140   -2.7712  -55.2989 H         1 ARG         0.0313
    109 H28        30.6886   -2.9561  -57.0644 H         1 ARG         0.0313
    110 H29        29.5065   -5.0616  -57.0671 H         1 ARG         0.0301
    111 H30        29.0931   -4.8652  -55.3301 H         1 ARG         0.0301
    112 H31        31.5033   -4.8901  -54.7543 H         1 ARG         0.0689
    113 H32        31.9158   -5.0882  -56.4913 H         1 ARG         0.0689
    114 H33        30.0665   -7.1458  -55.6719 H         1 ARG         0.2642
    115 H34        34.0328   -7.8520  -55.0645 H         1 ARG         0.2615
    116 H35        33.4806   -6.1728  -55.3052 H         1 ARG         0.2615
    117 H36        30.7880   -9.2546  -55.3712 H         1 ARG         0.2615
    118 H37        32.5209   -9.5811  -55.1009 H         1 ARG         0.2615
    119 H38        29.3842   -1.5927  -58.7837 H         1 HIS         0.1885
    120 H39        27.1606   -2.5253  -60.3006 H         1 HIS         0.0817
    121 H40        28.4483   -0.6747  -61.1407 H         1 HIS         0.0420
    122 H41        28.4588   -2.0255  -62.3247 H         1 HIS         0.0420
    123 H42        30.8935    0.3856  -60.7491 H         1 HIS         0.0729
    124 H43        33.2312   -2.8574  -62.2327 H         1 HIS         0.1199
    125 H44        33.3066   -0.4770  -61.2849 H         1 HIS         0.2361
    126 H45        26.8744   -4.2082  -61.7089 H         1 ARG         0.1883
    127 H46        27.9049   -6.7673  -61.3897 H         1 ARG         0.0800
    128 H47        27.6230   -6.9698  -63.9366 H         1 ARG         0.0313
    129 H48        27.2397   -5.2148  -63.9404 H         1 ARG         0.0313
    130 H49        25.3432   -5.7431  -62.3524 H         1 ARG         0.0301
    131 H50        25.6615   -7.4797  -62.6833 H         1 ARG         0.0301
    132 H51        25.3180   -7.1150  -65.0807 H         1 ARG         0.0689
    133 H52        25.0844   -5.3561  -64.8006 H         1 ARG         0.0689
    134 H53        22.9065   -5.7585  -64.1116 H         1 ARG         0.2642
    135 H54        23.3040   -9.7917  -63.8913 H         1 ARG         0.2615
    136 H55        24.7497   -8.7720  -64.1207 H         1 ARG         0.2615
    137 H56        21.0734   -7.0555  -63.8047 H         1 ARG         0.2615
    138 H57        21.2589   -8.8231  -63.6502 H         1 ARG         0.2615
    139 H58        37.0847  -13.4841  -61.4648 H         1 ALY         0.0467
    140 H59        38.7607  -12.9413  -61.1138 H         1 ALY         0.0467
    141 H60        38.3214  -13.4880  -62.7676 H         1 ALY         0.0467
    142 H61        35.6814  -11.9865  -61.6405 H         1 ALY         0.1850
    143 H62        36.0052   -9.6853  -63.3491 H         1 ALY         0.0520
    144 H63        36.1653   -9.2232  -61.6206 H         1 ALY         0.0520
    145 H64        33.9388  -10.1122  -61.1321 H         1 ALY         0.0285
    146 H65        33.7813  -10.7291  -62.8117 H         1 ALY         0.0285
    147 H66        33.8900   -8.4593  -63.7087 H         1 ALY         0.0268
    148 H67        34.2238   -7.7907  -62.0752 H         1 ALY         0.0268
    149 H68        32.0222   -8.6805  -61.2992 H         1 ALY         0.0312
    150 H69        31.6882   -9.2437  -62.9720 H         1 ALY         0.0312
    151 H70        32.1961   -6.3546  -62.1193 H         1 ALY         0.0800
    152 H71        29.8079   -7.8428  -61.9360 H         1 ALY         0.1883
    153 H72        30.2858   -7.8183  -64.7784 H         1 VAL         0.1883
    154 H73        32.2330   -7.2800  -66.7714 H         1 VAL         0.0802
    155 H74        30.4085   -7.5952  -68.4229 H         1 VAL         0.0343
    156 H75        29.7877   -9.8992  -67.7464 H         1 VAL         0.0234
    157 H76        30.3293   -9.5505  -66.0697 H         1 VAL         0.0234
    158 H77        31.5199   -9.5590  -67.4147 H         1 VAL         0.0234
    159 H78        28.6044   -6.4259  -67.1729 H         1 VAL         0.0234
    160 H79        28.6022   -7.7446  -65.9532 H         1 VAL         0.0234
    161 H80        28.1134   -8.0873  -67.6475 H         1 VAL         0.0234
    162 H81        30.2715   -4.9822  -65.0861 H         1 LEU         0.1875
    163 H82        30.3550   -3.1028  -67.3651 H         1 LEU         0.0726
    164 H83        29.0721   -1.5926  -65.8515 H         1 LEU         0.0308
    165 H84        29.1395   -2.8569  -64.5773 H         1 LEU         0.0308
    166 H85        27.9165   -4.4067  -66.0210 H         1 LEU         0.0297
    167 H86        25.7388   -3.2122  -65.9721 H         1 LEU         0.0232
    168 H87        26.6115   -1.6609  -65.7299 H         1 LEU         0.0232
    169 H88        26.7010   -2.9467  -64.4787 H         1 LEU         0.0232
    170 H89        28.7064   -3.6180  -68.2022 H         1 LEU         0.0232
    171 H90        27.7360   -2.1188  -68.0099 H         1 LEU         0.0232
    172 H91        26.9143   -3.7119  -68.1255 H         1 LEU         0.0232
@<TRIPOS>BOND
     1    2    1 1  
     2    3    2 1  
     3    3    4 2  
     4    5    3 am 
     5    6    5 1  
     6    7    6 1  
     7    6    9 1  
     8    7    8 2  
     9   19    7 am 
    10   11   10 2  
    11   11   12 1  
    12   13   11 am 
    13   14   13 1  
    14   15   14 1  
    15   16   15 1  
    16   17   16 1  
    17   18   17 1  
    18   18   19 1  
    19   20   18 1  
    20   20   21 2  
    21   22   20 am 
    22   23   22 1  
    23   24   23 1  
    24   23   26 1  
    25   24   25 2  
    26   33   24 am 
    27   26   27 1  
    28   27   28 1  
    29   28   29 1  
    30   29   30 ar 
    31   30   31 ar 
    32   30   32 ar 
    33   34   33 1  
    34   35   34 1  
    35   34   37 1  
    36   35   36 2  
    37   43   35 am 
    38   37   38 1  
    39   38   39 1  
    40   38   40 2  
    41   39   41 2  
    42   40   42 1  
    43   42   41 1  
    44   44   43 1  
    45   45   44 1  
    46   44   47 1  
    47   45   46 2  
    48   63   45 am 
    49   47   48 1  
    50   48   49 1  
    51   49   50 1  
    52   50   51 ar 
    53   51   52 ar 
    54   51   53 ar 
    55   55   54 2  
    56   55   56 1  
    57   57   55 am 
    58   58   57 1  
    59   59   58 1  
    60   60   59 1  
    61   61   60 1  
    62   62   61 1  
    63   62   63 1  
    64   62   64 1  
    65   64   65 2  
    66   64   66 am 
    67   66   67 1  
    68   67   68 1  
    69   67   70 1  
    70   68   69 2  
    71   68   73 am 
    72   70   71 1  
    73   70   72 1  
    74   73   74 1  
    75   74   75 1  
    76   74   77 1  
    77   75   76 ar 
    78   75   81 ar 
    79   77   78 1  
    80   78   79 1  
    81   78   80 1  
    82    1   82 1  
    83    1   83 1  
    84    1   84 1  
    85    2   85 1  
    86    2   86 1  
    87    5   87 1  
    88    6   88 1  
    89    9   89 1  
    90    9   90 1  
    91    9   91 1  
    92   12   92 1  
    93   12   93 1  
    94   12   94 1  
    95   13   95 1  
    96   14   96 1  
    97   14   97 1  
    98   15   98 1  
    99   15   99 1  
   100   16  100 1  
   101   16  101 1  
   102   17  102 1  
   103   17  103 1  
   104   18  104 1  
   105   19  105 1  
   106   22  106 1  
   107   23  107 1  
   108   26  108 1  
   109   26  109 1  
   110   27  110 1  
   111   27  111 1  
   112   28  112 1  
   113   28  113 1  
   114   29  114 1  
   115   31  115 1  
   116   31  116 1  
   117   32  117 1  
   118   32  118 1  
   119   33  119 1  
   120   34  120 1  
   121   37  121 1  
   122   37  122 1  
   123   40  123 1  
   124   41  124 1  
   125   42  125 1  
   126   43  126 1  
   127   44  127 1  
   128   47  128 1  
   129   47  129 1  
   130   48  130 1  
   131   48  131 1  
   132   49  132 1  
   133   49  133 1  
   134   50  134 1  
   135   52  135 1  
   136   52  136 1  
   137   53  137 1  
   138   53  138 1  
   139   56  139 1  
   140   56  140 1  
   141   56  141 1  
   142   57  142 1  
   143   58  143 1  
   144   58  144 1  
   145   59  145 1  
   146   59  146 1  
   147   60  147 1  
   148   60  148 1  
   149   61  149 1  
   150   61  150 1  
   151   62  151 1  
   152   63  152 1  
   153   66  153 1  
   154   67  154 1  
   155   70  155 1  
   156   71  156 1  
   157   71  157 1  
   158   71  158 1  
   159   72  159 1  
   160   72  160 1  
   161   72  161 1  
   162   73  162 1  
   163   74  163 1  
   164   77  164 1  
   165   77  165 1  
   166   78  166 1  
   167   79  167 1  
   168   79  168 1  
   169   79  169 1  
   170   80  170 1  
   171   80  171 1  
   172   80  172 1  
@<TRIPOS>SUBSTRUCTURE
     1 GLY         1

