6ul8_ligand
  -I-interpret- 

 42 46  0  0  0  0  0  0  0  0999 V2000
   35.5220  -41.5660   -4.2120 C   0  0  0  0  0
   36.5930  -41.0750   -1.9470 C   0  0  0  0  0
   35.8460  -36.6100   -0.4040 C   0  0  0  0  0
   35.0900  -34.6830    1.4360 C   0  0  0  0  0
   35.7710  -34.6520    3.7570 C   0  0  0  0  0
   35.9210  -35.7350    1.8430 C   0  0  0  0  0
   37.3100  -35.1370   -2.8900 N   0  0  0  0  0
   37.1060  -36.3100   -3.4870 C   0  0  0  0  0
   37.2110  -36.4070   -4.7190 O   0  0  0  0  0
   36.8030  -37.5080   -2.6980 C   0  0  0  0  0
   37.0090  -38.8190   -3.1120 C   0  0  0  0  0
   37.5240  -39.1980   -4.3270 N   0  0  0  0  0
   37.5900  -40.5300   -4.9320 C   0  0  0  0  0
   37.9390  -41.6740   -3.9730 C   0  0  0  0  0
   36.6370  -41.9230   -3.2120 C   0  0  0  0  0
   36.2370  -41.0200   -5.4400 C   0  0  0  0  0
   36.4200  -42.0590   -6.4010 O   0  0  0  0  0
   36.6180  -39.6260   -2.0970 N   0  0  0  0  0
   36.1510  -38.9080   -1.0280 N   0  0  0  0  0
   36.2550  -37.6340   -1.3830 C   0  0  0  0  0
   35.0210  -35.5540   -0.7840 C   0  0  0  0  0
   34.6430  -34.5830    0.1250 C   0  0  0  0  0
   34.7800  -33.6210    2.7710 S   0  0  0  0  0
   36.2940  -35.6840    3.1860 N   0  0  0  0  0
   36.3040  -36.7070    0.9140 C   0  0  0  0  0
   34.8300  -40.8346   -3.7945 H   0  0  0  0  0
   34.9127  -42.4356   -4.4582 H   0  0  0  0  0
   37.5007  -41.3256   -1.3980 H   0  0  0  0  0
   35.6352  -41.3018   -1.4788 H   0  0  0  0  0
   35.9434  -34.4366    4.8115 H   0  0  0  0  0
   37.5529  -34.3171   -3.4461 H   0  0  0  0  0
   37.2233  -35.0586   -1.8767 H   0  0  0  0  0
   37.9172  -38.4432   -4.8892 H   0  0  0  0  0
   38.3503  -40.3596   -5.6942 H   0  0  0  0  0
   38.7655  -41.4209   -3.3090 H   0  0  0  0  0
   38.2891  -42.5629   -4.4978 H   0  0  0  0  0
   36.5302  -42.9521   -2.8690 H   0  0  0  0  0
   35.6706  -40.2245   -5.9243 H   0  0  0  0  0
   35.5632  -42.3591   -6.7132 H   0  0  0  0  0
   34.6681  -35.4921   -1.8134 H   0  0  0  0  0
   34.0055  -33.7538   -0.1820 H   0  0  0  0  0
   36.9520  -37.5308    1.2133 H   0  0  0  0  0
 15  1  1  0  0  0
  1 16  1  0  0  0
  2 15  1  0  0  0
 18  2  1  0  0  0
 20  3  1  0  0  0
  3 21  4  0  0  0
  3 25  4  0  0  0
  6  4  4  0  0  0
  4 22  4  0  0  0
  4 23  4  0  0  0
  5 23  4  0  0  0
 24  5  4  0  0  0
  6 24  4  0  0  0
 25  6  4  0  0  0
  8  7  1  0  0  0
  8  9  2  0  0  0
 10  8  1  0  0  0
 11 10  4  0  0  0
 10 20  4  0  0  0
 11 12  1  0  0  0
 11 18  4  0  0  0
 12 13  1  0  0  0
 13 14  1  0  0  0
 13 16  1  0  0  0
 14 15  1  0  0  0
 16 17  1  0  0  0
 18 19  4  0  0  0
 19 20  4  0  0  0
 21 22  4  0  0  0
  1 26  1  0  0  0
  1 27  1  0  0  0
  2 28  1  0  0  0
  2 29  1  0  0  0
  5 30  1  0  0  0
  7 31  1  0  0  0
  7 32  1  0  0  0
 12 33  1  0  0  0
 13 34  1  0  0  0
 14 35  1  0  0  0
 14 36  1  0  0  0
 15 37  1  0  0  0
 16 38  1  0  0  0
 17 39  1  0  0  0
 21 40  1  0  0  0
 22 41  1  0  0  0
 25 42  1  0  0  0
M  END
$$$$
