1c3i_ligand
  -I-interpret- 

 64 65  0  0  0  0  0  0  0  0999 V2000
   39.7760  -48.5280   -1.6220 N   0  3  0  0  0
   39.8700  -48.2370   -0.1400 C   0  0  0  0  0
   41.3050  -48.4470    0.3440 C   0  0  0  0  0
   41.7440  -47.8030    1.2830 O   0  0  0  0  0
   40.9660  -47.7210   -7.9970 C   0  0  0  0  0
   41.5310  -46.6570   -8.7140 C   0  0  0  0  0
   40.7060  -48.9180   -8.6730 C   0  0  0  0  0
   41.7790  -46.7770  -10.0810 C   0  0  0  0  0
   40.9860  -49.0490  -10.0380 C   0  0  0  0  0
   41.5060  -47.9760  -10.7530 C   0  0  0  0  0
   40.1710  -47.3840   -3.8460 C   0  0  0  0  0
   39.9240  -46.3090   -4.7170 C   0  0  0  0  0
   40.6740  -48.5660   -4.3860 C   0  0  0  0  0
   40.1890  -46.4320   -6.0730 C   0  0  0  0  0
   40.9430  -48.6970   -5.7580 C   0  0  0  0  0
   40.7010  -47.6190   -6.6220 C   0  0  0  0  0
   39.8950  -47.2310   -2.3470 C   0  0  0  0  0
   38.9250  -49.2080    0.6270 C   0  0  0  0  0
   37.1920  -48.8670    0.1010 S   0  0  0  0  0
   42.0510  -49.3850   -0.2660 N   0  0  0  0  0
   43.4210  -49.6680    0.1840 C   0  0  0  0  0
   44.3980  -49.1460   -0.8400 C   0  0  0  0  0
   44.1330  -49.2510   -2.0230 O   0  0  0  0  0
   45.5470  -48.5840   -0.4180 N   0  0  0  0  0
   46.5110  -48.0380   -1.3650 C   0  0  0  0  0
   47.5260  -47.1350   -0.5850 C   0  0  0  0  0
   48.5880  -47.9980    0.1600 C   0  0  0  0  0
   48.1860  -46.1350   -1.5810 C   0  0  0  0  0
   47.1450  -49.1320   -2.1890 C   0  0  0  0  0
   47.2000  -50.2520   -1.7200 O   0  0  0  0  0
   47.6460  -48.8800   -3.4130 O   0  0  0  0  0
   48.7310  -49.6910   -3.9050 C   0  0  0  0  0
   40.5212  -49.1635   -1.9069 H   0  0  0  0  0
   38.8860  -48.9761   -1.8400 H   0  0  0  0  0
   39.5778  -47.2033    0.0445 H   0  0  0  0  0
   41.7784  -45.7287   -8.1990 H   0  0  0  0  0
   40.2793  -49.7606   -8.1288 H   0  0  0  0  0
   42.1889  -45.9305  -10.6318 H   0  0  0  0  0
   40.7956  -49.9962  -10.5426 H   0  0  0  0  0
   41.6988  -48.0662  -11.8220 H   0  0  0  0  0
   39.5224  -45.3745   -4.3252 H   0  0  0  0  0
   40.8638  -49.4120   -3.7254 H   0  0  0  0  0
   39.9946  -45.5845   -6.7303 H   0  0  0  0  0
   41.3387  -49.6338   -6.1504 H   0  0  0  0  0
   40.7384  -46.6929   -1.9144 H   0  0  0  0  0
   38.9422  -46.7119   -2.2432 H   0  0  0  0  0
   39.0259  -49.0561    1.7016 H   0  0  0  0  0
   39.1876  -50.2414    0.4004 H   0  0  0  0  0
   36.3656  -49.6865    0.7447 H   0  0  0  0  0
   41.6610  -49.9066   -1.0510 H   0  0  0  0  0
   43.5528  -50.7438    0.2999 H   0  0  0  0  0
   43.5994  -49.1793    1.1418 H   0  0  0  0  0
   45.7459  -48.5398    0.5814 H   0  0  0  0  0
   46.0158  -47.4009   -2.0978 H   0  0  0  0  0
   46.9953  -46.5680    0.1799 H   0  0  0  0  0
   48.0868  -48.6545    0.8713 H   0  0  0  0  0
   49.1394  -48.5980   -0.5639 H   0  0  0  0  0
   49.2781  -47.3432    0.6920 H   0  0  0  0  0
   48.7102  -46.6910   -2.3583 H   0  0  0  0  0
   47.4141  -45.5135   -2.0349 H   0  0  0  0  0
   48.8938  -45.5034   -1.0442 H   0  0  0  0  0
   49.5855  -49.5977   -3.2348 H   0  0  0  0  0
   48.4136  -50.7329   -3.9482 H   0  0  0  0  0
   49.0116  -49.3537   -4.9028 H   0  0  0  0  0
  1 17  1  0  0  0
  1  2  1  0  0  0
  2 18  1  0  0  0
  2  3  1  0  0  0
  3 20  1  0  0  0
  3  4  2  0  0  0
 20 21  1  0  0  0
 21 22  1  0  0  0
 22 24  1  0  0  0
 22 23  2  0  0  0
 24 25  1  0  0  0
 25 29  1  0  0  0
 25 26  1  0  0  0
 26 28  1  0  0  0
 26 27  1  0  0  0
 29 31  1  0  0  0
 29 30  2  0  0  0
 31 32  1  0  0  0
 18 19  1  0  0  0
 17 11  1  0  0  0
 11 13  4  0  0  0
 11 12  4  0  0  0
 12 14  4  0  0  0
 14 16  4  0  0  0
 16 15  4  0  0  0
 16  5  1  0  0  0
  5  7  4  0  0  0
  5  6  4  0  0  0
  6  8  4  0  0  0
  8 10  4  0  0  0
 10  9  4  0  0  0
  9  7  4  0  0  0
 15 13  4  0  0  0
  1 33  1  0  0  0
  1 34  1  0  0  0
  2 35  1  0  0  0
  6 36  1  0  0  0
  7 37  1  0  0  0
  8 38  1  0  0  0
  9 39  1  0  0  0
 10 40  1  0  0  0
 12 41  1  0  0  0
 13 42  1  0  0  0
 14 43  1  0  0  0
 15 44  1  0  0  0
 17 45  1  0  0  0
 17 46  1  0  0  0
 18 47  1  0  0  0
 18 48  1  0  0  0
 19 49  1  0  0  0
 20 50  1  0  0  0
 21 51  1  0  0  0
 21 52  1  0  0  0
 24 53  1  0  0  0
 25 54  1  0  0  0
 26 55  1  0  0  0
 27 56  1  0  0  0
 27 57  1  0  0  0
 27 58  1  0  0  0
 28 59  1  0  0  0
 28 60  1  0  0  0
 28 61  1  0  0  0
 32 62  1  0  0  0
 32 63  1  0  0  0
 32 64  1  0  0  0
M  END
$$$$
