2fvc_ligand
  -I-interpret- 

 50 53  0  0  0  0  0  0  0  0999 V2000
    9.4220   43.8660   46.6730 C   0  0  0  0  0
    8.7810   42.7530   46.0700 C   0  0  0  0  0
    8.7180   42.6470   44.6610 C   0  0  0  0  0
    9.2970   43.6510   43.8480 C   0  0  0  0  0
    9.9400   44.7690   44.4500 C   0  0  0  0  0
    9.9920   44.8630   45.8540 C   0  0  0  0  0
   10.7820   46.2330   46.6650 S   0  0  0  0  0
   10.4200   46.1220   48.2460 N   0  0  0  0  0
    9.9560   44.9680   48.8020 C   0  0  0  0  0
    9.4990   43.9480   48.0190 N   0  0  0  0  0
    9.9960   44.7030   50.2850 C   0  0  0  0  0
   10.8600   45.4330   51.0770 C   0  0  0  0  0
   10.9310   45.1330   52.5230 C   0  0  0  0  0
   10.1030   44.0990   53.0960 C   0  0  0  0  0
    9.1890   43.3580   52.2830 N   0  0  0  0  0
    9.1170   43.6210   50.9090 C   0  0  0  0  0
   11.8400   45.8670   53.3400 C   0  0  0  0  0
   11.9540   45.6010   54.7130 C   0  0  0  0  0
   11.1620   44.5950   55.2880 C   0  0  0  0  0
   10.2470   43.8590   54.4980 C   0  0  0  0  0
   11.6860   46.4310   50.5940 O   0  0  0  0  0
    8.3730   43.0060   50.1480 O   0  0  0  0  0
    8.3170   42.2770   52.8790 C   0  0  0  0  0
    6.9650   42.6370   53.5720 C   0  0  0  0  0
    6.0320   43.5710   52.7610 C   0  0  0  0  0
    4.9230   44.1220   53.6690 C   0  0  0  0  0
   10.1890   47.4500   46.2130 O   0  0  0  0  0
   12.1910   46.0730   46.5170 O   0  0  0  0  0
    5.3930   42.8330   51.5650 C   0  0  0  0  0
    8.3361   41.9779   46.6940 H   0  0  0  0  0
    8.2233   41.7917   44.2008 H   0  0  0  0  0
    9.2504   43.5679   42.7622 H   0  0  0  0  0
   10.3881   45.5454   43.8299 H   0  0  0  0  0
   10.5441   46.9418   48.8401 H   0  0  0  0  0
   12.4557   46.6466   52.8913 H   0  0  0  0  0
   12.6513   46.1705   55.3275 H   0  0  0  0  0
   11.2524   44.3786   56.3525 H   0  0  0  0  0
    9.6365   43.0895   54.9705 H   0  0  0  0  0
   12.1967   46.8005   51.3181 H   0  0  0  0  0
    8.9240   41.8555   53.6802 H   0  0  0  0  0
    8.0249   41.6675   52.0238 H   0  0  0  0  0
    7.2170   43.1685   54.4897 H   0  0  0  0  0
    6.4256   41.6998   53.7087 H   0  0  0  0  0
    6.6381   44.3906   52.3750 H   0  0  0  0  0
    4.3403   43.2938   54.0722 H   0  0  0  0  0
    5.3716   44.6847   54.4877 H   0  0  0  0  0
    4.2727   44.7772   53.0894 H   0  0  0  0  0
    6.1784   42.4691   50.9025 H   0  0  0  0  0
    4.8056   41.9909   51.9311 H   0  0  0  0  0
    4.7454   43.5197   51.0199 H   0  0  0  0  0
  1  2  4  0  0  0
  1  6  4  0  0  0
  1 10  1  0  0  0
  2  3  4  0  0  0
  3  4  4  0  0  0
  4  5  4  0  0  0
  5  6  4  0  0  0
  6  7  1  0  0  0
  7  8  1  0  0  0
  7 27  2  0  0  0
  7 28  2  0  0  0
  8  9  1  0  0  0
  9 10  2  0  0  0
  9 11  1  0  0  0
 11 12  2  0  0  0
 11 16  1  0  0  0
 12 13  1  0  0  0
 12 21  1  0  0  0
 13 14  4  0  0  0
 13 17  4  0  0  0
 14 15  1  0  0  0
 14 20  4  0  0  0
 15 16  1  0  0  0
 15 23  1  0  0  0
 16 22  2  0  0  0
 17 18  4  0  0  0
 18 19  4  0  0  0
 19 20  4  0  0  0
 23 24  1  0  0  0
 24 25  1  0  0  0
 25 26  1  0  0  0
 25 29  1  0  0  0
  2 30  1  0  0  0
  3 31  1  0  0  0
  4 32  1  0  0  0
  5 33  1  0  0  0
  8 34  1  0  0  0
 17 35  1  0  0  0
 18 36  1  0  0  0
 19 37  1  0  0  0
 20 38  1  0  0  0
 21 39  1  0  0  0
 23 40  1  0  0  0
 23 41  1  0  0  0
 24 42  1  0  0  0
 24 43  1  0  0  0
 25 44  1  0  0  0
 26 45  1  0  0  0
 26 46  1  0  0  0
 26 47  1  0  0  0
 29 48  1  0  0  0
 29 49  1  0  0  0
 29 50  1  0  0  0
M  END
$$$$
