### 
### Created by X-TOOL on Mon Sep 10 21:12:45 2018
### 

@<TRIPOS>MOLECULE
1rne_ligand
  114   116     1     0     0
SMALL
GAST_HUCK


@<TRIPOS>ATOM
      1 CS1         9.1160   16.0980   59.0500 C.3       1 C60         0.0796
      2 CS2         7.8530   16.9150   59.3700 C.3       1 C60        -0.0405
      3 CS3         8.7990   15.0250   57.9910 C.3       1 C60        -0.0405
      4 CS4        10.2730   16.9410   58.5040 C.3       1 C60        -0.0405
      5 CNF         9.8840   16.5330   61.7090 C.3       1 C60         0.0876
      6 CAF        10.5650   15.8190   62.8580 C.3       1 C60         0.0776
      7 CBF        11.2310   16.8380   63.6810 C.3       1 C60         0.0021
      8 C1F        12.3950   17.4700   62.9910 C.ar      1 C60        -0.0405
      9 C2F        12.1620   18.6860   62.4280 C.ar      1 C60        -0.0602
     10 C3F        13.2060   19.3510   61.7750 C.ar      1 C60        -0.0686
     11 C4F        14.5050   18.7940   61.7260 C.ar      1 C60        -0.0687
     12 C5F        14.7640   17.5730   62.3190 C.ar      1 C60        -0.0686
     13 C6F        13.7010   16.9050   62.9720 C.ar      1 C60        -0.0602
     14 CF          9.6000   15.3690   63.8630 C.2       1 C60         0.1849
     15 CAH         9.1070   13.6870   65.4460 C.3       1 C60         0.1367
     16 CBH         8.1770   12.5680   64.9110 C.3       1 C60         0.0145
     17 C1H         6.8770   12.2330   65.6820 C.2       1 C60        -0.0027
     18 C2H         5.6480   12.7740   65.5600 C.2       1 C60         0.0291
     19 C3H         5.5210   11.1890   67.0860 C.2       1 C60         0.0907
     20 CH         10.0840   13.1450   66.4600 C.2       1 C60         0.2034
     21 CAC        10.9580   13.6050   68.7020 C.3       1 C60         0.0683
     22 CBC        11.5650   14.8660   69.2410 C.3       1 C60        -0.0246
     23 C1C        12.3190   15.4980   68.1170 C.3       1 C60        -0.0389
     24 C2C        13.1700   16.6640   68.6050 C.3       1 C60        -0.0501
     25 C3C        13.8010   17.2940   67.3620 C.3       1 C60        -0.0528
     26 C4C        14.8180   16.3160   66.7630 C.3       1 C60        -0.0530
     27 C5C        14.2450   14.9070   66.5540 C.3       1 C60        -0.0528
     28 C6C        13.2460   14.4230   67.6390 C.3       1 C60        -0.0501
     29 CC         10.2730   12.9040   69.8880 C.3       1 C60         0.0804
     30 CNV         9.5990   11.6040   69.4900 C.3       1 C60        -0.0047
     31 CAV         9.4900   10.6970   70.6930 C.3       1 C60         0.0533
     32 CBV         8.3540    9.6780   70.5370 C.3       1 C60        -0.0269
     33 C1V         8.6710    8.5120   71.3910 C.3       1 C60        -0.0603
     34 C2V         7.0380   10.1740   71.0900 C.3       1 C60        -0.0603
     35 CV         10.7830    9.9610   70.9650 C.2       1 C60         0.1794
     36 C1T        12.0110    8.9910   72.9110 C.3       1 C60         0.0309
     37 C2T        13.3710    9.5010   72.6680 C.3       1 C60        -0.0330
     38 C3T        14.2550    8.5750   73.4820 C.3       1 C60        -0.0541
     39 C4T        15.6900    8.7540   72.9610 C.3       1 C60        -0.0652
     40 SS          9.7080   15.3800   60.4890 S.o2      1 C60        -0.0237
     41 OS1        10.9360   14.7290   60.1540 O.2       1 C60        -0.1737
     42 OS2         8.8400   14.4200   60.9770 O.2       1 C60        -0.1737
     43 OF          8.6780   16.0960   64.1250 O.2       1 C60        -0.3964
     44 OH         10.7220   12.0980   66.2910 O.2       1 C60        -0.3944
     45 OC          9.3960   13.7580   70.6190 O.3       1 C60        -0.3894
     46 OV         11.5020    9.6090   70.0400 O.2       1 C60        -0.3968
     47 NH          9.9130   14.2450   64.4430 N.am      1 C60        -0.2640
     48 N1H         6.7750   11.2140   66.6560 N.2       1 C60        -0.3252
     49 N2H         4.8150   12.1090   66.4480 N.pl3     1 C60        -0.2752
     50 NC         10.1340   13.8920   67.5440 N.am      1 C60        -0.2794
     51 NT         10.9780    9.7270   72.2600 N.am      1 C60        -0.2867
     52 H1          7.4715   17.3767   58.4474 H         1 C60         0.0251
     53 H2          8.0997   17.7013   60.0986 H         1 C60         0.0251
     54 H3          7.0844   16.2514   59.7928 H         1 C60         0.0251
     55 H4          8.4215   15.5103   57.0789 H         1 C60         0.0251
     56 H5          8.0354   14.3371   58.3831 H         1 C60         0.0251
     57 H6          9.7137   14.4615   57.7548 H         1 C60         0.0251
     58 H7          9.9592   17.4346   57.5724 H         1 C60         0.0251
     59 H8         11.1368   16.2908   58.3015 H         1 C60         0.0251
     60 H9         10.5536   17.7030   59.2461 H         1 C60         0.0251
     61 H10         8.9000   16.9116   62.0229 H         1 C60         0.0529
     62 H11        10.5041   17.3708   61.3575 H         1 C60         0.0529
     63 H12        11.2294   15.0193   62.4988 H         1 C60         0.0577
     64 H13        11.5870   16.3637   64.6075 H         1 C60         0.0454
     65 H14        10.5006   17.6226   63.9279 H         1 C60         0.0454
     66 H15        11.1773   19.1357   62.4845 H         1 C60         0.0557
     67 H16        13.0163   20.3067   61.3000 H         1 C60         0.0599
     68 H17        15.3017   19.3277   61.2206 H         1 C60         0.0559
     69 H18        15.7563   17.1379   62.2848 H         1 C60         0.0599
     70 H19        13.8830   15.9552   63.4617 H         1 C60         0.0557
     71 H20         8.4840   14.4704   65.9023 H         1 C60         0.0817
     72 H21         8.7743   11.6451   64.8720 H         1 C60         0.0420
     73 H22         7.8807   12.8564   63.8917 H         1 C60         0.0420
     74 H23         5.3623   13.5828   64.8890 H         1 C60         0.0729
     75 H24         5.1316   10.5148   67.8474 H         1 C60         0.1199
     76 H25        11.7676   12.9459   68.3554 H         1 C60         0.0582
     77 H26        12.2481   14.6326   70.0710 H         1 C60         0.0291
     78 H27        10.7753   15.5446   69.5958 H         1 C60         0.0291
     79 H28        11.6357   15.8302   67.3216 H         1 C60         0.0302
     80 H29        13.9538   16.3027   69.2869 H         1 C60         0.0268
     81 H30        12.5413   17.4008   69.1264 H         1 C60         0.0268
     82 H31        14.3095   18.2287   67.6409 H         1 C60         0.0265
     83 H32        13.0175   17.5099   66.6208 H         1 C60         0.0265
     84 H33        15.6798   16.2464   67.4430 H         1 C60         0.0265
     85 H34        15.1494   16.7074   65.7899 H         1 C60         0.0265
     86 H35        15.0867   14.1993   66.5289 H         1 C60         0.0265
     87 H36        13.7252   14.8931   65.5847 H         1 C60         0.0265
     88 H37        12.6433   13.6049   67.2177 H         1 C60         0.0268
     89 H38        13.8202   14.0497   68.4998 H         1 C60         0.0268
     90 H39        11.0801   12.6301   70.5834 H         1 C60         0.0618
     91 H40        10.1950   11.1070   68.7104 H         1 C60         0.0318
     92 H41         8.5925   11.8182   69.1014 H         1 C60         0.0318
     93 H42         9.2660   11.3281   71.5656 H         1 C60         0.0541
     94 H43         8.2493    9.3932   69.4797 H         1 C60         0.0322
     95 H44         7.8714    7.7622   71.2993 H         1 C60         0.0234
     96 H45         8.7513    8.8361   72.4391 H         1 C60         0.0234
     97 H46         9.6259    8.0708   71.0694 H         1 C60         0.0234
     98 H47         6.7076   11.0530   70.5171 H         1 C60         0.0234
     99 H48         7.1656   10.4518   72.1466 H         1 C60         0.0234
    100 H49         6.2828    9.3783   71.0087 H         1 C60         0.0234
    101 H50        11.9663    7.9503   72.5576 H         1 C60         0.0520
    102 H51        11.8222    9.0189   73.9943 H         1 C60         0.0520
    103 H52        13.4677   10.5404   73.0150 H         1 C60         0.0285
    104 H53        13.6251    9.4461   71.5992 H         1 C60         0.0285
    105 H54        13.9323    7.5317   73.3503 H         1 C60         0.0263
    106 H55        14.2035    8.8430   74.5476 H         1 C60         0.0263
    107 H56        16.3694    8.0983   73.5253 H         1 C60         0.0230
    108 H57        15.9994    9.8015   73.0911 H         1 C60         0.0230
    109 H58        15.7282    8.4902   71.8938 H         1 C60         0.0230
    110 H59         8.7125   14.0773   70.0415 H         1 C60         0.2099
    111 H60        10.7478   13.7689   64.1664 H         1 C60         0.1884
    112 H61         3.8125   12.2997   66.5877 H         1 C60         0.2361
    113 H62         9.5644   14.7135   67.5700 H         1 C60         0.1855
    114 H63        10.2954   10.1289   72.8703 H         1 C60         0.1851
@<TRIPOS>BOND
     1   40    1 1  
     2    1    4 1  
     3    1    3 1  
     4    1    2 1  
     5   40   42 2  
     6   40   41 2  
     7   40    5 1  
     8    5    6 1  
     9    6   14 1  
    10    6    7 1  
    11    7    8 1  
    12    8   13 ar 
    13    8    9 ar 
    14    9   10 ar 
    15   10   11 ar 
    16   11   12 ar 
    17   12   13 ar 
    18   14   47 am 
    19   14   43 2  
    20   47   15 1  
    21   15   20 1  
    22   15   16 1  
    23   16   17 1  
    24   17   48 1  
    25   17   18 2  
    26   18   49 1  
    27   49   19 1  
    28   19   48 2  
    29   20   50 am 
    30   20   44 2  
    31   50   21 1  
    32   21   29 1  
    33   21   22 1  
    34   22   23 1  
    35   23   28 1  
    36   23   24 1  
    37   24   25 1  
    38   25   26 1  
    39   26   27 1  
    40   27   28 1  
    41   29   45 1  
    42   29   30 1  
    43   30   31 1  
    44   31   35 1  
    45   31   32 1  
    46   32   34 1  
    47   32   33 1  
    48   35   51 am 
    49   35   46 2  
    50   51   36 1  
    51   36   37 1  
    52   37   38 1  
    53   38   39 1  
    54    2   52 1  
    55    2   53 1  
    56    2   54 1  
    57    3   55 1  
    58    3   56 1  
    59    3   57 1  
    60    4   58 1  
    61    4   59 1  
    62    4   60 1  
    63    5   61 1  
    64    5   62 1  
    65    6   63 1  
    66    7   64 1  
    67    7   65 1  
    68    9   66 1  
    69   10   67 1  
    70   11   68 1  
    71   12   69 1  
    72   13   70 1  
    73   15   71 1  
    74   16   72 1  
    75   16   73 1  
    76   18   74 1  
    77   19   75 1  
    78   21   76 1  
    79   22   77 1  
    80   22   78 1  
    81   23   79 1  
    82   24   80 1  
    83   24   81 1  
    84   25   82 1  
    85   25   83 1  
    86   26   84 1  
    87   26   85 1  
    88   27   86 1  
    89   27   87 1  
    90   28   88 1  
    91   28   89 1  
    92   29   90 1  
    93   30   91 1  
    94   30   92 1  
    95   31   93 1  
    96   32   94 1  
    97   33   95 1  
    98   33   96 1  
    99   33   97 1  
   100   34   98 1  
   101   34   99 1  
   102   34  100 1  
   103   36  101 1  
   104   36  102 1  
   105   37  103 1  
   106   37  104 1  
   107   38  105 1  
   108   38  106 1  
   109   39  107 1  
   110   39  108 1  
   111   39  109 1  
   112   45  110 1  
   113   47  111 1  
   114   49  112 1  
   115   50  113 1  
   116   51  114 1  
@<TRIPOS>SUBSTRUCTURE
     1 C60         1

