1rne_ligand
  -I-interpret- 

113115  0  0  0  0  0  0  0  0999 V2000
    9.1160   16.0980   59.0500 C   0  0  0  0  0
    7.8530   16.9150   59.3700 C   0  0  0  0  0
    8.7990   15.0250   57.9910 C   0  0  0  0  0
   10.2730   16.9410   58.5040 C   0  0  0  0  0
    9.8840   16.5330   61.7090 C   0  0  0  0  0
   10.5650   15.8190   62.8580 C   0  0  0  0  0
   11.2310   16.8380   63.6810 C   0  0  0  0  0
   12.3950   17.4700   62.9910 C   0  0  0  0  0
   12.1620   18.6860   62.4280 C   0  0  0  0  0
   13.2060   19.3510   61.7750 C   0  0  0  0  0
   14.5050   18.7940   61.7260 C   0  0  0  0  0
   14.7640   17.5730   62.3190 C   0  0  0  0  0
   13.7010   16.9050   62.9720 C   0  0  0  0  0
    9.6000   15.3690   63.8630 C   0  0  0  0  0
    9.1070   13.6870   65.4460 C   0  0  0  0  0
    8.1770   12.5680   64.9110 C   0  0  0  0  0
    6.8770   12.2330   65.6820 C   0  0  0  0  0
    5.6480   12.7740   65.5600 C   0  0  0  0  0
    5.5210   11.1890   67.0860 C   0  0  0  0  0
   10.0840   13.1450   66.4600 C   0  0  0  0  0
   10.9580   13.6050   68.7020 C   0  0  0  0  0
   11.5650   14.8660   69.2410 C   0  0  0  0  0
   12.3190   15.4980   68.1170 C   0  0  0  0  0
   13.1700   16.6640   68.6050 C   0  0  0  0  0
   13.8010   17.2940   67.3620 C   0  0  0  0  0
   14.8180   16.3160   66.7630 C   0  0  0  0  0
   14.2450   14.9070   66.5540 C   0  0  0  0  0
   13.2460   14.4230   67.6390 C   0  0  0  0  0
   10.2730   12.9040   69.8880 C   0  0  0  0  0
    9.5990   11.6040   69.4900 C   0  0  0  0  0
    9.4900   10.6970   70.6930 C   0  0  0  0  0
    8.3540    9.6780   70.5370 C   0  0  0  0  0
    8.6710    8.5120   71.3910 C   0  0  0  0  0
    7.0380   10.1740   71.0900 C   0  0  0  0  0
   10.7830    9.9610   70.9650 C   0  0  0  0  0
   12.0110    8.9910   72.9110 C   0  0  0  0  0
   13.3710    9.5010   72.6680 C   0  0  0  0  0
   14.2550    8.5750   73.4820 C   0  0  0  0  0
   15.6900    8.7540   72.9610 C   0  0  0  0  0
    9.7080   15.3800   60.4890 S   0  0  0  0  0
   10.9360   14.7290   60.1540 O   0  0  0  0  0
    8.8400   14.4200   60.9770 O   0  0  0  0  0
    8.6780   16.0960   64.1250 O   0  0  0  0  0
   10.7220   12.0980   66.2910 O   0  0  0  0  0
    9.3960   13.7580   70.6190 O   0  0  0  0  0
   11.5020    9.6090   70.0400 O   0  0  0  0  0
    9.9130   14.2450   64.4430 N   0  0  0  0  0
    6.7750   11.2140   66.6560 N   0  0  0  0  0
    4.8150   12.1090   66.4480 N   0  0  0  0  0
   10.1340   13.8920   67.5440 N   0  0  0  0  0
   10.9780    9.7270   72.2600 N   0  0  0  0  0
    7.0922   16.2563   59.7889 H   0  0  0  0  0
    8.0988   17.6937   60.0920 H   0  0  0  0  0
    7.4759   17.3720   58.4551 H   0  0  0  0  0
    9.7060   14.4673   57.7578 H   0  0  0  0  0
    8.0424   14.3440   58.3808 H   0  0  0  0  0
    8.4251   15.5071   57.0878 H   0  0  0  0  0
   10.5501   17.6956   59.2402 H   0  0  0  0  0
   11.1282   16.2956   58.3038 H   0  0  0  0  0
    9.9609   17.4295   57.5809 H   0  0  0  0  0
    8.9191   16.9399   62.0116 H   0  0  0  0  0
   10.4724   17.3846   61.3673 H   0  0  0  0  0
   11.1682   15.0299   62.4091 H   0  0  0  0  0
   11.6024   16.3490   64.5816 H   0  0  0  0  0
   10.5041   17.6217   63.8945 H   0  0  0  0  0
   11.1718   19.1381   62.4848 H   0  0  0  0  0
   13.0152   20.3120   61.2973 H   0  0  0  0  0
   15.3061   19.3307   61.2178 H   0  0  0  0  0
   15.7618   17.1355   62.2847 H   0  0  0  0  0
   13.8840   15.9500   63.4644 H   0  0  0  0  0
    8.4303   14.4299   65.8681 H   0  0  0  0  0
    8.7754   11.6585   64.9646 H   0  0  0  0  0
    7.8400   12.9266   63.9384 H   0  0  0  0  0
    5.3621   13.5835   64.8884 H   0  0  0  0  0
    5.1312   10.5142   67.8481 H   0  0  0  0  0
   11.6905   12.9033   68.3030 H   0  0  0  0  0
   12.2281   14.6493   70.0785 H   0  0  0  0  0
   10.7929   15.5381   69.6154 H   0  0  0  0  0
   11.6387   15.8779   67.3548 H   0  0  0  0  0
   13.9367   16.3224   69.3005 H   0  0  0  0  0
   12.5625   17.3907   69.1443 H   0  0  0  0  0
   14.3032   18.2216   67.6367 H   0  0  0  0  0
   13.0252   17.5107   66.6276 H   0  0  0  0  0
   15.6514   16.2352   67.4608 H   0  0  0  0  0
   15.1146   16.7017   65.7876 H   0  0  0  0  0
   15.0913   14.2207   66.5835 H   0  0  0  0  0
   13.6934   14.9329   65.6142 H   0  0  0  0  0
   12.6356   13.6363   67.1957 H   0  0  0  0  0
   13.8295   14.0875   68.4963 H   0  0  0  0  0
   11.0805   12.6438   70.5724 H   0  0  0  0  0
   10.1915   11.1114   68.7190 H   0  0  0  0  0
    8.6010   11.8172   69.1070 H   0  0  0  0  0
    9.2700   11.3464   71.5403 H   0  0  0  0  0
    8.2683    9.4693   69.4706 H   0  0  0  0  0
    9.6174    8.0758   71.0714 H   0  0  0  0  0
    8.7503    8.8345   72.4292 H   0  0  0  0  0
    7.8780    7.7698   71.2993 H   0  0  0  0  0
    7.1494   10.3874   72.1531 H   0  0  0  0  0
    6.7439   11.0826   70.5646 H   0  0  0  0  0
    6.2748    9.4085   70.9498 H   0  0  0  0  0
   11.9761    7.9755   72.5165 H   0  0  0  0  0
   11.8291    9.0663   73.9831 H   0  0  0  0  0
   13.4816   10.5449   72.9616 H   0  0  0  0  0
   13.6319    9.4999   71.6097 H   0  0  0  0  0
   13.9316    7.5396   73.3754 H   0  0  0  0  0
   14.1960    8.8182   74.5429 H   0  0  0  0  0
   15.7265    8.4924   71.9035 H   0  0  0  0  0
   15.9953    9.7923   73.0905 H   0  0  0  0  0
   16.3622    8.1038   73.5209 H   0  0  0  0  0
    9.0011   13.2657   71.3424 H   0  0  0  0  0
   10.7645   13.7594   64.1609 H   0  0  0  0  0
    9.5530   14.7300   67.5705 H   0  0  0  0  0
   10.2818   10.1370   72.8826 H   0  0  0  0  0
 40  1  1  0  0  0
  1  4  1  0  0  0
  1  3  1  0  0  0
  1  2  1  0  0  0
 40 42  2  0  0  0
 40 41  2  0  0  0
 40  5  1  0  0  0
  5  6  1  0  0  0
  6 14  1  0  0  0
  6  7  1  0  0  0
  7  8  1  0  0  0
  8 13  4  0  0  0
  8  9  4  0  0  0
  9 10  4  0  0  0
 10 11  4  0  0  0
 11 12  4  0  0  0
 12 13  4  0  0  0
 14 47  1  0  0  0
 14 43  2  0  0  0
 47 15  1  0  0  0
 15 20  1  0  0  0
 15 16  1  0  0  0
 16 17  1  0  0  0
 17 48  4  0  0  0
 17 18  4  0  0  0
 18 49  4  0  0  0
 49 19  4  0  0  0
 19 48  4  0  0  0
 20 50  1  0  0  0
 20 44  2  0  0  0
 50 21  1  0  0  0
 21 29  1  0  0  0
 21 22  1  0  0  0
 22 23  1  0  0  0
 23 28  1  0  0  0
 23 24  1  0  0  0
 24 25  1  0  0  0
 25 26  1  0  0  0
 26 27  1  0  0  0
 27 28  1  0  0  0
 29 45  1  0  0  0
 29 30  1  0  0  0
 30 31  1  0  0  0
 31 35  1  0  0  0
 31 32  1  0  0  0
 32 34  1  0  0  0
 32 33  1  0  0  0
 35 51  1  0  0  0
 35 46  2  0  0  0
 51 36  1  0  0  0
 36 37  1  0  0  0
 37 38  1  0  0  0
 38 39  1  0  0  0
  2 52  1  0  0  0
  2 53  1  0  0  0
  2 54  1  0  0  0
  3 55  1  0  0  0
  3 56  1  0  0  0
  3 57  1  0  0  0
  4 58  1  0  0  0
  4 59  1  0  0  0
  4 60  1  0  0  0
  5 61  1  0  0  0
  5 62  1  0  0  0
  6 63  1  0  0  0
  7 64  1  0  0  0
  7 65  1  0  0  0
  9 66  1  0  0  0
 10 67  1  0  0  0
 11 68  1  0  0  0
 12 69  1  0  0  0
 13 70  1  0  0  0
 15 71  1  0  0  0
 16 72  1  0  0  0
 16 73  1  0  0  0
 18 74  1  0  0  0
 19 75  1  0  0  0
 21 76  1  0  0  0
 22 77  1  0  0  0
 22 78  1  0  0  0
 23 79  1  0  0  0
 24 80  1  0  0  0
 24 81  1  0  0  0
 25 82  1  0  0  0
 25 83  1  0  0  0
 26 84  1  0  0  0
 26 85  1  0  0  0
 27 86  1  0  0  0
 27 87  1  0  0  0
 28 88  1  0  0  0
 28 89  1  0  0  0
 29 90  1  0  0  0
 30 91  1  0  0  0
 30 92  1  0  0  0
 31 93  1  0  0  0
 32 94  1  0  0  0
 33 95  1  0  0  0
 33 96  1  0  0  0
 33 97  1  0  0  0
 34 98  1  0  0  0
 34 99  1  0  0  0
 34100  1  0  0  0
 36101  1  0  0  0
 36102  1  0  0  0
 37103  1  0  0  0
 37104  1  0  0  0
 38105  1  0  0  0
 38106  1  0  0  0
 39107  1  0  0  0
 39108  1  0  0  0
 39109  1  0  0  0
 45110  1  0  0  0
 47111  1  0  0  0
 50112  1  0  0  0
 51113  1  0  0  0
M  END
$$$$
