5em7_ligand
  -I-interpret- 

 60 63  0  0  0  0  0  0  0  0999 V2000
  -51.9450   -0.1330  -14.2280 C   0  0  0  0  0
  -49.5210    0.0920  -14.8220 C   0  0  0  0  0
  -52.2440    0.9430  -19.0190 C   0  0  0  0  0
  -49.1770   -0.1520  -13.3390 C   0  0  0  0  0
  -51.3170    0.7120  -16.3600 C   0  0  0  0  0
  -52.2790    1.6740  -16.7040 C   0  0  0  0  0
  -52.7340    1.7840  -18.0130 C   0  0  0  0  0
  -51.3040   -0.0400  -18.6770 C   0  0  0  0  0
  -50.8470   -0.1540  -17.3680 C   0  0  0  0  0
  -50.2410   -0.9440  -12.6840 N   0  3  0  0  0
  -51.5560   -0.2800  -12.7520 C   0  0  0  0  0
  -49.8910   -1.2660  -11.2920 C   0  0  0  0  0
  -50.9100    0.5970  -15.0080 N   0  0  0  0  0
  -52.7930    1.0990  -20.3150 N   0  0  0  0  0
  -52.4950    0.4600  -21.4810 C   0  0  0  0  0
  -51.6190   -0.3850  -21.4880 O   0  0  0  0  0
  -53.2570    0.7530  -22.7320 C   0  0  0  0  0
  -52.9250    0.1460  -23.9920 C   0  0  0  0  0
  -53.6940    0.4600  -25.1400 C   0  0  0  0  0
  -54.7480    1.3040  -25.0580 C   0  0  0  0  0
  -55.0750    1.8930  -23.8780 N   0  0  0  0  0
  -54.3860    1.6500  -22.7350 C   0  0  0  0  0
  -54.7590    2.2370  -21.7310 O   0  0  0  0  0
  -51.8460   -0.7060  -24.1590 N   0  0  0  0  0
  -51.9070   -2.0780  -24.4620 C   0  0  0  0  0
  -52.1060   -2.9990  -23.4270 C   0  0  0  0  0
  -52.1240   -4.3650  -23.6890 C   0  0  0  0  0
  -51.8990   -4.8260  -24.9820 C   0  0  0  0  0
  -51.6630   -3.9240  -26.0160 C   0  0  0  0  0
  -51.6690   -2.5430  -25.7720 C   0  0  0  0  0
  -51.4240   -1.6580  -26.7900 O   0  0  0  0  0
  -52.3560   -1.5390  -27.8760 C   0  0  0  0  0
  -52.8741    0.4346  -14.2803 H   0  0  0  0  0
  -52.0509   -1.1310  -14.6532 H   0  0  0  0  0
  -49.4347   -0.8584  -15.3487 H   0  0  0  0  0
  -48.8341    0.8454  -15.2077 H   0  0  0  0  0
  -49.0888    0.8094  -12.8331 H   0  0  0  0  0
  -48.2381   -0.7024  -13.2791 H   0  0  0  0  0
  -52.6732    2.3413  -15.9376 H   0  0  0  0  0
  -53.4833    2.5362  -18.2596 H   0  0  0  0  0
  -50.9288   -0.7195  -19.4423 H   0  0  0  0  0
  -50.1159   -0.9230  -17.1186 H   0  0  0  0  0
  -50.3156   -1.8176  -13.2052 H   0  0  0  0  0
  -52.3028   -0.8745  -12.2258 H   0  0  0  0  0
  -51.5046    0.7008  -12.2793 H   0  0  0  0  0
  -49.8526   -0.3474  -10.7065 H   0  0  0  0  0
  -50.6448   -1.9334  -10.8742 H   0  0  0  0  0
  -48.9172   -1.7550  -11.2674 H   0  0  0  0  0
  -53.5288    1.8017  -20.3872 H   0  0  0  0  0
  -53.4331    0.0161  -26.1007 H   0  0  0  0  0
  -55.3413    1.5138  -25.9480 H   0  0  0  0  0
  -55.8641    2.5388  -23.8507 H   0  0  0  0  0
  -50.9169   -0.2989  -24.0518 H   0  0  0  0  0
  -52.2481   -2.6427  -22.4067 H   0  0  0  0  0
  -52.3141   -5.0731  -22.8824 H   0  0  0  0  0
  -51.9075   -5.8967  -25.1863 H   0  0  0  0  0
  -51.4720   -4.2942  -27.0233 H   0  0  0  0  0
  -52.4508   -2.5014  -28.3789 H   0  0  0  0  0
  -53.3275   -1.2334  -27.4875 H   0  0  0  0  0
  -51.9947   -0.7922  -28.5830 H   0  0  0  0  0
  1 11  1  0  0  0
 13  1  1  0  0  0
  2  4  1  0  0  0
 13  2  1  0  0  0
  7  3  4  0  0  0
  3  8  4  0  0  0
  3 14  1  0  0  0
  4 10  1  0  0  0
  6  5  4  0  0  0
  5  9  4  0  0  0
  5 13  1  0  0  0
  6  7  4  0  0  0
  8  9  4  0  0  0
 10 11  1  0  0  0
 10 12  1  0  0  0
 14 15  1  0  0  0
 15 16  2  0  0  0
 15 17  1  0  0  0
 17 18  2  0  0  0
 17 22  1  0  0  0
 18 19  1  0  0  0
 18 24  1  0  0  0
 19 20  2  0  0  0
 20 21  1  0  0  0
 21 22  1  0  0  0
 22 23  2  0  0  0
 24 25  1  0  0  0
 25 26  4  0  0  0
 25 30  4  0  0  0
 26 27  4  0  0  0
 27 28  4  0  0  0
 28 29  4  0  0  0
 29 30  4  0  0  0
 30 31  1  0  0  0
 31 32  1  0  0  0
  1 33  1  0  0  0
  1 34  1  0  0  0
  2 35  1  0  0  0
  2 36  1  0  0  0
  4 37  1  0  0  0
  4 38  1  0  0  0
  6 39  1  0  0  0
  7 40  1  0  0  0
  8 41  1  0  0  0
  9 42  1  0  0  0
 10 43  1  0  0  0
 11 44  1  0  0  0
 11 45  1  0  0  0
 12 46  1  0  0  0
 12 47  1  0  0  0
 12 48  1  0  0  0
 14 49  1  0  0  0
 19 50  1  0  0  0
 20 51  1  0  0  0
 21 52  1  0  0  0
 24 53  1  0  0  0
 26 54  1  0  0  0
 27 55  1  0  0  0
 28 56  1  0  0  0
 29 57  1  0  0  0
 32 58  1  0  0  0
 32 59  1  0  0  0
 32 60  1  0  0  0
M  END
$$$$
