2ydi_ligand
  -I-interpret- 

 45 46  0  0  0  0  0  0  0  0999 V2000
    2.7040   -3.2270   19.9480 S   0  0  0  0  0
    3.9910   -3.9740   19.0660 C   0  0  0  0  0
    3.5570   -5.1270   18.4340 C   0  0  0  0  0
    2.1780   -5.3590   18.6910 C   0  0  0  0  0
    1.5620   -4.4230   19.5050 C   0  0  0  0  0
    5.2890   -3.4650   19.0100 N   0  0  0  0  0
    5.6100   -2.2280   19.5250 C   0  0  0  0  0
    6.8540   -1.7920   19.1610 N   0  0  0  0  0
    4.8580   -1.5750   20.2450 O   0  0  0  0  0
    4.4510   -5.9240   17.6230 C   0  0  0  0  0
    5.6370   -5.6480   17.4900 O   0  0  0  0  0
    3.8280   -6.9810   16.9920 N   0  0  0  0  0
   -7.2820   -3.6610   20.3140 C   0  0  0  0  0
   -6.0700   -2.8400   20.5130 N   0  3  0  0  0
   -5.5990   -2.8700   21.9200 C   0  0  0  0  0
   -4.0970   -3.0410   21.8770 C   0  0  0  0  0
    0.1870   -4.3280   19.9610 C   0  0  0  0  0
   -0.2480   -3.2880   20.7620 C   0  0  0  0  0
   -1.5700   -3.1930   21.1620 C   0  0  0  0  0
   -2.4600   -4.1660   20.7440 C   0  0  0  0  0
   -6.2480   -1.4570   20.0080 C   0  0  0  0  0
   -2.0380   -5.2080   19.9460 C   0  0  0  0  0
   -0.7220   -5.2820   19.5530 C   0  0  0  0  0
   -3.8040   -4.1800   21.0820 O   0  0  0  0  0
    1.6432   -6.2135   18.2765 H   0  0  0  0  0
    6.0219   -4.0253   18.5749 H   0  0  0  0  0
    7.1940   -0.8882   19.4895 H   0  0  0  0  0
    7.4419   -2.3706   18.5610 H   0  0  0  0  0
    4.3604   -7.5891   16.3698 H   0  0  0  0  0
    2.8350   -7.1544   17.1477 H   0  0  0  0  0
   -7.0654   -4.6962   20.5777 H   0  0  0  0  0
   -8.0835   -3.2831   20.9487 H   0  0  0  0  0
   -7.5881   -3.6073   19.2693 H   0  0  0  0  0
   -5.3307   -3.2631   19.9519 H   0  0  0  0  0
   -6.0659   -3.6893   22.4667 H   0  0  0  0  0
   -5.8687   -1.9495   22.4377 H   0  0  0  0  0
   -3.7058   -3.1766   22.8853 H   0  0  0  0  0
   -3.6306   -2.1541   21.4481 H   0  0  0  0  0
    0.4639   -2.5282   21.0847 H   0  0  0  0  0
   -1.9026   -2.3688   21.7930 H   0  0  0  0  0
   -6.4688   -1.4868   18.9410 H   0  0  0  0  0
   -7.0733   -0.9815   20.5380 H   0  0  0  0  0
   -5.3323   -0.8899   20.1752 H   0  0  0  0  0
   -2.7465   -5.9724   19.6269 H   0  0  0  0  0
   -0.3945   -6.1017   18.9135 H   0  0  0  0  0
  1  2  4  0  0  0
  5  1  4  0  0  0
  3  2  4  0  0  0
  2  6  1  0  0  0
  4  3  4  0  0  0
  3 10  1  0  0  0
  5  4  4  0  0  0
 17  5  1  0  0  0
  6  7  1  0  0  0
  7  8  1  0  0  0
  7  9  2  0  0  0
 10 11  2  0  0  0
 10 12  1  0  0  0
 14 13  1  0  0  0
 15 14  1  0  0  0
 14 21  1  0  0  0
 16 15  1  0  0  0
 24 16  1  0  0  0
 18 17  4  0  0  0
 17 23  4  0  0  0
 19 18  4  0  0  0
 20 19  4  0  0  0
 20 22  4  0  0  0
 20 24  1  0  0  0
 22 23  4  0  0  0
  4 25  1  0  0  0
  6 26  1  0  0  0
  8 27  1  0  0  0
  8 28  1  0  0  0
 12 29  1  0  0  0
 12 30  1  0  0  0
 13 31  1  0  0  0
 13 32  1  0  0  0
 13 33  1  0  0  0
 14 34  1  0  0  0
 15 35  1  0  0  0
 15 36  1  0  0  0
 16 37  1  0  0  0
 16 38  1  0  0  0
 18 39  1  0  0  0
 19 40  1  0  0  0
 21 41  1  0  0  0
 21 42  1  0  0  0
 21 43  1  0  0  0
 22 44  1  0  0  0
 23 45  1  0  0  0
M  END
$$$$
