3w2q_ligand
  -I-interpret- 

 72 75  0  0  0  0  0  0  0  0999 V2000
    1.6540   24.0130   52.9560 C   0  0  0  0  0
    1.4380   32.8040   50.9840 C   0  0  0  0  0
    0.7120   33.1510   49.8680 C   0  0  0  0  0
   -0.6920   25.3770   50.5860 C   0  0  0  0  0
   -0.3220   26.6740   50.2790 C   0  0  0  0  0
    1.5180   31.4700   51.3170 C   0  0  0  0  0
   -0.2430   20.2390   50.6080 C   0  0  0  0  0
    1.4860   18.6010   51.9670 C   0  0  0  0  0
    1.5860   24.7340   50.4600 C   0  0  0  0  0
    0.1010   32.1580   49.1370 C   0  0  0  0  0
    2.4140   21.7490   53.2910 C   0  0  0  0  0
    1.5910   22.6310   52.6340 C   0  0  0  0  0
    0.6610   20.7900   51.4970 C   0  0  0  0  0
    1.5360   19.9630   52.1990 C   0  0  0  0  0
    0.2560   24.3780   50.6770 C   0  0  0  0  0
   -0.2890   18.8740   50.3880 C   0  0  0  0  0
    0.6790   22.1640   51.7100 C   0  0  0  0  0
    1.0090   26.9990   50.0810 C   0  0  0  0  0
    0.5890   18.0550   51.0710 C   0  0  0  0  0
    1.9850   26.0320   50.1740 C   0  0  0  0  0
    0.8740   30.5420   50.5260 C   0  0  0  0  0
   -2.5910   18.6340   49.7030 C   0  0  0  0  0
    1.4020   14.5190   51.1490 C   0  0  0  0  0
   -7.8310   18.6070   48.7490 C   0  0  0  0  0
   -7.7170   17.6040   46.6680 C   0  0  0  0  0
    0.9620   29.0940   50.8960 C   0  0  0  0  0
   -3.5540   17.6700   49.0670 C   0  0  0  0  0
   -5.0110   18.1230   49.1960 C   0  0  0  0  0
   -5.7260   17.7130   47.9130 C   0  0  0  0  0
    1.6900   16.0010   51.2810 C   0  0  0  0  0
    1.6220   25.1290   53.3000 N   0  0  0  0  0
    2.4160   20.4320   53.0930 N   0  0  0  0  0
    0.1640   30.8560   49.4370 N   0  0  0  0  0
   -0.1760   23.0610   51.0220 N   0  0  0  0  0
   -1.2370   18.3410   49.4770 N   0  0  0  0  0
   -6.9590   18.4390   47.5950 N   0  3  0  0  0
   -3.0180   19.5790   50.3580 O   0  0  0  0  0
    1.3970   28.2990   49.7800 O   0  0  0  0  0
    0.5230   16.6890   50.8330 O   0  0  0  0  0
    3.6570   26.4980   49.9210 Cl  0  0  0  0  0
    1.9357   33.5632   51.5874 H   0  0  0  0  0
    0.6223   34.1950   49.5679 H   0  0  0  0  0
   -1.7423   25.1416   50.7577 H   0  0  0  0  0
   -1.0854   27.4472   50.1922 H   0  0  0  0  0
    2.0825   31.1522   52.1936 H   0  0  0  0  0
   -0.9315   20.8915   50.0710 H   0  0  0  0  0
    2.1701   17.9436   52.5036 H   0  0  0  0  0
    2.3481   23.9568   50.5176 H   0  0  0  0  0
   -0.4711   32.4514   48.2568 H   0  0  0  0  0
    3.1122   22.1541   54.0235 H   0  0  0  0  0
    0.5400   14.2615   51.7644 H   0  0  0  0  0
    1.1892   14.2830   50.1064 H   0  0  0  0  0
    2.2704   13.9504   51.4816 H   0  0  0  0  0
   -8.7567   19.0900   48.4361 H   0  0  0  0  0
   -8.0562   17.6305   49.1779 H   0  0  0  0  0
   -7.3306   19.2258   49.4939 H   0  0  0  0  0
   -7.9448   16.6500   47.1434 H   0  0  0  0  0
   -8.6453   18.1094   46.4016 H   0  0  0  0  0
   -7.1250   17.4314   45.7692 H   0  0  0  0  0
   -0.0264   28.7522   51.2030 H   0  0  0  0  0
    1.6847   28.9843   51.7046 H   0  0  0  0  0
   -3.4543   16.7112   49.5757 H   0  0  0  0  0
   -3.3146   17.6076   48.0054 H   0  0  0  0  0
   -5.0662   19.2023   49.3381 H   0  0  0  0  0
   -5.4818   17.6592   50.0628 H   0  0  0  0  0
   -6.0140   16.6702   48.0464 H   0  0  0  0  0
   -5.0321   17.9228   47.0990 H   0  0  0  0  0
    2.5583   16.2817   50.6849 H   0  0  0  0  0
    1.9203   16.2606   52.3143 H   0  0  0  0  0
   -1.1172   22.7605   50.7686 H   0  0  0  0  0
   -0.9453   17.7659   48.6867 H   0  0  0  0  0
   -6.6925   19.3552   47.2346 H   0  0  0  0  0
 12  1  1  0  0  0
  1 31  3  0  0  0
  2  3  4  0  0  0
  6  2  4  0  0  0
 10  3  4  0  0  0
  4  5  4  0  0  0
 15  4  4  0  0  0
  5 18  4  0  0  0
 21  6  4  0  0  0
  7 13  4  0  0  0
 16  7  4  0  0  0
  8 14  4  0  0  0
 19  8  4  0  0  0
 15  9  4  0  0  0
  9 20  4  0  0  0
 33 10  4  0  0  0
 11 12  4  0  0  0
 32 11  4  0  0  0
 17 12  4  0  0  0
 14 13  4  0  0  0
 13 17  4  0  0  0
 14 32  4  0  0  0
 34 15  1  0  0  0
 19 16  4  0  0  0
 16 35  1  0  0  0
 17 34  1  0  0  0
 20 18  4  0  0  0
 18 38  1  0  0  0
 39 19  1  0  0  0
 20 40  1  0  0  0
 26 21  1  0  0  0
 21 33  4  0  0  0
 22 27  1  0  0  0
 35 22  1  0  0  0
 22 37  2  0  0  0
 30 23  1  0  0  0
 36 24  1  0  0  0
 36 25  1  0  0  0
 38 26  1  0  0  0
 27 28  1  0  0  0
 28 29  1  0  0  0
 29 36  1  0  0  0
 30 39  1  0  0  0
  2 41  1  0  0  0
  3 42  1  0  0  0
  4 43  1  0  0  0
  5 44  1  0  0  0
  6 45  1  0  0  0
  7 46  1  0  0  0
  8 47  1  0  0  0
  9 48  1  0  0  0
 10 49  1  0  0  0
 11 50  1  0  0  0
 23 51  1  0  0  0
 23 52  1  0  0  0
 23 53  1  0  0  0
 24 54  1  0  0  0
 24 55  1  0  0  0
 24 56  1  0  0  0
 25 57  1  0  0  0
 25 58  1  0  0  0
 25 59  1  0  0  0
 26 60  1  0  0  0
 26 61  1  0  0  0
 27 62  1  0  0  0
 27 63  1  0  0  0
 28 64  1  0  0  0
 28 65  1  0  0  0
 29 66  1  0  0  0
 29 67  1  0  0  0
 30 68  1  0  0  0
 30 69  1  0  0  0
 34 70  1  0  0  0
 35 71  1  0  0  0
 36 72  1  0  0  0
M  END
$$$$
