5tys_ligand
  -I-interpret- 

 90 95  0  0  0  0  0  0  0  0999 V2000
  -13.5520   14.5240    1.6570 C   0  0  0  0  0
  -12.6110   14.6530    0.6350 C   0  0  0  0  0
  -11.9850   13.5290    0.1060 C   0  0  0  0  0
   -6.7570   17.3440   -8.5140 C   0  0  0  0  0
   -9.9320   13.8710    7.2310 C   0  0  0  0  0
  -12.8190   14.7360    5.3290 C   0  0  0  0  0
   -7.4760   17.8270   -1.8100 C   0  0  0  0  0
   -6.7110   18.1490   -0.4870 C   0  0  0  0  0
   -7.2250   19.4900    0.0800 C   0  0  0  0  0
   -6.8860   17.0130    0.5530 C   0  0  0  0  0
  -10.0020   17.7690   -1.3860 C   0  0  0  0  0
  -10.4410   17.7880    0.1010 C   0  0  0  0  0
  -10.8340   16.3980    0.5990 C   0  0  0  0  0
   -8.3650   17.0050   -6.9510 C   0  0  0  0  0
  -10.2580   15.4350    2.9290 C   0  0  0  0  0
   -3.9770   18.8170   -9.3120 C   0  0  0  0  0
   -9.6240   16.9400   -6.3620 C   0  0  0  0  0
  -12.2360   16.0540    0.0820 C   0  0  0  0  0
  -13.8730   13.2560    2.1470 C   0  0  0  0  0
  -12.3020   12.2670    0.5940 C   0  0  0  0  0
  -13.2460   12.1250    1.6150 C   0  0  0  0  0
   -4.3020   19.0080  -10.8080 C   0  0  0  0  0
   -7.2640   16.6370   -6.2150 C   0  0  0  0  0
   -9.7710   16.5160   -5.0490 C   0  0  0  0  0
  -10.4980   14.2190    4.9590 C   0  0  0  0  0
   -8.6750   16.1390   -4.2890 C   0  0  0  0  0
  -11.7130   13.8340    5.6420 C   0  0  0  0  0
   -7.4240   16.2080   -4.8910 C   0  0  0  0  0
  -11.4090   14.0220    7.0860 C   0  0  0  0  0
  -11.8160   15.3900    7.4010 C   0  0  0  0  0
   -4.7720   17.7530  -10.0650 C   0  0  0  0  0
   -9.1980   15.8010    6.3090 C   0  0  0  0  0
   -9.3980   14.3890    6.0980 C   0  0  0  0  0
  -14.7990   13.1390    3.1560 F   0  0  0  0  0
  -11.6720   11.1800    0.0480 F   0  0  0  0  0
   -8.0750   17.3880   -8.1960 N   0  0  0  0  0
   -8.7100   17.0310   -1.5730 N   0  0  0  0  0
   -6.2160   17.7270   -9.8210 N   0  0  0  0  0
  -10.8900   16.4440    2.0520 N   0  0  0  0  0
  -10.4840   16.3920    7.4810 O   0  0  0  0  0
   -7.8730   14.5870   -2.1680 O   0  0  0  0  0
  -11.5500   18.6040    0.2270 O   0  0  0  0  0
  -12.6690   15.8450    6.3870 O   0  0  0  0  0
   -9.4420   14.6610    2.5310 O   0  0  0  0  0
  -10.6620   15.4320    4.2960 O   0  0  0  0  0
  -10.1700   14.9690   -2.3260 O   0  0  0  0  0
   -5.8410   16.7750   -7.1350 S   0  0  0  0  0
   -8.8570   15.6000   -2.5490 S   0  0  0  0  0
  -14.0347   15.4091    2.0714 H   0  0  0  0  0
  -11.2476   13.6378   -0.6893 H   0  0  0  0  0
   -9.6499   12.8263    7.3622 H   0  0  0  0  0
   -9.5643   14.3888    8.1169 H   0  0  0  0  0
  -13.7906   14.2433    5.3673 H   0  0  0  0  0
  -12.7787   15.1166    4.3084 H   0  0  0  0  0
   -6.8143   17.2409   -2.4478 H   0  0  0  0  0
   -7.7674   18.7716   -2.2692 H   0  0  0  0  0
   -5.6459   18.2293   -0.7045 H   0  0  0  0  0
   -7.0494   20.2820   -0.6480 H   0  0  0  0  0
   -8.2931   19.4117    0.2830 H   0  0  0  0  0
   -6.6942   19.7197    1.0039 H   0  0  0  0  0
   -7.9446   16.8929    0.7833 H   0  0  0  0  0
   -6.4944   16.0825    0.1421 H   0  0  0  0  0
   -6.3416   17.2676    1.4623 H   0  0  0  0  0
   -9.8606   18.7983   -1.7157 H   0  0  0  0  0
  -10.7739   17.2628   -1.9657 H   0  0  0  0  0
   -9.5976   18.1485    0.6899 H   0  0  0  0  0
  -10.1145   15.6564    0.2518 H   0  0  0  0  0
   -4.0418   19.3816   -8.3819 H   0  0  0  0  0
   -3.1150   18.8771   -8.6476 H   0  0  0  0  0
  -10.5042   17.2252   -6.9382 H   0  0  0  0  0
  -12.9574   16.7997    0.4161 H   0  0  0  0  0
  -12.2478   16.0476   -1.0079 H   0  0  0  0  0
  -13.4930   11.1341    1.9960 H   0  0  0  0  0
   -3.7887   19.2710  -11.7329 H   0  0  0  0  0
   -4.7106   19.7727  -11.4686 H   0  0  0  0  0
  -10.7667   16.4787   -4.6072 H   0  0  0  0  0
  -10.2181   13.4738    4.2144 H   0  0  0  0  0
  -12.0012   12.8221    5.3573 H   0  0  0  0  0
   -6.5431   15.9204   -4.3170 H   0  0  0  0  0
  -11.9154   13.3148    7.7429 H   0  0  0  0  0
  -12.3225   15.4016    8.3661 H   0  0  0  0  0
   -4.6581   16.6763  -10.1907 H   0  0  0  0  0
   -8.8574   16.2610    5.3814 H   0  0  0  0  0
  -10.1381   16.2575    6.6187 H   0  0  0  0  0
   -8.4478   15.9483    7.0859 H   0  0  0  0  0
   -8.4594   13.9023    5.8330 H   0  0  0  0  0
   -6.8561   17.9798  -10.5738 H   0  0  0  0  0
  -11.3933   17.2153    2.4903 H   0  0  0  0  0
  -10.7688   17.2850    7.6884 H   0  0  0  0  0
  -11.8297   18.6223    1.1452 H   0  0  0  0  0
  2  1  4  0  0  0
  1 19  4  0  0  0
  2  3  4  0  0  0
 18  2  1  0  0  0
  3 20  4  0  0  0
  4 36  4  0  0  0
  4 38  1  0  0  0
 47  4  4  0  0  0
  5 29  1  0  0  0
 33  5  1  0  0  0
 27  6  1  0  0  0
  6 43  1  0  0  0
  7  8  1  0  0  0
 37  7  1  0  0  0
  8  9  1  0  0  0
  8 10  1  0  0  0
 11 12  1  0  0  0
 37 11  1  0  0  0
 12 13  1  0  0  0
 12 42  1  0  0  0
 13 18  1  0  0  0
 13 39  1  0  0  0
 17 14  4  0  0  0
 23 14  4  0  0  0
 14 36  4  0  0  0
 39 15  1  0  0  0
 15 44  2  0  0  0
 15 45  1  0  0  0
 22 16  1  0  0  0
 31 16  1  0  0  0
 24 17  4  0  0  0
 19 21  4  0  0  0
 19 34  1  0  0  0
 20 21  4  0  0  0
 20 35  1  0  0  0
 31 22  1  0  0  0
 28 23  4  0  0  0
 23 47  4  0  0  0
 26 24  4  0  0  0
 25 27  1  0  0  0
 25 33  1  0  0  0
 45 25  1  0  0  0
 26 28  4  0  0  0
 48 26  1  0  0  0
 27 29  1  0  0  0
 29 30  1  0  0  0
 30 40  1  0  0  0
 30 43  1  0  0  0
 38 31  1  0  0  0
 33 32  1  0  0  0
 37 48  1  0  0  0
 48 41  2  0  0  0
 48 46  2  0  0  0
  1 49  1  0  0  0
  3 50  1  0  0  0
  5 51  1  0  0  0
  5 52  1  0  0  0
  6 53  1  0  0  0
  6 54  1  0  0  0
  7 55  1  0  0  0
  7 56  1  0  0  0
  8 57  1  0  0  0
  9 58  1  0  0  0
  9 59  1  0  0  0
  9 60  1  0  0  0
 10 61  1  0  0  0
 10 62  1  0  0  0
 10 63  1  0  0  0
 11 64  1  0  0  0
 11 65  1  0  0  0
 12 66  1  0  0  0
 13 67  1  0  0  0
 16 68  1  0  0  0
 16 69  1  0  0  0
 17 70  1  0  0  0
 18 71  1  0  0  0
 18 72  1  0  0  0
 21 73  1  0  0  0
 22 74  1  0  0  0
 22 75  1  0  0  0
 24 76  1  0  0  0
 25 77  1  0  0  0
 27 78  1  0  0  0
 28 79  1  0  0  0
 29 80  1  0  0  0
 30 81  1  0  0  0
 31 82  1  0  0  0
 32 83  1  0  0  0
 32 84  1  0  0  0
 32 85  1  0  0  0
 33 86  1  0  0  0
 38 87  1  0  0  0
 39 88  1  0  0  0
 40 89  1  0  0  0
 42 90  1  0  0  0
M  END
$$$$
