1hdt_ligand
  -I-interpret- 

 75 76  0  0  0  0  0  0  0  0999 V2000
   14.5380   38.0800    6.2290 C   0  0  0  0  0
   13.5820   38.8710    6.0680 O   0  0  0  0  0
   15.3060   38.0060    7.5550 C   0  0  0  0  0
   14.4600   37.9850    8.8120 C   0  0  0  0  0
   13.5690   36.7840    8.9630 C   0  0  0  0  0
   12.3770   36.9620    8.1500 N   0  0  0  0  0
   11.1390   36.9780    8.5920 C   0  0  0  0  0
   10.8400   36.8070    9.8790 N   0  0  0  0  0
   10.1950   37.2230    7.7240 N   0  0  0  0  0
   14.9380   37.1840    5.3260 N   0  0  0  0  0
   14.3710   36.9670    3.9880 C   0  0  0  0  0
   12.8700   36.5940    4.0290 C   0  0  0  0  0
   12.3910   36.0070    5.0170 O   0  0  0  0  0
   15.1580   35.8030    3.3620 C   0  0  0  0  0
   14.9330   35.6220    1.8990 C   0  0  0  0  0
   15.6840   36.3790    0.9680 C   0  0  0  0  0
   13.9330   34.7240    1.4200 C   0  0  0  0  0
   15.4420   36.2550   -0.4280 C   0  0  0  0  0
   13.6770   34.5930    0.0230 C   0  0  0  0  0
   14.4290   35.3630   -0.8980 C   0  0  0  0  0
   12.1180   36.9680    2.9910 N   0  0  0  0  0
   10.6920   36.6120    2.9150 C   0  0  0  0  0
    9.7180   37.8380    3.0200 C   0  0  0  0  0
    9.9170   38.6150    4.3390 C   0  0  0  0  0
    8.3550   37.3790    2.9840 O   0  0  0  0  0
   10.3760   35.7570    1.6820 C   0  0  0  0  0
   10.9360   35.9630    0.6120 O   0  0  0  0  0
    9.5290   34.7500    1.8890 N   0  0  0  0  0
    9.0700   33.8230    0.8650 C   0  0  0  0  0
    7.5750   34.0580    0.7040 C   0  0  0  0  0
    7.0380   33.9540   -0.4080 O   0  0  0  0  0
    9.2660   32.3760    1.3190 C   0  0  0  0  0
   10.6410   31.8170    1.0730 C   0  0  0  0  0
   11.0530   31.4530   -0.2470 C   0  0  0  0  0
   11.5250   31.5940    2.1650 C   0  0  0  0  0
   12.3440   30.8610   -0.4770 C   0  0  0  0  0
   12.8180   31.0050    1.9640 C   0  0  0  0  0
   13.2300   30.6370    0.6350 C   0  0  0  0  0
    6.6830   34.3200    1.8360 O   0  0  0  0  0
   15.9119   38.9105    7.6088 H   0  0  0  0  0
   15.8543   37.0641    7.5391 H   0  0  0  0  0
   13.8063   38.8559    8.7641 H   0  0  0  0  0
   15.1513   37.9700    9.6546 H   0  0  0  0  0
   13.2830   36.6721   10.0088 H   0  0  0  0  0
   14.1026   35.8915    8.6362 H   0  0  0  0  0
   12.5134   37.0855    7.1467 H   0  0  0  0  0
    9.8703   36.8673   10.1897 H   0  0  0  0  0
   11.5807   36.6158   10.5536 H   0  0  0  0  0
    9.2240   37.2842    8.0302 H   0  0  0  0  0
   15.7203   36.5861    5.5923 H   0  0  0  0  0
   14.4498   37.8895    3.4127 H   0  0  0  0  0
   14.8214   34.8896    3.8524 H   0  0  0  0  0
   16.2168   36.0239    3.4974 H   0  0  0  0  0
   16.4544   37.0629    1.3241 H   0  0  0  0  0
   13.3575   34.1307    2.1306 H   0  0  0  0  0
   16.0278   36.8390   -1.1379 H   0  0  0  0  0
   12.9091   33.9061   -0.3330 H   0  0  0  0  0
   14.2348   35.2751   -1.9669 H   0  0  0  0  0
   12.5395   37.5103    2.2370 H   0  0  0  0  0
   10.5077   36.0085    3.8038 H   0  0  0  0  0
    9.9362   38.4963    2.1791 H   0  0  0  0  0
    9.7260   37.9515    5.1824 H   0  0  0  0  0
   10.9411   38.9846    4.3905 H   0  0  0  0  0
    9.2239   39.4556    4.3721 H   0  0  0  0  0
    7.7631   38.1321    3.0485 H   0  0  0  0  0
    9.1754   34.6186    2.8367 H   0  0  0  0  0
    9.6263   33.9830   -0.0586 H   0  0  0  0  0
    8.5695   31.7669    0.7428 H   0  0  0  0  0
    9.1060   32.3586    2.3971 H   0  0  0  0  0
   10.3817   31.6259   -1.0882 H   0  0  0  0  0
   11.2150   31.8753    3.1714 H   0  0  0  0  0
   12.6489   30.5841   -1.4862 H   0  0  0  0  0
   13.4830   30.8376    2.8113 H   0  0  0  0  0
   14.2104   30.1898    0.4710 H   0  0  0  0  0
    7.2005   34.3815    2.6422 H   0  0  0  0  0
  1  2  2  0  0  0
  1  3  1  0  0  0
  1 10  1  0  0  0
  3  4  1  0  0  0
  4  5  1  0  0  0
  5  6  1  0  0  0
  6  7  1  0  0  0
  7  8  1  0  0  0
  7  9  2  0  0  0
 10 11  1  0  0  0
 11 12  1  0  0  0
 11 14  1  0  0  0
 12 13  2  0  0  0
 12 21  1  0  0  0
 14 15  1  0  0  0
 15 16  4  0  0  0
 15 17  4  0  0  0
 16 18  4  0  0  0
 17 19  4  0  0  0
 18 20  4  0  0  0
 19 20  4  0  0  0
 21 22  1  0  0  0
 22 23  1  0  0  0
 22 26  1  0  0  0
 23 24  1  0  0  0
 23 25  1  0  0  0
 26 27  2  0  0  0
 26 28  1  0  0  0
 28 29  1  0  0  0
 29 30  1  0  0  0
 29 32  1  0  0  0
 30 31  2  0  0  0
 30 39  1  0  0  0
 32 33  1  0  0  0
 33 34  4  0  0  0
 33 35  4  0  0  0
 34 36  4  0  0  0
 35 37  4  0  0  0
 36 38  4  0  0  0
 37 38  4  0  0  0
  3 40  1  0  0  0
  3 41  1  0  0  0
  4 42  1  0  0  0
  4 43  1  0  0  0
  5 44  1  0  0  0
  5 45  1  0  0  0
  6 46  1  0  0  0
  8 47  1  0  0  0
  8 48  1  0  0  0
  9 49  1  0  0  0
 10 50  1  0  0  0
 11 51  1  0  0  0
 14 52  1  0  0  0
 14 53  1  0  0  0
 16 54  1  0  0  0
 17 55  1  0  0  0
 18 56  1  0  0  0
 19 57  1  0  0  0
 20 58  1  0  0  0
 21 59  1  0  0  0
 22 60  1  0  0  0
 23 61  1  0  0  0
 24 62  1  0  0  0
 24 63  1  0  0  0
 24 64  1  0  0  0
 25 65  1  0  0  0
 28 66  1  0  0  0
 29 67  1  0  0  0
 32 68  1  0  0  0
 32 69  1  0  0  0
 34 70  1  0  0  0
 35 71  1  0  0  0
 36 72  1  0  0  0
 37 73  1  0  0  0
 38 74  1  0  0  0
 39 75  1  0  0  0
M  END
$$$$
