4f6w_ligand
  -I-interpret- 

 97101  0  0  0  0  0  0  0  0999 V2000
   40.6560   57.8560  145.5950 O   0  0  0  0  0
   39.6520   58.5020  145.8070 C   0  0  0  0  0
   38.9210   58.3580  146.9570 N   0  0  0  0  0
   39.2970   57.4400  147.9780 C   0  0  0  0  0
   38.4570   56.8500  148.8440 N   0  0  0  0  0
   36.9940   56.9830  148.9460 C   0  0  0  0  0
   36.2320   56.9800  147.7720 C   0  0  0  0  0
   34.8450   57.0530  147.8090 C   0  0  0  0  0
   34.1810   57.0890  149.0330 C   0  0  0  0  0
   32.6690   57.1500  149.0650 C   0  0  0  0  0
   34.9300   57.0710  150.2090 C   0  0  0  0  0
   36.3300   56.9990  150.1690 C   0  0  0  0  0
   39.0810   56.0170  149.5700 N   0  0  0  0  0
   40.3850   56.0060  149.2630 C   0  0  0  0  0
   41.4640   55.1760  149.9510 C   0  0  0  0  0
   42.4690   54.5230  148.9980 C   0  0  0  0  0
   40.8530   54.0930  150.8220 C   0  0  0  0  0
   42.2300   56.1270  150.8730 C   0  0  0  0  0
   40.5580   56.9190  148.2530 C   0  0  0  0  0
   39.2440   59.4470  144.9020 N   0  0  0  0  0
   40.1640   60.0640  143.9270 C   0  0  0  0  0
   39.5130   60.2770  142.5700 C   0  0  0  0  0
   38.6810   59.1450  142.1320 N   0  3  0  0  0
   37.9020   59.5470  140.9350 C   0  0  0  0  0
   37.2360   58.4050  140.1500 C   0  0  0  0  0
   39.4970   57.9510  141.8270 C   0  0  0  0  0
   38.5640   56.8350  141.3310 C   0  0  0  0  0
   38.1040   57.2170  139.9730 N   0  0  0  0  0
   38.3810   56.6040  138.7450 C   0  0  0  0  0
   37.8940   57.0790  137.7510 O   0  0  0  0  0
   39.2710   55.5210  138.6650 N   0  0  0  0  0
   39.4560   54.9160  137.4030 C   0  0  0  0  0
   39.0290   53.6930  136.9410 C   0  0  0  0  0
   39.2870   53.7270  135.5870 C   0  0  0  0  0
   39.0540   52.6170  134.5730 C   0  0  0  0  0
   40.4320   52.0020  134.3390 C   0  0  0  0  0
   38.5480   53.2140  133.2440 C   0  0  0  0  0
   38.1090   51.5190  135.0890 C   0  0  0  0  0
   39.8170   54.9330  135.2830 N   0  0  0  0  0
   39.9030   55.6140  136.3360 N   0  0  0  0  0
   40.4340   56.9840  136.3860 C   0  0  0  0  0
   41.4520   57.2400  137.3070 C   0  0  0  0  0
   39.9650   58.0220  135.5890 C   0  0  0  0  0
   40.5250   59.2870  135.7040 C   0  0  0  0  0
   41.5430   59.5360  136.6230 C   0  0  0  0  0
   42.1400   60.9080  136.7400 C   0  0  0  0  0
   42.0070   58.5090  137.4250 C   0  0  0  0  0
   38.0830   58.9251  147.0852 H   0  0  0  0  0
   36.7374   56.9191  146.8082 H   0  0  0  0  0
   34.2761   57.0821  146.8797 H   0  0  0  0  0
   32.3321   58.0507  148.5520 H   0  0  0  0  0
   32.2606   56.2715  148.5655 H   0  0  0  0  0
   32.3294   57.1715  150.1005 H   0  0  0  0  0
   34.4208   57.1134  151.1718 H   0  0  0  0  0
   36.8992   56.9555  151.0976 H   0  0  0  0  0
   41.9411   53.8552  148.3172 H   0  0  0  0  0
   42.9808   55.2968  148.4258 H   0  0  0  0  0
   43.1979   53.9538  149.5749 H   0  0  0  0  0
   40.2276   54.5534  151.5868 H   0  0  0  0  0
   40.2459   53.4312  150.2043 H   0  0  0  0  0
   41.6484   53.5195  151.2980 H   0  0  0  0  0
   42.6743   56.9265  150.2801 H   0  0  0  0  0
   41.5434   56.5537  151.6041 H   0  0  0  0  0
   43.0160   55.5759  151.3893 H   0  0  0  0  0
   41.4956   57.1833  147.7639 H   0  0  0  0  0
   38.2656   59.7353  144.9024 H   0  0  0  0  0
   41.0122   59.3928  143.7924 H   0  0  0  0  0
   40.4621   61.0382  144.3145 H   0  0  0  0  0
   40.3126   60.3972  141.8390 H   0  0  0  0  0
   38.8629   61.1480  142.6523 H   0  0  0  0  0
   38.0499   58.8975  142.8942 H   0  0  0  0  0
   38.6103   60.0158  140.2519 H   0  0  0  0  0
   37.0935   60.1832  141.2952 H   0  0  0  0  0
   37.0004   58.7869  139.1567 H   0  0  0  0  0
   36.3610   58.0873  140.7170 H   0  0  0  0  0
   40.0253   57.6233  142.7223 H   0  0  0  0  0
   40.2322   58.1897  141.0585 H   0  0  0  0  0
   37.7150   56.7176  142.0044 H   0  0  0  0  0
   39.0892   55.8803  141.3034 H   0  0  0  0  0
   39.7666   55.1831  139.4900 H   0  0  0  0  0
   38.5862   52.8797  137.5160 H   0  0  0  0  0
   41.1083   52.7650  133.9536 H   0  0  0  0  0
   40.8196   51.6133  135.2807 H   0  0  0  0  0
   40.3482   51.1903  133.6163 H   0  0  0  0  0
   37.6114   53.7436  133.4183 H   0  0  0  0  0
   39.2918   53.9079  132.8524 H   0  0  0  0  0
   38.3845   52.4109  132.5254 H   0  0  0  0  0
   38.5350   51.0659  135.9842 H   0  0  0  0  0
   37.1404   51.9580  135.3282 H   0  0  0  0  0
   37.9841   50.7576  134.3191 H   0  0  0  0  0
   41.8167   56.4331  137.9426 H   0  0  0  0  0
   39.1601   57.8432  134.8761 H   0  0  0  0  0
   40.1643   60.0953  135.0679 H   0  0  0  0  0
   42.5762   61.1958  135.7834 H   0  0  0  0  0
   41.3612   61.6195  137.0145 H   0  0  0  0  0
   42.9147   60.9016  137.5068 H   0  0  0  0  0
   42.8036   58.6938  138.1457 H   0  0  0  0  0
  1  2  2  0  0  0
  2  3  1  0  0  0
  2 20  1  0  0  0
  3  4  1  0  0  0
  4  5  4  0  0  0
  4 19  4  0  0  0
  5  6  1  0  0  0
  5 13  4  0  0  0
  6  7  4  0  0  0
  6 12  4  0  0  0
  7  8  4  0  0  0
  8  9  4  0  0  0
  9 10  1  0  0  0
  9 11  4  0  0  0
 11 12  4  0  0  0
 13 14  4  0  0  0
 14 15  1  0  0  0
 14 19  4  0  0  0
 15 16  1  0  0  0
 15 17  1  0  0  0
 15 18  1  0  0  0
 20 21  1  0  0  0
 21 22  1  0  0  0
 22 23  1  0  0  0
 23 24  1  0  0  0
 23 26  1  0  0  0
 24 25  1  0  0  0
 25 28  1  0  0  0
 26 27  1  0  0  0
 27 28  1  0  0  0
 28 29  1  0  0  0
 29 30  2  0  0  0
 29 31  1  0  0  0
 31 32  1  0  0  0
 32 33  4  0  0  0
 32 40  4  0  0  0
 33 34  4  0  0  0
 34 35  1  0  0  0
 34 39  4  0  0  0
 35 36  1  0  0  0
 35 37  1  0  0  0
 35 38  1  0  0  0
 39 40  4  0  0  0
 40 41  1  0  0  0
 41 42  4  0  0  0
 41 43  4  0  0  0
 42 47  4  0  0  0
 43 44  4  0  0  0
 44 45  4  0  0  0
 45 46  1  0  0  0
 45 47  4  0  0  0
  3 48  1  0  0  0
  7 49  1  0  0  0
  8 50  1  0  0  0
 10 51  1  0  0  0
 10 52  1  0  0  0
 10 53  1  0  0  0
 11 54  1  0  0  0
 12 55  1  0  0  0
 16 56  1  0  0  0
 16 57  1  0  0  0
 16 58  1  0  0  0
 17 59  1  0  0  0
 17 60  1  0  0  0
 17 61  1  0  0  0
 18 62  1  0  0  0
 18 63  1  0  0  0
 18 64  1  0  0  0
 19 65  1  0  0  0
 20 66  1  0  0  0
 21 67  1  0  0  0
 21 68  1  0  0  0
 22 69  1  0  0  0
 22 70  1  0  0  0
 23 71  1  0  0  0
 24 72  1  0  0  0
 24 73  1  0  0  0
 25 74  1  0  0  0
 25 75  1  0  0  0
 26 76  1  0  0  0
 26 77  1  0  0  0
 27 78  1  0  0  0
 27 79  1  0  0  0
 31 80  1  0  0  0
 33 81  1  0  0  0
 36 82  1  0  0  0
 36 83  1  0  0  0
 36 84  1  0  0  0
 37 85  1  0  0  0
 37 86  1  0  0  0
 37 87  1  0  0  0
 38 88  1  0  0  0
 38 89  1  0  0  0
 38 90  1  0  0  0
 42 91  1  0  0  0
 43 92  1  0  0  0
 44 93  1  0  0  0
 46 94  1  0  0  0
 46 95  1  0  0  0
 46 96  1  0  0  0
 47 97  1  0  0  0
M  END
$$$$
