6afi_ligand
  -I-interpret- 

 24 25  0  0  0  0  0  0  0  0999 V2000
  -38.6910   13.8580  -10.1240 O   0  0  0  0  0
  -38.0010   13.6640  -11.1370 C   0  0  0  0  0
  -37.4370   12.4260  -11.5200 C   0  0  0  0  0
  -38.2930   11.2910  -11.4740 O   0  0  0  0  0
  -36.7970   12.6810  -12.7570 C   0  0  0  0  0
  -36.2140   11.8640  -13.6630 C   0  0  0  0  0
  -35.5820   12.3840  -14.7990 C   0  0  0  0  0
  -35.5890   13.7670  -14.9490 C   0  0  0  0  0
  -36.2040   14.5770  -13.9770 C   0  0  0  0  0
  -36.7680   14.0410  -12.8960 C   0  0  0  0  0
  -37.4470   14.6200  -11.8910 N   0  0  0  0  0
  -37.7770   16.0190  -11.7690 C   0  0  0  0  0
  -36.5280   16.7080  -11.2260 C   0  0  0  0  0
  -36.7184   12.0881  -10.7733 H   0  0  0  0  0
  -38.6717   11.2126  -10.5953 H   0  0  0  0  0
  -36.2363   10.7855  -13.5068 H   0  0  0  0  0
  -35.1057   11.7342  -15.5331 H   0  0  0  0  0
  -35.1179   14.2231  -15.8197 H   0  0  0  0  0
  -36.2192   15.6587  -14.1105 H   0  0  0  0  0
  -38.6265   16.1647  -11.1018 H   0  0  0  0  0
  -38.0688   16.4384  -12.7318 H   0  0  0  0  0
  -36.2708   16.2802  -10.2570 H   0  0  0  0  0
  -35.7015   16.5596  -11.9210 H   0  0  0  0  0
  -36.7228   17.7745  -11.1136 H   0  0  0  0  0
  1  2  2  0  0  0
  2  3  1  0  0  0
  2 11  1  0  0  0
  3  4  1  0  0  0
  3  5  1  0  0  0
  5  6  4  0  0  0
  5 10  4  0  0  0
  6  7  4  0  0  0
  7  8  4  0  0  0
  8  9  4  0  0  0
  9 10  4  0  0  0
 10 11  1  0  0  0
 11 12  1  0  0  0
 12 13  1  0  0  0
  3 14  1  0  0  0
  4 15  1  0  0  0
  6 16  1  0  0  0
  7 17  1  0  0  0
  8 18  1  0  0  0
  9 19  1  0  0  0
 12 20  1  0  0  0
 12 21  1  0  0  0
 13 22  1  0  0  0
 13 23  1  0  0  0
 13 24  1  0  0  0
M  END
$$$$
