4p7m_ligand
  -I-interpret- 

 36 38  0  0  0  0  0  0  0  0999 V2000
   -1.6580  -30.3430  -18.0600 C   0  0  0  0  0
   -2.4360  -30.7140  -19.1360 C   0  0  0  0  0
   -1.9120  -30.9650  -20.3370 O   0  0  0  0  0
   -3.7850  -30.8080  -18.9390 C   0  0  0  0  0
   -4.3230  -30.5350  -17.6760 C   0  0  0  0  0
   -3.5450  -30.1610  -16.5820 C   0  0  0  0  0
   -2.1910  -30.0760  -16.8000 C   0  0  0  0  0
   -1.3840  -29.7100  -15.8110 O   0  0  0  0  0
   -1.2530  -30.6730  -14.8870 C   0  0  0  0  0
   -2.1870  -30.7970  -13.8930 C   0  0  0  0  0
   -0.1710  -31.5240  -14.8690 C   0  0  0  0  0
   -0.0620  -32.4680  -13.8790 C   0  0  0  0  0
    1.0260  -33.3090  -13.8990 C   0  0  0  0  0
   -0.9910  -32.5800  -12.9310 N   0  0  0  0  0
   -2.0440  -31.7740  -12.9190 C   0  0  0  0  0
   -3.0120  -31.8320  -11.9390 C   0  0  0  0  0
   -4.3350  -31.9510  -12.2880 C   0  0  0  0  0
   -5.3170  -31.9800  -11.3310 C   0  0  0  0  0
   -4.9450  -31.8620  -10.0140 C   0  0  0  0  0
   -3.6230  -31.7210   -9.6510 C   0  0  0  0  0
   -2.6530  -31.6990  -10.6240 C   0  0  0  0  0
   -0.5807  -30.2547  -18.2005 H   0  0  0  0  0
   -2.6132  -31.2058  -20.9469 H   0  0  0  0  0
   -4.4395  -31.0945  -19.7622 H   0  0  0  0  0
   -5.4014  -30.6189  -17.5418 H   0  0  0  0  0
   -3.9858  -29.9479  -15.6081 H   0  0  0  0  0
   -3.0454  -30.1258  -13.8673 H   0  0  0  0  0
    0.5969  -31.4482  -15.6389 H   0  0  0  0  0
    1.0285  -33.8757  -14.8301 H   0  0  0  0  0
    1.9403  -32.7199  -13.8283 H   0  0  0  0  0
    0.9685  -33.9956  -13.0544 H   0  0  0  0  0
   -4.6085  -32.0234  -13.3407 H   0  0  0  0  0
   -6.3650  -32.0937  -11.6082 H   0  0  0  0  0
   -5.7117  -31.8803   -9.2395 H   0  0  0  0  0
   -3.3490  -31.6277   -8.6001 H   0  0  0  0  0
   -1.6048  -31.5765  -10.3511 H   0  0  0  0  0
  1  2  4  0  0  0
  1  7  4  0  0  0
  2  3  1  0  0  0
  2  4  4  0  0  0
  4  5  4  0  0  0
  5  6  4  0  0  0
  6  7  4  0  0  0
  7  8  1  0  0  0
  8  9  1  0  0  0
  9 10  4  0  0  0
  9 11  4  0  0  0
 10 15  4  0  0  0
 11 12  4  0  0  0
 12 13  1  0  0  0
 12 14  4  0  0  0
 14 15  4  0  0  0
 15 16  1  0  0  0
 16 17  4  0  0  0
 16 21  4  0  0  0
 17 18  4  0  0  0
 18 19  4  0  0  0
 19 20  4  0  0  0
 20 21  4  0  0  0
  1 22  1  0  0  0
  3 23  1  0  0  0
  4 24  1  0  0  0
  5 25  1  0  0  0
  6 26  1  0  0  0
 10 27  1  0  0  0
 11 28  1  0  0  0
 13 29  1  0  0  0
 13 30  1  0  0  0
 13 31  1  0  0  0
 17 32  1  0  0  0
 18 33  1  0  0  0
 19 34  1  0  0  0
 20 35  1  0  0  0
 21 36  1  0  0  0
M  END
$$$$
