5lrk_ligand
  -I-interpret- 

125128  0  0  0  0  0  0  0  0999 V2000
   26.8790   -3.8360   -0.5000 C   0  0  0  0  0
   24.6750   -1.9740    2.9750 C   0  0  0  0  0
   23.2200   -2.3250    3.2690 C   0  0  0  0  0
   22.8060   -3.5580    2.4460 C   0  0  0  0  0
   23.0640   -2.5210    4.7020 N   0  0  0  0  0
   26.2730   -4.9030    0.0310 N   0  0  0  0  0
   27.1210   -3.8060   -1.8010 N   0  0  0  0  0
   27.2580   -2.7830    0.2950 N   0  0  0  0  0
   26.5040   -1.9040    1.2300 C   0  0  0  0  0
   25.2020   -2.5480    1.6750 C   0  0  0  0  0
   22.8910   -4.6660    2.9700 O   0  0  0  0  0
   22.3970   -3.3930    1.2850 O   0  0  0  0  0
   21.8100   -2.6390    5.1460 C   0  0  0  0  0
   20.8670   -2.8220    4.3770 O   0  0  0  0  0
   21.6630   -2.5450    6.4790 N   0  0  0  0  0
   20.3220   -2.3590    7.0570 C   0  0  0  0  0
   19.5120   -3.6640    7.1180 C   0  0  0  0  0
   18.3190   -3.6620    7.4230 O   0  0  0  0  0
   20.4570   -1.7710    8.4640 C   0  0  0  0  0
   21.3760   -2.5530    9.3830 C   0  0  0  0  0
   21.1850   -2.1980   10.8540 C   0  0  0  0  0
   22.2260   -2.8540   11.7580 C   0  0  0  0  0
   22.0530   -4.3220   11.8060 N   0  3  0  0  0
   20.1910   -4.7700    6.8220 N   0  0  0  0  0
   19.4990   -6.0360    7.0890 C   0  0  0  0  0
   19.2700   -6.2650    8.5450 C   0  0  0  0  0
   20.1910   -6.1210    9.3530 O   0  0  0  0  0
   20.3330   -7.1810    6.5220 C   0  0  0  0  0
   20.5510   -6.9930    5.0470 C   0  0  0  0  0
   19.6120   -8.5130    6.7350 C   0  0  0  0  0
   20.4420   -9.6740    6.2980 C   0  0  0  0  0
   17.9940   -6.6090    8.8970 N   0  0  0  0  0
   17.8660   -7.0980   10.2780 C   0  0  0  0  0
   18.4420   -8.4850   10.4480 C   0  0  0  0  0
   16.3880   -7.1170   10.6790 C   0  0  0  0  0
   15.6880   -5.7650   10.5750 C   0  0  0  0  0
   14.1830   -5.9750   10.6750 C   0  0  0  0  0
   13.4260   -5.4140   11.8140 C   0  0  0  0  0
   11.9980   -5.7770   12.0040 C   0  0  0  0  0
   11.3480   -6.7130   11.0740 C   0  0  0  0  0
   12.0900   -7.2180    9.9110 C   0  0  0  0  0
   13.4910   -6.8160    9.6880 C   0  0  0  0  0
   10.0470   -7.1390   11.3040 O   0  0  0  0  0
   18.2120   -9.3690    9.6220 O   0  0  0  0  0
   19.2110   -8.6460   11.5610 N   0  0  0  0  0
   19.9360   -9.8520   11.8860 C   0  0  0  0  0
   19.3130   -7.5340   12.5170 C   0  0  0  0  0
   18.7250   -7.9570   13.8530 C   0  0  0  0  0
   20.7650   -7.1630   12.7130 C   0  0  0  0  0
   21.2620   -7.1270   13.8390 O   0  0  0  0  0
   21.4260   -6.8950   11.5950 N   0  0  0  0  0
   22.8320   -6.6170   11.7410 C   0  0  0  0  0
   23.1290   -5.1440   11.8090 C   0  0  0  0  0
   24.2920   -4.7490   11.8580 O   0  0  0  0  0
   23.5990   -7.2240   10.5650 C   0  0  0  0  0
   23.2660   -8.6850   10.4240 C   0  0  0  0  0
   23.8550   -9.6690   11.3440 C   0  0  0  0  0
   22.4150   -9.1370    9.3200 C   0  0  0  0  0
   23.5650  -11.1070   11.1700 C   0  0  0  0  0
   22.1330  -10.5760    9.1500 C   0  0  0  0  0
   22.6820  -11.5620   10.0860 C   0  0  0  0  0
   22.2100   -4.3270   11.8160 O   0  0  0  0  0
   25.2766   -2.3958    3.7801 H   0  0  0  0  0
   24.7341   -0.8886    2.8947 H   0  0  0  0  0
   22.5556   -1.5133    2.9727 H   0  0  0  0  0
   23.8657   -2.5657    5.3310 H   0  0  0  0  0
   26.0014   -5.6846   -0.5654 H   0  0  0  0  0
   26.0823   -4.9353    1.0325 H   0  0  0  0  0
   27.5897   -2.9997   -2.2141 H   0  0  0  0  0
   28.2512   -2.5590    0.2327 H   0  0  0  0  0
   26.2692   -0.9731    0.7139 H   0  0  0  0  0
   27.1208   -1.7292    2.1115 H   0  0  0  0  0
   24.4566   -2.3612    0.9019 H   0  0  0  0  0
   25.3922   -3.6097    1.8324 H   0  0  0  0  0
   22.4095   -2.4569    1.0725 H   0  0  0  0  0
   22.4788   -2.6024    7.0885 H   0  0  0  0  0
   19.7773   -1.6770    6.4040 H   0  0  0  0  0
   19.4645   -1.7868    8.9144 H   0  0  0  0  0
   20.8852   -0.7746    8.3550 H   0  0  0  0  0
   22.4035   -2.3101    9.1122 H   0  0  0  0  0
   21.1454   -3.6115    9.2629 H   0  0  0  0  0
   20.2022   -2.5565   11.1601 H   0  0  0  0  0
   21.2881   -1.1175   10.9538 H   0  0  0  0  0
   22.1060   -2.4587   12.7667 H   0  0  0  0  0
   23.2167   -2.6356   11.3593 H   0  0  0  0  0
   21.0502   -4.5078   11.7885 H   0  0  0  0  0
   21.1337   -4.7393    6.4337 H   0  0  0  0  0
   18.5206   -5.9895    6.6109 H   0  0  0  0  0
   21.2924   -7.1861    7.0393 H   0  0  0  0  0
   19.5871   -6.9705    4.5385 H   0  0  0  0  0
   21.0757   -6.0531    4.8755 H   0  0  0  0  0
   21.1477   -7.8194    4.6610 H   0  0  0  0  0
   18.6980   -8.5047    6.1412 H   0  0  0  0  0
   19.4061   -8.6227    7.7997 H   0  0  0  0  0
   20.6713   -9.5761    5.2369 H   0  0  0  0  0
   21.3690   -9.6925    6.8711 H   0  0  0  0  0
   19.8897  -10.5982    6.4680 H   0  0  0  0  0
   17.2020   -6.5332    8.2588 H   0  0  0  0  0
   18.4298   -6.4200   10.9188 H   0  0  0  0  0
   16.3447   -7.4195   11.7253 H   0  0  0  0  0
   15.8794   -7.7937    9.9924 H   0  0  0  0  0
   15.9308   -5.2985    9.6202 H   0  0  0  0  0
   16.0224   -5.1154   11.3839 H   0  0  0  0  0
   13.9146   -4.7353   12.5131 H   0  0  0  0  0
   11.4323   -5.3500   12.8321 H   0  0  0  0  0
   11.6020   -7.8939    9.2088 H   0  0  0  0  0
   14.0144   -7.1431    8.7896 H   0  0  0  0  0
    9.7808   -7.7419   10.6059 H   0  0  0  0  0
   19.2349  -10.6810   11.9825 H   0  0  0  0  0
   20.6510  -10.0696   11.0925 H   0  0  0  0  0
   20.4674   -9.7124   12.8274 H   0  0  0  0  0
   18.7648   -6.6762   12.1275 H   0  0  0  0  0
   17.6772   -8.2258   13.7186 H   0  0  0  0  0
   19.2758   -8.8165   14.2351 H   0  0  0  0  0
   18.8017   -7.1310   14.5601 H   0  0  0  0  0
   20.9658   -6.8862   10.6848 H   0  0  0  0  0
   23.1488   -7.0623   12.6841 H   0  0  0  0  0
   24.8856   -5.5034   11.8489 H   0  0  0  0  0
   24.6689   -7.1182   10.7447 H   0  0  0  0  0
   23.3169   -6.7043    9.6493 H   0  0  0  0  0
   24.5051   -9.3377   12.1538 H   0  0  0  0  0
   21.9909   -8.4118    8.6255 H   0  0  0  0  0
   24.0083  -11.8351   11.8493 H   0  0  0  0  0
   21.5101  -10.9090    8.3199 H   0  0  0  0  0
   22.4386  -12.6191    9.9796 H   0  0  0  0  0
  1  6  1  0  0  0
  1  7  2  0  0  0
  8  1  1  0  0  0
  2  3  1  0  0  0
 10  2  1  0  0  0
  3  4  1  0  0  0
  3  5  1  0  0  0
  4 11  2  0  0  0
  4 12  1  0  0  0
  5 13  1  0  0  0
  9  8  1  0  0  0
  9 10  1  0  0  0
 13 14  2  0  0  0
 13 15  1  0  0  0
 15 16  1  0  0  0
 16 17  1  0  0  0
 16 19  1  0  0  0
 17 18  2  0  0  0
 17 24  1  0  0  0
 19 20  1  0  0  0
 20 21  1  0  0  0
 21 22  1  0  0  0
 22 23  1  0  0  0
 23 53  1  0  0  0
 23 62  1  0  0  0
 24 25  1  0  0  0
 25 26  1  0  0  0
 25 28  1  0  0  0
 26 27  2  0  0  0
 26 32  1  0  0  0
 28 29  1  0  0  0
 28 30  1  0  0  0
 30 31  1  0  0  0
 32 33  1  0  0  0
 33 34  1  0  0  0
 33 35  1  0  0  0
 34 44  2  0  0  0
 34 45  1  0  0  0
 35 36  1  0  0  0
 36 37  1  0  0  0
 37 38  4  0  0  0
 37 42  4  0  0  0
 38 39  4  0  0  0
 39 40  4  0  0  0
 40 41  4  0  0  0
 40 43  1  0  0  0
 41 42  4  0  0  0
 45 46  1  0  0  0
 45 47  1  0  0  0
 47 48  1  0  0  0
 47 49  1  0  0  0
 49 50  2  0  0  0
 49 51  1  0  0  0
 51 52  1  0  0  0
 52 53  1  0  0  0
 52 55  1  0  0  0
 53 54  1  0  0  0
 53 62  1  0  0  0
 55 56  1  0  0  0
 56 57  4  0  0  0
 56 58  4  0  0  0
 57 59  4  0  0  0
 58 60  4  0  0  0
 59 61  4  0  0  0
 60 61  4  0  0  0
  2 63  1  0  0  0
  2 64  1  0  0  0
  3 65  1  0  0  0
  5 66  1  0  0  0
  6 67  1  0  0  0
  6 68  1  0  0  0
  7 69  1  0  0  0
  8 70  1  0  0  0
  9 71  1  0  0  0
  9 72  1  0  0  0
 10 73  1  0  0  0
 10 74  1  0  0  0
 12 75  1  0  0  0
 15 76  1  0  0  0
 16 77  1  0  0  0
 19 78  1  0  0  0
 19 79  1  0  0  0
 20 80  1  0  0  0
 20 81  1  0  0  0
 21 82  1  0  0  0
 21 83  1  0  0  0
 22 84  1  0  0  0
 22 85  1  0  0  0
 23 86  1  0  0  0
 24 87  1  0  0  0
 25 88  1  0  0  0
 28 89  1  0  0  0
 29 90  1  0  0  0
 29 91  1  0  0  0
 29 92  1  0  0  0
 30 93  1  0  0  0
 30 94  1  0  0  0
 31 95  1  0  0  0
 31 96  1  0  0  0
 31 97  1  0  0  0
 32 98  1  0  0  0
 33 99  1  0  0  0
 35100  1  0  0  0
 35101  1  0  0  0
 36102  1  0  0  0
 36103  1  0  0  0
 38104  1  0  0  0
 39105  1  0  0  0
 41106  1  0  0  0
 42107  1  0  0  0
 43108  1  0  0  0
 46109  1  0  0  0
 46110  1  0  0  0
 46111  1  0  0  0
 47112  1  0  0  0
 48113  1  0  0  0
 48114  1  0  0  0
 48115  1  0  0  0
 51116  1  0  0  0
 52117  1  0  0  0
 54118  1  0  0  0
 55119  1  0  0  0
 55120  1  0  0  0
 57121  1  0  0  0
 58122  1  0  0  0
 59123  1  0  0  0
 60124  1  0  0  0
 61125  1  0  0  0
M  END
$$$$
