2rkn_ligand
  -I-interpret- 

 75 74  0  0  0  0  0  0  0  0999 V2000
    9.1570   12.2200   17.5350 O   0  0  0  0  0
    8.6180   11.7880   16.5330 C   0  0  0  0  0
    7.3550   11.4080   16.5960 O   0  0  0  0  0
    6.4920   12.3940   16.4780 C   0  0  0  0  0
    5.3560   12.2890   17.4290 C   0  0  0  0  0
    4.6910   13.4420   17.4380 O   0  0  0  0  0
    4.4350   11.2060   17.0110 C   0  0  0  0  0
    3.8260   10.5910   18.0390 O   0  0  0  0  0
    2.4430   10.0300   17.6710 P   0  0  0  0  0
    2.6290    8.5960   17.1450 O   0  0  0  0  0
    1.5620   10.1360   18.9370 O   0  0  0  0  0
    1.7960   10.8730   16.5650 O   0  0  0  0  0
    1.2670    8.9310   19.6400 C   0  0  0  0  0
    9.4330   11.6930   15.2550 C   0  0  0  0  0
    9.8000   10.2540   14.8960 C   0  0  0  0  0
   11.3120   10.0390   14.8860 C   0  0  0  0  0
   11.4850    8.5370   14.8480 C   0  0  0  0  0
   12.8510    8.0690   14.4140 C   0  0  0  0  0
   12.6420    6.9250   13.4330 C   0  0  0  0  0
   13.8270    6.7740   12.5100 C   0  0  0  0  0
   13.3750    6.0330   11.2610 C   0  0  0  0  0
   14.4780    5.8980   10.2590 C   0  0  0  0  0
   13.6770    5.6930    9.0000 C   0  0  0  0  0
   14.4250    4.9040    7.9570 C   0  0  0  0  0
   15.9230    5.0430    7.9470 C   0  0  0  0  0
   16.3660    4.4290    6.6420 C   0  0  0  0  0
   17.8530    4.5180    6.5370 C   0  0  0  0  0
   18.1560    4.6660    5.0680 C   0  0  0  0  0
   19.5820    4.3070    4.7770 C   0  0  0  0  0
   20.5250    5.4080    5.2200 C   0  0  0  0  0
    6.0835   12.3583   15.4681 H   0  0  0  0  0
    7.0192   13.3237   16.6923 H   0  0  0  0  0
    5.7428   12.0652   18.4232 H   0  0  0  0  0
    5.2819   14.1488   17.7081 H   0  0  0  0  0
    5.0282   10.4566   16.4869 H   0  0  0  0  0
    3.6583   11.6576   16.3938 H   0  0  0  0  0
    3.0337    8.0559   17.8277 H   0  0  0  0  0
    0.7377    8.2458   18.9778 H   0  0  0  0  0
    2.1965    8.4700   19.9742 H   0  0  0  0  0
    0.6422    9.1593   20.5035 H   0  0  0  0  0
   10.3594   12.2470   15.4066 H   0  0  0  0  0
    8.8297   12.0975   14.4423 H   0  0  0  0  0
    9.4175   10.0421   13.8975 H   0  0  0  0  0
    9.3652    9.5927   15.6455 H   0  0  0  0  0
   11.7919   10.4820   15.7587 H   0  0  0  0  0
   11.7866   10.5250   14.0336 H   0  0  0  0  0
   10.7724    8.1546   14.1172 H   0  0  0  0  0
   11.3348    8.1752   15.8652 H   0  0  0  0  0
   13.4346    7.7373   15.2728 H   0  0  0  0  0
   13.4047    8.8820   13.9443 H   0  0  0  0  0
   11.7581    7.1390   12.8322 H   0  0  0  0  0
   12.5206    6.0005   13.9974 H   0  0  0  0  0
   14.6180    6.2141   13.0088 H   0  0  0  0  0
   14.2155    7.7559   12.2398 H   0  0  0  0  0
   12.5655    6.6007   10.8022 H   0  0  0  0  0
   13.0571    5.0326   11.5546 H   0  0  0  0  0
   15.1830    5.0954   10.4758 H   0  0  0  0  0
   15.1562    6.7506   10.2233 H   0  0  0  0  0
   13.4545    6.6745    8.5814 H   0  0  0  0  0
   12.7787    5.1340    9.2621 H   0  0  0  0  0
   14.0828    5.2815    6.9934 H   0  0  0  0  0
   14.2231    3.8549    8.1732 H   0  0  0  0  0
   16.3797    4.5450    8.8023 H   0  0  0  0  0
   16.2316    6.0853    8.0273 H   0  0  0  0  0
   15.9079    4.9657    5.8112 H   0  0  0  0  0
   16.0588    3.3838    6.6066 H   0  0  0  0  0
   18.3324    3.6315    6.9522 H   0  0  0  0  0
   18.2398    5.3624    7.1075 H   0  0  0  0  0
   17.9898    5.7037    4.7787 H   0  0  0  0  0
   17.5044    3.9964    4.5066 H   0  0  0  0  0
   19.6929    4.1652    3.7020 H   0  0  0  0  0
   19.8299    3.3961    5.3219 H   0  0  0  0  0
   20.2819    6.3283    4.6890 H   0  0  0  0  0
   20.4175    5.5668    6.2930 H   0  0  0  0  0
   21.5514    5.1178    4.9954 H   0  0  0  0  0
  1  2  2  0  0  0
  2  3  1  0  0  0
  2 14  1  0  0  0
  3  4  1  0  0  0
  4  5  1  0  0  0
  5  6  1  0  0  0
  5  7  1  0  0  0
  7  8  1  0  0  0
  8  9  1  0  0  0
  9 10  1  0  0  0
  9 11  1  0  0  0
  9 12  2  0  0  0
 11 13  1  0  0  0
 14 15  1  0  0  0
 15 16  1  0  0  0
 16 17  1  0  0  0
 17 18  1  0  0  0
 18 19  1  0  0  0
 19 20  1  0  0  0
 20 21  1  0  0  0
 21 22  1  0  0  0
 22 23  1  0  0  0
 23 24  1  0  0  0
 24 25  1  0  0  0
 25 26  1  0  0  0
 26 27  1  0  0  0
 27 28  1  0  0  0
 28 29  1  0  0  0
 29 30  1  0  0  0
  4 31  1  0  0  0
  4 32  1  0  0  0
  5 33  1  0  0  0
  6 34  1  0  0  0
  7 35  1  0  0  0
  7 36  1  0  0  0
 10 37  1  0  0  0
 13 38  1  0  0  0
 13 39  1  0  0  0
 13 40  1  0  0  0
 14 41  1  0  0  0
 14 42  1  0  0  0
 15 43  1  0  0  0
 15 44  1  0  0  0
 16 45  1  0  0  0
 16 46  1  0  0  0
 17 47  1  0  0  0
 17 48  1  0  0  0
 18 49  1  0  0  0
 18 50  1  0  0  0
 19 51  1  0  0  0
 19 52  1  0  0  0
 20 53  1  0  0  0
 20 54  1  0  0  0
 21 55  1  0  0  0
 21 56  1  0  0  0
 22 57  1  0  0  0
 22 58  1  0  0  0
 23 59  1  0  0  0
 23 60  1  0  0  0
 24 61  1  0  0  0
 24 62  1  0  0  0
 25 63  1  0  0  0
 25 64  1  0  0  0
 26 65  1  0  0  0
 26 66  1  0  0  0
 27 67  1  0  0  0
 27 68  1  0  0  0
 28 69  1  0  0  0
 28 70  1  0  0  0
 29 71  1  0  0  0
 29 72  1  0  0  0
 30 73  1  0  0  0
 30 74  1  0  0  0
 30 75  1  0  0  0
M  END
$$$$
