### 
### Created by X-TOOL on Mon Sep 10 21:12:57 2018
### 

@<TRIPOS>MOLECULE
2rkn_ligand
   74    73     1     0     0
SMALL
GAST_HUCK


@<TRIPOS>ATOM
      1 O1          9.1570   12.2200   17.5350 O.2       1 LP3        -0.3704
      2 C1          8.6180   11.7880   16.5330 C.2       1 LP3         0.2338
      3 O1A         7.3550   11.4080   16.5960 O.3       1 LP3        -0.2742
      4 C1A         6.4920   12.3940   16.4780 C.3       1 LP3         0.1051
      5 C2A         5.3560   12.2890   17.4290 C.3       1 LP3         0.1111
      6 O2A         4.6910   13.4420   17.4380 O.3       1 LP3        -0.3865
      7 C3A         4.4350   11.2060   17.0110 C.3       1 LP3         0.1120
      8 O3A         3.8260   10.5910   18.0390 O.3       1 LP3        -0.2514
      9 P           2.4430   10.0300   17.6710 P.3       1 LP3         0.2550
     10 O1B         2.6290    8.5960   17.1450 O.co2     1 LP3        -0.6177
     11 O2B         1.5620   10.1360   18.9370 O.3       1 LP3        -0.2574
     12 O3B         1.7960   10.8730   16.5650 O.co2     1 LP3        -0.6177
     13 C2B         1.2670    8.9310   19.6400 C.3       1 LP3         0.0727
     14 C2          9.4330   11.6930   15.2550 C.3       1 LP3         0.0487
     15 C3          9.8000   10.2540   14.8960 C.3       1 LP3        -0.0348
     16 C4         11.3120   10.0390   14.8860 C.3       1 LP3        -0.0509
     17 C5         11.4850    8.5370   14.8480 C.3       1 LP3        -0.0529
     18 C6         12.8510    8.0690   14.4140 C.3       1 LP3        -0.0531
     19 C7         12.6420    6.9250   13.4330 C.3       1 LP3        -0.0531
     20 C8         13.8270    6.7740   12.5100 C.3       1 LP3        -0.0531
     21 C9         13.3750    6.0330   11.2610 C.3       1 LP3        -0.0531
     22 C10        14.4780    5.8980   10.2590 C.3       1 LP3        -0.0531
     23 C11        13.6770    5.6930    9.0000 C.3       1 LP3        -0.0531
     24 C12        14.4250    4.9040    7.9570 C.3       1 LP3        -0.0531
     25 C13        15.9230    5.0430    7.9470 C.3       1 LP3        -0.0531
     26 C14        16.3660    4.4290    6.6420 C.3       1 LP3        -0.0531
     27 C15        17.8530    4.5180    6.5370 C.3       1 LP3        -0.0531
     28 C16        18.1560    4.6660    5.0680 C.3       1 LP3        -0.0533
     29 C17        19.5820    4.3070    4.7770 C.3       1 LP3        -0.0559
     30 C18        20.5250    5.4080    5.2200 C.3       1 LP3        -0.0653
     31 H1          6.0925   12.3892   15.4531 H         1 LP3         0.0640
     32 H2          7.0168   13.3429   16.6626 H         1 LP3         0.0640
     33 H3          5.7406   12.0744   18.4370 H         1 LP3         0.0647
     34 H4          3.9625   13.3814   18.0448 H         1 LP3         0.2100
     35 H5          5.0118   10.4562   16.4497 H         1 LP3         0.0647
     36 H6          3.6629   11.6388   16.3580 H         1 LP3         0.0647
     37 H7          0.6364    9.1601   20.5117 H         1 LP3         0.0584
     38 H8          2.2042    8.4648   19.9779 H         1 LP3         0.0584
     39 H9          0.7327    8.2386   18.9728 H         1 LP3         0.0584
     40 H10        10.3600   12.2707   15.3849 H         1 LP3         0.0518
     41 H11         8.8457   12.1227   14.4302 H         1 LP3         0.0518
     42 H12         9.4012   10.0236   13.8971 H         1 LP3         0.0291
     43 H13         9.3491    9.5765   15.6361 H         1 LP3         0.0291
     44 H14        11.7698   10.4595   15.7935 H         1 LP3         0.0267
     45 H15        11.7643   10.5043   13.9978 H         1 LP3         0.0267
     46 H16        10.7436    8.1247   14.1479 H         1 LP3         0.0265
     47 H17        11.2937    8.1448   15.8577 H         1 LP3         0.0265
     48 H18        13.4242    7.7188   15.2851 H         1 LP3         0.0265
     49 H19        13.3935    8.8912   13.9245 H         1 LP3         0.0265
     50 H20        11.7429    7.1271   12.8324 H         1 LP3         0.0265
     51 H21        12.5044    5.9901   13.9960 H         1 LP3         0.0265
     52 H22        14.6196    6.2018   13.0144 H         1 LP3         0.0265
     53 H23        14.2109    7.7671   12.2336 H         1 LP3         0.0265
     54 H24        12.5433    6.5868   10.8010 H         1 LP3         0.0265
     55 H25        13.0319    5.0283   11.5488 H         1 LP3         0.0265
     56 H26        15.1216    5.0330   10.4768 H         1 LP3         0.0265
     57 H27        15.0929    6.8085   10.2060 H         1 LP3         0.0265
     58 H28        13.4222    6.6775    8.5808 H         1 LP3         0.0265
     59 H29        12.7533    5.1526    9.2546 H         1 LP3         0.0265
     60 H30        14.0548    5.2209    6.9709 H         1 LP3         0.0265
     61 H31        14.1905    3.8406    8.1124 H         1 LP3         0.0265
     62 H32        16.3665    4.5044    8.7974 H         1 LP3         0.0265
     63 H33        16.2128    6.1031    7.9930 H         1 LP3         0.0265
     64 H34        15.9049    4.9727    5.8043 H         1 LP3         0.0265
     65 H35        16.0574    3.3737    6.6084 H         1 LP3         0.0265
     66 H36        18.3198    3.6044    6.9336 H         1 LP3         0.0265
     67 H37        18.2242    5.3909    7.0939 H         1 LP3         0.0265
     68 H38        17.9787    5.7090    4.7670 H         1 LP3         0.0265
     69 H39        17.4931    4.0012    4.4948 H         1 LP3         0.0265
     70 H40        19.6986    4.1485    3.6948 H         1 LP3         0.0263
     71 H41        19.8354    3.3803    5.3127 H         1 LP3         0.0263
     72 H42        21.5612    5.1162    4.9939 H         1 LP3         0.0230
     73 H43        20.4175    5.5693    6.3028 H         1 LP3         0.0230
     74 H44        20.2807    6.3374    4.6848 H         1 LP3         0.0230
@<TRIPOS>BOND
     1    1    2 2  
     2    2    3 1  
     3    2   14 1  
     4    3    4 1  
     5    4    5 1  
     6    5    6 1  
     7    5    7 1  
     8    7    8 1  
     9    8    9 1  
    10    9   10 ar 
    11    9   11 1  
    12    9   12 ar 
    13   11   13 1  
    14   14   15 1  
    15   15   16 1  
    16   16   17 1  
    17   17   18 1  
    18   18   19 1  
    19   19   20 1  
    20   20   21 1  
    21   21   22 1  
    22   22   23 1  
    23   23   24 1  
    24   24   25 1  
    25   25   26 1  
    26   26   27 1  
    27   27   28 1  
    28   28   29 1  
    29   29   30 1  
    30    4   31 1  
    31    4   32 1  
    32    5   33 1  
    33    6   34 1  
    34    7   35 1  
    35    7   36 1  
    36   13   37 1  
    37   13   38 1  
    38   13   39 1  
    39   14   40 1  
    40   14   41 1  
    41   15   42 1  
    42   15   43 1  
    43   16   44 1  
    44   16   45 1  
    45   17   46 1  
    46   17   47 1  
    47   18   48 1  
    48   18   49 1  
    49   19   50 1  
    50   19   51 1  
    51   20   52 1  
    52   20   53 1  
    53   21   54 1  
    54   21   55 1  
    55   22   56 1  
    56   22   57 1  
    57   23   58 1  
    58   23   59 1  
    59   24   60 1  
    60   24   61 1  
    61   25   62 1  
    62   25   63 1  
    63   26   64 1  
    64   26   65 1  
    65   27   66 1  
    66   27   67 1  
    67   28   68 1  
    68   28   69 1  
    69   29   70 1  
    70   29   71 1  
    71   30   72 1  
    72   30   73 1  
    73   30   74 1  
@<TRIPOS>SUBSTRUCTURE
     1 LP3         1

