4clb_ligand
  -I-interpret- 

 62 64  0  0  0  0  0  0  0  0999 V2000
  -19.7180    1.9460   -5.4650 C   0  0  0  0  0
  -19.2090    3.2670   -5.8500 N   0  3  0  0  0
  -17.8850    3.5300   -5.2700 C   0  0  0  0  0
  -17.4000    4.9310   -5.5600 C   0  0  0  0  0
  -16.5650    5.1810   -6.6360 C   0  0  0  0  0
  -16.0980    6.4570   -6.8970 C   0  0  0  0  0
  -16.4380    7.5360   -6.0810 C   0  0  0  0  0
  -17.2700    7.2720   -4.9930 C   0  0  0  0  0
  -17.7380    5.9930   -4.7370 C   0  0  0  0  0
  -15.9290    8.9120   -6.3610 C   0  0  0  0  0
  -15.4910    9.2720   -7.6330 C   0  0  0  0  0
  -15.0170   10.5420   -7.9020 C   0  0  0  0  0
  -14.9490   11.4900   -6.8880 C   0  0  0  0  0
  -14.4560   12.8120   -7.1080 N   0  0  0  0  0
  -15.2310   13.9180   -6.4930 C   0  0  0  0  0
  -16.2920   14.4480   -7.4420 C   0  0  0  0  0
  -15.7870   13.5470   -5.1110 C   0  0  0  0  0
  -15.3150   12.2120   -4.5380 C   0  0  0  0  0
  -16.1310   11.8300   -3.3880 N   0  0  0  0  0
  -15.6160   11.2940   -2.2680 C   0  0  0  0  0
  -16.2550   11.0560   -1.2660 O   0  0  0  0  0
  -14.3470   10.8750   -2.4770 O   0  0  0  0  0
  -13.8010    9.9110   -1.5120 C   0  0  0  0  0
  -12.3150   10.0860   -1.4990 C   0  0  0  0  0
  -14.2320    8.5580   -1.9610 C   0  0  0  0  0
  -15.3540   11.1580   -5.5920 C   0  0  0  0  0
  -15.8540    9.8750   -5.3460 C   0  0  0  0  0
  -13.3210   13.1220   -7.8180 C   0  0  0  0  0
  -12.5340   12.0000   -8.4270 C   0  0  0  0  0
  -12.9750   14.2850   -7.9540 O   0  0  0  0  0
  -19.0303    1.1766   -5.8160 H   0  0  0  0  0
  -19.8017    1.8925   -4.3795 H   0  0  0  0  0
  -20.6988    1.7908   -5.9144 H   0  0  0  0  0
  -19.8574    3.9743   -5.5041 H   0  0  0  0  0
  -19.1259    3.2955   -6.8662 H   0  0  0  0  0
  -17.1770    2.8288   -5.7118 H   0  0  0  0  0
  -17.9607    3.4154   -4.1887 H   0  0  0  0  0
  -16.2707    4.3588   -7.2883 H   0  0  0  0  0
  -15.4508    6.6225   -7.7583 H   0  0  0  0  0
  -17.5579    8.0884   -4.3306 H   0  0  0  0  0
  -18.3820    5.8199   -3.8748 H   0  0  0  0  0
  -15.5228    8.5348   -8.4353 H   0  0  0  0  0
  -14.6960   10.8006   -8.9110 H   0  0  0  0  0
  -14.5376   14.7397   -6.3140 H   0  0  0  0  0
  -15.8138   14.8223   -8.3471 H   0  0  0  0  0
  -16.9815   13.6440   -7.6997 H   0  0  0  0  0
  -16.8395   15.2566   -6.9578 H   0  0  0  0  0
  -16.8678   13.4663   -5.2267 H   0  0  0  0  0
  -15.4377   14.3169   -4.4230 H   0  0  0  0  0
  -14.2850   12.3208   -4.1982 H   0  0  0  0  0
  -17.1392   11.9770   -3.4373 H   0  0  0  0  0
  -14.1576   10.0564   -0.4923 H   0  0  0  0  0
  -11.9192    9.8951   -2.4965 H   0  0  0  0  0
  -12.0732   11.1059   -1.1998 H   0  0  0  0  0
  -11.8740    9.3841   -0.7912 H   0  0  0  0  0
  -15.3209    8.5124   -1.9792 H   0  0  0  0  0
  -13.8423    8.3672   -2.9609 H   0  0  0  0  0
  -13.8472    7.8077   -1.2703 H   0  0  0  0  0
  -16.1929    9.6186   -4.3422 H   0  0  0  0  0
  -12.4996   12.1275   -9.5090 H   0  0  0  0  0
  -11.5204   12.0096   -8.0263 H   0  0  0  0  0
  -13.0121   11.0503   -8.1868 H   0  0  0  0  0
  1  2  1  0  0  0
  2  3  1  0  0  0
  3  4  1  0  0  0
  4  5  4  0  0  0
  4  9  4  0  0  0
  5  6  4  0  0  0
  6  7  4  0  0  0
  7  8  4  0  0  0
  7 10  1  0  0  0
  8  9  4  0  0  0
 10 11  4  0  0  0
 10 27  4  0  0  0
 11 12  4  0  0  0
 12 13  4  0  0  0
 13 14  1  0  0  0
 13 26  4  0  0  0
 14 15  1  0  0  0
 14 28  1  0  0  0
 15 16  1  0  0  0
 15 17  1  0  0  0
 17 18  1  0  0  0
 18 19  1  0  0  0
 18 26  1  0  0  0
 19 20  1  0  0  0
 20 21  2  0  0  0
 20 22  1  0  0  0
 22 23  1  0  0  0
 23 24  1  0  0  0
 23 25  1  0  0  0
 26 27  4  0  0  0
 28 29  1  0  0  0
 28 30  2  0  0  0
  1 31  1  0  0  0
  1 32  1  0  0  0
  1 33  1  0  0  0
  2 34  1  0  0  0
  2 35  1  0  0  0
  3 36  1  0  0  0
  3 37  1  0  0  0
  5 38  1  0  0  0
  6 39  1  0  0  0
  8 40  1  0  0  0
  9 41  1  0  0  0
 11 42  1  0  0  0
 12 43  1  0  0  0
 15 44  1  0  0  0
 16 45  1  0  0  0
 16 46  1  0  0  0
 16 47  1  0  0  0
 17 48  1  0  0  0
 17 49  1  0  0  0
 18 50  1  0  0  0
 19 51  1  0  0  0
 23 52  1  0  0  0
 24 53  1  0  0  0
 24 54  1  0  0  0
 24 55  1  0  0  0
 25 56  1  0  0  0
 25 57  1  0  0  0
 25 58  1  0  0  0
 27 59  1  0  0  0
 29 60  1  0  0  0
 29 61  1  0  0  0
 29 62  1  0  0  0
M  END
$$$$
