### 
### Created by X-TOOL on Mon Sep 10 21:13:32 2018
### 

@<TRIPOS>MOLECULE
5t8r_ligand
  124   123     1     0     0
SMALL
GAST_HUCK


@<TRIPOS>ATOM
      1 N          21.7360   38.4630   17.1960 N.4       1 ALA         0.2377
      2 CA         20.8600   37.2760   16.9570 C.3       1 ALA         0.0621
      3 C          20.3920   37.2220   15.5060 C.2       1 ALA         0.2264
      4 O          20.0590   38.2500   14.9090 O.2       1 ALA        -0.3907
      5 CB         19.6630   37.2880   17.9020 C.3       1 ALA        -0.0040
      6 N          20.3660   36.0140   14.9570 N.am      1 ARG        -0.2610
      7 CA         19.9790   35.7770   13.5750 C.3       1 ARG         0.1312
      8 C          18.5630   35.1900   13.5290 C.2       1 ARG         0.2040
      9 O          18.1220   34.5310   14.4800 O.2       1 ARG        -0.3944
     10 CB         21.0100   34.8480   12.9050 C.3       1 ARG        -0.0092
     11 CG         20.8840   33.3680   13.2540 C.3       1 ARG        -0.0156
     12 CD         22.2210   32.6290   13.3170 C.3       1 ARG         0.0627
     13 NE         22.0020   31.2180   13.6530 N.pl3     1 ARG        -0.2723
     14 CZ         21.6740   30.7470   14.8640 C.cat     1 ARG         0.2882
     15 NH1        21.5340   31.5540   15.9200 N.pl3     1 ARG        -0.2849
     16 NH2        21.4830   29.4410   15.0270 N.pl3     1 ARG        -0.2849
     17 N          17.8610   35.4440   12.4230 N.am      1 THR        -0.2613
     18 CA         16.4990   34.9380   12.2120 C.3       1 THR         0.1565
     19 C          16.4950   33.6970   11.3120 C.2       1 THR         0.2065
     20 O          17.5380   33.2890   10.8010 O.2       1 THR        -0.3943
     21 CB         15.5750   36.0400   11.6320 C.3       1 THR         0.0924
     22 OG1        16.1250   36.5600   10.4180 O.3       1 THR        -0.3874
     23 CG2        15.4210   37.1700   12.6220 C.3       1 THR        -0.0346
     24 N          15.3220   33.0880   11.1460 N.am      1 LYS        -0.2637
     25 CA         15.1420   31.9560   10.2250 C.3       1 LYS         0.1310
     26 C          15.3900   32.3460    8.7610 C.2       1 LYS         0.2039
     27 O          15.8140   31.5120    7.9570 O.2       1 LYS        -0.3944
     28 CB         13.7370   31.3580   10.3800 C.3       1 LYS        -0.0122
     29 CG         13.4200   30.2210    9.4210 C.3       1 LYS        -0.0440
     30 CD         12.2620   29.3760    9.9300 C.3       1 LYS        -0.0124
     31 CE         11.6830   28.4790    8.8430 C.3       1 LYS        -0.0354
     32 NZ         10.4780   27.7400    9.3170 N.4       1 LYS         0.2185
     33 N          15.1210   33.6050    8.4280 N.am      1 GLN        -0.2636
     34 CA         15.3800   34.1320    7.0960 C.3       1 GLN         0.1330
     35 C          16.8800   34.3630    6.8590 C.2       1 GLN         0.2041
     36 O          17.4080   33.9380    5.8250 O.2       1 GLN        -0.3944
     37 CB         14.6050   35.4320    6.8980 C.3       1 GLN         0.0045
     38 CG         14.5790   35.9420    5.4640 C.3       1 GLN         0.0412
     39 CD         14.5790   37.4590    5.3820 C.2       1 GLN         0.1737
     40 OE1        15.2160   38.1440    6.1900 O.2       1 GLN        -0.3973
     41 NE2        13.8630   37.9940    4.4010 N.am      1 GLN        -0.3009
     42 N          17.5560   35.0310    7.8010 N.am      1 THR        -0.2613
     43 CA         19.0010   35.3110    7.6710 C.3       1 THR         0.1565
     44 C          19.8820   34.0560    7.7680 C.2       1 THR         0.2065
     45 O          21.0110   34.0640    7.2870 O.2       1 THR        -0.3943
     46 CB         19.5120   36.3500    8.6970 C.3       1 THR         0.0924
     47 OG1        19.3090   35.8670   10.0280 O.3       1 THR        -0.3874
     48 CG2        18.8070   37.6900    8.5190 C.3       1 THR        -0.0346
     49 N          19.3720   33.0000    8.3990 N.am      1 ALA        -0.2639
     50 CA         20.0330   31.6920    8.4070 C.3       1 ALA         0.1282
     51 C          19.7740   30.8980    7.1060 C.2       1 ALA         0.2031
     52 O          20.6920   30.2560    6.5870 O.2       1 ALA        -0.3944
     53 CB         19.6000   30.8880    9.6240 C.3       1 ALA        -0.0244
     54 N          18.5390   30.9350    6.5920 N.am      1 ARG        -0.2698
     55 CA         18.1930   30.2930    5.3060 C.3       1 ARG         0.0916
     56 C          18.5430   31.2100    4.1320 C.2       1 ARG         0.0598
     57 O          19.7190   31.4710    3.8540 O.co2     1 ARG        -0.5666
     58 CB         16.7040   29.9270    5.2540 C.3       1 ARG        -0.0300
     59 OXT        17.6590   31.7140    3.4300 O.co2     1 ARG        -0.5666
     60 H1         22.0305   38.4746   18.1600 H         1 ALA         0.2015
     61 H2         21.2228   39.3061   16.9913 H         1 ALA         0.2015
     62 H3         22.5457   38.4089   16.5980 H         1 ALA         0.2015
     63 H4         21.4497   36.3701   17.1607 H         1 ALA         0.1095
     64 H5         19.0339   36.4068   17.7080 H         1 ALA         0.0310
     65 H6         19.0743   38.2024   17.7365 H         1 ALA         0.0310
     66 H7         20.0174   37.2634   18.9430 H         1 ALA         0.0310
     67 H8         20.6248   35.2293   15.5203 H         1 ARG         0.1884
     68 H9         19.9744   36.7365   13.0371 H         1 ARG         0.0800
     69 H10        22.0138   35.1829   13.2054 H         1 ARG         0.0313
     70 H11        20.9004   34.9498   11.8152 H         1 ARG         0.0313
     71 H12        20.2570   32.8845   12.4904 H         1 ARG         0.0301
     72 H13        20.3958   33.2843   14.2361 H         1 ARG         0.0301
     73 H14        22.8565   33.0917   14.0864 H         1 ARG         0.0689
     74 H15        22.7206   32.6968   12.3393 H         1 ARG         0.0689
     75 H16        22.1095   30.5307   12.8934 H         1 ARG         0.2642
     76 H17        21.2811   31.1616   16.8381 H         1 ARG         0.2615
     77 H18        21.6790   32.5684   15.8158 H         1 ARG         0.2615
     78 H19        21.5859   28.8016   14.2261 H         1 ARG         0.2615
     79 H20        21.2321   29.0690   15.9541 H         1 ARG         0.2615
     80 H21        18.2804   36.0027   11.7075 H         1 THR         0.1884
     81 H22        16.0966   34.6430   13.1923 H         1 THR         0.0826
     82 H23        14.5867   35.6040   11.4241 H         1 THR         0.0639
     83 H24        15.5498   37.2332   10.0739 H         1 THR         0.2101
     84 H25        14.7638   37.9429   12.1969 H         1 THR         0.0257
     85 H26        16.4077   37.6058   12.8375 H         1 THR         0.0257
     86 H27        14.9792   36.7845   13.5527 H         1 THR         0.0257
     87 H28        14.5334   33.4132   11.6679 H         1 LYS         0.1883
     88 H29        15.8763   31.1832   10.4962 H         1 LYS         0.0800
     89 H30        13.0031   32.1604   10.2143 H         1 LYS         0.0312
     90 H31        13.6383   30.9771   11.4072 H         1 LYS         0.0312
     91 H32        14.3097   29.5830    9.3149 H         1 LYS         0.0269
     92 H33        13.1523   30.6428    8.4410 H         1 LYS         0.0269
     93 H34        11.4695   30.0450   10.2966 H         1 LYS         0.0317
     94 H35        12.6204   28.7448   10.7565 H         1 LYS         0.0317
     95 H36        12.4489   27.7514    8.5367 H         1 LYS         0.0813
     96 H37        11.4023   29.1011    7.9803 H         1 LYS         0.0813
     97 H38        10.1253   27.1595    8.5722 H         1 LYS         0.1994
     98 H39         9.7674   28.3988    9.5947 H         1 LYS         0.1994
     99 H40        10.7265   27.1620   10.1045 H         1 LYS         0.1994
    100 H41        14.7264   34.2119    9.1178 H         1 GLN         0.1883
    101 H42        15.0253   33.3969    6.3586 H         1 GLN         0.0801
    102 H43        15.0662   36.2060    7.5291 H         1 GLN         0.0337
    103 H44        13.5670   35.2654    7.2217 H         1 GLN         0.0337
    104 H45        13.6712   35.5629    4.9719 H         1 GLN         0.0504
    105 H46        15.4672   35.5611    4.9387 H         1 GLN         0.0504
    106 H47        13.8238   38.9876    4.2951 H         1 GLN         0.1814
    107 H48        13.3627   37.4035    3.7677 H         1 GLN         0.1814
    108 H49        17.0701   35.3493    8.6150 H         1 THR         0.1884
    109 H50        19.1471   35.7380    6.6679 H         1 THR         0.0826
    110 H51        20.5900   36.4982    8.5357 H         1 THR         0.0639
    111 H52        18.3820   35.7165   10.1711 H         1 THR         0.2101
    112 H53        19.1898   38.4070    9.2602 H         1 THR         0.0257
    113 H54        17.7246   37.5568    8.6627 H         1 THR         0.0257
    114 H55        18.9980   38.0731    7.5057 H         1 THR         0.0257
    115 H56        18.5048   33.1035    8.8860 H         1 ALA         0.1883
    116 H57        21.1167   31.8650    8.4817 H         1 ALA         0.0797
    117 H58        20.1040   29.9103    9.6157 H         1 ALA         0.0277
    118 H59        18.5105   30.7391    9.5965 H         1 ALA         0.0277
    119 H60        19.8726   31.4332   10.5396 H         1 ALA         0.0277
    120 H61        17.8223   31.4156    7.0974 H         1 ARG         0.1875
    121 H62        18.7814   29.3682    5.2137 H         1 ARG         0.0723
    122 H63        16.4767   29.4523    4.2881 H         1 ARG         0.0270
    123 H64        16.0983   30.8383    5.3662 H         1 ARG         0.0270
    124 H65        16.4695   29.2279    6.0703 H         1 ARG         0.0270
@<TRIPOS>BOND
     1    1    2 1  
     2    2    3 1  
     3    2    5 1  
     4    3    4 2  
     5    3    6 am 
     6    6    7 1  
     7    7    8 1  
     8    7   10 1  
     9    8    9 2  
    10    8   17 am 
    11   10   11 1  
    12   11   12 1  
    13   12   13 1  
    14   13   14 ar 
    15   14   15 ar 
    16   14   16 ar 
    17   17   18 1  
    18   18   19 1  
    19   18   21 1  
    20   19   20 2  
    21   19   24 am 
    22   21   22 1  
    23   21   23 1  
    24   24   25 1  
    25   25   26 1  
    26   25   28 1  
    27   26   27 2  
    28   26   33 am 
    29   28   29 1  
    30   29   30 1  
    31   30   31 1  
    32   31   32 1  
    33   33   34 1  
    34   34   35 1  
    35   34   37 1  
    36   35   36 2  
    37   35   42 am 
    38   37   38 1  
    39   38   39 1  
    40   39   40 2  
    41   39   41 am 
    42   42   43 1  
    43   43   44 1  
    44   43   46 1  
    45   44   45 2  
    46   44   49 am 
    47   46   47 1  
    48   46   48 1  
    49   49   50 1  
    50   50   51 1  
    51   50   53 1  
    52   51   52 2  
    53   51   54 am 
    54   54   55 1  
    55   55   56 1  
    56   55   58 1  
    57   56   57 ar 
    58   56   59 ar 
    59    1   60 1  
    60    1   61 1  
    61    1   62 1  
    62    2   63 1  
    63    5   64 1  
    64    5   65 1  
    65    5   66 1  
    66    6   67 1  
    67    7   68 1  
    68   10   69 1  
    69   10   70 1  
    70   11   71 1  
    71   11   72 1  
    72   12   73 1  
    73   12   74 1  
    74   13   75 1  
    75   15   76 1  
    76   15   77 1  
    77   16   78 1  
    78   16   79 1  
    79   17   80 1  
    80   18   81 1  
    81   21   82 1  
    82   22   83 1  
    83   23   84 1  
    84   23   85 1  
    85   23   86 1  
    86   24   87 1  
    87   25   88 1  
    88   28   89 1  
    89   28   90 1  
    90   29   91 1  
    91   29   92 1  
    92   30   93 1  
    93   30   94 1  
    94   31   95 1  
    95   31   96 1  
    96   32   97 1  
    97   32   98 1  
    98   32   99 1  
    99   33  100 1  
   100   34  101 1  
   101   37  102 1  
   102   37  103 1  
   103   38  104 1  
   104   38  105 1  
   105   41  106 1  
   106   41  107 1  
   107   42  108 1  
   108   43  109 1  
   109   46  110 1  
   110   47  111 1  
   111   48  112 1  
   112   48  113 1  
   113   48  114 1  
   114   49  115 1  
   115   50  116 1  
   116   53  117 1  
   117   53  118 1  
   118   53  119 1  
   119   54  120 1  
   120   55  121 1  
   121   58  122 1  
   122   58  123 1  
   123   58  124 1  
@<TRIPOS>SUBSTRUCTURE
     1 ALA         1

