5t8r_ligand
  -I-interpret- 

124123  0  0  0  0  0  0  0  0999 V2000
   21.7360   38.4630   17.1960 N   0  3  0  0  0
   20.8600   37.2760   16.9570 C   0  0  0  0  0
   20.3920   37.2220   15.5060 C   0  0  0  0  0
   20.0590   38.2500   14.9090 O   0  0  0  0  0
   19.6630   37.2880   17.9020 C   0  0  0  0  0
   20.3660   36.0140   14.9570 N   0  0  0  0  0
   19.9790   35.7770   13.5750 C   0  0  0  0  0
   18.5630   35.1900   13.5290 C   0  0  0  0  0
   18.1220   34.5310   14.4800 O   0  0  0  0  0
   21.0100   34.8480   12.9050 C   0  0  0  0  0
   20.8840   33.3680   13.2540 C   0  0  0  0  0
   22.2210   32.6290   13.3170 C   0  0  0  0  0
   22.0020   31.2180   13.6530 N   0  0  0  0  0
   21.6740   30.7470   14.8640 C   0  0  0  0  0
   21.5340   31.5540   15.9200 N   0  0  0  0  0
   21.4830   29.4410   15.0270 N   0  0  0  0  0
   17.8610   35.4440   12.4230 N   0  0  0  0  0
   16.4990   34.9380   12.2120 C   0  0  0  0  0
   16.4950   33.6970   11.3120 C   0  0  0  0  0
   17.5380   33.2890   10.8010 O   0  0  0  0  0
   15.5750   36.0400   11.6320 C   0  0  0  0  0
   16.1250   36.5600   10.4180 O   0  0  0  0  0
   15.4210   37.1700   12.6220 C   0  0  0  0  0
   15.3220   33.0880   11.1460 N   0  0  0  0  0
   15.1420   31.9560   10.2250 C   0  0  0  0  0
   15.3900   32.3460    8.7610 C   0  0  0  0  0
   15.8140   31.5120    7.9570 O   0  0  0  0  0
   13.7370   31.3580   10.3800 C   0  0  0  0  0
   13.4200   30.2210    9.4210 C   0  0  0  0  0
   12.2620   29.3760    9.9300 C   0  0  0  0  0
   11.6830   28.4790    8.8430 C   0  0  0  0  0
   10.4780   27.7400    9.3170 N   0  3  0  0  0
   15.1210   33.6050    8.4280 N   0  0  0  0  0
   15.3800   34.1320    7.0960 C   0  0  0  0  0
   16.8800   34.3630    6.8590 C   0  0  0  0  0
   17.4080   33.9380    5.8250 O   0  0  0  0  0
   14.6050   35.4320    6.8980 C   0  0  0  0  0
   14.5790   35.9420    5.4640 C   0  0  0  0  0
   14.5790   37.4590    5.3820 C   0  0  0  0  0
   15.2160   38.1440    6.1900 O   0  0  0  0  0
   13.8630   37.9940    4.4010 N   0  0  0  0  0
   17.5560   35.0310    7.8010 N   0  0  0  0  0
   19.0010   35.3110    7.6710 C   0  0  0  0  0
   19.8820   34.0560    7.7680 C   0  0  0  0  0
   21.0110   34.0640    7.2870 O   0  0  0  0  0
   19.5120   36.3500    8.6970 C   0  0  0  0  0
   19.3090   35.8670   10.0280 O   0  0  0  0  0
   18.8070   37.6900    8.5190 C   0  0  0  0  0
   19.3720   33.0000    8.3990 N   0  0  0  0  0
   20.0330   31.6920    8.4070 C   0  0  0  0  0
   19.7740   30.8980    7.1060 C   0  0  0  0  0
   20.6920   30.2560    6.5870 O   0  0  0  0  0
   19.6000   30.8880    9.6240 C   0  0  0  0  0
   18.5390   30.9350    6.5920 N   0  0  0  0  0
   18.1930   30.2930    5.3060 C   0  0  0  0  0
   18.5430   31.2100    4.1320 C   0  0  0  0  0
   19.7190   31.4710    3.8540 O   0  0  0  0  0
   16.7040   29.9270    5.2540 C   0  0  0  0  0
   17.6590   31.7140    3.4300 O   0  0  0  0  0
   22.5283   38.4341   16.5542 H   0  0  0  0  0
   21.2003   39.3166   17.0385 H   0  0  0  0  0
   22.0752   38.4456   18.1578 H   0  0  0  0  0
   21.4497   36.3814   17.1572 H   0  0  0  0  0
   19.0467   38.1627   17.6945 H   0  0  0  0  0
   19.0741   36.3831   17.7519 H   0  0  0  0  0
   20.0157   37.3267   18.9326 H   0  0  0  0  0
   20.6300   35.2136   15.5315 H   0  0  0  0  0
   19.9656   36.7157   13.0212 H   0  0  0  0  0
   21.9909   35.1677   13.2567 H   0  0  0  0  0
   20.8483   34.9285   11.8301 H   0  0  0  0  0
   20.2918   32.8993   12.4680 H   0  0  0  0  0
   20.4330   33.3062   14.2444 H   0  0  0  0  0
   22.8466   33.0862   14.0836 H   0  0  0  0  0
   22.7113   32.6934   12.3456 H   0  0  0  0  0
   22.1084   30.5373   12.9008 H   0  0  0  0  0
   21.2851   31.1652   16.8295 H   0  0  0  0  0
   21.6761   32.5587   15.8164 H   0  0  0  0  0
   21.5864   28.8076   14.2342 H   0  0  0  0  0
   18.2888   36.0139   11.6932 H   0  0  0  0  0
   16.1068   34.6452   13.1859 H   0  0  0  0  0
   14.6004   35.5950   11.4312 H   0  0  0  0  0
   15.5437   37.2403   10.0703 H   0  0  0  0  0
   14.9833   36.7867   13.5437 H   0  0  0  0  0
   16.3994   37.6009   12.8347 H   0  0  0  0  0
   14.7696   37.9351   12.1996 H   0  0  0  0  0
   14.5176   33.4197   11.6783 H   0  0  0  0  0
   15.8876   31.2071   10.4921 H   0  0  0  0  0
   13.0271   32.1578   10.1691 H   0  0  0  0  0
   13.6763   30.9484   11.3883 H   0  0  0  0  0
   14.3011   29.5854    9.3327 H   0  0  0  0  0
   13.1415   30.6472    8.4572 H   0  0  0  0  0
   11.4746   30.0489   10.2696 H   0  0  0  0  0
   12.6338   28.7393   10.7328 H   0  0  0  0  0
   12.4424   27.7499    8.5605 H   0  0  0  0  0
   11.3903   29.1067    8.0013 H   0  0  0  0  0
   10.1220   27.1530    8.5626 H   0  0  0  0  0
   10.7307   27.1555   10.1138 H   0  0  0  0  0
    9.7598   28.4076    9.5977 H   0  0  0  0  0
   14.7185   34.2241    9.1316 H   0  0  0  0  0
   15.0444   33.3935    6.3679 H   0  0  0  0  0
   15.1031   36.1938    7.4976 H   0  0  0  0  0
   13.5721   35.2333    7.1838 H   0  0  0  0  0
   13.6627   35.5813    4.9968 H   0  0  0  0  0
   15.4767   35.5795    4.9632 H   0  0  0  0  0
   13.8238   39.0074    4.2924 H   0  0  0  0  0
   13.3519   37.3918    3.7556 H   0  0  0  0  0
   17.0604   35.3557    8.6313 H   0  0  0  0  0
   19.0926   35.7239    6.6664 H   0  0  0  0  0
   20.5781   36.4987    8.5253 H   0  0  0  0  0
   19.6292   36.5187   10.6560 H   0  0  0  0  0
   18.9970   38.0685    7.5146 H   0  0  0  0  0
   17.7346   37.5567    8.6616 H   0  0  0  0  0
   19.1871   38.3995    9.2540 H   0  0  0  0  0
   18.4874   33.1056    8.8958 H   0  0  0  0  0
   21.1069   31.8698    8.4630 H   0  0  0  0  0
   19.8706   31.4293   10.5306 H   0  0  0  0  0
   18.5203   30.7412    9.5955 H   0  0  0  0  0
   20.1000   29.9195    9.6147 H   0  0  0  0  0
   17.8080   31.4252    7.1075 H   0  0  0  0  0
   18.7782   29.3768    5.2267 H   0  0  0  0  0
   20.3001   31.0202    4.4710 H   0  0  0  0  0
   16.4729   29.2344    6.0633 H   0  0  0  0  0
   16.1049   30.8308    5.3654 H   0  0  0  0  0
   16.4800   29.4567    4.2965 H   0  0  0  0  0
  1  2  1  0  0  0
  2  3  1  0  0  0
  2  5  1  0  0  0
  3  4  2  0  0  0
  3  6  1  0  0  0
  6  7  1  0  0  0
  7  8  1  0  0  0
  7 10  1  0  0  0
  8  9  2  0  0  0
  8 17  1  0  0  0
 10 11  1  0  0  0
 11 12  1  0  0  0
 12 13  1  0  0  0
 13 14  1  0  0  0
 14 15  1  0  0  0
 14 16  2  0  0  0
 17 18  1  0  0  0
 18 19  1  0  0  0
 18 21  1  0  0  0
 19 20  2  0  0  0
 19 24  1  0  0  0
 21 22  1  0  0  0
 21 23  1  0  0  0
 24 25  1  0  0  0
 25 26  1  0  0  0
 25 28  1  0  0  0
 26 27  2  0  0  0
 26 33  1  0  0  0
 28 29  1  0  0  0
 29 30  1  0  0  0
 30 31  1  0  0  0
 31 32  1  0  0  0
 33 34  1  0  0  0
 34 35  1  0  0  0
 34 37  1  0  0  0
 35 36  2  0  0  0
 35 42  1  0  0  0
 37 38  1  0  0  0
 38 39  1  0  0  0
 39 40  2  0  0  0
 39 41  1  0  0  0
 42 43  1  0  0  0
 43 44  1  0  0  0
 43 46  1  0  0  0
 44 45  2  0  0  0
 44 49  1  0  0  0
 46 47  1  0  0  0
 46 48  1  0  0  0
 49 50  1  0  0  0
 50 51  1  0  0  0
 50 53  1  0  0  0
 51 52  2  0  0  0
 51 54  1  0  0  0
 54 55  1  0  0  0
 55 56  1  0  0  0
 55 58  1  0  0  0
 56 57  1  0  0  0
 56 59  2  0  0  0
  1 60  1  0  0  0
  1 61  1  0  0  0
  1 62  1  0  0  0
  2 63  1  0  0  0
  5 64  1  0  0  0
  5 65  1  0  0  0
  5 66  1  0  0  0
  6 67  1  0  0  0
  7 68  1  0  0  0
 10 69  1  0  0  0
 10 70  1  0  0  0
 11 71  1  0  0  0
 11 72  1  0  0  0
 12 73  1  0  0  0
 12 74  1  0  0  0
 13 75  1  0  0  0
 15 76  1  0  0  0
 15 77  1  0  0  0
 16 78  1  0  0  0
 17 79  1  0  0  0
 18 80  1  0  0  0
 21 81  1  0  0  0
 22 82  1  0  0  0
 23 83  1  0  0  0
 23 84  1  0  0  0
 23 85  1  0  0  0
 24 86  1  0  0  0
 25 87  1  0  0  0
 28 88  1  0  0  0
 28 89  1  0  0  0
 29 90  1  0  0  0
 29 91  1  0  0  0
 30 92  1  0  0  0
 30 93  1  0  0  0
 31 94  1  0  0  0
 31 95  1  0  0  0
 32 96  1  0  0  0
 32 97  1  0  0  0
 32 98  1  0  0  0
 33 99  1  0  0  0
 34100  1  0  0  0
 37101  1  0  0  0
 37102  1  0  0  0
 38103  1  0  0  0
 38104  1  0  0  0
 41105  1  0  0  0
 41106  1  0  0  0
 42107  1  0  0  0
 43108  1  0  0  0
 46109  1  0  0  0
 47110  1  0  0  0
 48111  1  0  0  0
 48112  1  0  0  0
 48113  1  0  0  0
 49114  1  0  0  0
 50115  1  0  0  0
 53116  1  0  0  0
 53117  1  0  0  0
 53118  1  0  0  0
 54119  1  0  0  0
 55120  1  0  0  0
 57121  1  0  0  0
 58122  1  0  0  0
 58123  1  0  0  0
 58124  1  0  0  0
M  END
$$$$
