3l17_ligand
  -I-interpret- 

 63 67  0  0  0  0  0  0  0  0999 V2000
   21.3600   62.6330   22.2260 C   0  0  0  0  0
   22.5940   62.1710   21.9250 N   0  0  0  0  0
   23.5580   62.9360   21.3490 C   0  0  0  0  0
   23.3780   64.2520   21.0310 N   0  0  0  0  0
   22.1940   64.8350   21.2690 C   0  0  0  0  0
   21.1230   64.0510   21.8760 C   0  0  0  0  0
   19.7770   65.0140   22.0420 S   0  0  0  0  0
   20.5130   66.4350   21.3680 C   0  0  0  0  0
   21.8370   66.1910   20.9800 C   0  0  0  0  0
   20.4430   61.7420   22.8160 N   0  0  0  0  0
   19.0120   62.0150   22.8970 C   0  0  0  0  0
   18.6060   61.6780   24.3180 C   0  0  0  0  0
   18.9250   60.3220   24.5730 O   0  0  0  0  0
   20.3310   60.1420   24.6430 C   0  0  0  0  0
   20.9730   60.4590   23.3080 C   0  0  0  0  0
   24.8720   62.2870   21.0840 C   0  0  0  0  0
   25.4720   61.4980   22.0570 C   0  0  0  0  0
   26.6560   60.9300   21.8030 N   0  0  0  0  0
   27.2830   61.1010   20.6160 C   0  0  0  0  0
   26.7600   61.8390   19.6120 N   0  0  0  0  0
   25.5740   62.4490   19.7770 C   0  0  0  0  0
   25.0020   63.2750   18.6610 C   0  0  0  0  0
   28.4700   60.5000   20.4300 N   0  0  0  0  0
   19.5980   67.6370   21.3320 C   0  0  0  0  0
   18.9510   67.7000   20.0280 N   0  3  0  0  0
   17.5380   67.3420   19.8880 C   0  0  0  0  0
   16.8560   68.4380   19.0590 C   0  0  0  0  0
   17.7010   68.6440   17.8850 N   0  0  0  0  0
   19.0200   69.2020   18.1400 C   0  0  0  0  0
   19.7560   68.0880   18.8690 C   0  0  0  0  0
   17.2390   68.2910   16.4650 S   0  0  0  0  0
   16.3590   67.1420   16.4280 O   0  0  0  0  0
   18.3910   67.9480   15.6770 O   0  0  0  0  0
   16.4730   69.6510   15.8760 C   0  0  0  0  0
   22.4993   66.9270   20.5241 H   0  0  0  0  0
   18.4537   61.4204   22.1739 H   0  0  0  0  0
   18.7932   63.0559   22.6588 H   0  0  0  0  0
   17.5349   61.8360   24.4440 H   0  0  0  0  0
   19.1396   62.3214   25.0176 H   0  0  0  0  0
   20.5430   59.1043   24.9006 H   0  0  0  0  0
   20.7369   60.8133   25.3997 H   0  0  0  0  0
   22.0543   60.5283   23.4265 H   0  0  0  0  0
   20.7459   59.6682   22.5930 H   0  0  0  0  0
   24.9826   61.3432   23.0185 H   0  0  0  0  0
   24.0343   62.8676   18.3683 H   0  0  0  0  0
   24.8773   64.3037   18.9991 H   0  0  0  0  0
   25.6806   63.2511   17.8084 H   0  0  0  0  0
   28.8762   59.9322   21.1736 H   0  0  0  0  0
   28.9650   60.6115   19.5452 H   0  0  0  0  0
   20.1767   68.5453   21.5001 H   0  0  0  0  0
   18.8433   67.5486   22.1135 H   0  0  0  0  0
   18.1605   68.3125   19.8269 H   0  0  0  0  0
   17.0690   67.2625   20.8687 H   0  0  0  0  0
   17.4398   66.3763   19.3921 H   0  0  0  0  0
   16.7501   69.3579   19.6340 H   0  0  0  0  0
   15.8470   68.1431   18.7708 H   0  0  0  0  0
   18.9741   70.1197   18.7264 H   0  0  0  0  0
   19.5268   69.5006   17.2224 H   0  0  0  0  0
   19.9000   67.2344   18.2067 H   0  0  0  0  0
   20.7389   68.4324   19.1905 H   0  0  0  0  0
   16.1684   69.4767   14.8440 H   0  0  0  0  0
   15.5941   69.8637   16.4846 H   0  0  0  0  0
   17.1578   70.4981   15.9159 H   0  0  0  0  0
  1  2  4  0  0  0
  1  6  4  0  0  0
  1 10  1  0  0  0
  2  3  4  0  0  0
  3  4  4  0  0  0
  3 16  1  0  0  0
  4  5  4  0  0  0
  5  6  4  0  0  0
  5  9  4  0  0  0
  6  7  4  0  0  0
  7  8  4  0  0  0
  8  9  4  0  0  0
  8 24  1  0  0  0
 10 11  1  0  0  0
 10 15  1  0  0  0
 11 12  1  0  0  0
 12 13  1  0  0  0
 13 14  1  0  0  0
 14 15  1  0  0  0
 16 17  4  0  0  0
 16 21  4  0  0  0
 17 18  4  0  0  0
 18 19  4  0  0  0
 19 20  4  0  0  0
 19 23  1  0  0  0
 20 21  4  0  0  0
 21 22  1  0  0  0
 24 25  1  0  0  0
 25 26  1  0  0  0
 25 30  1  0  0  0
 26 27  1  0  0  0
 27 28  1  0  0  0
 28 29  1  0  0  0
 28 31  1  0  0  0
 29 30  1  0  0  0
 31 32  2  0  0  0
 31 33  2  0  0  0
 31 34  1  0  0  0
  9 35  1  0  0  0
 11 36  1  0  0  0
 11 37  1  0  0  0
 12 38  1  0  0  0
 12 39  1  0  0  0
 14 40  1  0  0  0
 14 41  1  0  0  0
 15 42  1  0  0  0
 15 43  1  0  0  0
 17 44  1  0  0  0
 22 45  1  0  0  0
 22 46  1  0  0  0
 22 47  1  0  0  0
 23 48  1  0  0  0
 23 49  1  0  0  0
 24 50  1  0  0  0
 24 51  1  0  0  0
 25 52  1  0  0  0
 26 53  1  0  0  0
 26 54  1  0  0  0
 27 55  1  0  0  0
 27 56  1  0  0  0
 29 57  1  0  0  0
 29 58  1  0  0  0
 30 59  1  0  0  0
 30 60  1  0  0  0
 34 61  1  0  0  0
 34 62  1  0  0  0
 34 63  1  0  0  0
M  END
$$$$
