### 
### Created by X-TOOL on Mon Sep 10 21:13:04 2018
### 

@<TRIPOS>MOLECULE
3l17_ligand
   62    66     1     0     0
SMALL
GAST_HUCK


@<TRIPOS>ATOM
      1 C1         21.3600   62.6330   22.2260 C.ar      1 JZY         0.1338
      2 N2         22.5940   62.1710   21.9250 N.ar      1 JZY        -0.2711
      3 C3         23.5580   62.9360   21.3490 C.ar      1 JZY         0.0869
      4 N4         23.3780   64.2520   21.0310 N.ar      1 JZY        -0.3080
      5 C5         22.1940   64.8350   21.2690 C.ar      1 JZY         0.0250
      6 C6         21.1230   64.0510   21.8760 C.ar      1 JZY         0.0974
      7 S7         19.7770   65.0140   22.0420 S.3       1 JZY        -0.0171
      8 C8         20.5130   66.4350   21.3680 C.2       1 JZY         0.0090
      9 C9         21.8370   66.1910   20.9800 C.2       1 JZY        -0.0466
     10 N10        20.4430   61.7420   22.8160 N.pl3     1 JZY        -0.2857
     11 C11        19.0120   62.0150   22.8970 C.3       1 JZY         0.0548
     12 C12        18.6060   61.6780   24.3180 C.3       1 JZY         0.0681
     13 O13        18.9250   60.3220   24.5730 O.3       1 JZY        -0.3757
     14 C14        20.3310   60.1420   24.6430 C.3       1 JZY         0.0681
     15 C15        20.9730   60.4590   23.3080 C.3       1 JZY         0.0548
     16 C16        24.8720   62.2870   21.0840 C.ar      1 JZY         0.0504
     17 C17        25.4720   61.4980   22.0570 C.ar      1 JZY         0.0211
     18 N18        26.6560   60.9300   21.8030 N.ar      1 JZY        -0.2581
     19 C19        27.2830   61.1010   20.6160 C.ar      1 JZY         0.1840
     20 N20        26.7600   61.8390   19.6120 N.ar      1 JZY        -0.2502
     21 C21        25.5740   62.4490   19.7770 C.ar      1 JZY         0.0434
     22 C22        25.0020   63.2750   18.6610 C.3       1 JZY        -0.0093
     23 N23        28.4700   60.5000   20.4300 N.pl3     1 JZY        -0.3025
     24 C24        19.5980   67.6370   21.3320 C.3       1 JZY        -0.0535
     25 N25        18.9510   67.7000   20.0280 N.4       1 JZY         0.4131
     26 C26        17.5380   67.3420   19.8880 C.3       1 JZY        -0.0918
     27 C27        16.8560   68.4380   19.0590 C.3       1 JZY         0.0110
     28 N28        17.7010   68.6440   17.8850 N.am      1 JZY        -0.2426
     29 C29        19.0200   69.2020   18.1400 C.3       1 JZY         0.0110
     30 C30        19.7560   68.0880   18.8690 C.3       1 JZY        -0.0918
     31 S31        17.2390   68.2910   16.4650 S.o2      1 JZY         0.0384
     32 O32        16.3590   67.1420   16.4280 O.2       1 JZY        -0.1556
     33 O33        18.3910   67.9480   15.6770 O.2       1 JZY        -0.1556
     34 C34        16.4730   69.6510   15.8760 C.3       1 JZY         0.0734
     35 H          22.4993   66.9270   20.5241 H         1 JZY         0.0313
     36 H          18.4537   61.4204   22.1739 H         1 JZY         0.0547
     37 H          18.7932   63.0559   22.6588 H         1 JZY         0.0547
     38 H          17.5349   61.8360   24.4440 H         1 JZY         0.0580
     39 H          19.1396   62.3214   25.0176 H         1 JZY         0.0580
     40 H          20.5430   59.1043   24.9006 H         1 JZY         0.0580
     41 H          20.7369   60.8133   25.3997 H         1 JZY         0.0580
     42 H          22.0543   60.5283   23.4265 H         1 JZY         0.0547
     43 H          20.7459   59.6682   22.5930 H         1 JZY         0.0547
     44 H          24.9826   61.3432   23.0185 H         1 JZY         0.0911
     45 H          25.6894   64.0864   18.4221 H         1 JZY         0.0456
     46 H          24.8599   62.6467   17.7817 H         1 JZY         0.0456
     47 H          24.0430   63.6893   18.9720 H         1 JZY         0.0456
     48 H          28.8762   59.9322   21.1736 H         1 JZY         0.1841
     49 H          28.9650   60.6115   19.5452 H         1 JZY         0.1841
     50 H          20.1767   68.5453   21.5001 H         1 JZY         0.0255
     51 H          18.8433   67.5486   22.1135 H         1 JZY         0.0255
     52 H          17.0690   67.2625   20.8687 H         1 JZY         0.0037
     53 H          17.4398   66.3763   19.3921 H         1 JZY         0.0037
     54 H          16.7501   69.3579   19.6340 H         1 JZY         0.0458
     55 H          15.8470   68.1431   18.7708 H         1 JZY         0.0458
     56 H          18.9741   70.1197   18.7264 H         1 JZY         0.0458
     57 H          19.5268   69.5006   17.2224 H         1 JZY         0.0458
     58 H          19.9000   67.2344   18.2067 H         1 JZY         0.0037
     59 H          20.7389   68.4324   19.1905 H         1 JZY         0.0037
     60 H          16.1684   69.4767   14.8440 H         1 JZY         0.0482
     61 H          15.5941   69.8637   16.4846 H         1 JZY         0.0482
     62 H          17.1578   70.4981   15.9159 H         1 JZY         0.0482
@<TRIPOS>BOND
     1    1    2 ar 
     2    1    6 ar 
     3    1   10 1  
     4    2    3 ar 
     5    3    4 ar 
     6    3   16 1  
     7    4    5 ar 
     8    5    6 ar 
     9    5    9 1  
    10    6    7 1  
    11    7    8 1  
    12    8    9 2  
    13    8   24 1  
    14   10   11 1  
    15   10   15 1  
    16   11   12 1  
    17   12   13 1  
    18   13   14 1  
    19   14   15 1  
    20   16   17 ar 
    21   16   21 ar 
    22   17   18 ar 
    23   18   19 ar 
    24   19   20 ar 
    25   19   23 1  
    26   20   21 ar 
    27   21   22 1  
    28   24   25 1  
    29   25   26 1  
    30   25   30 1  
    31   26   27 1  
    32   27   28 1  
    33   28   29 1  
    34   28   31 am 
    35   29   30 1  
    36   31   32 2  
    37   31   33 2  
    38   31   34 1  
    39    9   35 1  
    40   11   36 1  
    41   11   37 1  
    42   12   38 1  
    43   12   39 1  
    44   14   40 1  
    45   14   41 1  
    46   15   42 1  
    47   15   43 1  
    48   17   44 1  
    49   22   45 1  
    50   22   46 1  
    51   22   47 1  
    52   23   48 1  
    53   23   49 1  
    54   24   50 1  
    55   24   51 1  
    56   26   52 1  
    57   26   53 1  
    58   27   54 1  
    59   27   55 1  
    60   29   56 1  
    61   29   57 1  
    62   30   58 1  
    63   30   59 1  
    64   34   60 1  
    65   34   61 1  
    66   34   62 1  
@<TRIPOS>SUBSTRUCTURE
     1 JZY         1

