### 
### Created by X-TOOL on Mon Sep 10 21:12:51 2018
### 

@<TRIPOS>MOLECULE
1uod_ligand
   15    14     1     0     0
SMALL
GAST_HUCK


@<TRIPOS>ATOM
      1 O1         63.3140   26.8960   59.2680 O.2       1 G3H        -0.3721
      2 C1         63.5620   27.8520   60.3120 C.2       1 G3H         0.1303
      3 C2         63.8350   29.2020   59.6990 C.3       1 G3H         0.1530
      4 O2         65.0250   29.0700   58.9500 O.3       1 G3H        -0.3700
      5 C3         62.7380   29.5320   58.6500 C.3       1 G3H         0.1200
      6 O1P        61.4540   29.7040   59.2660 O.3       1 G3H        -0.2710
      7 O2P        58.9590   29.8570   58.8680 O.co2     1 G3H        -0.5537
      8 O3P        60.2880   31.8960   59.5290 O.co2     1 G3H        -0.5537
      9 O4P        60.5870   30.8220   57.1950 O.co2     1 G3H        -0.5537
     10 P          60.2420   30.6350   58.6600 P.3       1 G3H         0.2010
     11 H1         63.5540   27.6351   61.3792 H         1 G3H         0.1377
     12 H2         63.9098   29.9841   60.4689 H         1 G3H         0.0854
     13 H3         65.7335   28.8092   59.5266 H         1 G3H         0.2136
     14 H4         62.6783   28.7076   57.9243 H         1 G3H         0.0665
     15 H5         63.0109   30.4610   58.1280 H         1 G3H         0.0665
@<TRIPOS>BOND
     1    1    2 2  
     2    2    3 1  
     3    3    4 1  
     4    3    5 1  
     5    5    6 1  
     6    6   10 1  
     7   10    7 ar 
     8   10    8 ar 
     9   10    9 ar 
    10    2   11 1  
    11    3   12 1  
    12    4   13 1  
    13    5   14 1  
    14    5   15 1  
@<TRIPOS>SUBSTRUCTURE
     1 G3H         1

