1uod_ligand
  -I-interpret- 

 17 16  0  0  0  0  0  0  0  0999 V2000
   63.3140   26.8960   59.2680 O   0  0  0  0  0
   63.5620   27.8520   60.3120 C   0  0  0  0  0
   63.8350   29.2020   59.6990 C   0  0  0  0  0
   65.0250   29.0700   58.9500 O   0  0  0  0  0
   62.7380   29.5320   58.6500 C   0  0  0  0  0
   61.4540   29.7040   59.2660 O   0  0  0  0  0
   58.9590   29.8570   58.8680 O   0  0  0  0  0
   60.2880   31.8960   59.5290 O   0  0  0  0  0
   60.5870   30.8220   57.1950 O   0  0  0  0  0
   60.2420   30.6350   58.6600 P   0  0  0  0  0
   63.5540   27.6349   61.3801 H   0  0  0  0  0
   63.8787   29.9610   60.4801 H   0  0  0  0  0
   65.7527   28.8636   59.5412 H   0  0  0  0  0
   62.6740   28.7026   57.9457 H   0  0  0  0  0
   63.0078   30.4623   58.1501 H   0  0  0  0  0
   61.1123   32.3620   59.3713 H   0  0  0  0  0
   61.4050   31.3190   57.1210 H   0  0  0  0  0
  1  2  2  0  0  0
  2  3  1  0  0  0
  3  4  1  0  0  0
  3  5  1  0  0  0
  5  6  1  0  0  0
  6 10  1  0  0  0
 10  7  2  0  0  0
 10  8  1  0  0  0
 10  9  1  0  0  0
  2 11  1  0  0  0
  3 12  1  0  0  0
  4 13  1  0  0  0
  5 14  1  0  0  0
  5 15  1  0  0  0
  8 16  1  0  0  0
  9 17  1  0  0  0
M  END
$$$$
