### 
### Created by X-TOOL on Mon Sep 10 21:12:50 2018
### 

@<TRIPOS>MOLECULE
1ov3_ligand
  161   167     1     0     0
SMALL
GAST_HUCK


@<TRIPOS>ATOM
      1 N          64.7780   52.1070   27.1960 N.4       1 GLN         0.2377
      2 CA         64.4390   51.2430   26.0200 C.3       1 GLN         0.0623
      3 C          64.0550   49.8200   26.4480 C.2       1 GLN         0.2289
      4 O          64.8860   49.0440   26.9250 O.2       1 GLN        -0.3905
      5 CB         65.5940   51.2220   25.0070 C.3       1 GLN        -0.0040
      6 N          62.7800   49.4910   26.3030 N.am      1 PRO        -0.2471
      7 CA         62.3000   48.1550   26.6610 C.3       1 PRO         0.1341
      8 C          62.8330   47.1040   25.6900 C.2       1 PRO         0.2066
      9 O          63.3690   47.4480   24.6270 O.2       1 PRO        -0.3942
     10 CB         60.7760   48.2780   26.5380 C.3       1 PRO        -0.0104
     11 CG         60.5370   49.4270   25.6510 C.3       1 PRO        -0.0281
     12 CD         61.7150   50.3680   25.7850 C.3       1 PRO         0.0371
     13 N          62.7060   45.8360   26.0670 N.am      1 PRO        -0.2498
     14 CA         63.1260   44.7190   25.2160 C.3       1 PRO         0.1338
     15 C          62.4810   44.7840   23.8490 C.2       1 PRO         0.2042
     16 O          61.3650   45.2920   23.7200 O.2       1 PRO        -0.3944
     17 CB         62.5780   43.4900   25.9540 C.3       1 PRO        -0.0104
     18 CG         62.4760   43.9060   27.3700 C.3       1 PRO        -0.0281
     19 CD         62.1560   45.3790   27.3550 C.3       1 PRO         0.0369
     20 N          63.1580   44.2120   22.8570 N.am      1 SER        -0.2616
     21 CA         62.7050   44.2440   21.4760 C.3       1 SER         0.1539
     22 C          61.7340   43.1720   21.0390 C.2       1 SER         0.2063
     23 O          61.5940   42.8990   19.8420 O.2       1 SER        -0.3943
     24 CB         63.9150   44.2420   20.5510 C.3       1 SER         0.0843
     25 OG         64.3650   45.5660   20.4170 O.3       1 SER        -0.3903
     26 N          61.0730   42.5620   22.0090 N.am      1 ASN        -0.2615
     27 CA         60.0580   41.5660   21.7650 C.3       1 ASN         0.1478
     28 C          58.9050   41.8300   22.7180 C.2       1 ASN         0.2088
     29 O          59.1000   42.4600   23.7580 O.2       1 ASN        -0.3940
     30 CB         60.6390   40.1690   21.9830 C.3       1 ASN         0.0773
     31 CG         61.6470   39.7910   20.9130 C.2       1 ASN         0.1780
     32 OD1        61.2720   39.4050   19.8020 O.2       1 ASN        -0.3970
     33 ND2        62.9250   39.9020   21.2370 N.am      1 ASN        -0.3007
     34 N          57.7090   41.3700   22.3770 N.am      1 PRO        -0.2497
     35 CA         56.5580   41.5680   23.2610 C.3       1 PRO         0.1340
     36 C          56.7360   40.8320   24.5860 C.2       1 PRO         0.2066
     37 O          57.4220   39.8110   24.6570 O.2       1 PRO        -0.3942
     38 CB         55.4000   40.9590   22.4700 C.3       1 PRO        -0.0104
     39 CG         55.8840   40.9340   21.0300 C.3       1 PRO        -0.0281
     40 CD         57.3470   40.6520   21.1430 C.3       1 PRO         0.0369
     41 N          56.1360   41.3680   25.6390 N.am      1 PRO        -0.2498
     42 CA         56.1130   40.6830   26.9230 C.3       1 PRO         0.1340
     43 C          55.2940   39.4100   26.7300 C.2       1 PRO         0.2066
     44 O          54.5090   39.3080   25.7810 O.2       1 PRO        -0.3942
     45 CB         55.3450   41.6570   27.8270 C.3       1 PRO        -0.0104
     46 CG         54.5360   42.4780   26.8730 C.3       1 PRO        -0.0281
     47 CD         55.4460   42.6720   25.6860 C.3       1 PRO         0.0369
     48 N          55.5010   38.4350   27.5960 N.am      1 PRO        -0.2498
     49 CA         54.6850   37.2200   27.5800 C.3       1 PRO         0.1338
     50 C          53.2490   37.6200   27.8390 C.2       1 PRO         0.2041
     51 O          53.0190   38.7150   28.3740 O.2       1 PRO        -0.3944
     52 CB         55.2070   36.4530   28.7900 C.3       1 PRO        -0.0104
     53 CG         55.8220   37.5410   29.6620 C.3       1 PRO        -0.0281
     54 CD         56.5130   38.4060   28.6600 C.3       1 PRO         0.0369
     55 N          52.3040   36.7620   27.4720 N.am      1 ARG        -0.2637
     56 CA         50.8990   36.9940   27.7780 C.3       1 ARG         0.1313
     57 C          50.7810   36.9530   29.2960 C.2       1 ARG         0.2064
     58 O          51.6280   36.3530   29.9690 O.2       1 ARG        -0.3942
     59 CB         50.0230   35.9020   27.1630 C.3       1 ARG        -0.0092
     60 CG         49.9190   35.9400   25.6460 C.3       1 ARG        -0.0156
     61 CD         49.1110   37.0990   25.0820 C.3       1 ARG         0.0627
     62 NE         47.7290   37.1520   25.5570 N.pl3     1 ARG        -0.2723
     63 CZ         46.7540   36.3390   25.1630 C.cat     1 ARG         0.2882
     64 NH1        47.0000   35.3910   24.2740 N.pl3     1 ARG        -0.2849
     65 NH2        45.5250   36.4850   25.6440 N.pl3     1 ARG        -0.2849
     66 N          49.7480   37.5890   29.8450 N.am      1 PRO        -0.2498
     67 CA         49.5150   37.5480   31.2860 C.3       1 PRO         0.1338
     68 C          49.4530   36.0960   31.7350 C.2       1 PRO         0.2046
     69 O          48.9420   35.2500   30.9990 O.2       1 PRO        -0.3943
     70 CB         48.1360   38.1920   31.4340 C.3       1 PRO        -0.0104
     71 CG         47.9890   39.0690   30.2390 C.3       1 PRO        -0.0281
     72 CD         48.7360   38.3900   29.1390 C.3       1 PRO         0.0369
     73 N          49.9450   35.8130   32.9310 N.am      1 PRO        -0.2685
     74 CA         49.9290   34.4520   33.4680 C.3       1 PRO         0.0423
     75 C          48.4990   33.9280   33.5770 C.3       1 PRO        -0.0418
     76 CB         50.5190   34.6160   34.8720 C.3       1 PRO        -0.0281
     77 CG         51.2570   35.9000   34.8360 C.3       1 PRO        -0.0304
     78 CD         50.5390   36.7800   33.8630 C.3       1 PRO         0.0343
     79 H1         65.0239   53.0303   26.8748 H         1 GLN         0.2015
     80 H2         65.5572   51.7060   27.6941 H         1 GLN         0.2015
     81 H3         63.9810   52.1662   27.8103 H         1 GLN         0.2015
     82 H4         63.5643   51.6870   25.5222 H         1 GLN         0.1095
     83 H5         65.3222   50.5825   24.1543 H         1 GLN         0.0310
     84 H6         66.4984   50.8238   25.4902 H         1 GLN         0.0310
     85 H7         65.7883   52.2445   24.6512 H         1 GLN         0.0310
     86 H8         62.5944   47.8921   27.6877 H         1 PRO         0.0802
     87 H9         60.3251   48.4561   27.5254 H         1 PRO         0.0313
     88 H10        60.3518   47.3620   26.1010 H         1 PRO         0.0313
     89 H11        59.6112   49.9420   25.9470 H         1 PRO         0.0287
     90 H12        60.4489   49.0838   24.6096 H         1 PRO         0.0287
     91 H13        61.9932   50.7950   24.8102 H         1 PRO         0.0524
     92 H14        61.4934   51.1812   26.4918 H         1 PRO         0.0524
     93 H15        64.2210   44.6836   25.1176 H         1 PRO         0.0802
     94 H16        63.2663   42.6382   25.8502 H         1 PRO         0.0313
     95 H17        61.5890   43.2123   25.5607 H         1 PRO         0.0313
     96 H18        63.4295   43.7285   27.8890 H         1 PRO         0.0287
     97 H19        61.6742   43.3470   27.8746 H         1 PRO         0.0287
     98 H20        61.0697   45.5460   27.4004 H         1 PRO         0.0524
     99 H21        62.6419   45.8957   28.1958 H         1 PRO         0.0524
    100 H22        64.0138   43.7406   23.0700 H         1 SER         0.1884
    101 H23        62.1827   45.2032   21.3452 H         1 SER         0.0823
    102 H24        63.6305   43.8436   19.5660 H         1 SER         0.0606
    103 H25        64.7126   43.6191   20.9820 H         1 SER         0.0606
    104 H26        64.6060   45.9053   21.2709 H         1 SER         0.2097
    105 H27        61.2868   42.8025   22.9558 H         1 ASN         0.1885
    106 H28        59.7011   41.6482   20.7278 H         1 ASN         0.0826
    107 H29        59.8172   39.4379   21.9689 H         1 ASN         0.0551
    108 H30        61.1370   40.1420   22.9634 H         1 ASN         0.0551
    109 H31        63.6321   39.6663   20.5703 H         1 ASN         0.1814
    110 H32        63.1838   40.2216   22.1485 H         1 ASN         0.1814
    111 H33        56.3895   42.6378   23.4535 H         1 PRO         0.0802
    112 H34        54.4972   41.5802   22.5645 H         1 PRO         0.0313
    113 H35        55.1828   39.9402   22.8234 H         1 PRO         0.0313
    114 H36        55.7098   41.9045   20.5424 H         1 PRO         0.0287
    115 H37        55.3763   40.1413   20.4609 H         1 PRO         0.0287
    116 H38        57.5387   39.5731   21.2387 H         1 PRO         0.0524
    117 H39        57.8971   41.0467   20.2761 H         1 PRO         0.0524
    118 H40        57.1195   40.4620   27.3078 H         1 PRO         0.0802
    119 H41        56.0397   42.2917   28.3967 H         1 PRO         0.0313
    120 H42        54.6919   41.1111   28.5236 H         1 PRO         0.0313
    121 H43        54.2685   43.4461   27.3215 H         1 PRO         0.0287
    122 H44        53.6201   41.9445   26.5790 H         1 PRO         0.0287
    123 H45        54.8737   42.8589   24.7654 H         1 PRO         0.0524
    124 H46        56.1542   43.4973   25.8514 H         1 PRO         0.0524
    125 H47        54.7840   36.6517   26.6434 H         1 PRO         0.0802
    126 H48        55.9648   35.7141   28.4903 H         1 PRO         0.0313
    127 H49        54.3865   35.9438   29.3168 H         1 PRO         0.0313
    128 H50        56.5377   37.1166   30.3815 H         1 PRO         0.0287
    129 H51        55.0463   38.1021   30.2038 H         1 PRO         0.0287
    130 H52        56.7127   39.4113   29.0592 H         1 PRO         0.0524
    131 H53        57.4547   37.9551   28.3138 H         1 PRO         0.0524
    132 H54        52.5638   35.9354   26.9727 H         1 ARG         0.1883
    133 H55        50.5843   37.9761   27.3953 H         1 ARG         0.0800
    134 H56        49.0091   36.0042   27.5772 H         1 ARG         0.0313
    135 H57        50.4406   34.9263   27.4521 H         1 ARG         0.0313
    136 H58        49.4483   35.0031   25.3134 H         1 ARG         0.0301
    137 H59        50.9378   36.0041   25.2363 H         1 ARG         0.0301
    138 H60        49.0960   37.0082   23.9859 H         1 ARG         0.0689
    139 H61        49.6096   38.0376   25.3654 H         1 ARG         0.0689
    140 H62        47.4927   37.8756   26.2509 H         1 ARG         0.2642
    141 H63        46.2436   34.7617   23.9695 H         1 ARG         0.2615
    142 H64        47.9480   35.2821   23.8862 H         1 ARG         0.2615
    143 H65        45.3271   37.2213   26.3365 H         1 ARG         0.2615
    144 H66        44.7696   35.8619   25.3246 H         1 ARG         0.2615
    145 H67        50.2868   38.0968   31.8455 H         1 PRO         0.0802
    146 H68        48.0841   38.7863   32.3582 H         1 PRO         0.0313
    147 H69        47.3497   37.4229   31.4480 H         1 PRO         0.0313
    148 H70        48.4192   40.0617   30.4376 H         1 PRO         0.0287
    149 H71        46.9275   39.1762   29.9713 H         1 PRO         0.0287
    150 H72        48.0666   37.7454   28.5504 H         1 PRO         0.0524
    151 H73        49.2123   39.1269   28.4756 H         1 PRO         0.0524
    152 H74        50.5350   33.7721   32.8512 H         1 PRO         0.0555
    153 H75        48.5131   32.9055   33.9822 H         1 PRO         0.0252
    154 H76        48.0341   33.9209   32.5801 H         1 PRO         0.0252
    155 H77        47.9196   34.5800   34.2472 H         1 PRO         0.0252
    156 H78        51.2018   33.7851   35.1029 H         1 PRO         0.0288
    157 H79        49.7181   34.6525   35.6251 H         1 PRO         0.0288
    158 H80        52.2924   35.7332   34.5041 H         1 PRO         0.0285
    159 H81        51.2619   36.3628   35.8339 H         1 PRO         0.0285
    160 H82        49.7624   37.3756   34.3651 H         1 PRO         0.0522
    161 H83        51.2388   37.4521   33.3448 H         1 PRO         0.0522
@<TRIPOS>BOND
     1    1    2 1  
     2    2    3 1  
     3    2    5 1  
     4    3    4 2  
     5    3    6 am 
     6    6    7 1  
     7    6   12 1  
     8    7    8 1  
     9    7   10 1  
    10    8    9 2  
    11    8   13 am 
    12   10   11 1  
    13   11   12 1  
    14   13   14 1  
    15   13   19 1  
    16   14   15 1  
    17   14   17 1  
    18   15   16 2  
    19   15   20 am 
    20   17   18 1  
    21   18   19 1  
    22   20   21 1  
    23   21   22 1  
    24   21   24 1  
    25   22   23 2  
    26   22   26 am 
    27   24   25 1  
    28   26   27 1  
    29   27   28 1  
    30   27   30 1  
    31   28   29 2  
    32   28   34 am 
    33   30   31 1  
    34   31   32 2  
    35   31   33 am 
    36   34   35 1  
    37   34   40 1  
    38   35   36 1  
    39   35   38 1  
    40   36   37 2  
    41   36   41 am 
    42   38   39 1  
    43   39   40 1  
    44   41   42 1  
    45   41   47 1  
    46   42   43 1  
    47   42   45 1  
    48   43   44 2  
    49   43   48 am 
    50   45   46 1  
    51   46   47 1  
    52   48   49 1  
    53   48   54 1  
    54   49   50 1  
    55   49   52 1  
    56   50   51 2  
    57   50   55 am 
    58   52   53 1  
    59   53   54 1  
    60   55   56 1  
    61   56   57 1  
    62   56   59 1  
    63   57   58 2  
    64   57   66 am 
    65   59   60 1  
    66   60   61 1  
    67   61   62 1  
    68   62   63 ar 
    69   63   64 ar 
    70   63   65 ar 
    71   66   67 1  
    72   66   72 1  
    73   67   68 1  
    74   67   70 1  
    75   68   69 2  
    76   68   73 am 
    77   70   71 1  
    78   71   72 1  
    79   73   74 1  
    80   73   78 1  
    81   74   75 1  
    82   74   76 1  
    83   76   77 1  
    84   77   78 1  
    85    1   79 1  
    86    1   80 1  
    87    1   81 1  
    88    2   82 1  
    89    5   83 1  
    90    5   84 1  
    91    5   85 1  
    92    7   86 1  
    93   10   87 1  
    94   10   88 1  
    95   11   89 1  
    96   11   90 1  
    97   12   91 1  
    98   12   92 1  
    99   14   93 1  
   100   17   94 1  
   101   17   95 1  
   102   18   96 1  
   103   18   97 1  
   104   19   98 1  
   105   19   99 1  
   106   20  100 1  
   107   21  101 1  
   108   24  102 1  
   109   24  103 1  
   110   25  104 1  
   111   26  105 1  
   112   27  106 1  
   113   30  107 1  
   114   30  108 1  
   115   33  109 1  
   116   33  110 1  
   117   35  111 1  
   118   38  112 1  
   119   38  113 1  
   120   39  114 1  
   121   39  115 1  
   122   40  116 1  
   123   40  117 1  
   124   42  118 1  
   125   45  119 1  
   126   45  120 1  
   127   46  121 1  
   128   46  122 1  
   129   47  123 1  
   130   47  124 1  
   131   49  125 1  
   132   52  126 1  
   133   52  127 1  
   134   53  128 1  
   135   53  129 1  
   136   54  130 1  
   137   54  131 1  
   138   55  132 1  
   139   56  133 1  
   140   59  134 1  
   141   59  135 1  
   142   60  136 1  
   143   60  137 1  
   144   61  138 1  
   145   61  139 1  
   146   62  140 1  
   147   64  141 1  
   148   64  142 1  
   149   65  143 1  
   150   65  144 1  
   151   67  145 1  
   152   70  146 1  
   153   70  147 1  
   154   71  148 1  
   155   71  149 1  
   156   72  150 1  
   157   72  151 1  
   158   74  152 1  
   159   75  153 1  
   160   75  154 1  
   161   75  155 1  
   162   76  156 1  
   163   76  157 1  
   164   77  158 1  
   165   77  159 1  
   166   78  160 1  
   167   78  161 1  
@<TRIPOS>SUBSTRUCTURE
     1 GLN         1

