1ov3_ligand
  -I-interpret- 

160166  0  0  0  0  0  0  0  0999 V2000
   64.7780   52.1070   27.1960 N   0  3  0  0  0
   64.4390   51.2430   26.0200 C   0  0  0  0  0
   64.0550   49.8200   26.4480 C   0  0  0  0  0
   64.8860   49.0440   26.9250 O   0  0  0  0  0
   65.5940   51.2220   25.0070 C   0  0  0  0  0
   62.7800   49.4910   26.3030 N   0  0  0  0  0
   62.3000   48.1550   26.6610 C   0  0  0  0  0
   62.8330   47.1040   25.6900 C   0  0  0  0  0
   63.3690   47.4480   24.6270 O   0  0  0  0  0
   60.7760   48.2780   26.5380 C   0  0  0  0  0
   60.5370   49.4270   25.6510 C   0  0  0  0  0
   61.7150   50.3680   25.7850 C   0  0  0  0  0
   62.7060   45.8360   26.0670 N   0  0  0  0  0
   63.1260   44.7190   25.2160 C   0  0  0  0  0
   62.4810   44.7840   23.8490 C   0  0  0  0  0
   61.3650   45.2920   23.7200 O   0  0  0  0  0
   62.5780   43.4900   25.9540 C   0  0  0  0  0
   62.4760   43.9060   27.3700 C   0  0  0  0  0
   62.1560   45.3790   27.3550 C   0  0  0  0  0
   63.1580   44.2120   22.8570 N   0  0  0  0  0
   62.7050   44.2440   21.4760 C   0  0  0  0  0
   61.7340   43.1720   21.0390 C   0  0  0  0  0
   61.5940   42.8990   19.8420 O   0  0  0  0  0
   63.9150   44.2420   20.5510 C   0  0  0  0  0
   64.3650   45.5660   20.4170 O   0  0  0  0  0
   61.0730   42.5620   22.0090 N   0  0  0  0  0
   60.0580   41.5660   21.7650 C   0  0  0  0  0
   58.9050   41.8300   22.7180 C   0  0  0  0  0
   59.1000   42.4600   23.7580 O   0  0  0  0  0
   60.6390   40.1690   21.9830 C   0  0  0  0  0
   61.6470   39.7910   20.9130 C   0  0  0  0  0
   61.2720   39.4050   19.8020 O   0  0  0  0  0
   62.9250   39.9020   21.2370 N   0  0  0  0  0
   57.7090   41.3700   22.3770 N   0  0  0  0  0
   56.5580   41.5680   23.2610 C   0  0  0  0  0
   56.7360   40.8320   24.5860 C   0  0  0  0  0
   57.4220   39.8110   24.6570 O   0  0  0  0  0
   55.4000   40.9590   22.4700 C   0  0  0  0  0
   55.8840   40.9340   21.0300 C   0  0  0  0  0
   57.3470   40.6520   21.1430 C   0  0  0  0  0
   56.1360   41.3680   25.6390 N   0  0  0  0  0
   56.1130   40.6830   26.9230 C   0  0  0  0  0
   55.2940   39.4100   26.7300 C   0  0  0  0  0
   54.5090   39.3080   25.7810 O   0  0  0  0  0
   55.3450   41.6570   27.8270 C   0  0  0  0  0
   54.5360   42.4780   26.8730 C   0  0  0  0  0
   55.4460   42.6720   25.6860 C   0  0  0  0  0
   55.5010   38.4350   27.5960 N   0  0  0  0  0
   54.6850   37.2200   27.5800 C   0  0  0  0  0
   53.2490   37.6200   27.8390 C   0  0  0  0  0
   53.0190   38.7150   28.3740 O   0  0  0  0  0
   55.2070   36.4530   28.7900 C   0  0  0  0  0
   55.8220   37.5410   29.6620 C   0  0  0  0  0
   56.5130   38.4060   28.6600 C   0  0  0  0  0
   52.3040   36.7620   27.4720 N   0  0  0  0  0
   50.8990   36.9940   27.7780 C   0  0  0  0  0
   50.7810   36.9530   29.2960 C   0  0  0  0  0
   51.6280   36.3530   29.9690 O   0  0  0  0  0
   50.0230   35.9020   27.1630 C   0  0  0  0  0
   49.9190   35.9400   25.6460 C   0  0  0  0  0
   49.1110   37.0990   25.0820 C   0  0  0  0  0
   47.7290   37.1520   25.5570 N   0  0  0  0  0
   46.7540   36.3390   25.1630 C   0  0  0  0  0
   47.0000   35.3910   24.2740 N   0  0  0  0  0
   45.5250   36.4850   25.6440 N   0  0  0  0  0
   49.7480   37.5890   29.8450 N   0  0  0  0  0
   49.5150   37.5480   31.2860 C   0  0  0  0  0
   49.4530   36.0960   31.7350 C   0  0  0  0  0
   48.9420   35.2500   30.9990 O   0  0  0  0  0
   48.1360   38.1920   31.4340 C   0  0  0  0  0
   47.9890   39.0690   30.2390 C   0  0  0  0  0
   48.7360   38.3900   29.1390 C   0  0  0  0  0
   49.9450   35.8130   32.9310 N   0  0  0  0  0
   49.9290   34.4520   33.4680 C   0  0  0  0  0
   48.4990   33.9280   33.5770 C   0  0  0  0  0
   50.5190   34.6160   34.8720 C   0  0  0  0  0
   51.2570   35.9000   34.8360 C   0  0  0  0  0
   50.5390   36.7800   33.8630 C   0  0  0  0  0
   63.9982   52.1055   27.8535 H   0  0  0  0  0
   65.6123   51.7418   27.6554 H   0  0  0  0  0
   64.9535   53.0598   26.8770 H   0  0  0  0  0
   63.5661   51.6797   25.5348 H   0  0  0  0  0
   66.4640   50.7463   25.4597 H   0  0  0  0  0
   65.2903   50.6610   24.1232 H   0  0  0  0  0
   65.8443   52.2439   24.7220 H   0  0  0  0  0
   62.6267   47.8409   27.6523 H   0  0  0  0  0
   60.3102   48.4256   27.5123 H   0  0  0  0  0
   60.3360   47.3665   26.1335 H   0  0  0  0  0
   59.6136   49.9346   25.9299 H   0  0  0  0  0
   60.4350   49.0931   24.6184 H   0  0  0  0  0
   61.9825   50.8478   24.8436 H   0  0  0  0  0
   61.5081   51.2145   26.4398 H   0  0  0  0  0
   64.2043   44.7147   25.0568 H   0  0  0  0  0
   63.2287   42.6239   25.8338 H   0  0  0  0  0
   61.6132   43.1768   25.5550 H   0  0  0  0  0
   63.4062   43.7119   27.9041 H   0  0  0  0  0
   61.7021   43.3415   27.8901 H   0  0  0  0  0
   61.0879   45.5759   27.4472 H   0  0  0  0  0
   62.5858   45.9090   28.2050 H   0  0  0  0  0
   64.0309   43.7311   23.0743 H   0  0  0  0  0
   62.1235   45.1635   21.4090 H   0  0  0  0  0
   63.6417   43.8379   19.5763 H   0  0  0  0  0
   64.7051   43.6173   20.9677 H   0  0  0  0  0
   65.1291   45.5858   19.8362 H   0  0  0  0  0
   61.2911   42.8073   22.9747 H   0  0  0  0  0
   59.7025   41.6205   20.7361 H   0  0  0  0  0
   59.8191   39.4518   21.9437 H   0  0  0  0  0
   61.1493   40.1615   22.9461 H   0  0  0  0  0
   63.6463   39.6642   20.5561 H   0  0  0  0  0
   63.1890   40.2254   22.1677 H   0  0  0  0  0
   56.4084   42.6158   23.5216 H   0  0  0  0  0
   54.4840   41.5394   22.5801 H   0  0  0  0  0
   55.1432   39.9624   22.8291 H   0  0  0  0  0
   55.6836   41.8715   20.5112 H   0  0  0  0  0
   55.3644   40.1843   20.4333 H   0  0  0  0  0
   57.5774   39.5873   21.1823 H   0  0  0  0  0
   57.9160   40.9796   20.2729 H   0  0  0  0  0
   57.0921   40.4232   27.3254 H   0  0  0  0  0
   56.0118   42.2686   28.4348 H   0  0  0  0  0
   54.7221   41.1390   28.5562 H   0  0  0  0  0
   54.2230   43.4262   27.3101 H   0  0  0  0  0
   53.6019   41.9877   26.5988 H   0  0  0  0  0
   54.9198   42.9243   24.7654 H   0  0  0  0  0
   56.1203   43.5228   25.7835 H   0  0  0  0  0
   54.7320   36.6555   26.6488 H   0  0  0  0  0
   55.9256   35.6803   28.5169 H   0  0  0  0  0
   54.4217   35.8992   29.3044 H   0  0  0  0  0
   56.4955   37.1481   30.4237 H   0  0  0  0  0
   55.0840   38.0807   30.2555 H   0  0  0  0  0
   56.7951   39.3893   29.0364 H   0  0  0  0  0
   57.4864   38.0326   28.3419 H   0  0  0  0  0
   52.5690   35.9189   26.9627 H   0  0  0  0  0
   50.5658   37.9485   27.3705 H   0  0  0  0  0
   49.0155   36.0508   27.5514 H   0  0  0  0  0
   50.4806   34.9476   27.4233 H   0  0  0  0  0
   49.4082   35.0257   25.3440 H   0  0  0  0  0
   50.9342   36.0511   25.2650 H   0  0  0  0  0
   49.0750   36.9701   24.0002 H   0  0  0  0  0
   49.5982   38.0188   25.4056 H   0  0  0  0  0
   47.4950   37.8686   26.2441 H   0  0  0  0  0
   47.9388   35.2832   23.8900 H   0  0  0  0  0
   44.7769   35.8680   25.3277 H   0  0  0  0  0
   45.3290   37.2142   26.3298 H   0  0  0  0  0
   50.2870   38.0462   31.8724 H   0  0  0  0  0
   48.0519   38.7571   32.3623 H   0  0  0  0  0
   47.3447   37.4442   31.4857 H   0  0  0  0  0
   48.3849   40.0666   30.4292 H   0  0  0  0  0
   46.9401   39.2089   29.9775 H   0  0  0  0  0
   48.0868   37.7793   28.5116 H   0  0  0  0  0
   49.1808   39.0985   28.4402 H   0  0  0  0  0
   50.4761   33.7494   32.8394 H   0  0  0  0  0
   47.9260   34.5749   34.2413 H   0  0  0  0  0
   48.0395   33.9215   32.5886 H   0  0  0  0  0
   48.5143   32.9148   33.9786 H   0  0  0  0  0
   51.1727   33.7838   35.1330 H   0  0  0  0  0
   49.7421   34.6202   35.6365 H   0  0  0  0  0
   52.2917   35.7453   34.5301 H   0  0  0  0  0
   51.2886   36.3581   35.8246 H   0  0  0  0  0
   49.7982   37.4233   34.3378 H   0  0  0  0  0
   51.1974   37.4958   33.3708 H   0  0  0  0  0
  1  2  1  0  0  0
  2  3  1  0  0  0
  2  5  1  0  0  0
  3  4  2  0  0  0
  3  6  1  0  0  0
  6  7  1  0  0  0
  6 12  1  0  0  0
  7  8  1  0  0  0
  7 10  1  0  0  0
  8  9  2  0  0  0
  8 13  1  0  0  0
 10 11  1  0  0  0
 11 12  1  0  0  0
 13 14  1  0  0  0
 13 19  1  0  0  0
 14 15  1  0  0  0
 14 17  1  0  0  0
 15 16  2  0  0  0
 15 20  1  0  0  0
 17 18  1  0  0  0
 18 19  1  0  0  0
 20 21  1  0  0  0
 21 22  1  0  0  0
 21 24  1  0  0  0
 22 23  2  0  0  0
 22 26  1  0  0  0
 24 25  1  0  0  0
 26 27  1  0  0  0
 27 28  1  0  0  0
 27 30  1  0  0  0
 28 29  2  0  0  0
 28 34  1  0  0  0
 30 31  1  0  0  0
 31 32  2  0  0  0
 31 33  1  0  0  0
 34 35  1  0  0  0
 34 40  1  0  0  0
 35 36  1  0  0  0
 35 38  1  0  0  0
 36 37  2  0  0  0
 36 41  1  0  0  0
 38 39  1  0  0  0
 39 40  1  0  0  0
 41 42  1  0  0  0
 41 47  1  0  0  0
 42 43  1  0  0  0
 42 45  1  0  0  0
 43 44  2  0  0  0
 43 48  1  0  0  0
 45 46  1  0  0  0
 46 47  1  0  0  0
 48 49  1  0  0  0
 48 54  1  0  0  0
 49 50  1  0  0  0
 49 52  1  0  0  0
 50 51  2  0  0  0
 50 55  1  0  0  0
 52 53  1  0  0  0
 53 54  1  0  0  0
 55 56  1  0  0  0
 56 57  1  0  0  0
 56 59  1  0  0  0
 57 58  2  0  0  0
 57 66  1  0  0  0
 59 60  1  0  0  0
 60 61  1  0  0  0
 61 62  1  0  0  0
 62 63  1  0  0  0
 63 64  2  0  0  0
 63 65  1  0  0  0
 66 67  1  0  0  0
 66 72  1  0  0  0
 67 68  1  0  0  0
 67 70  1  0  0  0
 68 69  2  0  0  0
 68 73  1  0  0  0
 70 71  1  0  0  0
 71 72  1  0  0  0
 73 74  1  0  0  0
 73 78  1  0  0  0
 74 75  1  0  0  0
 74 76  1  0  0  0
 76 77  1  0  0  0
 77 78  1  0  0  0
  1 79  1  0  0  0
  1 80  1  0  0  0
  1 81  1  0  0  0
  2 82  1  0  0  0
  5 83  1  0  0  0
  5 84  1  0  0  0
  5 85  1  0  0  0
  7 86  1  0  0  0
 10 87  1  0  0  0
 10 88  1  0  0  0
 11 89  1  0  0  0
 11 90  1  0  0  0
 12 91  1  0  0  0
 12 92  1  0  0  0
 14 93  1  0  0  0
 17 94  1  0  0  0
 17 95  1  0  0  0
 18 96  1  0  0  0
 18 97  1  0  0  0
 19 98  1  0  0  0
 19 99  1  0  0  0
 20100  1  0  0  0
 21101  1  0  0  0
 24102  1  0  0  0
 24103  1  0  0  0
 25104  1  0  0  0
 26105  1  0  0  0
 27106  1  0  0  0
 30107  1  0  0  0
 30108  1  0  0  0
 33109  1  0  0  0
 33110  1  0  0  0
 35111  1  0  0  0
 38112  1  0  0  0
 38113  1  0  0  0
 39114  1  0  0  0
 39115  1  0  0  0
 40116  1  0  0  0
 40117  1  0  0  0
 42118  1  0  0  0
 45119  1  0  0  0
 45120  1  0  0  0
 46121  1  0  0  0
 46122  1  0  0  0
 47123  1  0  0  0
 47124  1  0  0  0
 49125  1  0  0  0
 52126  1  0  0  0
 52127  1  0  0  0
 53128  1  0  0  0
 53129  1  0  0  0
 54130  1  0  0  0
 54131  1  0  0  0
 55132  1  0  0  0
 56133  1  0  0  0
 59134  1  0  0  0
 59135  1  0  0  0
 60136  1  0  0  0
 60137  1  0  0  0
 61138  1  0  0  0
 61139  1  0  0  0
 62140  1  0  0  0
 64141  1  0  0  0
 65142  1  0  0  0
 65143  1  0  0  0
 67144  1  0  0  0
 70145  1  0  0  0
 70146  1  0  0  0
 71147  1  0  0  0
 71148  1  0  0  0
 72149  1  0  0  0
 72150  1  0  0  0
 74151  1  0  0  0
 75152  1  0  0  0
 75153  1  0  0  0
 75154  1  0  0  0
 76155  1  0  0  0
 76156  1  0  0  0
 77157  1  0  0  0
 77158  1  0  0  0
 78159  1  0  0  0
 78160  1  0  0  0
M  END
$$$$
