1pph_ligand
  -I-interpret- 

 58 60  0  0  0  0  0  0  0  0999 V2000
   -5.9300    4.1070   23.9760 S   0  0  0  0  0
   -4.8070    4.0070   25.3830 C   0  0  0  0  0
   -4.2000    2.8170   25.7530 C   0  0  0  0  0
   -3.2240    2.8500   26.7350 C   0  0  0  0  0
   -2.8870    4.0670   27.3290 C   0  0  0  0  0
   -1.7820    4.1410   28.3860 C   0  0  0  0  0
   -3.5280    5.2410   26.9810 C   0  0  0  0  0
   -4.4930    5.2050   26.0050 C   0  0  0  0  0
   -7.0380    5.0670   24.3810 O   0  0  0  0  0
   -6.4450    2.7280   23.5830 O   0  0  0  0  0
   -2.6780    4.5080   22.8020 C   0  0  0  0  0
   -2.5950    5.6420   23.3040 O   0  0  0  0  0
   -3.9800    4.1220   22.0690 C   0  0  0  0  0
   -5.1570    4.7810   22.6350 N   0  0  0  0  0
   -3.8870    4.4550   20.5690 C   0  0  0  0  0
   -3.0970    5.7160   20.1980 C   0  0  0  0  0
   -1.7560    5.6350   19.8730 C   0  0  0  0  0
   -1.0870    6.7790   19.5080 C   0  0  0  0  0
   -1.7150    8.0070   19.4520 C   0  0  0  0  0
   -3.0700    8.1220   19.7700 C   0  0  0  0  0
   -3.7400    9.3550   19.6970 C   0  0  0  0  0
   -5.0450    9.4360   20.0230 N   0  0  0  0  0
   -3.0570   10.4510   19.3200 N   0  0  0  0  0
   -3.7080    6.9530   20.1380 C   0  0  0  0  0
   -1.6380    3.6540   22.8470 N   0  0  0  0  0
   -0.3530    4.0580   23.3900 C   0  0  0  0  0
   -0.0730    3.1140   24.5260 C   0  0  0  0  0
    0.0540    1.7490   23.9040 C   0  0  0  0  0
   -1.2340    1.3360   23.2080 C   0  0  0  0  0
   -1.6090    2.3590   22.1590 C   0  0  0  0  0
   -4.4845    1.8763   25.2816 H   0  0  0  0  0
   -2.7227    1.9320   27.0417 H   0  0  0  0  0
   -2.0469    3.5065   29.2318 H   0  0  0  0  0
   -0.8428    3.7974   27.9526 H   0  0  0  0  0
   -1.6723    5.1716   28.7236 H   0  0  0  0  0
   -3.2718    6.1793   27.4729 H   0  0  0  0  0
   -5.0126    6.1195   25.7191 H   0  0  0  0  0
   -4.0968    3.0463   22.2010 H   0  0  0  0  0
   -5.5092    5.6442   22.2211 H   0  0  0  0  0
   -4.9095    4.6289   20.2337 H   0  0  0  0  0
   -3.3602    3.6207   20.1059 H   0  0  0  0  0
   -1.2363    4.6774   19.9057 H   0  0  0  0  0
   -0.0287    6.7145   19.2552 H   0  0  0  0  0
   -1.1503    8.8917   19.1580 H   0  0  0  0  0
   -5.5252   10.3351   19.9854 H   0  0  0  0  0
   -5.5526    8.5982   20.3074 H   0  0  0  0  0
   -2.0654   10.3805   19.0915 H   0  0  0  0  0
   -4.7648    7.0111   20.3985 H   0  0  0  0  0
   -0.3744    5.0931   23.7309 H   0  0  0  0  0
    0.4298    4.0105   22.6330 H   0  0  0  0  0
   -0.8713    3.1388   25.2678 H   0  0  0  0  0
    0.8363    3.3931   25.0582 H   0  0  0  0  0
    0.2689    1.0274   24.6922 H   0  0  0  0  0
    0.8539    1.7782   23.1642 H   0  0  0  0  0
   -2.0339    1.2702   23.9455 H   0  0  0  0  0
   -1.0868    0.3686   22.7278 H   0  0  0  0  0
   -0.8908    2.3643   21.3391 H   0  0  0  0  0
   -2.5759    2.1286   21.7116 H   0  0  0  0  0
  1  2  1  0  0  0
  1  9  2  0  0  0
  1 10  2  0  0  0
  2  3  4  0  0  0
  2  8  4  0  0  0
  3  4  4  0  0  0
  4  5  4  0  0  0
  5  6  1  0  0  0
  7  5  4  0  0  0
  8  7  4  0  0  0
 11 12  2  0  0  0
 13 11  1  0  0  0
 11 25  1  0  0  0
 14 13  1  0  0  0
 13 15  1  0  0  0
 14  1  1  0  0  0
 15 16  1  0  0  0
 16 17  4  0  0  0
 16 24  4  0  0  0
 17 18  4  0  0  0
 18 19  4  0  0  0
 19 20  4  0  0  0
 20 21  1  0  0  0
 24 20  4  0  0  0
 21 22  1  0  0  0
 21 23  2  0  0  0
 25 26  1  0  0  0
 25 30  1  0  0  0
 26 27  1  0  0  0
 27 28  1  0  0  0
 28 29  1  0  0  0
 29 30  1  0  0  0
  3 31  1  0  0  0
  4 32  1  0  0  0
  6 33  1  0  0  0
  6 34  1  0  0  0
  6 35  1  0  0  0
  7 36  1  0  0  0
  8 37  1  0  0  0
 13 38  1  0  0  0
 14 39  1  0  0  0
 15 40  1  0  0  0
 15 41  1  0  0  0
 17 42  1  0  0  0
 18 43  1  0  0  0
 19 44  1  0  0  0
 22 45  1  0  0  0
 22 46  1  0  0  0
 23 47  1  0  0  0
 24 48  1  0  0  0
 26 49  1  0  0  0
 26 50  1  0  0  0
 27 51  1  0  0  0
 27 52  1  0  0  0
 28 53  1  0  0  0
 28 54  1  0  0  0
 29 55  1  0  0  0
 29 56  1  0  0  0
 30 57  1  0  0  0
 30 58  1  0  0  0
M  END
$$$$
