5oqu_ligand
  -I-interpret- 

 32 33  0  0  0  0  0  0  0  0999 V2000
    4.4090  143.8390  350.8820 C   0  0  0  0  0
    5.1120  136.1340  352.8250 C   0  0  0  0  0
    4.9710  144.1370  349.6630 C   0  0  0  0  0
    5.5590  143.1410  348.9050 C   0  0  0  0  0
    5.5780  141.8400  349.3830 C   0  0  0  0  0
    4.1840  139.1160  350.6830 C   0  0  0  0  0
    3.0770  139.4420  349.3890 Cl  0  0  0  0  0
    4.2110  137.8400  351.2090 C   0  0  0  0  0
    5.0790  137.5260  352.2460 C   0  0  0  0  0
    6.0380  135.2140  352.1730 N   0  3  0  0  0
    5.9100  138.5210  352.7330 C   0  0  0  0  0
    5.8830  139.7990  352.2050 C   0  0  0  0  0
    5.0160  140.1240  351.1650 C   0  0  0  0  0
    5.0120  141.5150  350.6190 C   0  0  0  0  0
    6.1390  140.8000  348.6960 O   0  0  0  0  0
    6.6700  141.0770  347.4030 C   0  0  0  0  0
    4.4270  142.5410  351.3600 C   0  0  0  0  0
    3.9473  144.6290  351.4743 H   0  0  0  0  0
    4.1131  135.7171  352.6967 H   0  0  0  0  0
    5.4430  136.2320  353.8589 H   0  0  0  0  0
    4.9530  145.1620  349.2928 H   0  0  0  0  0
    6.0043  143.3773  347.9386 H   0  0  0  0  0
    3.5469  137.0744  350.8078 H   0  0  0  0  0
    5.9901  134.3039  352.6310 H   0  0  0  0  0
    5.7822  135.1154  351.1905 H   0  0  0  0  0
    6.9868  135.5818  352.2432 H   0  0  0  0  0
    6.5978  138.2928  353.5472 H   0  0  0  0  0
    6.5491  140.5618  352.6082 H   0  0  0  0  0
    5.8759  141.4543  346.7587 H   0  0  0  0  0
    7.4575  141.8259  347.4878 H   0  0  0  0  0
    7.0814  140.1620  346.9769 H   0  0  0  0  0
    3.9783  142.3176  352.3279 H   0  0  0  0  0
  3  1  4  0  0  0
  1 17  4  0  0  0
  9  2  1  0  0  0
  2 10  1  0  0  0
  4  3  4  0  0  0
  5  4  4  0  0  0
 14  5  4  0  0  0
  5 15  1  0  0  0
  6  7  1  0  0  0
  6  8  4  0  0  0
 13  6  4  0  0  0
  8  9  4  0  0  0
 11  9  4  0  0  0
 12 11  4  0  0  0
 13 12  4  0  0  0
 13 14  1  0  0  0
 14 17  4  0  0  0
 15 16  1  0  0  0
  1 18  1  0  0  0
  2 19  1  0  0  0
  2 20  1  0  0  0
  3 21  1  0  0  0
  4 22  1  0  0  0
  8 23  1  0  0  0
 10 24  1  0  0  0
 10 25  1  0  0  0
 10 26  1  0  0  0
 11 27  1  0  0  0
 12 28  1  0  0  0
 16 29  1  0  0  0
 16 30  1  0  0  0
 16 31  1  0  0  0
 17 32  1  0  0  0
M  END
$$$$
