### 
### Created by X-TOOL on Mon Sep 10 21:13:02 2018
### 

@<TRIPOS>MOLECULE
3lxo_ligand
   34    35     1     0     0
SMALL
GAST_HUCK


@<TRIPOS>ATOM
      1 P          -2.2910  -20.9770    4.6440 P.3       1 T3P         0.2012
      2 OP1        -1.9680  -20.1200    3.4580 O.co2     1 T3P        -0.5537
      3 OP2        -2.4110  -22.4070    4.1930 O.co2     1 T3P        -0.5537
      4 OP3        -1.1090  -20.8120    5.6300 O.co2     1 T3P        -0.5537
      5 O5'        -4.2150  -17.0680    5.0340 O.3       1 T3P        -0.3924
      6 C5'        -5.4740  -17.5750    4.7720 C.3       1 T3P         0.0733
      7 C4'        -5.6770  -19.0220    5.0600 C.3       1 T3P         0.1156
      8 O4'        -6.9520  -19.6760    5.3510 O.3       1 T3P        -0.3395
      9 C3'        -4.6890  -20.1240    4.7110 C.3       1 T3P         0.1224
     10 O3'        -3.5600  -20.4830    5.3900 O.3       1 T3P        -0.2701
     11 C2'        -5.5590  -21.0660    3.9540 C.3       1 T3P         0.0355
     12 C1'        -6.8230  -21.0250    4.7970 C.3       1 T3P         0.1760
     13 N1         -8.0350  -21.7100    4.4950 N.am      1 T3P        -0.1736
     14 C2         -8.1980  -23.0120    5.0020 C.2       1 T3P         0.3265
     15 O2         -7.3050  -23.5130    5.7020 O.2       1 T3P        -0.3843
     16 N3         -9.3510  -23.7040    4.6320 N.am      1 T3P        -0.1859
     17 C4        -10.2420  -23.1420    3.8240 C.2       1 T3P         0.1930
     18 O4        -11.3850  -23.8030    3.4430 O.2       1 T3P        -0.4079
     19 C5        -10.0520  -21.7930    3.3070 C.2       1 T3P         0.0225
     20 C5M       -11.0900  -21.1810    2.4050 C.3       1 T3P        -0.0437
     21 C6         -8.9350  -21.1240    3.6590 C.2       1 T3P         0.0524
     22 H1         -4.1955  -16.1434    4.8163 H         1 T3P         0.2095
     23 H2         -5.6847  -17.4133    3.7046 H         1 T3P         0.0584
     24 H3         -6.1961  -17.0084    5.3783 H         1 T3P         0.0584
     25 H4         -5.3647  -18.9080    6.1085 H         1 T3P         0.0649
     26 H5         -4.1577  -19.6374    3.8798 H         1 T3P         0.0677
     27 H6         -5.1276  -22.0773    3.9200 H         1 T3P         0.0347
     28 H7         -5.7441  -20.7117    2.9292 H         1 T3P         0.0347
     29 H8         -6.5047  -21.6112    5.6717 H         1 T3P         0.0959
     30 H9         -9.5076  -24.6293    4.9775 H         1 T3P         0.2259
     31 H10       -10.7748  -20.1668    2.1186 H         1 T3P         0.0296
     32 H11       -12.0524  -21.1298    2.9353 H         1 T3P         0.0296
     33 H12       -11.2013  -21.7990    1.5019 H         1 T3P         0.0296
     34 H13        -8.7543  -20.1206    3.2764 H         1 T3P         0.1011
@<TRIPOS>BOND
     1    1    2 ar 
     2    1    3 ar 
     3    1    4 ar 
     4   10    1 1  
     5    6    5 1  
     6    7    6 1  
     7    7    8 1  
     8    9    7 1  
     9    8   12 1  
    10    9   10 1  
    11    9   11 1  
    12   11   12 1  
    13   12   13 1  
    14   13   14 am 
    15   13   21 1  
    16   14   15 2  
    17   14   16 am 
    18   16   17 am 
    19   17   18 2  
    20   17   19 1  
    21   19   20 1  
    22   19   21 2  
    23    5   22 1  
    24    6   23 1  
    25    6   24 1  
    26    7   25 1  
    27    9   26 1  
    28   11   27 1  
    29   11   28 1  
    30   12   29 1  
    31   16   30 1  
    32   20   31 1  
    33   20   32 1  
    34   20   33 1  
    35   21   34 1  
@<TRIPOS>SUBSTRUCTURE
     1 T3P         1

