6q2y_ligand

Created by X-TOOL on Mon Aug  2 16:17:19 2021
 31 32  0  0  0  0  0  0  0  0999 V2000
   -9.2270    0.6720  -19.7860  C 0  0  0  3  0  4
   -7.6090    0.3950  -17.6940  C 0  0  0  2  0  3
   -7.2390    0.8040  -16.3590  C 0  0  0  2  0  3
   -8.0310    1.8360  -15.6360  C 0  0  0  1  0  3
   -8.7560    1.0050  -18.3740  C 0  0  0  1  0  3
   -9.5660    2.0060  -17.7040  C 0  0  0  2  0  3
   -9.1490    2.3810  -16.3530  C 0  0  0  1  0  3
   -9.9590    3.3530  -15.5180  C 0  0  0  2  0  3
   -9.1260    3.4280  -14.2520  C 0  0  0  2  0  4
   -9.3820    4.5230  -13.1150  B 0  0  0  1  0  4
   -8.6830    5.8780  -13.4040  O 0  0  0  3  0  3
   -8.8060    4.0610  -11.8220  O 0  0  0  3  0  3
  -10.7840    4.9180  -12.8750  O 0  0  0  3  0  3
   -7.8150    2.4020  -14.1190  S 0  0  0  1  0  2
   -9.1920   -0.7220  -20.1120  N 0  3  0  4  0  4
   -8.5820    1.2073  -20.4982  H 0  0  0  1  0  1
  -10.2636    1.0238  -19.8940  H 0  0  0  1  0  1
   -7.0322   -0.3715  -18.1989  H 0  0  0  1  0  1
   -6.3767    0.3552  -15.8794  H 0  0  0  1  0  1
  -10.4327    2.4514  -18.1789  H 0  0  0  1  0  1
  -10.8905    3.8618  -15.7618  H 0  0  0  1  0  1
   -9.3749    4.1282  -13.4559  H 0  0  0  1  0  1
   -8.8701    6.4864  -12.6987  H 0  0  0  1  0  1
   -8.8701    6.4863  -12.6988  H 0  0  0  1  0  1
   -9.3058    3.3197  -11.5009  H 0  0  0  1  0  1
   -9.3058    3.3197  -11.5009  H 0  0  0  1  0  1
  -11.2706    4.1710  -12.5469  H 0  0  0  1  0  1
  -11.2706    4.1709  -12.5469  H 0  0  0  1  0  1
   -9.5171   -0.8543  -21.0569  H 0  0  0  1  0  1
   -9.7877   -1.2305  -19.4775  H 0  0  0  1  0  1
   -8.2467   -1.0624  -20.0312  H 0  0  0  1  0  1
  5  1  1  0  0  2
  1 15  1  0  0  2
  2  3  4  0  0  1
  2  5  4  0  0  1
  3  4  4  0  0  1
  4  7  4  0  0  1
  4 14  1  0  0  1
  5  6  4  0  0  1
  6  7  4  0  0  1
  7  8  1  0  0  1
  8  9  2  0  0  1
  9 10  1  0  0  2
  9 14  1  0  0  1
 10 12  1  0  0  2
 10 13  1  0  0  2
 10 11  1  0  0  2
  1 16  1  0  0  2
  1 17  1  0  0  2
  2 18  1  0  0  2
  3 19  1  0  0  2
  6 20  1  0  0  2
  8 21  1  0  0  2
  9 22  1  0  0  2
 11 23  1  0  0  2
 11 24  1  0  0  2
 12 25  1  0  0  2
 12 26  1  0  0  2
 13 27  1  0  0  2
 13 28  1  0  0  2
 15 29  1  0  0  2
 15 30  1  0  0  2
 15 31  1  0  0  2
M  END
> <MOLECULAR_FORMULA>
C9H16NO3SB

> <MOLECULAR_WEIGHT>
229.0

> <NUM_HB_ATOMS>
4  

> <NUM_ROTOR>
2  

> <XLOGP2>
0.05 

$$$$
