#	Name:			6q2y_ligand
#	Creating user name:	wangrx
#	Creation time:		Thu Aug  5 18:00:05 2021

#	Modifying user name:	wangrx
#	Modification time:	Thu Aug  5 18:00:30 2021

@<TRIPOS>MOLECULE
6q2y_ligand
   30    31     1     0     0
SMALL
GAST_HUCK


@<TRIPOS>ATOM
      1 C14        -9.2270    0.6720  -19.7860 C.3       1 HCQ        -0.0172 
      2 C13        -7.6090    0.3950  -17.6940 C.ar      1 HCQ        -0.1286 
      3 C12        -7.2390    0.8040  -16.3590 C.ar      1 HCQ        -0.1184 
      4 C11        -8.0310    1.8360  -15.6360 C.ar      1 HCQ        -0.0422 
      5 C01        -8.7560    1.0050  -18.3740 C.ar      1 HCQ        -0.0701 
      6 C02        -9.5660    2.0060  -17.7040 C.ar      1 HCQ        -0.1313 
      7 C03        -9.1490    2.3810  -16.3530 C.ar      1 HCQ        -0.1230 
      8 C04        -9.9590    3.3530  -15.5180 C.2       1 HCQ        -0.1672 
      9 C05        -9.1260    3.4280  -14.2520 C.2       1 HCQ        -0.1117 
     10 B06        -9.3820    4.5230  -13.1150 B         1 HCQ         4.0000 
     11 O07        -8.6830    5.8780  -13.4040 O.3       1 HCQ        -0.4105 
     12 O08        -8.8060    4.0610  -11.8220 O.3       1 HCQ        -0.4105 
     13 O09       -10.7840    4.9180  -12.8750 O.3       1 HCQ        -0.4105 
     14 S10        -7.8150    2.4020  -14.1190 S.3       1 HCQ        -0.1399 
     15 N15        -9.1920   -0.7220  -20.1120 N.4       1 HCQ         0.2291 
     16 H1         -8.5820    1.2073  -20.4982 H         1 HCQ         0.0955 
     17 H2        -10.2636    1.0238  -19.8940 H         1 HCQ         0.0955 
     18 H3         -7.0322   -0.3715  -18.1989 H         1 HCQ         0.0053 
     19 H4         -6.3767    0.3552  -15.8794 H         1 HCQ         0.0210 
     20 H5        -10.4327    2.4514  -18.1789 H         1 HCQ         0.0027 
     21 H6        -10.8905    3.8618  -15.7618 H         1 HCQ        -0.0014 
     22 H8         -8.8701    6.4864  -12.6987 H         1 HCQ         0.2052 
     23 H9         -8.8701    6.4863  -12.6988 H         1 HCQ         0.2052 
     24 H10        -9.3058    3.3197  -11.5009 H         1 HCQ         0.2052 
     25 H11        -9.3058    3.3197  -11.5009 H         1 HCQ         0.2052 
     26 H12       -11.2706    4.1710  -12.5469 H         1 HCQ         0.2052 
     27 H13       -11.2706    4.1709  -12.5469 H         1 HCQ         0.2052 
     28 H14        -9.5171   -0.8543  -21.0569 H         1 HCQ         0.2006 
     29 H15        -9.7877   -1.2305  -19.4775 H         1 HCQ         0.2006 
     30 H16        -8.2467   -1.0624  -20.0312 H         1 HCQ         0.2006 
@<TRIPOS>BOND
     1    5    1 1    
     2    1   15 1    
     3    2    3 ar   
     4    2    5 ar   
     5    3    4 ar   
     6    4    7 ar   
     7    4   14 1    
     8    5    6 ar   
     9    6    7 ar   
    10    7    8 1    
    11    8    9 2    
    12    9   10 1    
    13    9   14 1    
    14   10   12 1    
    15   10   13 1    
    16   10   11 1    
    17    1   16 1    
    18    1   17 1    
    19    2   18 1    
    20    3   19 1    
    21    6   20 1    
    22    8   21 1    
    23   11   22 1    
    24   11   23 1    
    25   12   24 1    
    26   12   25 1    
    27   13   26 1    
    28   13   27 1    
    29   15   28 1    
    30   15   29 1    
    31   15   30 1    
@<TRIPOS>SUBSTRUCTURE
     1 HCQ         1 PERM              0 ****  ****    0 ROOT 
