1w96_ligand
  -I-interpret- 

 81 83  0  0  0  0  0  0  0  0999 V2000
   12.4590   27.2090  115.5470 C   0  0  0  0  0
   13.5850   27.6850  114.6350 C   0  0  0  0  0
   14.7140   26.6270  114.6790 C   0  0  0  0  0
   15.8690   27.0470  113.7130 C   0  0  0  0  0
   16.9020   25.8850  113.4930 C   0  0  0  0  0
   16.1840   24.5490  113.2420 C   0  0  0  0  0
   15.1240   24.3230  114.3330 C   0  0  0  0  0
   14.3960   22.9840  114.1090 C   0  0  0  0  0
   13.2960   22.8050  115.1880 C   0  0  0  0  0
   13.5110   21.9970  116.2990 C   0  0  0  0  0
   12.4390   21.9120  117.4080 C   0  0  0  0  0
   13.0680   22.2160  118.7790 C   0  0  0  0  0
   13.5800   23.6610  118.8340 C   0  0  0  0  0
   12.4860   24.7040  118.6590 C   0  0  0  0  0
   12.9670   26.0880  119.0190 C   0  0  0  0  0
   11.8250   27.0920  118.9590 C   0  0  0  0  0
   11.3310   27.4030  117.5440 C   0  0  0  0  0
   14.0950   29.0430  115.0940 C   0  0  0  0  0
   16.0770   28.5490  111.9000 C   0  0  0  0  0
   15.5460   24.5410  111.8500 C   0  0  0  0  0
   15.3650   21.8070  114.1170 C   0  0  0  0  0
   10.8780   20.4620  116.3770 C   0  0  0  0  0
   14.3920   21.1940  120.4480 C   0  0  0  0  0
   10.3240   28.5630  117.6260 C   0  0  0  0  0
   10.7930   29.8720  117.8420 C   0  0  0  0  0
    9.9010   30.8970  118.1430 C   0  0  0  0  0
    8.5380   30.6230  118.2310 C   0  0  0  0  0
    8.0690   29.3230  118.0180 C   0  0  0  0  0
    8.9630   28.2940  117.7180 C   0  0  0  0  0
   11.5750   26.3450  115.3440 O   0  0  0  0  0
   15.2160   26.5260  116.0160 O   0  0  0  0  0
   15.3150   27.4450  112.4540 O   0  0  0  0  0
   17.7640   25.7600  114.6300 O   0  0  0  0  0
   14.1570   25.3740  114.2690 O   0  0  0  0  0
   11.8630   20.6000  117.4350 O   0  0  0  0  0
   14.1420   21.3000  119.0250 O   0  0  0  0  0
   12.4480   27.7970  116.7310 O   0  0  0  0  0
   13.2254   27.7986  113.6123 H   0  0  0  0  0
   16.4025   27.8801  114.1706 H   0  0  0  0  0
   17.4982   26.1316  112.6145 H   0  0  0  0  0
   16.9087   23.7359  113.2832 H   0  0  0  0  0
   15.6200   24.3091  115.3035 H   0  0  0  0  0
   13.9312   23.0052  113.1233 H   0  0  0  0  0
   12.3419   23.3194  115.0737 H   0  0  0  0  0
   14.4344   21.4246  116.3872 H   0  0  0  0  0
   11.6623   22.6466  117.1953 H   0  0  0  0  0
   12.3069   22.0974  119.5502 H   0  0  0  0  0
   14.2862   23.7882  118.0135 H   0  0  0  0  0
   14.0213   23.8134  119.8189 H   0  0  0  0  0
   11.6587   24.4464  119.3203 H   0  0  0  0  0
   12.1821   24.7088  117.6122 H   0  0  0  0  0
   13.7357   26.3883  118.3070 H   0  0  0  0  0
   13.3637   26.0684  120.0340 H   0  0  0  0  0
   12.1972   28.0257  119.3805 H   0  0  0  0  0
   10.9866   26.6559  119.5021 H   0  0  0  0  0
   10.8568   26.5249  117.1057 H   0  0  0  0  0
   14.4629   28.9647  116.1171 H   0  0  0  0  0
   14.9043   29.3660  114.4392 H   0  0  0  0  0
   13.2819   29.7677  115.0534 H   0  0  0  0  0
   16.0442   29.3932  112.5887 H   0  0  0  0  0
   17.1113   28.2377  111.7538 H   0  0  0  0  0
   15.6458   28.8423  110.9429 H   0  0  0  0  0
   15.0649   23.5782  111.6778 H   0  0  0  0  0
   14.8031   25.3362  111.7876 H   0  0  0  0  0
   16.3175   24.7029  111.0972 H   0  0  0  0  0
   16.0986   21.9366  113.3213 H   0  0  0  0  0
   15.8747   21.7642  115.0795 H   0  0  0  0  0
   14.8120   20.8816  113.9558 H   0  0  0  0  0
   10.0894   21.2012  116.5179 H   0  0  0  0  0
   11.3587   20.6211  115.4118 H   0  0  0  0  0
   10.4491   19.4605  116.4100 H   0  0  0  0  0
   14.6603   22.1741  120.8425 H   0  0  0  0  0
   13.4929   20.8335  120.9477 H   0  0  0  0  0
   15.2103   20.4949  120.6208 H   0  0  0  0  0
   11.8599   30.0842  117.7732 H   0  0  0  0  0
   10.2674   31.9100  118.3092 H   0  0  0  0  0
    7.8361   31.4231  118.4662 H   0  0  0  0  0
    7.0017   29.1125  118.0865 H   0  0  0  0  0
    8.5947   27.2810  117.5561 H   0  0  0  0  0
   15.5872   27.3705  116.2819 H   0  0  0  0  0
   18.2111   26.5954  114.7846 H   0  0  0  0  0
  1  2  1  0  0  0
  1 30  2  0  0  0
  1 37  1  0  0  0
  2  3  1  0  0  0
  2 18  1  0  0  0
  3  4  1  0  0  0
  3 31  1  0  0  0
  3 34  1  0  0  0
  4  5  1  0  0  0
  4 32  1  0  0  0
  5  6  1  0  0  0
  5 33  1  0  0  0
  6  7  1  0  0  0
  6 20  1  0  0  0
  7  8  1  0  0  0
  7 34  1  0  0  0
  8  9  1  0  0  0
  8 21  1  0  0  0
  9 10  2  0  0  0
 10 11  1  0  0  0
 11 12  1  0  0  0
 11 35  1  0  0  0
 12 13  1  0  0  0
 12 36  1  0  0  0
 13 14  1  0  0  0
 14 15  1  0  0  0
 15 16  1  0  0  0
 16 17  1  0  0  0
 17 24  1  0  0  0
 17 37  1  0  0  0
 32 19  1  0  0  0
 35 22  1  0  0  0
 36 23  1  0  0  0
 24 25  4  0  0  0
 24 29  4  0  0  0
 25 26  4  0  0  0
 26 27  4  0  0  0
 27 28  4  0  0  0
 28 29  4  0  0  0
  2 38  1  0  0  0
  4 39  1  0  0  0
  5 40  1  0  0  0
  6 41  1  0  0  0
  7 42  1  0  0  0
  8 43  1  0  0  0
  9 44  1  0  0  0
 10 45  1  0  0  0
 11 46  1  0  0  0
 12 47  1  0  0  0
 13 48  1  0  0  0
 13 49  1  0  0  0
 14 50  1  0  0  0
 14 51  1  0  0  0
 15 52  1  0  0  0
 15 53  1  0  0  0
 16 54  1  0  0  0
 16 55  1  0  0  0
 17 56  1  0  0  0
 18 57  1  0  0  0
 18 58  1  0  0  0
 18 59  1  0  0  0
 19 60  1  0  0  0
 19 61  1  0  0  0
 19 62  1  0  0  0
 20 63  1  0  0  0
 20 64  1  0  0  0
 20 65  1  0  0  0
 21 66  1  0  0  0
 21 67  1  0  0  0
 21 68  1  0  0  0
 22 69  1  0  0  0
 22 70  1  0  0  0
 22 71  1  0  0  0
 23 72  1  0  0  0
 23 73  1  0  0  0
 23 74  1  0  0  0
 25 75  1  0  0  0
 26 76  1  0  0  0
 27 77  1  0  0  0
 28 78  1  0  0  0
 29 79  1  0  0  0
 31 80  1  0  0  0
 33 81  1  0  0  0
M  END
$$$$
