2y4m_ligand
  -I-interpret- 

 64 67  0  0  0  0  0  0  0  0999 V2000
   47.1320  -28.2210   67.2350 N   0  0  0  0  0
   47.9440  -28.7980   66.3150 C   0  0  0  0  0
   49.3050  -28.4040   66.1690 N   0  0  0  0  0
   47.3760  -29.7320   65.5500 N   0  0  0  0  0
   48.0780  -30.3730   64.6120 C   0  0  0  0  0
   49.4040  -30.0680   64.3970 C   0  0  0  0  0
   50.0110  -29.0810   65.1600 C   0  0  0  0  0
   51.2070  -28.8110   64.9240 O   0  0  0  0  0
   49.8520  -30.8730   63.3960 N   0  0  0  0  0
   48.8070  -31.6510   63.0170 C   0  0  0  0  0
   47.7360  -31.3320   63.7640 N   0  0  0  0  0
   46.4090  -31.9610   63.7400 C   0  0  0  0  0
   45.9020  -32.0810   62.3490 C   0  0  0  0  0
   45.2150  -30.8620   62.0840 O   0  0  0  0  0
   45.0360  -33.3310   62.4810 C   0  0  0  0  0
   43.7920  -33.0790   63.1490 O   0  0  0  0  0
   45.7860  -34.2190   63.4360 C   0  0  0  0  0
   46.5990  -33.3070   64.1690 O   0  0  0  0  0
   46.6180  -35.2780   62.7300 C   0  0  0  0  0
   47.2130  -34.6370   61.6210 O   0  0  0  0  0
   47.2360  -35.3140   60.1730 P   0  0  0  0  0
   45.8340  -35.7470   59.8570 O   0  0  0  0  0
   47.9770  -34.3650   59.2610 O   0  0  0  0  0
   48.1270  -36.6200   60.4510 O   0  0  0  0  0
   47.8510  -38.1640   60.0870 P   0  0  0  0  0
   48.7880  -38.4670   58.9630 O   0  0  0  0  0
   46.3890  -38.4970   59.9800 O   0  0  0  0  0
   48.4080  -38.9040   61.4110 O   0  0  0  0  0
   48.0530  -40.1280   62.0930 C   0  0  0  0  0
   49.1960  -40.6200   62.8390 O   0  0  0  0  0
   49.8820  -39.6340   63.6510 C   0  0  0  0  0
   51.1390  -40.2430   64.2370 C   0  0  0  0  0
   51.5610  -39.9910   65.4000 O   0  0  0  0  0
   47.0350  -39.8110   63.1910 C   0  0  0  0  0
   46.8040  -40.9630   64.0410 O   0  0  0  0  0
   47.5840  -38.6520   64.0340 C   0  0  0  0  0
   46.6320  -38.1880   65.0080 O   0  0  0  0  0
   48.8990  -39.0540   64.6970 C   0  0  0  0  0
   49.3970  -37.8940   65.3950 O   0  0  0  0  0
   46.1563  -28.5096   67.3065 H   0  0  0  0  0
   47.4969  -27.4984   67.8555 H   0  0  0  0  0
   49.7343  -27.6856   66.7521 H   0  0  0  0  0
   48.8319  -32.4101   62.2351 H   0  0  0  0  0
   45.7236  -31.3728   64.3502 H   0  0  0  0  0
   46.6022  -32.1975   61.5218 H   0  0  0  0  0
   44.8626  -30.8822   61.1913 H   0  0  0  0  0
   44.8409  -33.7282   61.4849 H   0  0  0  0  0
   43.2890  -33.8948   63.2047 H   0  0  0  0  0
   45.1145  -34.7980   64.0700 H   0  0  0  0  0
   45.9990  -36.1173   62.4132 H   0  0  0  0  0
   47.3743  -35.6925   63.3966 H   0  0  0  0  0
   48.8533  -34.1999   59.6166 H   0  0  0  0  0
   45.9422  -38.2346   60.7882 H   0  0  0  0  0
   47.6902  -40.8323   61.3444 H   0  0  0  0  0
   50.2148  -38.7878   63.0500 H   0  0  0  0  0
   51.9253  -39.8384   63.5998 H   0  0  0  0  0
   50.8929  -41.3034   64.2919 H   0  0  0  0  0
   52.3687  -40.4846   65.5601 H   0  0  0  0  0
   46.0847  -39.5399   62.7310 H   0  0  0  0  0
   46.1631  -40.7359   64.7187 H   0  0  0  0  0
   47.7735  -37.8168   63.3597 H   0  0  0  0  0
   47.0161  -37.4658   65.5105 H   0  0  0  0  0
   48.7615  -39.8563   65.4219 H   0  0  0  0  0
   48.7369  -37.5922   66.0233 H   0  0  0  0  0
  1  2  1  0  0  0
  2  3  1  0  0  0
  2  4  2  0  0  0
  3  7  1  0  0  0
  4  5  1  0  0  0
  5  6  4  0  0  0
  5 11  4  0  0  0
  6  7  1  0  0  0
  6  9  4  0  0  0
  7  8  2  0  0  0
  9 10  4  0  0  0
 10 11  4  0  0  0
 11 12  1  0  0  0
 12 13  1  0  0  0
 12 18  1  0  0  0
 13 14  1  0  0  0
 13 15  1  0  0  0
 15 16  1  0  0  0
 15 17  1  0  0  0
 17 18  1  0  0  0
 17 19  1  0  0  0
 19 20  1  0  0  0
 20 21  1  0  0  0
 21 22  2  0  0  0
 21 23  1  0  0  0
 21 24  1  0  0  0
 24 25  1  0  0  0
 25 26  2  0  0  0
 25 27  1  0  0  0
 25 28  1  0  0  0
 28 29  1  0  0  0
 29 30  1  0  0  0
 29 34  1  0  0  0
 30 31  1  0  0  0
 31 32  1  0  0  0
 31 38  1  0  0  0
 32 33  1  0  0  0
 34 35  1  0  0  0
 34 36  1  0  0  0
 36 37  1  0  0  0
 36 38  1  0  0  0
 38 39  1  0  0  0
  1 40  1  0  0  0
  1 41  1  0  0  0
  3 42  1  0  0  0
 10 43  1  0  0  0
 12 44  1  0  0  0
 13 45  1  0  0  0
 14 46  1  0  0  0
 15 47  1  0  0  0
 16 48  1  0  0  0
 17 49  1  0  0  0
 19 50  1  0  0  0
 19 51  1  0  0  0
 23 52  1  0  0  0
 27 53  1  0  0  0
 29 54  1  0  0  0
 31 55  1  0  0  0
 32 56  1  0  0  0
 32 57  1  0  0  0
 33 58  1  0  0  0
 34 59  1  0  0  0
 35 60  1  0  0  0
 36 61  1  0  0  0
 37 62  1  0  0  0
 38 63  1  0  0  0
 39 64  1  0  0  0
M  END
$$$$
