### 
### Created by X-TOOL on Mon Sep 10 21:13:06 2018
### 

@<TRIPOS>MOLECULE
2y4m_ligand
   63    66     1     0     0
SMALL
GAST_HUCK


@<TRIPOS>ATOM
      1 N2         47.1320  -28.2210   67.2350 N.pl3     1 GDX        -0.2562
      2 C2         47.9440  -28.7980   66.3150 C.2       1 GDX         0.2969
      3 N1         49.3050  -28.4040   66.1690 N.am      1 GDX        -0.1415
      4 N3         47.3760  -29.7320   65.5500 N.2       1 GDX        -0.2524
      5 C4         48.0780  -30.3730   64.6120 C.2       1 GDX         0.2175
      6 C5         49.4040  -30.0680   64.3970 C.2       1 GDX         0.2016
      7 C6         50.0110  -29.0810   65.1600 C.2       1 GDX         0.3098
      8 O6         51.2070  -28.8110   64.9240 O.2       1 GDX        -0.3307
      9 N7         49.8520  -30.8730   63.3960 N.2       1 GDX        -0.2309
     10 C8         48.8070  -31.6510   63.0170 C.2       1 GDX         0.1537
     11 N9         47.7360  -31.3320   63.7640 N.pl3     1 GDX        -0.1530
     12 C1D        46.4090  -31.9610   63.7400 C.3       1 GDX         0.2101
     13 C2D        45.9020  -32.0810   62.3490 C.3       1 GDX         0.1397
     14 O2D        45.2150  -30.8620   62.0840 O.3       1 GDX        -0.3835
     15 C3D        45.0360  -33.3310   62.4810 C.3       1 GDX         0.1150
     16 O3D        43.7920  -33.0790   63.1490 O.3       1 GDX        -0.3864
     17 C4D        45.7860  -34.2190   63.4360 C.3       1 GDX         0.1189
     18 O4D        46.5990  -33.3070   64.1690 O.3       1 GDX        -0.3355
     19 C5D        46.6180  -35.2780   62.7300 C.3       1 GDX         0.1128
     20 O5D        47.2130  -34.6370   61.6210 O.3       1 GDX        -0.2476
     21 PA         47.2360  -35.3140   60.1730 P.3       1 GDX         0.2972
     22 O1A        45.8340  -35.7470   59.8570 O.co2     1 GDX        -0.6127
     23 O2A        47.9770  -34.3650   59.2610 O.co2     1 GDX        -0.6127
     24 O3A        48.1270  -36.6200   60.4510 O.3       1 GDX        -0.1318
     25 PB         47.8510  -38.1640   60.0870 P.3       1 GDX         0.2997
     26 O2B        48.7880  -38.4670   58.9630 O.co2     1 GDX        -0.6127
     27 O3B        46.3890  -38.4970   59.9800 O.co2     1 GDX        -0.6127
     28 O1B        48.4080  -38.9040   61.4110 O.3       1 GDX        -0.2154
     29 C1'        48.0530  -40.1280   62.0930 C.3       1 GDX         0.2226
     30 O5'        49.1960  -40.6200   62.8390 O.3       1 GDX        -0.3364
     31 C5'        49.8820  -39.6340   63.6510 C.3       1 GDX         0.1133
     32 C6'        51.1390  -40.2430   64.2370 C.3       1 GDX         0.0730
     33 O6A        51.5610  -39.9910   65.4000 O.3       1 GDX        -0.3924
     34 C2'        47.0350  -39.8110   63.1910 C.3       1 GDX         0.1392
     35 O2'        46.8040  -40.9630   64.0410 O.3       1 GDX        -0.3837
     36 C3'        47.5840  -38.6520   64.0340 C.3       1 GDX         0.1144
     37 O3'        46.6320  -38.1880   65.0080 O.3       1 GDX        -0.3864
     38 C4'        48.8990  -39.0540   64.6970 C.3       1 GDX         0.1119
     39 O4'        49.3970  -37.8940   65.3950 O.3       1 GDX        -0.3865
     40 H          46.1563  -28.5096   67.3065 H         1 GDX         0.2039
     41 H          47.4969  -27.4984   67.8555 H         1 GDX         0.2039
     42 H          49.7343  -27.6856   66.7521 H         1 GDX         0.2760
     43 H          46.3908  -29.9599   65.6836 H         1 GDX         0.1423
     44 H          48.8319  -32.4101   62.2351 H         1 GDX         0.1619
     45 H          45.7236  -31.3728   64.3502 H         1 GDX         0.1009
     46 H          46.6022  -32.1975   61.5218 H         1 GDX         0.0677
     47 H          44.8626  -30.8822   61.1913 H         1 GDX         0.2101
     48 H          44.8409  -33.7282   61.4849 H         1 GDX         0.0648
     49 H          43.9662  -32.7481   64.0332 H         1 GDX         0.2100
     50 H          45.1145  -34.7980   64.0700 H         1 GDX         0.0651
     51 H          45.9990  -36.1173   62.4132 H         1 GDX         0.0648
     52 H          47.3743  -35.6925   63.3966 H         1 GDX         0.0648
     53 H          47.6902  -40.8323   61.3444 H         1 GDX         0.0999
     54 H          50.2148  -38.7878   63.0500 H         1 GDX         0.0647
     55 H          51.9547  -39.9624   63.5545 H         1 GDX         0.0584
     56 H          46.0847  -39.5399   62.7310 H         1 GDX         0.0675
     57 H          47.6298  -41.2247   64.4547 H         1 GDX         0.2101
     58 H          47.7735  -37.8168   63.3597 H         1 GDX         0.0648
     59 H          45.8404  -37.8818   64.5595 H         1 GDX         0.2100
     60 H          48.7615  -39.8563   65.4219 H         1 GDX         0.0647
     61 H          50.2268  -38.1126   65.8253 H         1 GDX         0.2100
     62 H          50.9895  -41.3322   64.2015 H         1 GDX         0.0584
     63 H          50.9026  -40.2440   66.0363 H         1 GDX         0.2095
@<TRIPOS>BOND
     1    1    2 1  
     2    2    3 am 
     3    2    4 2  
     4    3    7 am 
     5    4    5 1  
     6    5    6 2  
     7    5   11 1  
     8    6    7 1  
     9    6    9 1  
    10    7    8 2  
    11    9   10 2  
    12   10   11 1  
    13   11   12 1  
    14   12   13 1  
    15   12   18 1  
    16   13   14 1  
    17   13   15 1  
    18   15   16 1  
    19   15   17 1  
    20   17   18 1  
    21   17   19 1  
    22   19   20 1  
    23   20   21 1  
    24   21   22 ar 
    25   21   23 ar 
    26   21   24 1  
    27   24   25 1  
    28   25   26 ar 
    29   25   27 ar 
    30   25   28 1  
    31   28   29 1  
    32   29   30 1  
    33   29   34 1  
    34   30   31 1  
    35   31   32 1  
    36   31   38 1  
    37   32   33 1  
    38   34   35 1  
    39   34   36 1  
    40   36   37 1  
    41   36   38 1  
    42   38   39 1  
    43    1   40 1  
    44    1   41 1  
    45    3   42 1  
    46    4   43 1  
    47   10   44 1  
    48   12   45 1  
    49   13   46 1  
    50   14   47 1  
    51   15   48 1  
    52   16   49 1  
    53   17   50 1  
    54   19   51 1  
    55   19   52 1  
    56   29   53 1  
    57   31   54 1  
    58   32   55 1  
    59   34   56 1  
    60   35   57 1  
    61   36   58 1  
    62   37   59 1  
    63   38   60 1  
    64   39   61 1  
    65   32   62 1  
    66   33   63 1  
@<TRIPOS>SUBSTRUCTURE
     1 GDX         1

