5mwo_ligand
  -I-interpret- 

 22 23  0  0  0  0  0  0  0  0999 V2000
    4.4490   26.0820    4.0630 C   0  0  0  0  0
    9.5030   27.8440    4.9690 C   0  0  0  0  0
    8.2740   27.3590    4.5090 C   0  0  0  0  0
    8.0930   26.9950    3.1840 C   0  0  0  0  0
    9.1590   27.1120    2.3080 C   0  0  0  0  0
   10.3630   27.5980    2.7560 C   0  0  0  0  0
   10.5700   27.9770    4.0890 C   0  0  0  0  0
   11.4540   27.6870    1.7250 C   0  0  0  0  0
    6.7200   26.4870    2.8120 C   0  0  0  0  0
    5.9070   26.5150    3.9820 C   0  0  0  0  0
    3.6390   27.2150    4.2510 O   0  0  0  0  0
    6.8200   27.0810    5.2530 S   0  0  0  0  0
    4.3176   25.3960    4.8998 H   0  0  0  0  0
    4.1652   25.5794    3.1384 H   0  0  0  0  0
    9.6234   28.1174    6.0173 H   0  0  0  0  0
    9.0428   26.8189    1.2646 H   0  0  0  0  0
   11.5332   28.3622    4.4235 H   0  0  0  0  0
   11.6548   26.6937    1.3236 H   0  0  0  0  0
   11.1373   28.3488    0.9189 H   0  0  0  0  0
   12.3580   28.0828    2.1878 H   0  0  0  0  0
    6.4060   26.1568    1.8218 H   0  0  0  0  0
    2.7193   26.9445    4.3024 H   0  0  0  0  0
 10  1  1  0  0  0
  1 11  1  0  0  0
  3  2  4  0  0  0
  2  7  4  0  0  0
  4  3  4  0  0  0
  3 12  4  0  0  0
  4  5  4  0  0  0
  9  4  4  0  0  0
  5  6  4  0  0  0
  6  7  4  0  0  0
  6  8  1  0  0  0
  9 10  4  0  0  0
 10 12  4  0  0  0
  1 13  1  0  0  0
  1 14  1  0  0  0
  2 15  1  0  0  0
  5 16  1  0  0  0
  7 17  1  0  0  0
  8 18  1  0  0  0
  8 19  1  0  0  0
  8 20  1  0  0  0
  9 21  1  0  0  0
 11 22  1  0  0  0
M  END
$$$$
