3bze_ligand
  -I-interpret- 

156157  0  0  0  0  0  0  0  0999 V2000
    2.1340   -4.7040    4.4610 N   0  3  0  0  0
    3.5260   -4.9540    4.0080 C   0  0  0  0  0
    4.3560   -3.7000    4.1970 C   0  0  0  0  0
    3.8210   -2.6190    4.3750 O   0  0  0  0  0
    3.5550   -5.4080    2.5220 C   0  0  0  0  0
    2.6270   -6.6030    2.3500 C   0  0  0  0  0
    3.1380   -4.2720    1.5920 C   0  0  0  0  0
    5.6650   -3.8490    4.1800 N   0  0  0  0  0
    6.5520   -2.7060    4.3520 C   0  0  0  0  0
    6.8470   -2.0820    2.9950 C   0  0  0  0  0
    6.6130   -2.7000    1.9490 O   0  0  0  0  0
    7.8630   -3.1590    4.9930 C   0  0  0  0  0
    8.6250   -4.1430    4.1580 C   0  0  0  0  0
   10.2590   -4.3900    4.8020 S   0  0  0  0  0
   11.1160   -2.9390    4.2030 C   0  0  0  0  0
    7.3630   -0.8590    3.0220 N   0  0  0  0  0
    7.7010   -0.1460    1.8120 C   0  0  0  0  0
    8.6670   -1.0010    1.0220 C   0  0  0  0  0
    9.6720   -1.4260    1.5450 O   0  0  0  0  0
    8.3390    1.1990    2.1670 C   0  0  0  0  0
    8.3670   -1.2700   -0.2570 N   0  0  0  0  0
    9.2200   -2.0930   -1.1300 C   0  0  0  0  0
   10.4030   -1.3360   -1.7290 C   0  0  0  0  0
   11.2260   -1.9060   -2.4360 O   0  0  0  0  0
    8.2460   -2.5570   -2.2060 C   0  0  0  0  0
    7.3930   -1.3270   -2.3940 C   0  0  0  0  0
    7.1070   -0.9200   -0.9420 C   0  0  0  0  0
   10.4720   -0.0480   -1.4500 N   0  0  0  0  0
   11.5410    0.7840   -1.9660 C   0  0  0  0  0
   11.9890    1.7410   -0.8550 C   0  0  0  0  0
   11.1800    2.1830   -0.0350 O   0  0  0  0  0
   11.0330    1.5460   -3.1950 C   0  0  0  0  0
   11.9090    2.6690   -3.6970 C   0  0  0  0  0
   11.3180    3.3110   -4.9560 C   0  0  0  0  0
   11.7280    2.6090   -6.1640 N   0  0  0  0  0
   12.7640    2.9550   -6.9270 C   0  0  0  0  0
   13.5020    4.0070   -6.6310 N   0  0  0  0  0
   13.0810    2.2260   -7.9770 N   0  0  0  0  0
   13.2840    2.0320   -0.8180 N   0  0  0  0  0
   13.8390    2.9360    0.1830 C   0  0  0  0  0
   14.7100    3.9510   -0.5520 C   0  0  0  0  0
   14.7150    3.9840   -1.7700 O   0  0  0  0  0
   14.6890    2.1480    1.2630 C   0  0  0  0  0
   14.8500    2.9570    2.4330 O   0  0  0  0  0
   16.0670    1.7710    0.7270 C   0  0  0  0  0
   15.4450    4.7690    0.1940 N   0  0  0  0  0
   16.3030    5.7800   -0.3980 C   0  0  0  0  0
   17.7860    5.4950   -0.2730 C   0  0  0  0  0
   18.2410    4.9310    0.7170 O   0  0  0  0  0
   16.0590    7.1470    0.2620 C   0  0  0  0  0
   14.6930    7.8400    0.2010 C   0  0  0  0  0
   14.8040    9.2390    0.8340 C   0  0  0  0  0
   14.2360    7.9660   -1.2580 C   0  0  0  0  0
   18.5310    5.8840   -1.2940 N   0  0  0  0  0
   19.9660    5.8060   -1.2540 C   0  0  0  0  0
   20.2450    7.2240   -0.7460 C   0  0  0  0  0
   20.0100    8.1910   -1.4690 O   0  0  0  0  0
   20.5820    5.6680   -2.6440 C   0  0  0  0  0
   20.7840    4.2470   -3.0930 C   0  0  0  0  0
   19.7550    3.5460   -3.7190 C   0  0  0  0  0
   22.0060    3.6190   -2.9260 C   0  0  0  0  0
   19.9420    2.2550   -4.1730 C   0  0  0  0  0
   22.2030    2.3100   -3.3830 C   0  0  0  0  0
   21.1700    1.6310   -4.0060 C   0  0  0  0  0
   20.7040    7.3550    0.4950 N   0  0  0  0  0
   20.9990    8.6680    1.0550 C   0  0  0  0  0
   22.2630    9.2720    0.4320 C   0  0  0  0  0
   22.5460   10.4610    0.6900 O   0  0  0  0  0
   21.1340    8.5660    2.5740 C   0  0  0  0  0
   19.8190    8.1510    3.2230 C   0  0  0  0  0
   20.0120    7.7760    4.6760 C   0  0  0  0  0
   18.8340    9.2840    3.1010 C   0  0  0  0  0
   22.9500    8.5550   -0.3250 O   0  0  0  0  0
    2.1433   -4.4081    5.4371 H   0  0  0  0  0
    1.7171   -3.9716    3.8864 H   0  0  0  0  0
    1.5888   -5.5612    4.3696 H   0  0  0  0  0
    3.9500   -5.7580    4.6096 H   0  0  0  0  0
    4.5735   -5.6924    2.2577 H   0  0  0  0  0
    1.6057   -6.3055    2.5879 H   0  0  0  0  0
    2.6741   -6.9525    1.3186 H   0  0  0  0  0
    2.9393   -7.4034    3.0208 H   0  0  0  0  0
    3.1867   -4.6140    0.5582 H   0  0  0  0  0
    2.1184   -3.9671    1.8275 H   0  0  0  0  0
    3.8122   -3.4264    1.7284 H   0  0  0  0  0
    6.0633   -4.7782    4.0444 H   0  0  0  0  0
    6.0679   -1.9725    4.9967 H   0  0  0  0  0
    7.6161   -3.6490    5.9348 H   0  0  0  0  0
    8.4909   -2.2765    5.1157 H   0  0  0  0  0
    8.7039   -3.7538    3.1429 H   0  0  0  0  0
    8.0961   -5.0960    4.1700 H   0  0  0  0  0
   11.0832   -2.9231    3.1136 H   0  0  0  0  0
   10.6319   -2.0448    4.5955 H   0  0  0  0  0
   12.1534   -2.9680    4.5361 H   0  0  0  0  0
    7.5255   -0.4098    3.9233 H   0  0  0  0  0
    6.8086    0.0495    1.2174 H   0  0  0  0  0
    7.6344    1.7910    2.7511 H   0  0  0  0  0
    9.2434    1.0279    2.7509 H   0  0  0  0  0
    8.5920    1.7327    1.2509 H   0  0  0  0  0
    9.7001   -2.9046   -0.5833 H   0  0  0  0  0
    7.6766   -3.4429   -1.9250 H   0  0  0  0  0
    8.7350   -2.8917   -3.1209 H   0  0  0  0  0
    6.4917   -1.5092   -2.9792 H   0  0  0  0  0
    7.8811   -0.5451   -2.9758 H   0  0  0  0  0
    6.8428    0.1324   -0.8380 H   0  0  0  0  0
    6.2377   -1.4249   -0.5206 H   0  0  0  0  0
    9.7561    0.3721   -0.8572 H   0  0  0  0  0
   12.3960    0.1815   -2.2728 H   0  0  0  0  0
   10.0907    2.0064   -2.8980 H   0  0  0  0  0
   10.9818    0.8170   -4.0037 H   0  0  0  0  0
   12.8904    2.2625   -3.9413 H   0  0  0  0  0
   11.9804    3.4293   -2.9192 H   0  0  0  0  0
   11.6774    4.3382   -5.0179 H   0  0  0  0  0
   10.2312    3.2661   -4.8857 H   0  0  0  0  0
   11.1832    1.7942   -6.4462 H   0  0  0  0  0
   14.3055    4.2461   -7.2121 H   0  0  0  0  0
   13.2694    4.5816   -5.8210 H   0  0  0  0  0
   12.5334    1.3965   -8.2061 H   0  0  0  0  0
   13.9071    1.6122   -1.5079 H   0  0  0  0  0
   13.0343    3.4367    0.7214 H   0  0  0  0  0
   14.1507    1.2317    1.5054 H   0  0  0  0  0
   15.3654    2.4761    3.0847 H   0  0  0  0  0
   15.9525    1.1363   -0.1517 H   0  0  0  0  0
   16.6096    2.6762    0.4547 H   0  0  0  0  0
   16.6198    1.2321    1.4965 H   0  0  0  0  0
   15.4054    4.6845    1.2097 H   0  0  0  0  0
   16.0394    5.7744   -1.4556 H   0  0  0  0  0
   16.7151    7.8206   -0.2892 H   0  0  0  0  0
   16.2012    6.9498    1.3245 H   0  0  0  0  0
   13.9616    7.2477    0.7508 H   0  0  0  0  0
   15.1189    9.1423    1.8730 H   0  0  0  0  0
   15.5378    9.8281    0.2839 H   0  0  0  0  0
   13.8336    9.7336    0.7916 H   0  0  0  0  0
   14.9639    8.5552   -1.8158 H   0  0  0  0  0
   14.1558    6.9726   -1.6994 H   0  0  0  0  0
   13.2647    8.4595   -1.2918 H   0  0  0  0  0
   18.0761    6.2486   -2.1310 H   0  0  0  0  0
   20.3560    4.9651   -0.6805 H   0  0  0  0  0
   21.5659    6.1355   -2.6067 H   0  0  0  0  0
   19.8915    6.1319   -3.3484 H   0  0  0  0  0
   18.7851    4.0251   -3.8528 H   0  0  0  0  0
   22.8224    4.1480   -2.4344 H   0  0  0  0  0
   19.1244    1.7261   -4.6628 H   0  0  0  0  0
   23.1701    1.8256   -3.2481 H   0  0  0  0  0
   21.3204    0.6122   -4.3632 H   0  0  0  0  0
   20.8522    6.5222    1.0650 H   0  0  0  0  0
   20.1712    9.3364    0.8181 H   0  0  0  0  0
   21.8890   10.8223    1.2895 H   0  0  0  0  0
   21.4181    9.5440    2.9625 H   0  0  0  0  0
   21.8867    7.8121    2.8046 H   0  0  0  0  0
   19.4371    7.2694    2.7082 H   0  0  0  0  0
   20.7100    6.9416    4.7449 H   0  0  0  0  0
   20.4115    8.6315    5.2207 H   0  0  0  0  0
   19.0531    7.4857    5.1054 H   0  0  0  0  0
   19.2315   10.1652    3.6046 H   0  0  0  0  0
   18.6699    9.5092    2.0472 H   0  0  0  0  0
   17.8902    8.9946    3.5632 H   0  0  0  0  0
  1  2  1  0  0  0
  2  3  1  0  0  0
  2  5  1  0  0  0
  3  4  2  0  0  0
  3  8  1  0  0  0
  5  6  1  0  0  0
  5  7  1  0  0  0
  8  9  1  0  0  0
  9 10  1  0  0  0
  9 12  1  0  0  0
 10 11  2  0  0  0
 10 16  1  0  0  0
 12 13  1  0  0  0
 13 14  1  0  0  0
 14 15  1  0  0  0
 16 17  1  0  0  0
 17 18  1  0  0  0
 17 20  1  0  0  0
 18 19  2  0  0  0
 18 21  1  0  0  0
 21 22  1  0  0  0
 21 27  1  0  0  0
 22 23  1  0  0  0
 22 25  1  0  0  0
 23 24  2  0  0  0
 23 28  1  0  0  0
 25 26  1  0  0  0
 26 27  1  0  0  0
 28 29  1  0  0  0
 29 30  1  0  0  0
 29 32  1  0  0  0
 30 31  2  0  0  0
 30 39  1  0  0  0
 32 33  1  0  0  0
 33 34  1  0  0  0
 34 35  1  0  0  0
 35 36  1  0  0  0
 36 37  1  0  0  0
 36 38  2  0  0  0
 39 40  1  0  0  0
 40 41  1  0  0  0
 40 43  1  0  0  0
 41 42  2  0  0  0
 41 46  1  0  0  0
 43 44  1  0  0  0
 43 45  1  0  0  0
 46 47  1  0  0  0
 47 48  1  0  0  0
 47 50  1  0  0  0
 48 49  2  0  0  0
 48 54  1  0  0  0
 50 51  1  0  0  0
 51 52  1  0  0  0
 51 53  1  0  0  0
 54 55  1  0  0  0
 55 56  1  0  0  0
 55 58  1  0  0  0
 56 57  2  0  0  0
 56 65  1  0  0  0
 58 59  1  0  0  0
 59 60  4  0  0  0
 59 61  4  0  0  0
 60 62  4  0  0  0
 61 63  4  0  0  0
 62 64  4  0  0  0
 63 64  4  0  0  0
 65 66  1  0  0  0
 66 67  1  0  0  0
 66 69  1  0  0  0
 67 68  1  0  0  0
 67 73  2  0  0  0
 69 70  1  0  0  0
 70 71  1  0  0  0
 70 72  1  0  0  0
  1 74  1  0  0  0
  1 75  1  0  0  0
  1 76  1  0  0  0
  2 77  1  0  0  0
  5 78  1  0  0  0
  6 79  1  0  0  0
  6 80  1  0  0  0
  6 81  1  0  0  0
  7 82  1  0  0  0
  7 83  1  0  0  0
  7 84  1  0  0  0
  8 85  1  0  0  0
  9 86  1  0  0  0
 12 87  1  0  0  0
 12 88  1  0  0  0
 13 89  1  0  0  0
 13 90  1  0  0  0
 15 91  1  0  0  0
 15 92  1  0  0  0
 15 93  1  0  0  0
 16 94  1  0  0  0
 17 95  1  0  0  0
 20 96  1  0  0  0
 20 97  1  0  0  0
 20 98  1  0  0  0
 22 99  1  0  0  0
 25100  1  0  0  0
 25101  1  0  0  0
 26102  1  0  0  0
 26103  1  0  0  0
 27104  1  0  0  0
 27105  1  0  0  0
 28106  1  0  0  0
 29107  1  0  0  0
 32108  1  0  0  0
 32109  1  0  0  0
 33110  1  0  0  0
 33111  1  0  0  0
 34112  1  0  0  0
 34113  1  0  0  0
 35114  1  0  0  0
 37115  1  0  0  0
 37116  1  0  0  0
 38117  1  0  0  0
 39118  1  0  0  0
 40119  1  0  0  0
 43120  1  0  0  0
 44121  1  0  0  0
 45122  1  0  0  0
 45123  1  0  0  0
 45124  1  0  0  0
 46125  1  0  0  0
 47126  1  0  0  0
 50127  1  0  0  0
 50128  1  0  0  0
 51129  1  0  0  0
 52130  1  0  0  0
 52131  1  0  0  0
 52132  1  0  0  0
 53133  1  0  0  0
 53134  1  0  0  0
 53135  1  0  0  0
 54136  1  0  0  0
 55137  1  0  0  0
 58138  1  0  0  0
 58139  1  0  0  0
 60140  1  0  0  0
 61141  1  0  0  0
 62142  1  0  0  0
 63143  1  0  0  0
 64144  1  0  0  0
 65145  1  0  0  0
 66146  1  0  0  0
 68147  1  0  0  0
 69148  1  0  0  0
 69149  1  0  0  0
 70150  1  0  0  0
 71151  1  0  0  0
 71152  1  0  0  0
 71153  1  0  0  0
 72154  1  0  0  0
 72155  1  0  0  0
 72156  1  0  0  0
M  END
$$$$
