### 
### Created by X-TOOL on Mon Sep 10 21:12:59 2018
### 

@<TRIPOS>MOLECULE
3bze_ligand
  156   157     1     0     0
SMALL
GAST_HUCK


@<TRIPOS>ATOM
      1 N           2.1340   -4.7040    4.4610 N.4       1 VAL         0.2381
      2 CA          3.5260   -4.9540    4.0080 C.3       1 VAL         0.0673
      3 C           4.3560   -3.7000    4.1970 C.2       1 VAL         0.2270
      4 O           3.8210   -2.6190    4.3750 O.2       1 VAL        -0.3907
      5 CB          3.5550   -5.4080    2.5220 C.3       1 VAL         0.0139
      6 CG1         2.6270   -6.6030    2.3500 C.3       1 VAL        -0.0553
      7 CG2         3.1380   -4.2720    1.5920 C.3       1 VAL        -0.0553
      8 N           5.6650   -3.8490    4.1800 N.am      1 MET        -0.2610
      9 CA          6.5520   -2.7060    4.3520 C.3       1 MET         0.1318
     10 C           6.8470   -2.0820    2.9950 C.2       1 MET         0.2039
     11 O           6.6130   -2.7000    1.9490 O.2       1 MET        -0.3944
     12 CB          7.8630   -3.1590    4.9930 C.3       1 MET        -0.0034
     13 CG          8.6250   -4.1430    4.1580 C.3       1 MET        -0.0024
     14 SD         10.2590   -4.3900    4.8020 S.3       1 MET        -0.1639
     15 CE         11.1160   -2.9390    4.2030 C.3       1 MET        -0.0181
     16 N           7.3630   -0.8590    3.0220 N.am      1 ALA        -0.2640
     17 CA          7.7010   -0.1460    1.8120 C.3       1 ALA         0.1284
     18 C           8.6670   -1.0010    1.0220 C.2       1 ALA         0.2061
     19 O           9.6720   -1.4260    1.5450 O.2       1 ALA        -0.3942
     20 CB          8.3390    1.1990    2.1670 C.3       1 ALA        -0.0244
     21 N           8.3670   -1.2700   -0.2570 N.am      1 PRO        -0.2498
     22 CA          9.2200   -2.0930   -1.1300 C.3       1 PRO         0.1338
     23 C          10.4030   -1.3360   -1.7290 C.2       1 PRO         0.2041
     24 O          11.2260   -1.9060   -2.4360 O.2       1 PRO        -0.3944
     25 CB          8.2460   -2.5570   -2.2060 C.3       1 PRO        -0.0104
     26 CG          7.3930   -1.3270   -2.3940 C.3       1 PRO        -0.0281
     27 CD          7.1070   -0.9200   -0.9420 C.3       1 PRO         0.0369
     28 N          10.4720   -0.0480   -1.4500 N.am      1 ARG        -0.2637
     29 CA         11.5410    0.7840   -1.9660 C.3       1 ARG         0.1311
     30 C          11.9890    1.7410   -0.8550 C.2       1 ARG         0.2040
     31 O          11.1800    2.1830   -0.0350 O.2       1 ARG        -0.3944
     32 CB         11.0330    1.5460   -3.1950 C.3       1 ARG        -0.0092
     33 CG         11.9090    2.6690   -3.6970 C.3       1 ARG        -0.0156
     34 CD         11.3180    3.3110   -4.9560 C.3       1 ARG         0.0627
     35 NE         11.7280    2.6090   -6.1640 N.pl3     1 ARG        -0.2723
     36 CZ         12.7640    2.9550   -6.9270 C.cat     1 ARG         0.2882
     37 NH1        13.5020    4.0070   -6.6310 N.pl3     1 ARG        -0.2849
     38 NH2        13.0810    2.2260   -7.9770 N.pl3     1 ARG        -0.2849
     39 N          13.2840    2.0320   -0.8180 N.am      1 THR        -0.2613
     40 CA         13.8390    2.9360    0.1830 C.3       1 THR         0.1565
     41 C          14.7100    3.9510   -0.5520 C.2       1 THR         0.2065
     42 O          14.7150    3.9840   -1.7700 O.2       1 THR        -0.3943
     43 CB         14.6890    2.1480    1.2630 C.3       1 THR         0.0924
     44 OG1        14.8500    2.9570    2.4330 O.3       1 THR        -0.3874
     45 CG2        16.0670    1.7710    0.7270 C.3       1 THR        -0.0346
     46 N          15.4450    4.7690    0.1940 N.am      1 LEU        -0.2636
     47 CA         16.3030    5.7800   -0.3980 C.3       1 LEU         0.1312
     48 C          17.7860    5.4950   -0.2730 C.2       1 LEU         0.2040
     49 O          18.2410    4.9310    0.7170 O.2       1 LEU        -0.3944
     50 CB         16.0590    7.1470    0.2620 C.3       1 LEU        -0.0101
     51 CG         14.6930    7.8400    0.2010 C.3       1 LEU        -0.0425
     52 CD1        14.8040    9.2390    0.8340 C.3       1 LEU        -0.0625
     53 CD2        14.2360    7.9660   -1.2580 C.3       1 LEU        -0.0625
     54 N          18.5310    5.8840   -1.2940 N.am      1 PHE        -0.2619
     55 CA         19.9660    5.8060   -1.2540 C.3       1 PHE         0.1404
     56 C          20.2450    7.2240   -0.7460 C.2       1 PHE         0.2054
     57 O          20.0100    8.1910   -1.4690 O.2       1 PHE        -0.3942
     58 CB         20.5820    5.6680   -2.6440 C.3       1 PHE         0.0214
     59 CG         20.7840    4.2470   -3.0930 C.ar      1 PHE        -0.0386
     60 CD1        19.7550    3.5460   -3.7190 C.ar      1 PHE        -0.0601
     61 CD2        22.0060    3.6190   -2.9260 C.ar      1 PHE        -0.0601
     62 CE1        19.9420    2.2550   -4.1730 C.ar      1 PHE        -0.0686
     63 CE2        22.2030    2.3100   -3.3830 C.ar      1 PHE        -0.0686
     64 CZ         21.1700    1.6310   -4.0060 C.ar      1 PHE        -0.0687
     65 N          20.7040    7.3550    0.4950 N.am      1 LEU        -0.2693
     66 CA         20.9990    8.6680    1.0550 C.3       1 LEU         0.0946
     67 C          22.2630    9.2720    0.4320 C.2       1 LEU         0.0601
     68 O          22.5460   10.4610    0.6900 O.co2     1 LEU        -0.5666
     69 CB         21.1340    8.5660    2.5740 C.3       1 LEU        -0.0156
     70 CG         19.8190    8.1510    3.2230 C.3       1 LEU        -0.0431
     71 CD1        20.0120    7.7760    4.6760 C.3       1 LEU        -0.0625
     72 CD2        18.8340    9.2840    3.1010 C.3       1 LEU        -0.0625
     73 OXT        22.9500    8.5550   -0.3250 O.co2     1 LEU        -0.5666
     74 H1          2.1420   -4.4115    5.4256 H         1 VAL         0.2015
     75 H2          1.5942   -5.5505    4.3711 H         1 VAL         0.2015
     76 H3          1.7209   -3.9803    3.8939 H         1 VAL         0.2015
     77 H4          3.9561   -5.7570    4.6246 H         1 VAL         0.1101
     78 H5          4.5802   -5.7121    2.2642 H         1 VAL         0.0376
     79 H6          2.6419   -6.9306    1.3000 H         1 VAL         0.0236
     80 H7          1.6028   -6.3152    2.6298 H         1 VAL         0.0236
     81 H8          2.9659   -7.4264    2.9958 H         1 VAL         0.0236
     82 H9          3.8177   -3.4180    1.7288 H         1 VAL         0.0236
     83 H10         2.1091   -3.9633    1.8287 H         1 VAL         0.0236
     84 H11         3.1868   -4.6159    0.5483 H         1 VAL         0.0236
     85 H12         6.0555   -4.7600    4.0471 H         1 MET         0.1884
     86 H13         6.0661   -1.9618    5.0001 H         1 MET         0.0800
     87 H14         7.6340   -3.6273    5.9616 H         1 MET         0.0320
     88 H15         8.4964   -2.2742    5.1541 H         1 MET         0.0320
     89 H16         8.6976   -3.7616    3.1288 H         1 MET         0.0378
     90 H17         8.0898   -5.1040    4.1561 H         1 MET         0.0378
     91 H18        12.1632   -2.9671    4.5385 H         1 MET         0.0340
     92 H19        10.6284   -2.0358    4.5985 H         1 MET         0.0340
     93 H20        11.0836   -2.9217    3.1036 H         1 MET         0.0340
     94 H21         7.5223   -0.4187    3.9056 H         1 ALA         0.1883
     95 H22         6.7924    0.0295    1.2173 H         1 ALA         0.0797
     96 H23         8.5948    1.7386    1.2432 H         1 ALA         0.0277
     97 H24         9.2519    1.0277    2.7563 H         1 ALA         0.0277
     98 H25         7.6289    1.7975    2.7565 H         1 ALA         0.0277
     99 H26         9.6113   -2.9545   -0.5690 H         1 PRO         0.0802
    100 H27         7.6462   -3.4127   -1.8625 H         1 PRO         0.0313
    101 H28         8.7716   -2.8266   -3.1339 H         1 PRO         0.0313
    102 H29         6.4643   -1.5621   -2.9346 H         1 PRO         0.0287
    103 H30         7.9401   -0.5381   -2.9309 H         1 PRO         0.0287
    104 H31         6.8988    0.1574   -0.8650 H         1 PRO         0.0524
    105 H32         6.2597   -1.4876   -0.5298 H         1 PRO         0.0524
    106 H33         9.7701    0.3638   -0.8688 H         1 ARG         0.1883
    107 H34        12.3913    0.1522   -2.2623 H         1 ARG         0.0800
    108 H35        10.0520    1.9743   -2.9416 H         1 ARG         0.0313
    109 H36        10.9161    0.8209   -4.0139 H         1 ARG         0.0313
    110 H37        12.9061    2.2687   -3.9325 H         1 ARG         0.0301
    111 H38        11.9972    3.4341   -2.9116 H         1 ARG         0.0301
    112 H39        11.6596    4.3548   -5.0174 H         1 ARG         0.0689
    113 H40        10.2205    3.2879   -4.8859 H         1 ARG         0.0689
    114 H41        11.1779    1.7862   -6.4490 H         1 ARG         0.2642
    115 H42        14.2997    4.2617   -7.2307 H         1 ARG         0.2615
    116 H43        13.2807    4.5740   -5.8001 H         1 ARG         0.2615
    117 H44        12.5145    1.4012   -8.2214 H         1 ARG         0.2615
    118 H45        13.8955    2.4806   -8.5538 H         1 ARG         0.2615
    119 H46        13.8949    1.6205   -1.4943 H         1 THR         0.1884
    120 H47        13.0184    3.4601    0.6948 H         1 THR         0.0826
    121 H48        14.1498    1.2277    1.5317 H         1 THR         0.0639
    122 H49        15.3600    2.4811    3.0780 H         1 THR         0.2101
    123 H50        16.6259    1.2270    1.5027 H         1 THR         0.0257
    124 H51        16.6157    2.6838    0.4518 H         1 THR         0.0257
    125 H52        15.9528    1.1304   -0.1599 H         1 THR         0.0257
    126 H53        15.4062    4.6861    1.1898 H         1 LEU         0.1883
    127 H54        16.0518    5.8454   -1.4669 H         1 LEU         0.0800
    128 H55        16.7792    7.8429   -0.1930 H         1 LEU         0.0315
    129 H56        16.2945    7.0215    1.3291 H         1 LEU         0.0315
    130 H57        13.9572    7.2440    0.7608 H         1 LEU         0.0298
    131 H58        13.8252    9.7392    0.7919 H         1 LEU         0.0232
    132 H59        15.5443    9.8346    0.2797 H         1 LEU         0.0232
    133 H60        15.1217    9.1428    1.8827 H         1 LEU         0.0232
    134 H61        14.1582    6.9642   -1.7057 H         1 LEU         0.0232
    135 H62        14.9680    8.5635   -1.8212 H         1 LEU         0.0232
    136 H63        13.2541    8.4606   -1.2933 H         1 LEU         0.0232
    137 H64        18.0850    6.2414   -2.1146 H         1 PHE         0.1885
    138 H65        20.3318    5.0148   -0.5831 H         1 PHE         0.0823
    139 H66        21.5608    6.1699   -2.6385 H         1 PHE         0.0474
    140 H67        19.9184    6.1663   -3.3660 H         1 PHE         0.0474
    141 H68        18.7905    4.0225   -3.8520 H         1 PHE         0.0557
    142 H69        22.8179    4.1451   -2.4371 H         1 PHE         0.0557
    143 H70        19.1289    1.7290   -4.6601 H         1 PHE         0.0599
    144 H71        23.1648    1.8283   -3.2488 H         1 PHE         0.0599
    145 H72        21.3196    0.6178   -4.3613 H         1 PHE         0.0559
    146 H73        20.8493    6.5386    1.0538 H         1 LEU         0.1875
    147 H74        20.1554    9.3362    0.8273 H         1 LEU         0.0726
    148 H75        21.4364    9.5455    2.9729 H         1 LEU         0.0308
    149 H76        21.9038    7.8182    2.8154 H         1 LEU         0.0308
    150 H77        19.4230    7.2753    2.6879 H         1 LEU         0.0297
    151 H78        19.0449    7.4828    5.1106 H         1 LEU         0.0232
    152 H79        20.4151    8.6386    5.2269 H         1 LEU         0.0232
    153 H80        20.7162    6.9339    4.7470 H         1 LEU         0.0232
    154 H81        18.7046    9.5447    2.0402 H         1 LEU         0.0232
    155 H82        19.2118   10.1591    3.6501 H         1 LEU         0.0232
    156 H83        17.8663    8.9757    3.5234 H         1 LEU         0.0232
@<TRIPOS>BOND
     1    1    2 1  
     2    2    3 1  
     3    2    5 1  
     4    3    4 2  
     5    3    8 am 
     6    5    6 1  
     7    5    7 1  
     8    8    9 1  
     9    9   10 1  
    10    9   12 1  
    11   10   11 2  
    12   10   16 am 
    13   12   13 1  
    14   13   14 1  
    15   14   15 1  
    16   16   17 1  
    17   17   18 1  
    18   17   20 1  
    19   18   19 2  
    20   18   21 am 
    21   21   22 1  
    22   21   27 1  
    23   22   23 1  
    24   22   25 1  
    25   23   24 2  
    26   23   28 am 
    27   25   26 1  
    28   26   27 1  
    29   28   29 1  
    30   29   30 1  
    31   29   32 1  
    32   30   31 2  
    33   30   39 am 
    34   32   33 1  
    35   33   34 1  
    36   34   35 1  
    37   35   36 ar 
    38   36   37 ar 
    39   36   38 ar 
    40   39   40 1  
    41   40   41 1  
    42   40   43 1  
    43   41   42 2  
    44   41   46 am 
    45   43   44 1  
    46   43   45 1  
    47   46   47 1  
    48   47   48 1  
    49   47   50 1  
    50   48   49 2  
    51   48   54 am 
    52   50   51 1  
    53   51   52 1  
    54   51   53 1  
    55   54   55 1  
    56   55   56 1  
    57   55   58 1  
    58   56   57 2  
    59   56   65 am 
    60   58   59 1  
    61   59   60 ar 
    62   59   61 ar 
    63   60   62 ar 
    64   61   63 ar 
    65   62   64 ar 
    66   63   64 ar 
    67   65   66 1  
    68   66   67 1  
    69   66   69 1  
    70   67   68 ar 
    71   67   73 ar 
    72   69   70 1  
    73   70   71 1  
    74   70   72 1  
    75    1   74 1  
    76    1   75 1  
    77    1   76 1  
    78    2   77 1  
    79    5   78 1  
    80    6   79 1  
    81    6   80 1  
    82    6   81 1  
    83    7   82 1  
    84    7   83 1  
    85    7   84 1  
    86    8   85 1  
    87    9   86 1  
    88   12   87 1  
    89   12   88 1  
    90   13   89 1  
    91   13   90 1  
    92   15   91 1  
    93   15   92 1  
    94   15   93 1  
    95   16   94 1  
    96   17   95 1  
    97   20   96 1  
    98   20   97 1  
    99   20   98 1  
   100   22   99 1  
   101   25  100 1  
   102   25  101 1  
   103   26  102 1  
   104   26  103 1  
   105   27  104 1  
   106   27  105 1  
   107   28  106 1  
   108   29  107 1  
   109   32  108 1  
   110   32  109 1  
   111   33  110 1  
   112   33  111 1  
   113   34  112 1  
   114   34  113 1  
   115   35  114 1  
   116   37  115 1  
   117   37  116 1  
   118   38  117 1  
   119   38  118 1  
   120   39  119 1  
   121   40  120 1  
   122   43  121 1  
   123   44  122 1  
   124   45  123 1  
   125   45  124 1  
   126   45  125 1  
   127   46  126 1  
   128   47  127 1  
   129   50  128 1  
   130   50  129 1  
   131   51  130 1  
   132   52  131 1  
   133   52  132 1  
   134   52  133 1  
   135   53  134 1  
   136   53  135 1  
   137   53  136 1  
   138   54  137 1  
   139   55  138 1  
   140   58  139 1  
   141   58  140 1  
   142   60  141 1  
   143   61  142 1  
   144   62  143 1  
   145   63  144 1  
   146   64  145 1  
   147   65  146 1  
   148   66  147 1  
   149   69  148 1  
   150   69  149 1  
   151   70  150 1  
   152   71  151 1  
   153   71  152 1  
   154   71  153 1  
   155   72  154 1  
   156   72  155 1  
   157   72  156 1  
@<TRIPOS>SUBSTRUCTURE
     1 VAL         1

