3mp1_ligand
  -I-interpret- 

 99 98  0  0  0  0  0  0  0  0999 V2000
   -7.7920    7.4200   27.1630 N   0  3  0  0  0
   -9.1430    7.9980   26.9040 C   0  0  0  0  0
   -9.5450    8.8840   28.0760 C   0  0  0  0  0
   -9.0570    8.7060   29.1970 O   0  0  0  0  0
  -10.1810    6.8750   26.7120 C   0  0  0  0  0
  -10.4270    9.8370   27.8060 N   0  0  0  0  0
  -10.9280   10.7580   28.8140 C   0  0  0  0  0
  -12.2400   10.1870   29.3300 C   0  0  0  0  0
  -13.0850    9.7810   28.5340 O   0  0  0  0  0
  -11.1620   12.1280   28.1760 C   0  0  0  0  0
   -9.9010   12.9770   28.0200 C   0  0  0  0  0
   -9.7950   13.9560   29.1820 C   0  0  0  0  0
   -8.7090   14.9170   29.0240 N   0  0  0  0  0
   -8.4320   15.8690   29.9120 C   0  0  0  0  0
   -9.1650   15.9760   31.0180 N   0  0  0  0  0
   -7.4310   16.7170   29.6930 N   0  0  0  0  0
  -12.4280   10.1570   30.6500 N   0  0  0  0  0
  -13.6630    9.5940   31.2020 C   0  0  0  0  0
  -14.5880   10.5570   31.9550 C   0  0  0  0  0
  -14.2840   11.7400   32.1480 O   0  0  0  0  0
  -13.3660    8.3920   32.1430 C   0  0  0  0  0
  -12.7510    8.8590   33.3520 O   0  0  0  0  0
  -12.4400    7.3850   31.4530 C   0  0  0  0  0
  -15.7280   10.0160   32.3800 N   0  0  0  0  0
  -16.7460   10.7670   33.1000 C   0  0  0  0  0
  -18.0910   10.0470   32.9540 C   0  0  0  0  0
  -19.2730   10.7700   33.5570 C   0  0  0  0  0
  -20.3640    9.7910   33.9580 C   0  0  0  0  0
  -21.0100    9.0800   32.7590 C   0  0  0  0  0
  -21.9520    8.0530   33.2490 N   0  3  0  0  0
  -16.4030   10.9280   34.5860 C   0  0  0  0  0
  -15.5560   10.2070   35.1270 O   0  0  0  0  0
  -22.9660    8.6970   34.1470 C   0  0  0  0  0
  -21.1670    7.0340   33.9780 C   0  0  0  0  0
  -22.7190    7.2860   32.2430 C   0  0  0  0  0
  -17.0860   11.8740   35.2330 N   0  0  0  0  0
  -16.9120   12.1900   36.6570 C   0  0  0  0  0
  -15.5880   12.9240   36.8890 C   0  0  0  0  0
  -15.3320   13.8840   36.1300 O   0  0  0  0  0
  -16.9550   10.9140   37.5180 C   0  0  0  0  0
  -17.2030   11.1720   39.0070 C   0  0  0  0  0
  -16.3410   10.3030   39.9300 C   0  0  0  0  0
  -15.8030    9.2660   39.5150 O   0  0  0  0  0
  -16.2180   10.7190   41.1980 N   0  0  0  0  0
  -14.7932   12.5764   37.8028 O   0  0  0  0  0
   -7.1184    8.1757   27.2875 H   0  0  0  0  0
   -7.8240    6.8489   28.0075 H   0  0  0  0  0
   -7.5133    6.8416   26.3704 H   0  0  0  0  0
   -9.1074    8.5936   25.9918 H   0  0  0  0  0
  -10.2326    6.2710   27.6179 H   0  0  0  0  0
  -11.1577    7.3152   26.5111 H   0  0  0  0  0
   -9.8842    6.2474   25.8717 H   0  0  0  0  0
  -10.7690    9.9280   26.8494 H   0  0  0  0  0
  -10.2167   10.8776   29.6312 H   0  0  0  0  0
  -11.8364   12.6758   28.8342 H   0  0  0  0  0
  -11.5538   11.9511   27.1744 H   0  0  0  0  0
   -9.9524   13.5319   27.0833 H   0  0  0  0  0
   -9.0260   12.3270   28.0139 H   0  0  0  0  0
   -9.5969   13.3781   30.0847 H   0  0  0  0  0
  -10.7287   14.5164   29.2289 H   0  0  0  0  0
   -8.1298   14.8560   28.1866 H   0  0  0  0  0
   -8.9590   16.7083   31.6975 H   0  0  0  0  0
   -9.9327   15.3257   31.1860 H   0  0  0  0  0
   -6.8732   16.6388   28.8426 H   0  0  0  0  0
  -11.7118   10.5261   31.2755 H   0  0  0  0  0
  -14.2010    9.2946   30.3026 H   0  0  0  0  0
  -14.3082    7.8983   32.3809 H   0  0  0  0  0
  -12.5708    8.1119   33.9273 H   0  0  0  0  0
  -12.9187    7.0153   30.5462 H   0  0  0  0  0
  -11.5005    7.8742   31.1958 H   0  0  0  0  0
  -12.2444    6.5517   32.1278 H   0  0  0  0  0
  -15.8960    9.0277   32.1920 H   0  0  0  0  0
  -16.7976   11.7671   32.6696 H   0  0  0  0  0
  -17.9989    9.0990   33.4840 H   0  0  0  0  0
  -18.2871    9.9614   31.8852 H   0  0  0  0  0
  -19.6769   11.4589   32.8152 H   0  0  0  0  0
  -18.9391   11.3048   34.4462 H   0  0  0  0  0
  -21.1448   10.3567   34.4664 H   0  0  0  0  0
  -19.9074    9.0275   34.5879 H   0  0  0  0  0
  -20.2357    8.6063   32.1555 H   0  0  0  0  0
  -21.5475    9.8071   32.1503 H   0  0  0  0  0
  -22.4582    9.1600   34.9930 H   0  0  0  0  0
  -23.5126    9.4574   33.5892 H   0  0  0  0  0
  -23.6616    7.9400   34.5091 H   0  0  0  0  0
  -20.4368    6.5880   33.3027 H   0  0  0  0  0
  -20.6502    7.5050   34.8142 H   0  0  0  0  0
  -21.8372    6.2604   34.3527 H   0  0  0  0  0
  -23.3251    7.9712   31.6503 H   0  0  0  0  0
  -22.0279    6.7527   31.5903 H   0  0  0  0  0
  -23.3671    6.5710   32.7498 H   0  0  0  0  0
  -17.7730   12.4123   34.7051 H   0  0  0  0  0
  -17.7365   12.8381   36.9541 H   0  0  0  0  0
  -15.9801   10.4341   37.4320 H   0  0  0  0  0
  -17.7838   10.3071   37.1536 H   0  0  0  0  0
  -18.2464   10.9323   39.2117 H   0  0  0  0  0
  -16.9490   12.2132   39.2059 H   0  0  0  0  0
  -15.6654   10.1761   41.8615 H   0  0  0  0  0
  -16.6770   11.5785   41.4996 H   0  0  0  0  0
  -15.1600   11.8260   38.2761 H   0  0  0  0  0
  1  2  1  0  0  0
  2  3  1  0  0  0
  2  5  1  0  0  0
  3  4  2  0  0  0
  3  6  1  0  0  0
  6  7  1  0  0  0
  7  8  1  0  0  0
  7 10  1  0  0  0
  8  9  2  0  0  0
  8 17  1  0  0  0
 10 11  1  0  0  0
 11 12  1  0  0  0
 12 13  1  0  0  0
 13 14  1  0  0  0
 14 15  1  0  0  0
 14 16  2  0  0  0
 17 18  1  0  0  0
 18 19  1  0  0  0
 18 21  1  0  0  0
 19 20  2  0  0  0
 19 24  1  0  0  0
 21 22  1  0  0  0
 21 23  1  0  0  0
 24 25  1  0  0  0
 25 26  1  0  0  0
 25 31  1  0  0  0
 26 27  1  0  0  0
 27 28  1  0  0  0
 28 29  1  0  0  0
 29 30  1  0  0  0
 30 33  1  0  0  0
 30 34  1  0  0  0
 30 35  1  0  0  0
 31 32  2  0  0  0
 31 36  1  0  0  0
 36 37  1  0  0  0
 37 38  1  0  0  0
 37 40  1  0  0  0
 38 39  2  0  0  0
 40 41  1  0  0  0
 41 42  1  0  0  0
 42 43  2  0  0  0
 42 44  1  0  0  0
 38 45  1  0  0  0
  1 46  1  0  0  0
  1 47  1  0  0  0
  1 48  1  0  0  0
  2 49  1  0  0  0
  5 50  1  0  0  0
  5 51  1  0  0  0
  5 52  1  0  0  0
  6 53  1  0  0  0
  7 54  1  0  0  0
 10 55  1  0  0  0
 10 56  1  0  0  0
 11 57  1  0  0  0
 11 58  1  0  0  0
 12 59  1  0  0  0
 12 60  1  0  0  0
 13 61  1  0  0  0
 15 62  1  0  0  0
 15 63  1  0  0  0
 16 64  1  0  0  0
 17 65  1  0  0  0
 18 66  1  0  0  0
 21 67  1  0  0  0
 22 68  1  0  0  0
 23 69  1  0  0  0
 23 70  1  0  0  0
 23 71  1  0  0  0
 24 72  1  0  0  0
 25 73  1  0  0  0
 26 74  1  0  0  0
 26 75  1  0  0  0
 27 76  1  0  0  0
 27 77  1  0  0  0
 28 78  1  0  0  0
 28 79  1  0  0  0
 29 80  1  0  0  0
 29 81  1  0  0  0
 33 82  1  0  0  0
 33 83  1  0  0  0
 33 84  1  0  0  0
 34 85  1  0  0  0
 34 86  1  0  0  0
 34 87  1  0  0  0
 35 88  1  0  0  0
 35 89  1  0  0  0
 35 90  1  0  0  0
 36 91  1  0  0  0
 37 92  1  0  0  0
 40 93  1  0  0  0
 40 94  1  0  0  0
 41 95  1  0  0  0
 41 96  1  0  0  0
 44 97  1  0  0  0
 44 98  1  0  0  0
 45 99  1  0  0  0
M  END
$$$$
