### 
### Created by X-TOOL on Mon Sep 10 21:13:07 2018
### 

@<TRIPOS>MOLECULE
3mp1_ligand
   99    98     1     0     0
SMALL
GAST_HUCK


@<TRIPOS>ATOM
      1 N          -7.7920    7.4200   27.1630 N.4       1 ALA         0.2377
      2 CA         -9.1430    7.9980   26.9040 C.3       1 ALA         0.0621
      3 C          -9.5450    8.8840   28.0760 C.2       1 ALA         0.2264
      4 O          -9.0570    8.7060   29.1970 O.2       1 ALA        -0.3907
      5 CB        -10.1810    6.8750   26.7120 C.3       1 ALA        -0.0040
      6 N         -10.4270    9.8370   27.8060 N.am      1 ARG        -0.2610
      7 CA        -10.9280   10.7580   28.8140 C.3       1 ARG         0.1312
      8 C         -12.2400   10.1870   29.3300 C.2       1 ARG         0.2040
      9 O         -13.0850    9.7810   28.5340 O.2       1 ARG        -0.3944
     10 CB        -11.1620   12.1280   28.1760 C.3       1 ARG        -0.0092
     11 CG         -9.9010   12.9770   28.0200 C.3       1 ARG        -0.0156
     12 CD         -9.7950   13.9560   29.1820 C.3       1 ARG         0.0627
     13 NE         -8.7090   14.9170   29.0240 N.pl3     1 ARG        -0.2723
     14 CZ         -8.4320   15.8690   29.9120 C.cat     1 ARG         0.2882
     15 NH1        -9.1650   15.9760   31.0180 N.pl3     1 ARG        -0.2849
     16 NH2        -7.4310   16.7170   29.6930 N.pl3     1 ARG        -0.2849
     17 N         -12.4280   10.1570   30.6500 N.am      1 THR        -0.2613
     18 CA        -13.6630    9.5940   31.2020 C.3       1 THR         0.1565
     19 C         -14.5880   10.5570   31.9550 C.2       1 THR         0.2065
     20 O         -14.2840   11.7400   32.1480 O.2       1 THR        -0.3943
     21 CB        -13.3660    8.3920   32.1430 C.3       1 THR         0.0924
     22 OG1       -12.7510    8.8590   33.3520 O.3       1 THR        -0.3874
     23 CG2       -12.4400    7.3850   31.4530 C.3       1 THR        -0.0346
     24 N         -15.7280   10.0160   32.3800 N.am      1 M3L        -0.2637
     25 CA        -16.7460   10.7670   33.1000 C.3       1 M3L         0.1309
     26 CB        -18.0910   10.0470   32.9540 C.3       1 M3L        -0.0122
     27 CG        -19.2730   10.7700   33.5570 C.3       1 M3L        -0.0440
     28 CD        -20.3640    9.7910   33.9580 C.3       1 M3L        -0.0123
     29 CE        -21.0100    9.0800   32.7590 C.3       1 M3L        -0.0309
     30 NZ        -21.9520    8.0530   33.2490 N.4       1 M3L         0.2369
     31 C         -16.4030   10.9280   34.5860 C.2       1 M3L         0.2033
     32 O         -15.5560   10.2070   35.1270 O.2       1 M3L        -0.3944
     33 CM1       -22.9660    8.6970   34.1470 C.3       1 M3L        -0.0418
     34 CM2       -21.1670    7.0340   33.9780 C.3       1 M3L        -0.0418
     35 CM3       -22.7190    7.2860   32.2430 C.3       1 M3L        -0.0418
     36 N         -17.0860   11.8740   35.2330 N.am      1 GLN        -0.2693
     37 CA        -16.9120   12.1900   36.6570 C.3       1 GLN         0.0964
     38 C         -15.5880   12.9240   36.8890 C.2       1 GLN         0.0602
     39 O         -15.3320   13.8840   36.1300 O.co2     1 GLN        -0.5666
     40 CB        -16.9550   10.9140   37.5180 C.3       1 GLN        -0.0010
     41 CG        -17.2030   11.1720   39.0070 C.3       1 GLN         0.0407
     42 CD        -16.3410   10.3030   39.9300 C.2       1 GLN         0.1737
     43 OE1       -15.8030    9.2660   39.5150 O.2       1 GLN        -0.3973
     44 NE2       -16.2180   10.7190   41.1980 N.am      1 GLN        -0.3009
     45 H          -7.1184    8.1757   27.2875 H         1 ALA         0.2015
     46 H          -7.8240    6.8489   28.0075 H         1 ALA         0.2015
     47 H          -7.5133    6.8416   26.3704 H         1 ALA         0.2015
     48 H          -9.1074    8.5936   25.9918 H         1 ALA         0.1095
     49 H         -10.2326    6.2710   27.6179 H         1 ALA         0.0310
     50 H         -11.1577    7.3152   26.5111 H         1 ALA         0.0310
     51 H          -9.8842    6.2474   25.8717 H         1 ALA         0.0310
     52 H         -10.7690    9.9280   26.8494 H         1 ARG         0.1884
     53 H         -10.2167   10.8776   29.6312 H         1 ARG         0.0800
     54 H         -11.8364   12.6758   28.8342 H         1 ARG         0.0313
     55 H         -11.5538   11.9511   27.1744 H         1 ARG         0.0313
     56 H          -9.9524   13.5319   27.0833 H         1 ARG         0.0301
     57 H          -9.0260   12.3270   28.0139 H         1 ARG         0.0301
     58 H          -9.5969   13.3781   30.0847 H         1 ARG         0.0689
     59 H         -10.7287   14.5164   29.2289 H         1 ARG         0.0689
     60 H          -8.1298   14.8560   28.1866 H         1 ARG         0.2642
     61 H          -9.9365   15.3295   31.1831 H         1 ARG         0.2615
     62 H          -8.9552   16.7045   31.7004 H         1 ARG         0.2615
     63 H          -6.8732   16.6388   28.8426 H         1 ARG         0.2615
     64 H          -7.2212   17.4455   30.3754 H         1 ARG         0.2615
     65 H         -11.7118   10.5261   31.2755 H         1 THR         0.1884
     66 H         -14.2010    9.2946   30.3026 H         1 THR         0.0826
     67 H         -14.3082    7.8983   32.3809 H         1 THR         0.0639
     68 H         -12.5708    8.1119   33.9273 H         1 THR         0.2101
     69 H         -12.9187    7.0153   30.5462 H         1 THR         0.0257
     70 H         -11.5005    7.8742   31.1958 H         1 THR         0.0257
     71 H         -12.2444    6.5517   32.1278 H         1 THR         0.0257
     72 H         -15.8960    9.0277   32.1920 H         1 M3L         0.1883
     73 H         -16.7976   11.7671   32.6696 H         1 M3L         0.0800
     74 H         -17.9989    9.0990   33.4840 H         1 M3L         0.0312
     75 H         -18.2871    9.9614   31.8852 H         1 M3L         0.0312
     76 H         -19.6769   11.4589   32.8152 H         1 M3L         0.0269
     77 H         -18.9391   11.3048   34.4462 H         1 M3L         0.0269
     78 H         -21.1448   10.3567   34.4664 H         1 M3L         0.0317
     79 H         -19.9074    9.0275   34.5879 H         1 M3L         0.0317
     80 H         -20.2357    8.6063   32.1555 H         1 M3L         0.0815
     81 H         -21.5475    9.8071   32.1503 H         1 M3L         0.0815
     82 H         -22.4582    9.1600   34.9930 H         1 M3L         0.0778
     83 H         -23.5126    9.4574   33.5892 H         1 M3L         0.0778
     84 H         -23.6616    7.9400   34.5091 H         1 M3L         0.0778
     85 H         -20.4368    6.5880   33.3027 H         1 M3L         0.0778
     86 H         -20.6502    7.5050   34.8142 H         1 M3L         0.0778
     87 H         -21.8372    6.2604   34.3527 H         1 M3L         0.0778
     88 H         -23.3251    7.9712   31.6503 H         1 M3L         0.0778
     89 H         -22.0279    6.7527   31.5903 H         1 M3L         0.0778
     90 H         -23.3671    6.5710   32.7498 H         1 M3L         0.0778
     91 H         -17.7730   12.4123   34.7051 H         1 GLN         0.1875
     92 H         -17.7365   12.8381   36.9541 H         1 GLN         0.0727
     93 O1        -14.7932   12.5764   37.8028 O.co2     1 GLN        -0.5666
     94 H         -15.9801   10.4341   37.4320 H         1 GLN         0.0330
     95 H         -17.7838   10.3071   37.1536 H         1 GLN         0.0330
     96 H         -18.2464   10.9323   39.2117 H         1 GLN         0.0504
     97 H         -16.9490   12.2132   39.2059 H         1 GLN         0.0504
     98 H         -15.6654   10.1761   41.8615 H         1 GLN         0.1814
     99 H         -16.6770   11.5785   41.4996 H         1 GLN         0.1814
@<TRIPOS>BOND
     1    1    2 1  
     2    2    3 1  
     3    2    5 1  
     4    3    4 2  
     5    3    6 am 
     6    6    7 1  
     7    7    8 1  
     8    7   10 1  
     9    8    9 2  
    10    8   17 am 
    11   10   11 1  
    12   11   12 1  
    13   12   13 1  
    14   13   14 ar 
    15   14   15 ar 
    16   14   16 ar 
    17   17   18 1  
    18   18   19 1  
    19   18   21 1  
    20   19   20 2  
    21   19   24 am 
    22   21   22 1  
    23   21   23 1  
    24   24   25 1  
    25   25   26 1  
    26   25   31 1  
    27   26   27 1  
    28   27   28 1  
    29   28   29 1  
    30   29   30 1  
    31   30   33 1  
    32   30   34 1  
    33   30   35 1  
    34   31   32 2  
    35   31   36 am 
    36   36   37 1  
    37   37   38 1  
    38   37   40 1  
    39   38   39 ar 
    40   40   41 1  
    41   41   42 1  
    42   42   43 2  
    43   42   44 am 
    44    1   45 1  
    45    1   46 1  
    46    1   47 1  
    47    2   48 1  
    48    5   49 1  
    49    5   50 1  
    50    5   51 1  
    51    6   52 1  
    52    7   53 1  
    53   10   54 1  
    54   10   55 1  
    55   11   56 1  
    56   11   57 1  
    57   12   58 1  
    58   12   59 1  
    59   13   60 1  
    60   15   61 1  
    61   15   62 1  
    62   16   63 1  
    63   16   64 1  
    64   17   65 1  
    65   18   66 1  
    66   21   67 1  
    67   22   68 1  
    68   23   69 1  
    69   23   70 1  
    70   23   71 1  
    71   24   72 1  
    72   25   73 1  
    73   26   74 1  
    74   26   75 1  
    75   27   76 1  
    76   27   77 1  
    77   28   78 1  
    78   28   79 1  
    79   29   80 1  
    80   29   81 1  
    81   33   82 1  
    82   33   83 1  
    83   33   84 1  
    84   34   85 1  
    85   34   86 1  
    86   34   87 1  
    87   35   88 1  
    88   35   89 1  
    89   35   90 1  
    90   36   91 1  
    91   37   92 1  
    92   38   93 ar 
    93   40   94 1  
    94   40   95 1  
    95   41   96 1  
    96   41   97 1  
    97   44   98 1  
    98   44   99 1  
@<TRIPOS>SUBSTRUCTURE
     1 ALA         1

