4mgb_ligand
  -I-interpret- 

 33 34  0  0  0  0  0  0  0  0999 V2000
   -4.9800   -6.2450   21.6990 C   0  0  0  0  0
   -5.8500   -5.0940   19.6750 C   0  0  0  0  0
   -0.4250   -2.2360   20.4390 O   0  0  0  0  0
   -8.8270   -1.9960   24.0730 O   0  0  0  0  0
   -1.6180   -3.1230   17.9630 Cl  0  0  0  0  0
   -1.2420   -2.4370   23.2340 Cl  0  0  0  0  0
   -8.7350   -4.8610   24.7910 Cl  0  0  0  0  0
   -7.4010   -0.3740   22.0950 Cl  0  0  0  0  0
   -3.4810   -4.0160   19.6670 C   0  0  0  0  0
   -3.3300   -3.7180   22.0610 C   0  0  0  0  0
   -6.8910   -4.7930   22.8050 C   0  0  0  0  0
   -6.2920   -2.7840   21.5920 C   0  0  0  0  0
   -1.6110   -2.8840   20.6160 C   0  0  0  0  0
   -7.9380   -2.7130   23.3290 C   0  0  0  0  0
   -2.2740   -3.3570   19.5040 C   0  0  0  0  0
   -2.1140   -3.0490   21.8980 C   0  0  0  0  0
   -7.8030   -4.0730   23.5680 C   0  0  0  0  0
   -7.1990   -2.0560   22.3560 C   0  0  0  0  0
   -4.0170   -4.1960   20.9390 C   0  0  0  0  0
   -6.1390   -4.1490   21.8220 C   0  0  0  0  0
   -5.2340   -4.8790   21.0570 C   0  0  0  0  0
   -4.2960   -6.8178   21.0728 H   0  0  0  0  0
   -4.5397   -6.1048   22.6862 H   0  0  0  0  0
   -5.9240   -6.7817   21.7936 H   0  0  0  0  0
   -6.0252   -4.1276   19.2024 H   0  0  0  0  0
   -5.1668   -5.6814   19.0615 H   0  0  0  0  0
   -6.7957   -5.6259   19.7789 H   0  0  0  0  0
   -0.0795   -1.9645   21.2925 H   0  0  0  0  0
   -8.8081   -1.0775   23.7945 H   0  0  0  0  0
   -4.0138   -4.3956   18.7952 H   0  0  0  0  0
   -3.7423   -3.8672   23.0589 H   0  0  0  0  0
   -6.7632   -5.8621   22.9749 H   0  0  0  0  0
   -5.7050   -2.2890   20.8184 H   0  0  0  0  0
 21  1  1  0  0  0
 21  2  1  0  0  0
 13  3  1  0  0  0
 14  4  1  0  0  0
 15  5  1  0  0  0
 16  6  1  0  0  0
 17  7  1  0  0  0
 18  8  1  0  0  0
  9 15  4  0  0  0
 19  9  4  0  0  0
 10 16  4  0  0  0
 19 10  4  0  0  0
 11 17  4  0  0  0
 20 11  4  0  0  0
 12 18  4  0  0  0
 20 12  4  0  0  0
 15 13  4  0  0  0
 16 13  4  0  0  0
 17 14  4  0  0  0
 18 14  4  0  0  0
 21 19  1  0  0  0
 20 21  1  0  0  0
  1 22  1  0  0  0
  1 23  1  0  0  0
  1 24  1  0  0  0
  2 25  1  0  0  0
  2 26  1  0  0  0
  2 27  1  0  0  0
  3 28  1  0  0  0
  4 29  1  0  0  0
  9 30  1  0  0  0
 10 31  1  0  0  0
 11 32  1  0  0  0
 12 33  1  0  0  0
M  END
$$$$
