### 
### Created by X-TOOL on Mon Sep 10 21:13:24 2018
### 

@<TRIPOS>MOLECULE
4qwi_ligand
  114   116     1     0     0
SMALL
GAST_HUCK


@<TRIPOS>ATOM
      1 C8         59.1380 -135.5930   31.7000 C.2       1 3BV         0.2238
      2 O9         59.9450 -134.7410   31.3290 O.2       1 3BV        -0.3910
      3 C7         58.7290 -136.7840   30.8150 C.3       1 3BV         0.0582
      4 N4         58.4270 -136.4320   29.4060 N.4       1 3BV         0.2552
      5 O1         58.4600 -135.0230   27.1190 O.3       1 3BV        -0.3693
      6 C5         59.6520 -136.3300   28.5690 C.3       1 3BV        -0.0060
      7 C3         57.5750 -135.2200   29.2760 C.3       1 3BV        -0.0060
      8 C6         59.1850 -136.2430   27.1510 C.3       1 3BV         0.0878
      9 C2         57.2160 -135.0580   27.8740 C.3       1 3BV         0.0878
     10 N10        58.5550 -135.5920   32.9010 N.am      1 3BV        -0.2611
     11 C11        58.8550 -134.5740   33.9050 C.3       1 3BV         0.1328
     12 C20        60.1090 -135.0290   34.6380 C.2       1 3BV         0.2041
     13 O21        60.4460 -136.2130   34.6270 O.2       1 3BV        -0.3944
     14 C12        57.7310 -134.5230   34.9090 C.3       1 3BV        -0.0027
     15 C13        56.9540 -133.2570   34.6060 C.3       1 3BV        -0.0149
     16 C14        55.6800 -133.3280   35.2250 C.ar      1 3BV        -0.0428
     17 C19        54.5650 -132.8240   34.5510 C.ar      1 3BV        -0.0603
     18 C15        55.4930 -133.8620   36.5080 C.ar      1 3BV        -0.0603
     19 C18        53.2990 -132.8680   35.1320 C.ar      1 3BV        -0.0686
     20 C16        54.2290 -133.9080   37.0860 C.ar      1 3BV        -0.0686
     21 C17        53.1290 -133.4100   36.4010 C.ar      1 3BV        -0.0687
     22 N22        60.7660 -134.0680   35.2920 N.am      1 3BV        -0.2637
     23 C23        61.9520 -134.3850   36.0870 C.3       1 3BV         0.1312
     24 C28        61.4840 -134.6280   37.5160 C.2       1 3BV         0.2040
     25 O29        60.6700 -133.8710   38.0430 O.2       1 3BV        -0.3944
     26 C24        62.9040 -133.2240   36.0960 C.3       1 3BV        -0.0101
     27 C25        63.7050 -133.2990   34.7830 C.3       1 3BV        -0.0425
     28 C26        64.4730 -131.9830   34.5940 C.3       1 3BV        -0.0625
     29 C27        64.6930 -134.4790   34.7990 C.3       1 3BV        -0.0625
     30 N30        62.0070 -135.7080   38.1110 N.am      1 3BV        -0.2619
     31 C31        61.6570 -136.0570   39.4930 C.3       1 3BV         0.1403
     32 C39        62.9330 -136.0190   40.3210 C.2       1 3BV         0.2040
     33 O40        64.0370 -136.0170   39.7790 O.2       1 3BV        -0.3943
     34 C32        61.0080 -137.4100   39.5500 C.3       1 3BV         0.0214
     35 C33        59.6900 -137.1930   39.1170 C.ar      1 3BV        -0.0386
     36 C34        59.3020 -137.5210   37.8150 C.ar      1 3BV        -0.0601
     37 C38        58.7520 -136.6400   39.9900 C.ar      1 3BV        -0.0601
     38 C35        57.9900 -137.3010   37.3950 C.ar      1 3BV        -0.0686
     39 C37        57.4440 -136.4170   39.5700 C.ar      1 3BV        -0.0686
     40 C36        57.0610 -136.7490   38.2730 C.ar      1 3BV        -0.0687
     41 N41        62.7230 -135.9580   41.6400 N.am      1 3BV        -0.2794
     42 C42        63.7950 -135.7700   42.6170 C.3       1 3BV         0.0685
     43 C43        63.5070 -134.3700   43.1350 C.3       1 3BV        -0.0251
     44 C44        64.5990 -133.3310   42.7780 C.3       1 3BV        -0.0446
     45 C45        63.9830 -131.9310   42.9610 C.3       1 3BV        -0.0626
     46 C46        65.1560 -133.4470   41.3450 C.3       1 3BV        -0.0626
     47 C47        63.7070 -136.7440   43.8130 C.3       1 3BV         0.0827
     48 C51        64.0880 -138.2980   43.5530 C.3       1 3BV         0.0075
     49 C58        65.1190 -138.4310   42.3930 C.3       1 3BV        -0.0579
     50 C59        62.8490 -139.0340   43.0230 C.3       1 3BV         0.0492
     51 O60        61.7750 -138.7580   43.9310 O.3       1 3BV        -0.3947
     52 O48        62.3780 -136.6420   44.3440 O.3       1 3BV        -0.3892
     53 H1         57.8315 -137.2448   31.2533 H         1 3BV         0.1063
     54 H2         59.5534 -137.5122   30.8174 H         1 3BV         0.1063
     55 H3         57.8890 -137.1989   29.0339 H         1 3BV         0.2054
     56 H4         60.2836 -137.2198   28.7081 H         1 3BV         0.0837
     57 H5         60.2232 -135.4292   28.8379 H         1 3BV         0.0837
     58 H6         58.1313 -134.3361   29.6214 H         1 3BV         0.0837
     59 H7         56.6642 -135.3396   29.8811 H         1 3BV         0.0837
     60 H8         60.0377 -136.2128   26.4567 H         1 3BV         0.0613
     61 H9         58.5356 -137.0938   26.8974 H         1 3BV         0.0613
     62 H10        56.5962 -135.9040   27.5423 H         1 3BV         0.0613
     63 H11        56.6610 -134.1189   27.7320 H         1 3BV         0.0613
     64 H12        57.8934 -136.3092   33.1198 H         1 3BV         0.1884
     65 H13        59.0033 -133.5906   33.4351 H         1 3BV         0.0801
     66 H14        58.1340 -134.4880   35.9319 H         1 3BV         0.0334
     67 H15        57.0819 -135.4044   34.8006 H         1 3BV         0.0334
     68 H16        56.8284 -133.1547   33.5180 H         1 3BV         0.0428
     69 H17        57.5033 -132.3870   34.9951 H         1 3BV         0.0428
     70 H18        54.6860 -132.3933   33.5636 H         1 3BV         0.0557
     71 H19        56.3458 -134.2444   37.0571 H         1 3BV         0.0557
     72 H20        52.4435 -132.4781   34.5924 H         1 3BV         0.0599
     73 H21        54.1022 -134.3341   38.0746 H         1 3BV         0.0599
     74 H22        52.1441 -133.4435   36.8525 H         1 3BV         0.0559
     75 H23        60.4442 -133.1228   35.2377 H         1 3BV         0.1883
     76 H24        62.4518 -135.2785   35.6846 H         1 3BV         0.0800
     77 H25        63.5825 -133.2967   36.9587 H         1 3BV         0.0315
     78 H26        62.3467 -132.2770   36.1465 H         1 3BV         0.0315
     79 H27        63.0054 -133.4343   33.9450 H         1 3BV         0.0298
     80 H28        65.0492 -132.0259   33.6580 H         1 3BV         0.0232
     81 H29        65.1594 -131.8342   35.4406 H         1 3BV         0.0232
     82 H30        63.7607 -131.1461   34.5480 H         1 3BV         0.0232
     83 H31        64.1387 -135.4194   34.9346 H         1 3BV         0.0232
     84 H32        65.4047 -134.3502   35.6278 H         1 3BV         0.0232
     85 H33        65.2416 -134.5109   33.8461 H         1 3BV         0.0232
     86 H34        62.6469 -136.2864   37.6050 H         1 3BV         0.1885
     87 H35        60.9496 -135.3126   39.8871 H         1 3BV         0.0823
     88 H36        61.0188 -137.8022   40.5776 H         1 3BV         0.0474
     89 H37        61.5240 -138.1159   38.8826 H         1 3BV         0.0474
     90 H38        60.0238 -137.9483   37.1284 H         1 3BV         0.0557
     91 H39        59.0441 -136.3825   41.0017 H         1 3BV         0.0557
     92 H40        57.6937 -137.5599   36.3849 H         1 3BV         0.0599
     93 H41        56.7224 -135.9843   40.2534 H         1 3BV         0.0599
     94 H42        56.0413 -136.5780   37.9475 H         1 3BV         0.0559
     95 H43        61.7851 -136.0454   41.9757 H         1 3BV         0.1856
     96 H44        64.7841 -135.8448   42.1416 H         1 3BV         0.0582
     97 H45        63.4192 -134.4174   44.2305 H         1 3BV         0.0291
     98 H46        62.5530 -134.0311   42.7049 H         1 3BV         0.0291
     99 H47        65.4370 -133.4570   43.4794 H         1 3BV         0.0296
    100 H48        64.7335 -131.1653   42.7152 H         1 3BV         0.0232
    101 H49        63.6601 -131.8061   44.0051 H         1 3BV         0.0232
    102 H50        63.1156 -131.8219   42.2934 H         1 3BV         0.0232
    103 H51        65.5987 -134.4440   41.2033 H         1 3BV         0.0232
    104 H52        65.9266 -132.6779   41.1877 H         1 3BV         0.0232
    105 H53        64.3401 -133.3020   40.6216 H         1 3BV         0.0232
    106 H54        64.4125 -136.3780   44.5734 H         1 3BV         0.0620
    107 H55        64.4674 -138.7561   44.4783 H         1 3BV         0.0346
    108 H56        65.3604 -139.4928   42.2370 H         1 3BV         0.0234
    109 H57        66.0356 -137.8809   42.6522 H         1 3BV         0.0234
    110 H58        64.6891 -138.0133   41.4706 H         1 3BV         0.0234
    111 H59        63.0411 -140.1164   42.9836 H         1 3BV         0.0560
    112 H60        62.5953 -138.6697   42.0166 H         1 3BV         0.0560
    113 H61        61.6210 -137.8211   43.9622 H         1 3BV         0.2094
    114 H62        61.7613 -137.0146   43.7248 H         1 3BV         0.2099
@<TRIPOS>BOND
     1    1    2 2  
     2    3    1 1  
     3    1   10 am 
     4    4    3 1  
     5    6    4 1  
     6    4    7 1  
     7    8    5 1  
     8    5    9 1  
     9    6    8 1  
    10    7    9 1  
    11   10   11 1  
    12   11   12 1  
    13   11   14 1  
    14   12   13 2  
    15   12   22 am 
    16   14   15 1  
    17   15   16 1  
    18   16   17 ar 
    19   16   18 ar 
    20   17   19 ar 
    21   18   20 ar 
    22   19   21 ar 
    23   20   21 ar 
    24   22   23 1  
    25   23   24 1  
    26   23   26 1  
    27   24   25 2  
    28   24   30 am 
    29   26   27 1  
    30   27   28 1  
    31   27   29 1  
    32   30   31 1  
    33   31   32 1  
    34   31   34 1  
    35   32   33 2  
    36   32   41 am 
    37   34   35 1  
    38   35   36 ar 
    39   35   37 ar 
    40   36   38 ar 
    41   37   39 ar 
    42   38   40 ar 
    43   39   40 ar 
    44   41   42 1  
    45   42   43 1  
    46   42   47 1  
    47   43   44 1  
    48   44   45 1  
    49   44   46 1  
    50   47   48 1  
    51   47   52 1  
    52   48   49 1  
    53   48   50 1  
    54   50   51 1  
    55    3   53 1  
    56    3   54 1  
    57    4   55 1  
    58    6   56 1  
    59    6   57 1  
    60    7   58 1  
    61    7   59 1  
    62    8   60 1  
    63    8   61 1  
    64    9   62 1  
    65    9   63 1  
    66   10   64 1  
    67   11   65 1  
    68   14   66 1  
    69   14   67 1  
    70   15   68 1  
    71   15   69 1  
    72   17   70 1  
    73   18   71 1  
    74   19   72 1  
    75   20   73 1  
    76   21   74 1  
    77   22   75 1  
    78   23   76 1  
    79   26   77 1  
    80   26   78 1  
    81   27   79 1  
    82   28   80 1  
    83   28   81 1  
    84   28   82 1  
    85   29   83 1  
    86   29   84 1  
    87   29   85 1  
    88   30   86 1  
    89   31   87 1  
    90   34   88 1  
    91   34   89 1  
    92   36   90 1  
    93   37   91 1  
    94   38   92 1  
    95   39   93 1  
    96   40   94 1  
    97   41   95 1  
    98   42   96 1  
    99   43   97 1  
   100   43   98 1  
   101   44   99 1  
   102   45  100 1  
   103   45  101 1  
   104   45  102 1  
   105   46  103 1  
   106   46  104 1  
   107   46  105 1  
   108   47  106 1  
   109   48  107 1  
   110   49  108 1  
   111   49  109 1  
   112   49  110 1  
   113   50  111 1  
   114   50  112 1  
   115   51  113 1  
   116   52  114 1  
@<TRIPOS>SUBSTRUCTURE
     1 3BV         1

