4qwi_ligand
  -I-interpret- 

114116  0  0  0  0  0  0  0  0999 V2000
   59.1380 -135.5930   31.7000 C   0  0  0  0  0
   59.9450 -134.7410   31.3290 O   0  0  0  0  0
   58.7290 -136.7840   30.8150 C   0  0  0  0  0
   58.4270 -136.4320   29.4060 N   0  3  0  0  0
   58.4600 -135.0230   27.1190 O   0  0  0  0  0
   59.6520 -136.3300   28.5690 C   0  0  0  0  0
   57.5750 -135.2200   29.2760 C   0  0  0  0  0
   59.1850 -136.2430   27.1510 C   0  0  0  0  0
   57.2160 -135.0580   27.8740 C   0  0  0  0  0
   58.5550 -135.5920   32.9010 N   0  0  0  0  0
   58.8550 -134.5740   33.9050 C   0  0  0  0  0
   60.1090 -135.0290   34.6380 C   0  0  0  0  0
   60.4460 -136.2130   34.6270 O   0  0  0  0  0
   57.7310 -134.5230   34.9090 C   0  0  0  0  0
   56.9540 -133.2570   34.6060 C   0  0  0  0  0
   55.6800 -133.3280   35.2250 C   0  0  0  0  0
   54.5650 -132.8240   34.5510 C   0  0  0  0  0
   55.4930 -133.8620   36.5080 C   0  0  0  0  0
   53.2990 -132.8680   35.1320 C   0  0  0  0  0
   54.2290 -133.9080   37.0860 C   0  0  0  0  0
   53.1290 -133.4100   36.4010 C   0  0  0  0  0
   60.7660 -134.0680   35.2920 N   0  0  0  0  0
   61.9520 -134.3850   36.0870 C   0  0  0  0  0
   61.4840 -134.6280   37.5160 C   0  0  0  0  0
   60.6700 -133.8710   38.0430 O   0  0  0  0  0
   62.9040 -133.2240   36.0960 C   0  0  0  0  0
   63.7050 -133.2990   34.7830 C   0  0  0  0  0
   64.4730 -131.9830   34.5940 C   0  0  0  0  0
   64.6930 -134.4790   34.7990 C   0  0  0  0  0
   62.0070 -135.7080   38.1110 N   0  0  0  0  0
   61.6570 -136.0570   39.4930 C   0  0  0  0  0
   62.9330 -136.0190   40.3210 C   0  0  0  0  0
   64.0370 -136.0170   39.7790 O   0  0  0  0  0
   61.0080 -137.4100   39.5500 C   0  0  0  0  0
   59.6900 -137.1930   39.1170 C   0  0  0  0  0
   59.3020 -137.5210   37.8150 C   0  0  0  0  0
   58.7520 -136.6400   39.9900 C   0  0  0  0  0
   57.9900 -137.3010   37.3950 C   0  0  0  0  0
   57.4440 -136.4170   39.5700 C   0  0  0  0  0
   57.0610 -136.7490   38.2730 C   0  0  0  0  0
   62.7230 -135.9580   41.6400 N   0  0  0  0  0
   63.7950 -135.7700   42.6170 C   0  0  0  0  0
   63.5070 -134.3700   43.1350 C   0  0  0  0  0
   64.5990 -133.3310   42.7780 C   0  0  0  0  0
   63.9830 -131.9310   42.9610 C   0  0  0  0  0
   65.1560 -133.4470   41.3450 C   0  0  0  0  0
   63.7070 -136.7440   43.8130 C   0  0  0  0  0
   64.0880 -138.2980   43.5530 C   0  0  0  0  0
   65.1190 -138.4310   42.3930 C   0  0  0  0  0
   62.8490 -139.0340   43.0230 C   0  0  0  0  0
   61.7750 -138.7580   43.9310 O   0  0  0  0  0
   62.3780 -136.6420   44.3440 O   0  0  0  0  0
   57.8157 -137.1985   31.2419 H   0  0  0  0  0
   59.5745 -137.4716   30.7967 H   0  0  0  0  0
   57.8784 -137.2121   29.0443 H   0  0  0  0  0
   60.3005 -137.1937   28.7160 H   0  0  0  0  0
   60.2418 -135.4550   28.8420 H   0  0  0  0  0
   58.1193 -134.3425   29.6252 H   0  0  0  0  0
   56.6750 -135.3304   29.8809 H   0  0  0  0  0
   60.0082 -136.2603   26.4368 H   0  0  0  0  0
   58.5781 -137.0991   26.8563 H   0  0  0  0  0
   56.5842 -135.8809   27.5395 H   0  0  0  0  0
   56.6475 -134.1401   27.7245 H   0  0  0  0  0
   57.8802 -136.3236   33.1242 H   0  0  0  0  0
   58.9838 -133.5976   33.4379 H   0  0  0  0  0
   58.1143 -134.5153   35.9294 H   0  0  0  0  0
   57.0939 -135.4041   34.8322 H   0  0  0  0  0
   56.8301 -133.1547   33.5279 H   0  0  0  0  0
   57.4984 -132.3945   34.9905 H   0  0  0  0  0
   54.6867 -132.3909   33.5582 H   0  0  0  0  0
   56.3506 -134.2465   37.0601 H   0  0  0  0  0
   52.4388 -132.4760   34.5894 H   0  0  0  0  0
   54.1015 -134.3365   38.0801 H   0  0  0  0  0
   52.1386 -133.4437   36.8550 H   0  0  0  0  0
   60.4377 -133.1039   35.2366 H   0  0  0  0  0
   62.4587 -135.2542   35.6677 H   0  0  0  0  0
   63.5677 -133.2724   36.9593 H   0  0  0  0  0
   62.3645 -132.2797   36.1686 H   0  0  0  0  0
   63.0108 -133.4543   33.9571 H   0  0  0  0  0
   63.7661 -131.1546   34.5486 H   0  0  0  0  0
   65.1527 -131.8367   35.4335 H   0  0  0  0  0
   65.0435 -132.0268   33.6663 H   0  0  0  0  0
   65.3918 -134.3549   35.6262 H   0  0  0  0  0
   64.1418 -135.4110   34.9240 H   0  0  0  0  0
   65.2426 -134.5038   33.8580 H   0  0  0  0  0
   62.6596 -136.2980   37.5949 H   0  0  0  0  0
   60.9367 -135.3442   39.8945 H   0  0  0  0  0
   61.0412 -137.8345   40.5534 H   0  0  0  0  0
   61.5268 -138.1361   38.9241 H   0  0  0  0  0
   60.0278 -137.9507   37.1246 H   0  0  0  0  0
   59.0457 -136.3811   41.0073 H   0  0  0  0  0
   57.6921 -137.5613   36.3793 H   0  0  0  0  0
   56.7184 -135.9819   40.2572 H   0  0  0  0  0
   56.0356 -136.5770   37.9457 H   0  0  0  0  0
   61.7663 -136.0471   41.9824 H   0  0  0  0  0
   64.7756 -135.9321   42.1696 H   0  0  0  0  0
   63.4602 -134.4302   44.2223 H   0  0  0  0  0
   62.5789 -134.0372   42.6703 H   0  0  0  0  0
   65.4458 -133.5165   43.4387 H   0  0  0  0  0
   63.1237 -131.8242   42.2990 H   0  0  0  0  0
   63.6635 -131.8085   43.9959 H   0  0  0  0  0
   64.7275 -131.1732   42.7171 H   0  0  0  0  0
   65.6015 -134.4324   41.2084 H   0  0  0  0  0
   64.3452 -133.3110   40.6293 H   0  0  0  0  0
   65.9137 -132.6793   41.1878 H   0  0  0  0  0
   64.4863 -136.4281   44.5065 H   0  0  0  0  0
   64.4720 -138.6961   44.4922 H   0  0  0  0  0
   64.6919 -138.0168   41.4797 H   0  0  0  0  0
   66.0267 -137.8855   42.6511 H   0  0  0  0  0
   65.3573 -139.4835   42.2393 H   0  0  0  0  0
   63.0352 -140.1062   42.9615 H   0  0  0  0  0
   62.6001 -138.6941   42.0177 H   0  0  0  0  0
   60.9802 -139.2042   43.6298 H   0  0  0  0  0
   62.2871 -137.2365   45.0923 H   0  0  0  0  0
  1  2  2  0  0  0
  3  1  1  0  0  0
  1 10  1  0  0  0
  4  3  1  0  0  0
  6  4  1  0  0  0
  4  7  1  0  0  0
  8  5  1  0  0  0
  5  9  1  0  0  0
  6  8  1  0  0  0
  7  9  1  0  0  0
 10 11  1  0  0  0
 11 12  1  0  0  0
 11 14  1  0  0  0
 12 13  2  0  0  0
 12 22  1  0  0  0
 14 15  1  0  0  0
 15 16  1  0  0  0
 16 17  4  0  0  0
 16 18  4  0  0  0
 17 19  4  0  0  0
 18 20  4  0  0  0
 19 21  4  0  0  0
 20 21  4  0  0  0
 22 23  1  0  0  0
 23 24  1  0  0  0
 23 26  1  0  0  0
 24 25  2  0  0  0
 24 30  1  0  0  0
 26 27  1  0  0  0
 27 28  1  0  0  0
 27 29  1  0  0  0
 30 31  1  0  0  0
 31 32  1  0  0  0
 31 34  1  0  0  0
 32 33  2  0  0  0
 32 41  1  0  0  0
 34 35  1  0  0  0
 35 36  4  0  0  0
 35 37  4  0  0  0
 36 38  4  0  0  0
 37 39  4  0  0  0
 38 40  4  0  0  0
 39 40  4  0  0  0
 41 42  1  0  0  0
 42 43  1  0  0  0
 42 47  1  0  0  0
 43 44  1  0  0  0
 44 45  1  0  0  0
 44 46  1  0  0  0
 47 48  1  0  0  0
 47 52  1  0  0  0
 48 49  1  0  0  0
 48 50  1  0  0  0
 50 51  1  0  0  0
  3 53  1  0  0  0
  3 54  1  0  0  0
  4 55  1  0  0  0
  6 56  1  0  0  0
  6 57  1  0  0  0
  7 58  1  0  0  0
  7 59  1  0  0  0
  8 60  1  0  0  0
  8 61  1  0  0  0
  9 62  1  0  0  0
  9 63  1  0  0  0
 10 64  1  0  0  0
 11 65  1  0  0  0
 14 66  1  0  0  0
 14 67  1  0  0  0
 15 68  1  0  0  0
 15 69  1  0  0  0
 17 70  1  0  0  0
 18 71  1  0  0  0
 19 72  1  0  0  0
 20 73  1  0  0  0
 21 74  1  0  0  0
 22 75  1  0  0  0
 23 76  1  0  0  0
 26 77  1  0  0  0
 26 78  1  0  0  0
 27 79  1  0  0  0
 28 80  1  0  0  0
 28 81  1  0  0  0
 28 82  1  0  0  0
 29 83  1  0  0  0
 29 84  1  0  0  0
 29 85  1  0  0  0
 30 86  1  0  0  0
 31 87  1  0  0  0
 34 88  1  0  0  0
 34 89  1  0  0  0
 36 90  1  0  0  0
 37 91  1  0  0  0
 38 92  1  0  0  0
 39 93  1  0  0  0
 40 94  1  0  0  0
 41 95  1  0  0  0
 42 96  1  0  0  0
 43 97  1  0  0  0
 43 98  1  0  0  0
 44 99  1  0  0  0
 45100  1  0  0  0
 45101  1  0  0  0
 45102  1  0  0  0
 46103  1  0  0  0
 46104  1  0  0  0
 46105  1  0  0  0
 47106  1  0  0  0
 48107  1  0  0  0
 49108  1  0  0  0
 49109  1  0  0  0
 49110  1  0  0  0
 50111  1  0  0  0
 50112  1  0  0  0
 51113  1  0  0  0
 52114  1  0  0  0
M  END
$$$$
