5i7u_ligand
  -I-interpret- 

 55 59  0  0  0  0  0  0  0  0999 V2000
   36.9960   49.1690   37.1540 C   0  0  0  0  0
   36.4270   47.9790   36.6050 C   0  0  0  0  0
   35.0680   48.0110   36.2180 C   0  0  0  0  0
   34.2500   49.1230   36.3540 C   0  0  0  0  0
   34.8110   50.3260   36.8960 C   0  0  0  0  0
   36.1850   50.3270   37.2980 C   0  0  0  0  0
   37.5980   48.5230   40.6170 C   0  0  0  0  0
   38.5540   49.4460   40.0060 C   0  0  0  0  0
   39.3550   50.2940   40.7840 C   0  0  0  0  0
   39.9360   50.6950   38.7960 C   0  0  0  0  0
   38.4600   49.0550   37.4630 C   0  0  0  0  0
   40.8020   52.6100   37.6810 C   0  0  0  0  0
   41.1610   53.1190   36.2740 C   0  0  0  0  0
   42.3660   52.2850   35.6930 C   0  0  0  0  0
   42.0740   50.7240   35.7630 C   0  0  0  0  0
   41.6450   50.2800   37.1750 C   0  0  0  0  0
   36.7210   51.5310   37.7900 C   0  0  0  0  0
   37.4860   48.1480   44.2400 C   0  0  0  0  0
   38.5390   49.4180   42.7200 C   0  0  0  0  0
   36.8850   47.7210   42.9090 C   0  0  0  0  0
   39.1560   49.7790   45.1360 C   0  0  0  0  0
   37.1570   52.5060   38.1880 N   0  0  0  0  0
   40.1590   51.0830   40.0430 N   0  0  0  0  0
   39.3490   50.2910   42.2000 N   0  0  0  0  0
   38.9320   49.6920   38.7270 N   0  0  0  0  0
   40.5470   51.1590   37.6730 N   0  0  0  0  0
   37.6490   48.5560   42.0000 N   0  0  0  0  0
   38.4150   49.1480   44.0490 N   0  0  0  0  0
   39.8890   52.9010   35.4540 N   0  3  0  0  0
   36.8480   47.7770   40.0330 O   0  0  0  0  0
   37.1910   47.6710   45.3350 O   0  0  0  0  0
   34.5990   46.8950   35.7010 F   0  0  0  0  0
   37.0229   47.0738   36.4881 H   0  0  0  0  0
   33.2026   49.0831   36.0550 H   0  0  0  0  0
   34.2021   51.2240   37.0001 H   0  0  0  0  0
   38.9776   49.5726   36.6554 H   0  0  0  0  0
   38.6610   47.9892   37.5716 H   0  0  0  0  0
   39.8990   53.1203   38.0159 H   0  0  0  0  0
   41.6394   52.8126   38.3487 H   0  0  0  0  0
   41.4743   54.1630   36.2640 H   0  0  0  0  0
   43.2547   52.4990   36.2868 H   0  0  0  0  0
   42.5107   52.5647   34.6495 H   0  0  0  0  0
   42.9900   50.1938   35.5025 H   0  0  0  0  0
   41.2612   50.4979   35.0728 H   0  0  0  0  0
   42.4981   50.3538   37.8494 H   0  0  0  0  0
   41.2906   49.2500   37.1355 H   0  0  0  0  0
   35.8056   47.8564   42.8411 H   0  0  0  0  0
   36.9602   46.6527   42.7059 H   0  0  0  0  0
   40.2227   49.6028   44.9972 H   0  0  0  0  0
   38.9602   50.8513   45.1330 H   0  0  0  0  0
   38.8368   49.3527   46.0870 H   0  0  0  0  0
   39.9275   50.9168   42.7605 H   0  0  0  0  0
   40.0448   53.2166   34.4966 H   0  0  0  0  0
   39.6531   51.9087   35.4520 H   0  0  0  0  0
   39.1235   53.4328   35.8683 H   0  0  0  0  0
  1  2  4  0  0  0
  1  6  4  0  0  0
 11  1  1  0  0  0
  2  3  4  0  0  0
  3  4  4  0  0  0
  3 32  1  0  0  0
  5  4  4  0  0  0
  6  5  4  0  0  0
  6 17  1  0  0  0
  7  8  1  0  0  0
 27  7  1  0  0  0
  7 30  2  0  0  0
  9  8  4  0  0  0
  8 25  4  0  0  0
  9 23  4  0  0  0
 24  9  1  0  0  0
 23 10  4  0  0  0
 25 10  4  0  0  0
 10 26  1  0  0  0
 25 11  1  0  0  0
 12 13  1  0  0  0
 26 12  1  0  0  0
 13 14  1  0  0  0
 13 29  1  0  0  0
 15 14  1  0  0  0
 16 15  1  0  0  0
 26 16  1  0  0  0
 17 22  3  0  0  0
 18 20  1  0  0  0
 28 18  1  0  0  0
 18 31  2  0  0  0
 19 24  1  0  0  0
 19 27  4  0  0  0
 19 28  4  0  0  0
 20 27  1  0  0  0
 28 21  1  0  0  0
  2 33  1  0  0  0
  4 34  1  0  0  0
  5 35  1  0  0  0
 11 36  1  0  0  0
 11 37  1  0  0  0
 12 38  1  0  0  0
 12 39  1  0  0  0
 13 40  1  0  0  0
 14 41  1  0  0  0
 14 42  1  0  0  0
 15 43  1  0  0  0
 15 44  1  0  0  0
 16 45  1  0  0  0
 16 46  1  0  0  0
 20 47  1  0  0  0
 20 48  1  0  0  0
 21 49  1  0  0  0
 21 50  1  0  0  0
 21 51  1  0  0  0
 24 52  1  0  0  0
 29 53  1  0  0  0
 29 54  1  0  0  0
 29 55  1  0  0  0
M  END
$$$$
