5alk_ligand
  -I-interpret- 

 41 43  0  0  0  0  0  0  0  0999 V2000
   16.0250   10.2830   12.2330 C   0  0  0  0  0
   17.3720    9.8670   11.9050 C   0  0  0  0  0
   17.6930    9.5640   10.4400 C   0  0  0  0  0
   16.5620    9.7090    9.5160 C   0  0  0  0  0
   15.0720   10.3530   11.1750 C   0  0  0  0  0
   15.2860   10.7090   13.4140 C   0  0  0  0  0
   18.4480    9.7560   13.0020 C   0  0  0  0  0
   19.1400    9.1270    9.9850 C   0  0  0  0  0
   19.8390    9.3160   12.6020 C   0  0  0  0  0
   20.5850   10.5770   12.2880 C   0  0  0  0  0
   20.4510    8.7130   13.8100 C   0  0  0  0  0
   15.5710    6.8890    5.8670 C   0  0  0  0  0
   16.8640    9.4320    8.1110 C   0  0  0  0  0
   16.5610    7.8810    6.4110 C   0  0  0  0  0
   15.8110    8.7320    7.3670 C   0  0  0  0  0
   15.2430   10.0770    9.9040 N   0  0  0  0  0
   14.0000   11.0250   13.0010 N   0  0  0  0  0
   13.9120   10.8100   11.6540 N   0  0  0  0  0
   15.8380   10.8080   14.6480 N   0  0  0  0  0
   19.8470    7.9880   11.2340 S   0  0  0  0  0
   18.0870    8.9824   13.6798 H   0  0  0  0  0
   18.5681   10.7681   13.3886 H   0  0  0  0  0
   19.7755   10.0077    9.8922 H   0  0  0  0  0
   19.0831    8.6222    9.0206 H   0  0  0  0  0
   21.6318   10.3404   12.0971 H   0  0  0  0  0
   20.1499   11.0447   11.4048 H   0  0  0  0  0
   20.5141   11.2600   13.1345 H   0  0  0  0  0
   19.8673    7.8451   14.1168 H   0  0  0  0  0
   21.4715    8.4044   13.5832 H   0  0  0  0  0
   20.4626    9.4477   14.6151 H   0  0  0  0  0
   15.1655    6.2956    6.6865 H   0  0  0  0  0
   14.7619    7.4218    5.3674 H   0  0  0  0  0
   16.0704    6.2329    5.1541 H   0  0  0  0  0
   17.7369    8.7793    8.1032 H   0  0  0  0  0
   16.9983   10.3985    7.6252 H   0  0  0  0  0
   16.9979    8.4792    5.6114 H   0  0  0  0  0
   17.3930    7.3768    6.9026 H   0  0  0  0  0
   15.1297    9.4192    6.8654 H   0  0  0  0  0
   15.1589    8.1500    8.0182 H   0  0  0  0  0
   16.8221   10.5781   14.7864 H   0  0  0  0  0
   15.2693   11.1124   15.4382 H   0  0  0  0  0
  2  1  4  0  0  0
  5  1  4  0  0  0
  1  6  4  0  0  0
  3  2  4  0  0  0
  2  7  1  0  0  0
  4  3  4  0  0  0
  3  8  1  0  0  0
 13  4  1  0  0  0
  4 16  4  0  0  0
 16  5  4  0  0  0
  5 18  4  0  0  0
  6 17  4  0  0  0
  6 19  1  0  0  0
  7  9  1  0  0  0
  8 20  1  0  0  0
  9 10  1  0  0  0
  9 11  1  0  0  0
 20  9  1  0  0  0
 14 12  1  0  0  0
 15 13  1  0  0  0
 14 15  1  0  0  0
 17 18  4  0  0  0
  7 21  1  0  0  0
  7 22  1  0  0  0
  8 23  1  0  0  0
  8 24  1  0  0  0
 10 25  1  0  0  0
 10 26  1  0  0  0
 10 27  1  0  0  0
 11 28  1  0  0  0
 11 29  1  0  0  0
 11 30  1  0  0  0
 12 31  1  0  0  0
 12 32  1  0  0  0
 12 33  1  0  0  0
 13 34  1  0  0  0
 13 35  1  0  0  0
 14 36  1  0  0  0
 14 37  1  0  0  0
 15 38  1  0  0  0
 15 39  1  0  0  0
 19 40  1  0  0  0
 19 41  1  0  0  0
M  END
$$$$
