4l02_ligand
  -I-interpret- 

 57 60  0  0  0  0  0  0  0  0999 V2000
   51.9390   61.2210    9.8420 C   0  0  0  0  0
   52.7650   60.1980   10.2800 C   0  0  0  0  0
   53.0770   58.8470    9.2550 Cl  0  0  0  0  0
   53.3480   60.2450   11.5390 C   0  0  0  0  0
   54.3670   58.9350   12.0230 Cl  0  0  0  0  0
   53.1130   61.3270   12.3840 C   0  0  0  0  0
   52.2810   62.3580   11.9460 C   0  0  0  0  0
   51.6960   62.3070   10.6750 C   0  0  0  0  0
   50.8580   63.3220   10.2240 C   0  0  0  0  0
   50.3920   63.3730    8.9540 N   0  0  0  0  0
   50.4270   64.3210   11.0110 C   0  0  0  0  0
   49.4370   65.3030   10.0720 S   0  0  0  0  0
   49.5950   64.4080    8.6810 C   0  0  0  0  0
   48.9930   64.7130    7.5240 N   0  0  0  0  0
   49.2020   64.1650    6.3190 C   0  0  0  0  0
   48.2590   64.4220    5.3260 C   0  0  0  0  0
   48.4160   63.8970    4.0470 C   0  0  0  0  0
   50.3160   63.3760    6.0160 C   0  0  0  0  0
   50.4740   62.8480    4.7320 C   0  0  0  0  0
   49.5210   63.1070    3.7440 C   0  0  0  0  0
   49.6640   62.5390    2.3220 C   0  0  0  0  0
   49.9850   61.0360    2.3070 C   0  0  0  0  0
   49.7290   60.4280    0.9850 N   0  3  0  0  0
   50.3830   61.2480   -0.0670 C   0  0  0  0  0
   50.1880   60.6290   -1.4590 C   0  0  0  0  0
   50.7950   59.2240   -1.4810 C   0  0  0  0  0
   50.6170   58.6340   -2.7710 O   0  0  0  0  0
   50.1120   58.3650   -0.4120 C   0  0  0  0  0
   50.2330   59.0230    0.9820 C   0  0  0  0  0
   49.4830   58.1550    2.0130 C   0  0  0  0  0
   48.1260   57.9240    1.6200 O   0  0  0  0  0
   51.4837   61.1744    8.8527 H   0  0  0  0  0
   53.5718   61.3677   13.3719 H   0  0  0  0  0
   52.0851   63.2092   12.5980 H   0  0  0  0  0
   50.6732   64.4678   12.0626 H   0  0  0  0  0
   48.2907   65.4515    7.5650 H   0  0  0  0  0
   47.3903   65.0400    5.5532 H   0  0  0  0  0
   47.6707   64.1053    3.2794 H   0  0  0  0  0
   51.0629   63.1724    6.7833 H   0  0  0  0  0
   51.3432   62.2323    4.5007 H   0  0  0  0  0
   50.4893   63.0603    1.8370 H   0  0  0  0  0
   48.7124   62.6811    1.8098 H   0  0  0  0  0
   49.3441   60.5435    3.0383 H   0  0  0  0  0
   51.0424   60.9112    2.5404 H   0  0  0  0  0
   48.7279   60.4046    0.7907 H   0  0  0  0  0
   51.4512   61.2962    0.1447 H   0  0  0  0  0
   49.9331   62.2408   -0.0627 H   0  0  0  0  0
   50.6821   61.2504   -2.2059 H   0  0  0  0  0
   49.1233   60.5688   -1.6844 H   0  0  0  0  0
   51.8628   59.2853   -1.2710 H   0  0  0  0  0
   51.0006   57.7540   -2.7748 H   0  0  0  0  0
   50.5968   57.3892   -0.3830 H   0  0  0  0  0
   49.0560   58.2658   -0.6631 H   0  0  0  0  0
   51.2876   59.0780    1.2521 H   0  0  0  0  0
   49.4802   58.6801    2.9682 H   0  0  0  0  0
   49.9890   57.1923    2.0857 H   0  0  0  0  0
   47.6901   57.3823    2.2820 H   0  0  0  0  0
  1  2  4  0  0  0
  1  8  4  0  0  0
  2  3  1  0  0  0
  2  4  4  0  0  0
  4  5  1  0  0  0
  4  6  4  0  0  0
  6  7  4  0  0  0
  7  8  4  0  0  0
  8  9  1  0  0  0
  9 10  4  0  0  0
  9 11  4  0  0  0
 10 13  4  0  0  0
 11 12  4  0  0  0
 12 13  4  0  0  0
 13 14  1  0  0  0
 14 15  1  0  0  0
 15 16  4  0  0  0
 15 18  4  0  0  0
 16 17  4  0  0  0
 17 20  4  0  0  0
 18 19  4  0  0  0
 19 20  4  0  0  0
 20 21  1  0  0  0
 21 22  1  0  0  0
 22 23  1  0  0  0
 23 24  1  0  0  0
 23 29  1  0  0  0
 24 25  1  0  0  0
 25 26  1  0  0  0
 26 27  1  0  0  0
 26 28  1  0  0  0
 28 29  1  0  0  0
 29 30  1  0  0  0
 30 31  1  0  0  0
  1 32  1  0  0  0
  6 33  1  0  0  0
  7 34  1  0  0  0
 11 35  1  0  0  0
 14 36  1  0  0  0
 16 37  1  0  0  0
 17 38  1  0  0  0
 18 39  1  0  0  0
 19 40  1  0  0  0
 21 41  1  0  0  0
 21 42  1  0  0  0
 22 43  1  0  0  0
 22 44  1  0  0  0
 23 45  1  0  0  0
 24 46  1  0  0  0
 24 47  1  0  0  0
 25 48  1  0  0  0
 25 49  1  0  0  0
 26 50  1  0  0  0
 27 51  1  0  0  0
 28 52  1  0  0  0
 28 53  1  0  0  0
 29 54  1  0  0  0
 30 55  1  0  0  0
 30 56  1  0  0  0
 31 57  1  0  0  0
M  END
$$$$
