5k13_ligand
  -I-interpret- 

 60 63  0  0  0  0  0  0  0  0999 V2000
   50.8900   -8.5950   10.1760 C   0  0  0  0  0
   49.7410   -6.0970   10.3260 C   0  0  0  0  0
   50.1570   -8.1150    9.1070 C   0  0  0  0  0
   53.3740   -9.3540   18.4930 C   0  0  0  0  0
   55.4460  -10.1960   14.0650 C   0  0  0  0  0
   56.4600  -11.1400   14.1590 C   0  0  0  0  0
   51.7060   -8.0400   13.8080 C   0  0  0  0  0
   52.8870   -9.0590   15.8190 C   0  0  0  0  0
   53.2040  -10.4970   17.7290 C   0  0  0  0  0
   51.7910   -8.3490   12.4280 C   0  0  0  0  0
   52.6040   -8.8910   14.4200 C   0  0  0  0  0
   48.7540   -6.3390    8.0510 C   0  0  0  0  0
   54.6680  -12.3390   18.5700 C   0  0  0  0  0
   57.4530  -14.0650   15.4710 C   0  0  0  0  0
   53.3040   -8.0830   17.9550 C   0  0  0  0  0
   53.0520   -7.9340   16.6050 C   0  0  0  0  0
   50.4740   -6.5670   11.4040 C   0  0  0  0  0
   54.0250  -11.8540   13.0250 C   0  0  0  0  0
   55.0380  -12.7910   13.0950 C   0  0  0  0  0
   52.9490  -10.3310   16.3750 C   0  0  0  0  0
   51.0370   -7.8240   11.3200 C   0  0  0  0  0
   49.5780   -6.8630    9.1850 C   0  0  0  0  0
   54.2370  -10.5700   13.5000 C   0  0  0  0  0
   56.2390  -12.4110   13.6650 C   0  0  0  0  0
   52.6450  -11.8260   19.7710 C   0  0  0  0  0
   52.4770  -12.9190   17.6160 C   0  0  0  0  0
   53.2530  -11.8660   18.3830 C   0  0  0  0  0
   52.6870   -9.3220   12.2240 N   0  0  0  0  0
   53.1820   -9.6360   13.4240 N   0  0  0  0  0
   48.3740   -5.1400    8.1260 O   0  0  0  0  0
   57.1810  -14.7910   13.0290 O   0  0  0  0  0
   58.7800  -12.8710   13.5180 O   0  0  0  0  0
   48.4660   -7.1430    7.1250 O   0  0  0  0  0
   57.5630  -13.6070   13.7700 S   0  0  0  0  0
   51.3530   -9.5802   10.1202 H   0  0  0  0  0
   49.2855   -5.1081   10.3776 H   0  0  0  0  0
   50.0366   -8.7202    8.2085 H   0  0  0  0  0
   53.5706   -9.4613   19.5597 H   0  0  0  0  0
   55.5981   -9.1798   14.4288 H   0  0  0  0  0
   57.4156  -10.8821   14.6155 H   0  0  0  0  0
   51.0700   -7.2930   14.2830 H   0  0  0  0  0
   55.1597  -12.4026   17.5993 H   0  0  0  0  0
   55.2045  -11.6340   19.2050 H   0  0  0  0  0
   54.6619  -13.3221   19.0408 H   0  0  0  0  0
   56.4309  -14.3672   15.6992 H   0  0  0  0  0
   58.1312  -14.8956   15.6669 H   0  0  0  0  0
   57.7293  -13.2141   16.0937 H   0  0  0  0  0
   53.4461   -7.2077   18.5889 H   0  0  0  0  0
   52.9840   -6.9395   16.1641 H   0  0  0  0  0
   50.6030   -5.9574   12.2983 H   0  0  0  0  0
   53.0600  -12.1248   12.5965 H   0  0  0  0  0
   54.8944  -13.8012   12.7117 H   0  0  0  0  0
   52.7961  -11.2055   15.7425 H   0  0  0  0  0
   53.2012  -11.1218   20.3898 H   0  0  0  0  0
   51.6048  -11.5077   19.7016 H   0  0  0  0  0
   52.6933  -12.8198   20.2162 H   0  0  0  0  0
   51.4306  -12.6210   17.5497 H   0  0  0  0  0
   52.8927  -13.0161   16.6131 H   0  0  0  0  0
   52.5519  -13.8742   18.1358 H   0  0  0  0  0
   48.7280   -4.7427    8.9250 H   0  0  0  0  0
  1  3  4  0  0  0
 21  1  4  0  0  0
 17  2  4  0  0  0
  2 22  4  0  0  0
  3 22  4  0  0  0
  9  4  4  0  0  0
 15  4  4  0  0  0
  6  5  4  0  0  0
  5 23  4  0  0  0
 24  6  4  0  0  0
  7 10  4  0  0  0
 11  7  4  0  0  0
 11  8  1  0  0  0
  8 16  4  0  0  0
  8 20  4  0  0  0
 20  9  4  0  0  0
  9 27  1  0  0  0
 10 21  1  0  0  0
 10 28  4  0  0  0
 29 11  4  0  0  0
 22 12  1  0  0  0
 12 30  1  0  0  0
 12 33  2  0  0  0
 27 13  1  0  0  0
 34 14  1  0  0  0
 16 15  4  0  0  0
 21 17  4  0  0  0
 19 18  4  0  0  0
 18 23  4  0  0  0
 24 19  4  0  0  0
 23 29  1  0  0  0
 24 34  1  0  0  0
 27 25  1  0  0  0
 27 26  1  0  0  0
 28 29  4  0  0  0
 34 31  2  0  0  0
 34 32  2  0  0  0
  1 35  1  0  0  0
  2 36  1  0  0  0
  3 37  1  0  0  0
  4 38  1  0  0  0
  5 39  1  0  0  0
  6 40  1  0  0  0
  7 41  1  0  0  0
 13 42  1  0  0  0
 13 43  1  0  0  0
 13 44  1  0  0  0
 14 45  1  0  0  0
 14 46  1  0  0  0
 14 47  1  0  0  0
 15 48  1  0  0  0
 16 49  1  0  0  0
 17 50  1  0  0  0
 18 51  1  0  0  0
 19 52  1  0  0  0
 20 53  1  0  0  0
 25 54  1  0  0  0
 25 55  1  0  0  0
 25 56  1  0  0  0
 26 57  1  0  0  0
 26 58  1  0  0  0
 26 59  1  0  0  0
 30 60  1  0  0  0
M  END
$$$$
