4lh2_ligand
  -I-interpret- 

 14 13  0  0  0  0  0  0  0  0999 V2000
   19.2870    2.1820   -3.7880 C   0  0  0  0  0
   20.2560    1.7770   -4.4800 O   0  0  0  0  0
   18.4280    2.9130   -4.3220 O   0  0  0  0  0
   19.1300    1.8250   -2.3280 C   0  0  0  0  0
   20.3060    0.9920   -1.8380 C   0  0  0  0  0
   20.0190   -0.4810   -2.0250 C   0  0  0  0  0
   19.2070   -0.8470   -2.8940 O   0  0  0  0  0
   20.5770   -1.3570   -1.3170 O   0  0  0  0  0
   20.8284    1.2294   -3.9376 H   0  0  0  0  0
   18.2162    1.2431   -2.2075 H   0  0  0  0  0
   19.0884    2.7459   -1.7463 H   0  0  0  0  0
   20.4670    1.1917   -0.7786 H   0  0  0  0  0
   21.1940    1.2574   -2.4117 H   0  0  0  0  0
   21.1725   -0.9326   -0.6950 H   0  0  0  0  0
  1  2  1  0  0  0
  1  3  2  0  0  0
  1  4  1  0  0  0
  4  5  1  0  0  0
  5  6  1  0  0  0
  6  7  2  0  0  0
  6  8  1  0  0  0
  2  9  1  0  0  0
  4 10  1  0  0  0
  4 11  1  0  0  0
  5 12  1  0  0  0
  5 13  1  0  0  0
  8 14  1  0  0  0
M  END
$$$$
