5ult_ligand
  -I-interpret- 

 81 85  0  0  0  0  0  0  0  0999 V2000
   21.1590   25.7680   15.4920 C   0  0  0  0  0
   19.7880   25.7800   15.2440 C   0  0  0  0  0
   19.2290   26.9260   14.6820 C   0  0  0  0  0
   20.0040   28.0390   14.3910 C   0  0  0  0  0
   18.5930   24.3380   19.4940 C   0  0  0  0  0
   19.6300   24.7550   20.5610 C   0  0  0  0  0
   15.7140   24.4260   17.5960 C   0  0  0  0  0
   14.6190   21.0400   17.4180 C   0  0  0  0  0
   13.6290   18.9150   17.5540 C   0  0  0  0  0
   15.3560   23.2900   16.6430 C   0  0  0  0  0
   19.0720   24.8360   18.1260 C   0  0  0  0  0
   18.4350   22.8120   19.5140 C   0  0  0  0  0
   16.8870   25.2860   17.1330 C   0  0  0  0  0
   21.9620   26.8600   15.1380 C   0  0  0  0  0
   21.3660   28.0300   14.6570 C   0  0  0  0  0
   22.0880   29.1720   14.4260 O   0  0  0  0  0
   23.3540   29.0470   15.0710 C   0  0  0  0  0
   18.7720   24.3880   15.5880 S   0  0  0  0  0
   17.6650   24.2950   14.6000 O   0  0  0  0  0
   19.6400   23.1710   15.6020 O   0  0  0  0  0
   18.1150   24.5250   17.0790 N   0  0  0  0  0
   14.5770   25.2570   17.8320 O   0  0  0  0  0
   14.4310   22.3590   17.3060 N   0  0  0  0  0
   15.6690   20.5060   17.0670 O   0  0  0  0  0
   13.6140   20.2960   17.9450 O   0  0  0  0  0
   14.6680   23.8080   15.3610 C   0  0  0  0  0
   13.0910   22.1100   14.3450 C   0  0  0  0  0
   12.8270   20.9800   13.5860 C   0  0  0  0  0
   13.8510   20.3740   12.8690 C   0  0  0  0  0
   15.1400   20.8990   12.9510 C   0  0  0  0  0
   15.4160   22.0070   13.7390 C   0  0  0  0  0
   14.3850   22.6100   14.4480 C   0  0  0  0  0
   13.4180   18.0730   18.8080 C   0  0  0  0  0
   12.6730   16.8430   18.2890 C   0  0  0  0  0
   11.6420   17.5010   17.3800 C   0  0  0  0  0
   10.6750   18.2700   18.2720 C   0  0  0  0  0
   10.5070   19.5850   17.7600 O   0  0  0  0  0
   11.4360   19.7540   16.6830 C   0  0  0  0  0
   12.4190   18.6010   16.6790 C   0  0  0  0  0
   12.4400   18.8420   19.7090 C   0  0  0  0  0
   11.1470   18.2280   19.6220 O   0  0  0  0  0
   21.6124   24.8982   15.9673 H   0  0  0  0  0
   18.1607   26.9483   14.4666 H   0  0  0  0  0
   19.5419   28.9233   13.9521 H   0  0  0  0  0
   17.6189   24.7802   19.7031 H   0  0  0  0  0
   20.5956   24.3101   20.3207 H   0  0  0  0  0
   19.7215   25.8411   20.5719 H   0  0  0  0  0
   19.3018   24.4069   21.5404 H   0  0  0  0  0
   16.0316   23.9411   18.5191 H   0  0  0  0  0
   14.5660   18.7118   17.0355 H   0  0  0  0  0
   16.2877   22.7942   16.3706 H   0  0  0  0  0
   20.0140   24.3410   17.8898 H   0  0  0  0  0
   19.1890   25.9186   18.1752 H   0  0  0  0  0
   17.7039   22.5138   18.7626 H   0  0  0  0  0
   19.3952   22.3457   19.2936 H   0  0  0  0  0
   18.0941   22.4962   20.5000 H   0  0  0  0  0
   17.0180   26.1018   17.8439 H   0  0  0  0  0
   16.6677   25.6581   16.1322 H   0  0  0  0  0
   23.0457   26.7980   15.2370 H   0  0  0  0  0
   23.2029   28.9126   16.1421 H   0  0  0  0  0
   23.8829   28.1841   14.6663 H   0  0  0  0  0
   23.9402   29.9491   14.8958 H   0  0  0  0  0
   14.8191   25.9656   18.4327 H   0  0  0  0  0
   13.5805   22.7494   17.7117 H   0  0  0  0  0
   15.3159   24.5212   14.8514 H   0  0  0  0  0
   13.7358   24.3124   15.6151 H   0  0  0  0  0
   12.2759   22.6118   14.8665 H   0  0  0  0  0
   11.8184   20.5682   13.5520 H   0  0  0  0  0
   13.6493   19.4995   12.2504 H   0  0  0  0  0
   15.9456   20.4304   12.3857 H   0  0  0  0  0
   16.4308   22.4000   13.8010 H   0  0  0  0  0
   14.3379   17.8414   19.3448 H   0  0  0  0  0
   12.2413   16.2213   19.0734 H   0  0  0  0  0
   13.3110   16.1171   17.7848 H   0  0  0  0  0
   11.1426   16.7820   16.7306 H   0  0  0  0  0
    9.6857   17.8125   18.2744 H   0  0  0  0  0
   11.9762   20.6918   16.8127 H   0  0  0  0  0
   10.8956   19.7743   15.7366 H   0  0  0  0  0
   12.7744   18.3668   15.6755 H   0  0  0  0  0
   12.3774   19.8802   19.3830 H   0  0  0  0  0
   12.7914   18.8162   20.7405 H   0  0  0  0  0
  2  1  4  0  0  0
  1 14  4  0  0  0
  2  3  4  0  0  0
 18  2  1  0  0  0
  3  4  4  0  0  0
  4 15  4  0  0  0
  5  6  1  0  0  0
 11  5  1  0  0  0
  5 12  1  0  0  0
 10  7  1  0  0  0
  7 13  1  0  0  0
  7 22  1  0  0  0
 23  8  1  0  0  0
  8 24  2  0  0  0
  8 25  1  0  0  0
 25  9  1  0  0  0
  9 33  1  0  0  0
  9 39  1  0  0  0
 10 23  1  0  0  0
 26 10  1  0  0  0
 21 11  1  0  0  0
 13 21  1  0  0  0
 14 15  4  0  0  0
 15 16  1  0  0  0
 16 17  1  0  0  0
 18 19  2  0  0  0
 18 20  2  0  0  0
 21 18  1  0  0  0
 32 26  1  0  0  0
 27 28  4  0  0  0
 27 32  4  0  0  0
 28 29  4  0  0  0
 29 30  4  0  0  0
 30 31  4  0  0  0
 31 32  4  0  0  0
 33 34  1  0  0  0
 33 40  1  0  0  0
 34 35  1  0  0  0
 35 36  1  0  0  0
 35 39  1  0  0  0
 36 37  1  0  0  0
 36 41  1  0  0  0
 37 38  1  0  0  0
 38 39  1  0  0  0
 40 41  1  0  0  0
  1 42  1  0  0  0
  3 43  1  0  0  0
  4 44  1  0  0  0
  5 45  1  0  0  0
  6 46  1  0  0  0
  6 47  1  0  0  0
  6 48  1  0  0  0
  7 49  1  0  0  0
  9 50  1  0  0  0
 10 51  1  0  0  0
 11 52  1  0  0  0
 11 53  1  0  0  0
 12 54  1  0  0  0
 12 55  1  0  0  0
 12 56  1  0  0  0
 13 57  1  0  0  0
 13 58  1  0  0  0
 14 59  1  0  0  0
 17 60  1  0  0  0
 17 61  1  0  0  0
 17 62  1  0  0  0
 22 63  1  0  0  0
 23 64  1  0  0  0
 26 65  1  0  0  0
 26 66  1  0  0  0
 27 67  1  0  0  0
 28 68  1  0  0  0
 29 69  1  0  0  0
 30 70  1  0  0  0
 31 71  1  0  0  0
 33 72  1  0  0  0
 34 73  1  0  0  0
 34 74  1  0  0  0
 35 75  1  0  0  0
 36 76  1  0  0  0
 38 77  1  0  0  0
 38 78  1  0  0  0
 39 79  1  0  0  0
 40 80  1  0  0  0
 40 81  1  0  0  0
M  END
$$$$
