4mro_ligand
  -I-interpret- 

 50 52  0  0  0  0  0  0  0  0999 V2000
   -4.2430   49.0180  -15.5330 C   0  0  0  0  0
   -5.5930   49.0640  -15.7530 C   0  0  0  0  0
   -6.4310   48.3470  -14.9050 C   0  0  0  0  0
   -7.7340   48.3890  -15.1060 N   0  0  0  0  0
   -5.9280   47.6110  -13.8810 N   0  0  0  0  0
   -4.6140   47.5390  -13.6680 C   0  0  0  0  0
   -3.7340   48.2620  -14.4800 C   0  0  0  0  0
   -2.0070   48.1350  -14.2670 S   0  0  0  0  0
   -1.3750   49.4250  -14.7010 O   0  0  0  0  0
   -1.7010   47.7240  -12.8970 O   0  0  0  0  0
   -1.4510   46.9390  -15.1840 N   0  0  0  0  0
   -1.5740   47.2530  -16.5720 C   0  0  0  0  0
   -0.8940   46.1530  -17.3650 C   0  0  0  0  0
   -2.2820   45.7640  -14.9010 C   0  0  0  0  0
   -1.8420   44.4990  -15.7050 C   0  0  0  0  0
   -1.3470   44.8010  -17.0420 N   0  0  0  0  0
   -1.0410   43.7840  -17.9440 C   0  0  0  0  0
   -0.6370   44.0690  -19.2640 C   0  0  0  0  0
   -0.3430   43.0780  -20.1980 C   0  0  0  0  0
   -1.0970   42.4780  -17.5920 C   0  0  0  0  0
   -0.7750   41.4570  -18.5050 C   0  0  0  0  0
   -0.3940   41.7450  -19.8170 C   0  0  0  0  0
   -0.0150   40.6090  -20.7570 C   0  0  0  0  0
    1.3080   40.8580  -21.4430 C   0  0  0  0  0
    1.6660   39.7490  -22.1410 F   0  0  0  0  0
    2.1890   41.1710  -20.4930 F   0  0  0  0  0
    1.1920   41.8820  -22.2720 F   0  0  0  0  0
   -1.1050   40.3370  -21.7640 C   0  0  0  0  0
   -2.2040   40.0290  -21.0850 F   0  0  0  0  0
   -1.2180   41.4270  -22.5740 F   0  0  0  0  0
   -0.7960   39.2620  -22.4760 F   0  0  0  0  0
    0.2350   39.4820  -19.9870 O   0  0  0  0  0
   -3.5660   49.5733  -16.1822 H   0  0  0  0  0
   -6.0031   49.6501  -16.5754 H   0  0  0  0  0
   -8.1139   48.9417  -15.8745 H   0  0  0  0  0
   -8.3616   47.8688  -14.4929 H   0  0  0  0  0
   -4.2256   46.9171  -12.8615 H   0  0  0  0  0
   -1.1048   48.2139  -16.7832 H   0  0  0  0  0
   -2.6256   47.3221  -16.8502 H   0  0  0  0  0
    0.1684   46.1983  -17.1255 H   0  0  0  0  0
   -1.1301   46.3253  -18.4151 H   0  0  0  0  0
   -3.3053   46.0028  -15.1907 H   0  0  0  0  0
   -2.1833   45.5346  -13.8400 H   0  0  0  0  0
   -2.7190   43.8615  -15.8173 H   0  0  0  0  0
   -1.0282   44.0279  -15.1537 H   0  0  0  0  0
   -0.5507   45.1122  -19.5678 H   0  0  0  0  0
   -0.0751   43.3477  -21.2196 H   0  0  0  0  0
   -1.3982   42.2115  -16.5789 H   0  0  0  0  0
   -0.8241   40.4175  -18.1807 H   0  0  0  0  0
    0.4765   38.7511  -20.5606 H   0  0  0  0  0
  1  2  4  0  0  0
  1  7  4  0  0  0
  2  3  4  0  0  0
  3  4  1  0  0  0
  3  5  4  0  0  0
  5  6  4  0  0  0
  6  7  4  0  0  0
  7  8  1  0  0  0
  8  9  2  0  0  0
  8 10  2  0  0  0
  8 11  1  0  0  0
 11 12  1  0  0  0
 11 14  1  0  0  0
 12 13  1  0  0  0
 13 16  1  0  0  0
 14 15  1  0  0  0
 15 16  1  0  0  0
 16 17  1  0  0  0
 17 18  4  0  0  0
 17 20  4  0  0  0
 18 19  4  0  0  0
 19 22  4  0  0  0
 20 21  4  0  0  0
 21 22  4  0  0  0
 22 23  1  0  0  0
 23 24  1  0  0  0
 23 28  1  0  0  0
 23 32  1  0  0  0
 24 25  1  0  0  0
 24 26  1  0  0  0
 24 27  1  0  0  0
 28 29  1  0  0  0
 28 30  1  0  0  0
 28 31  1  0  0  0
  1 33  1  0  0  0
  2 34  1  0  0  0
  4 35  1  0  0  0
  4 36  1  0  0  0
  6 37  1  0  0  0
 12 38  1  0  0  0
 12 39  1  0  0  0
 13 40  1  0  0  0
 13 41  1  0  0  0
 14 42  1  0  0  0
 14 43  1  0  0  0
 15 44  1  0  0  0
 15 45  1  0  0  0
 18 46  1  0  0  0
 19 47  1  0  0  0
 20 48  1  0  0  0
 21 49  1  0  0  0
 32 50  1  0  0  0
M  END
$$$$
