### 
### Created by X-TOOL on Mon Sep 10 21:13:31 2018
### 

@<TRIPOS>MOLECULE
5TG5_LIGAND
   28    29     1     0     0
SMALL
GAST_HUCK


@<TRIPOS>ATOM
      1 C1          3.5230   32.0280  -15.1230 C.ar      1 JW8         0.0004
      2 C2          3.1480   32.2730  -13.7890 C.ar      1 JW8        -0.1449
      3 C3          2.0320   31.6320  -13.2120 C.ar      1 JW8        -0.1686
      4 C4          1.2470   30.7180  -13.9360 C.ar      1 JW8        -0.1677
      5 C5          1.5900   30.5110  -15.2850 C.ar      1 JW8        -0.1686
      6 C6          2.7150   31.1420  -15.8610 C.ar      1 JW8        -0.1449
      7 B7         -0.0300   30.0950  -13.3020 B         1 JW8         3.0000
      8 O8         -0.4460   30.7150  -11.9920 O.3       1 JW8        -0.8710
      9 O9         -1.1650   30.0200  -14.2950 O.3       1 JW8        -0.8710
     10 S10         4.8150   32.7570  -15.8210 S.o2      1 JW8         0.0362
     11 N11         6.0340   31.8620  -16.1340 N.am      1 JW8        -0.2402
     12 C12         6.2050   30.8240  -17.1390 C.3       1 JW8         0.0305
     13 C13         7.6690   30.8390  -16.6850 C.3       1 JW8        -0.0188
     14 C14         7.3830   31.8720  -15.5880 C.3       1 JW8         0.0305
     15 O15         4.3820   33.2570  -17.0970 O.2       1 JW8        -0.1576
     16 O16         5.2180   33.8750  -15.0130 O.2       1 JW8        -0.1576
     17 H           3.7315   32.9720  -13.1898 H         1 JW8         0.0060
     18 H           1.7712   31.8513  -12.1766 H         1 JW8         0.0043
     19 H           0.9757   29.8509  -15.8974 H         1 JW8         0.0043
     20 H           2.9637   30.9380  -16.9025 H         1 JW8         0.0060
     21 H          -1.1476   30.1904  -11.5995 H         1 JW8        -0.1290
     22 H          -1.4887   30.9053  -14.4768 H         1 JW8        -0.1290
     23 H           5.8989   30.9404  -18.1786 H         1 JW8         0.0478
     24 H           5.5982   29.9193  -17.1751 H         1 JW8         0.0478
     25 H           8.4426   31.0582  -17.4209 H         1 JW8         0.0296
     26 H           8.1397   29.8963  -16.4058 H         1 JW8         0.0296
     27 H           7.6045   31.7042  -14.5340 H         1 JW8         0.0478
     28 H           7.9686   32.7814  -15.4534 H         1 JW8         0.0478
@<TRIPOS>BOND
     1    1    2 ar 
     2    1    6 ar 
     3    1   10 1  
     4    2    3 ar 
     5    3    4 ar 
     6    4    5 ar 
     7    4    7 1  
     8    5    6 ar 
     9    7    8 1  
    10    7    9 1  
    11   10   11 am 
    12   10   15 2  
    13   10   16 2  
    14   11   12 1  
    15   11   14 1  
    16   12   13 1  
    17   13   14 1  
    18    2   17 1  
    19    3   18 1  
    20    5   19 1  
    21    6   20 1  
    22    8   21 1  
    23    9   22 1  
    24   12   23 1  
    25   12   24 1  
    26   13   25 1  
    27   13   26 1  
    28   14   27 1  
    29   14   28 1  
@<TRIPOS>SUBSTRUCTURE
     1 JW8         1

