5TG5_LIGAND
  -I-interpret- 

 28 29  0  0  0  0  0  0  0  0999 V2000
    3.5230   32.0280  -15.1230 C   0  0  0  0  0
    3.1480   32.2730  -13.7890 C   0  0  0  0  0
    2.0320   31.6320  -13.2120 C   0  0  0  0  0
    1.2470   30.7180  -13.9360 C   0  0  0  0  0
    1.5900   30.5110  -15.2850 C   0  0  0  0  0
    2.7150   31.1420  -15.8610 C   0  0  0  0  0
   -0.0300   30.0950  -13.3020 B   0  0  0  0  0
   -0.4460   30.7150  -11.9920 O   0  0  0  0  0
   -1.1650   30.0200  -14.2950 O   0  0  0  0  0
    4.8150   32.7570  -15.8210 S   0  0  0  0  0
    6.0340   31.8620  -16.1340 N   0  0  0  0  0
    6.2050   30.8240  -17.1390 C   0  0  0  0  0
    7.6690   30.8390  -16.6850 C   0  0  0  0  0
    7.3830   31.8720  -15.5880 C   0  0  0  0  0
    4.3820   33.2570  -17.0970 O   0  0  0  0  0
    5.2180   33.8750  -15.0130 O   0  0  0  0  0
    3.7315   32.9720  -13.1898 H   0  0  0  0  0
    1.7712   31.8513  -12.1766 H   0  0  0  0  0
    0.9757   29.8509  -15.8974 H   0  0  0  0  0
    2.9637   30.9380  -16.9025 H   0  0  0  0  0
    0.3073   30.7398  -11.3975 H   0  0  0  0  0
   -0.8507   29.6196  -15.1089 H   0  0  0  0  0
    5.8989   30.9404  -18.1786 H   0  0  0  0  0
    5.5982   29.9193  -17.1751 H   0  0  0  0  0
    8.4426   31.0582  -17.4209 H   0  0  0  0  0
    8.1397   29.8963  -16.4058 H   0  0  0  0  0
    7.6045   31.7042  -14.5340 H   0  0  0  0  0
    7.9686   32.7814  -15.4534 H   0  0  0  0  0
  1  2  4  0  0  0
  1  6  4  0  0  0
  1 10  1  0  0  0
  2  3  4  0  0  0
  3  4  4  0  0  0
  4  5  4  0  0  0
  4  7  1  0  0  0
  5  6  4  0  0  0
  7  8  1  0  0  0
  7  9  1  0  0  0
 10 11  1  0  0  0
 10 15  2  0  0  0
 10 16  2  0  0  0
 11 12  1  0  0  0
 11 14  1  0  0  0
 12 13  1  0  0  0
 13 14  1  0  0  0
  2 17  1  0  0  0
  3 18  1  0  0  0
  5 19  1  0  0  0
  6 20  1  0  0  0
  8 21  1  0  0  0
  9 22  1  0  0  0
 12 23  1  0  0  0
 12 24  1  0  0  0
 13 25  1  0  0  0
 13 26  1  0  0  0
 14 27  1  0  0  0
 14 28  1  0  0  0
M  END
$$$$
