6s9x_ligand
  -I-interpret- 

 88 94  0  0  0  0  0  0  0  0999 V2000
    1.5030   -0.2750   15.3510 C   0  0  0  0  0
    2.4460   -0.6280   16.3040 C   0  0  0  0  0
    4.0420    0.7810   15.1960 C   0  0  0  0  0
    3.0630    1.1230   14.2390 C   0  0  0  0  0
    5.3590    1.2410   15.2210 C   0  0  0  0  0
    3.3320    2.0060   13.1770 C   0  0  0  0  0
    5.8170    1.9020   16.3540 C   0  0  0  0  0
    7.1270    2.3650   16.4190 C   0  0  0  0  0
    7.9890    2.1540   15.3510 C   0  0  0  0  0
    7.5350    1.4850   14.2190 C   0  0  0  0  0
    6.2260    1.0220   14.1540 C   0  0  0  0  0
    3.9130    3.2520   13.4020 C   0  0  0  0  0
    4.1870    4.1140   12.3480 C   0  0  0  0  0
    3.8730    3.7680   11.0390 C   0  0  0  0  0
    3.2940    2.5260   10.7960 C   0  0  0  0  0
    3.0240    1.6580   11.8610 C   0  0  0  0  0
    4.1780    4.6590   10.0020 C   0  0  0  0  0
    2.2690    6.0260    9.6480 C   0  0  0  0  0
    1.1510    6.4360    8.7040 C   0  0  0  0  0
    1.7230    6.8940    7.3590 C   0  0  0  0  0
    2.5970    5.7940    6.7980 C   0  0  0  0  0
    3.6680    5.4540    7.8220 C   0  0  0  0  0
   -0.5260    6.7130    6.1590 C   0  0  0  0  0
   -0.4210    8.3770    4.8400 C   0  0  0  0  0
    0.7180    8.3390    5.5470 C   0  0  0  0  0
   -0.6420    9.3120    3.9200 C   0  0  0  0  0
    0.3080   10.2850    3.6680 C   0  0  0  0  0
    1.4820   10.2650    4.4040 C   0  0  0  0  0
    1.6710    9.2550    5.3460 C   0  0  0  0  0
    2.1610   12.4770    4.4140 C   0  0  0  0  0
    3.2860   13.4290    4.0040 C   0  0  0  0  0
    3.3310   13.4710    2.4550 C   0  0  0  0  0
    0.2470   -0.8760   15.5110 C   0  0  0  0  0
   -0.8210   -0.3510   14.7870 C   0  0  0  0  0
   -0.8770   -0.4130   13.4000 C   0  0  0  0  0
   -1.9780    0.1030   12.7230 C   0  0  0  0  0
   -3.0370    0.6640   13.4260 C   0  0  0  0  0
   -2.9910    0.7110   14.8140 C   0  0  0  0  0
   -1.8880    0.1970   15.4880 C   0  0  0  0  0
    3.7200   -0.0950   16.2270 N   0  0  0  0  0
    1.8290    0.5750   14.3490 N   0  0  0  0  0
    3.0770    4.9460    9.0700 N   0  3  0  0  0
    0.6510    7.2970    6.3850 N   0  0  0  0  0
   -1.1920    7.3670    5.2240 N   0  0  0  0  0
    2.4120   11.1860    4.1500 N   0  0  0  0  0
    1.1390   12.9020    4.9490 O   0  0  0  0  0
   -0.9760    5.7200    6.7290 O   0  0  0  0  0
    2.1650   -1.4060   17.2160 O   0  0  0  0  0
   -4.1130    1.1660   12.7620 O   0  0  0  0  0
    5.1451    2.0588   17.1978 H   0  0  0  0  0
    7.4763    2.8925   17.3066 H   0  0  0  0  0
    9.0176    2.5113   15.3995 H   0  0  0  0  0
    8.2095    1.3230   13.3783 H   0  0  0  0  0
    5.8789    0.4884   13.2692 H   0  0  0  0  0
    4.1562    3.5549   14.4204 H   0  0  0  0  0
    4.6557    5.0770   12.5506 H   0  0  0  0  0
    3.0505    2.2288    9.7760 H   0  0  0  0  0
    2.5639    0.6909   11.6582 H   0  0  0  0  0
    4.9687    4.1926    9.4143 H   0  0  0  0  0
    4.4406    5.6060   10.4735 H   0  0  0  0  0
    1.8274    5.6718   10.5795 H   0  0  0  0  0
    2.9123    6.8883    9.8230 H   0  0  0  0  0
    0.5955    7.2604    9.1510 H   0  0  0  0  0
    0.4975    5.5797    8.5370 H   0  0  0  0  0
    2.3233    7.7885    7.5249 H   0  0  0  0  0
    3.0631    6.1274    5.8708 H   0  0  0  0  0
    1.9927    4.9118    6.5868 H   0  0  0  0  0
    4.2294    6.3603    8.0491 H   0  0  0  0  0
    4.3123    4.6803    7.4045 H   0  0  0  0  0
   -1.5778    9.3113    3.3612 H   0  0  0  0  0
    0.1375   11.0487    2.9092 H   0  0  0  0  0
    2.5969    9.2119    5.9195 H   0  0  0  0  0
    4.2396   13.0807    4.4008 H   0  0  0  0  0
    3.1024   14.4261    4.4042 H   0  0  0  0  0
    3.5240   12.4693    2.0711 H   0  0  0  0  0
    2.3744   13.8292    2.0746 H   0  0  0  0  0
    4.1261   14.1439    2.1340 H   0  0  0  0  0
    0.1104   -1.7259   16.1797 H   0  0  0  0  0
   -0.0578   -0.8662   12.8417 H   0  0  0  0  0
   -2.0097    0.0668   11.6341 H   0  0  0  0  0
   -3.8173    1.1496   15.3734 H   0  0  0  0  0
   -1.8606    0.2245   16.5773 H   0  0  0  0  0
    4.4214   -0.3438   16.9245 H   0  0  0  0  0
    1.1214    0.8108   13.6532 H   0  0  0  0  0
    2.5132    4.1129    8.9014 H   0  0  0  0  0
   -2.1197    7.1397    4.8662 H   0  0  0  0  0
    3.3115   10.9098    3.7562 H   0  0  0  0  0
   -4.7459    1.5118   13.3957 H   0  0  0  0  0
  1  2  1  0  0  0
  1 33  2  0  0  0
 41  1  1  0  0  0
 40  2  1  0  0  0
  2 48  2  0  0  0
  4  3  2  0  0  0
  3  5  1  0  0  0
  3 40  1  0  0  0
  6  4  1  0  0  0
  4 41  1  0  0  0
  5  7  4  0  0  0
  5 11  4  0  0  0
 12  6  4  0  0  0
 16  6  4  0  0  0
  7  8  4  0  0  0
  8  9  4  0  0  0
 10  9  4  0  0  0
 11 10  4  0  0  0
 13 12  4  0  0  0
 14 13  4  0  0  0
 14 15  4  0  0  0
 17 14  1  0  0  0
 15 16  4  0  0  0
 42 17  1  0  0  0
 19 18  1  0  0  0
 18 42  1  0  0  0
 20 19  1  0  0  0
 20 21  1  0  0  0
 43 20  1  0  0  0
 21 22  1  0  0  0
 22 42  1  0  0  0
 43 23  1  0  0  0
 23 44  1  0  0  0
 23 47  2  0  0  0
 25 24  4  0  0  0
 26 24  4  0  0  0
 24 44  1  0  0  0
 29 25  4  0  0  0
 25 43  1  0  0  0
 27 26  4  0  0  0
 28 27  4  0  0  0
 28 29  4  0  0  0
 45 28  1  0  0  0
 30 31  1  0  0  0
 30 45  1  0  0  0
 30 46  2  0  0  0
 31 32  1  0  0  0
 33 34  1  0  0  0
 34 35  4  0  0  0
 34 39  4  0  0  0
 35 36  4  0  0  0
 36 37  4  0  0  0
 37 38  4  0  0  0
 37 49  1  0  0  0
 38 39  4  0  0  0
  7 50  1  0  0  0
  8 51  1  0  0  0
  9 52  1  0  0  0
 10 53  1  0  0  0
 11 54  1  0  0  0
 12 55  1  0  0  0
 13 56  1  0  0  0
 15 57  1  0  0  0
 16 58  1  0  0  0
 17 59  1  0  0  0
 17 60  1  0  0  0
 18 61  1  0  0  0
 18 62  1  0  0  0
 19 63  1  0  0  0
 19 64  1  0  0  0
 20 65  1  0  0  0
 21 66  1  0  0  0
 21 67  1  0  0  0
 22 68  1  0  0  0
 22 69  1  0  0  0
 26 70  1  0  0  0
 27 71  1  0  0  0
 29 72  1  0  0  0
 31 73  1  0  0  0
 31 74  1  0  0  0
 32 75  1  0  0  0
 32 76  1  0  0  0
 32 77  1  0  0  0
 33 78  1  0  0  0
 35 79  1  0  0  0
 36 80  1  0  0  0
 38 81  1  0  0  0
 39 82  1  0  0  0
 40 83  1  0  0  0
 41 84  1  0  0  0
 42 85  1  0  0  0
 44 86  1  0  0  0
 45 87  1  0  0  0
 49 88  1  0  0  0
M  END
$$$$
