5d7c_ligand
  -I-interpret- 

 45 48  0  0  0  0  0  0  0  0999 V2000
    7.8860    7.5210   -2.6730 O   0  0  0  0  0
   11.7710    8.2120   -1.5600 C   0  0  0  0  0
    5.8440    2.2110    0.1060 C   0  0  0  0  0
    5.9680    4.1810   -0.9080 C   0  0  0  0  0
    4.6230    4.0480   -1.4890 C   0  0  0  0  0
    5.4800    6.0590   -2.1760 C   0  0  0  0  0
    6.4320    5.5240   -1.3770 C   0  0  0  0  0
    8.3830    6.9030   -1.7600 C   0  0  0  0  0
   10.3180    8.3900   -1.8710 C   0  0  0  0  0
    9.6270    7.1960   -1.3370 N   0  0  0  0  0
    4.5840    1.9530   -0.4150 C   0  0  0  0  0
    3.9850    2.8750   -1.1590 C   0  0  0  0  0
    2.0040   -0.6630    0.4070 C   0  0  0  0  0
    7.7350    5.9110   -1.0440 N   0  0  0  0  0
    2.8340   -1.7710    0.5630 C   0  0  0  0  0
    4.6710   -0.4400    0.0940 C   0  0  0  0  0
    3.8850    0.6600   -0.0420 C   0  0  0  0  0
    6.5840    3.3070   -0.1160 N   0  0  0  0  0
    2.5240    0.5830    0.1050 C   0  0  0  0  0
    4.1350   -1.7150    0.3370 N   0  0  0  0  0
    4.4400    5.1610   -2.2310 N   0  0  0  0  0
    3.3000    5.4340   -2.9270 C   0  0  0  0  0
    3.0910    6.6920   -3.4420 N   0  0  0  0  0
    1.9930    7.1290   -4.1370 C   0  0  0  0  0
    1.0180    6.1850   -4.2910 C   0  0  0  0  0
    1.1930    4.8780   -3.8830 C   0  0  0  0  0
    2.3790    4.4610   -3.2310 C   0  0  0  0  0
   11.9034    8.1338   -0.4809 H   0  0  0  0  0
   12.1350    7.3030   -2.0388 H   0  0  0  0  0
   12.3292    9.0700   -1.9346 H   0  0  0  0  0
    6.2732    1.4501    0.7579 H   0  0  0  0  0
    5.5285    7.0231   -2.6822 H   0  0  0  0  0
   10.1570    8.4875   -2.9446 H   0  0  0  0  0
    9.9299    9.3020   -1.4174 H   0  0  0  0  0
   10.0903    6.5983   -0.6525 H   0  0  0  0  0
    2.9697    2.6994   -1.5146 H   0  0  0  0  0
    0.9267   -0.7797    0.5249 H   0  0  0  0  0
    8.2125    5.4572   -0.2652 H   0  0  0  0  0
    2.3954   -2.7164    0.8824 H   0  0  0  0  0
    5.7522   -0.3292    0.0118 H   0  0  0  0  0
    1.8847    1.4583   -0.0101 H   0  0  0  0  0
    1.9058    8.1411   -4.5321 H   0  0  0  0  0
    0.0723    6.4727   -4.7504 H   0  0  0  0  0
    0.4015    4.1514   -4.0666 H   0  0  0  0  0
    2.5534    3.4144   -2.9814 H   0  0  0  0  0
  8  1  2  0  0  0
  9  2  1  0  0  0
 11  3  4  0  0  0
  3 18  4  0  0  0
  5  4  4  0  0  0
  4  7  4  0  0  0
 18  4  4  0  0  0
 12  5  4  0  0  0
  5 21  4  0  0  0
  6  7  4  0  0  0
 21  6  4  0  0  0
  7 14  1  0  0  0
  8 10  1  0  0  0
 14  8  1  0  0  0
 10  9  1  0  0  0
 11 12  4  0  0  0
 17 11  1  0  0  0
 15 13  4  0  0  0
 13 19  4  0  0  0
 20 15  4  0  0  0
 16 17  4  0  0  0
 16 20  4  0  0  0
 17 19  4  0  0  0
 21 22  1  0  0  0
 22 23  4  0  0  0
 22 27  4  0  0  0
 23 24  4  0  0  0
 24 25  4  0  0  0
 25 26  4  0  0  0
 26 27  4  0  0  0
  2 28  1  0  0  0
  2 29  1  0  0  0
  2 30  1  0  0  0
  3 31  1  0  0  0
  6 32  1  0  0  0
  9 33  1  0  0  0
  9 34  1  0  0  0
 10 35  1  0  0  0
 12 36  1  0  0  0
 13 37  1  0  0  0
 14 38  1  0  0  0
 15 39  1  0  0  0
 16 40  1  0  0  0
 19 41  1  0  0  0
 24 42  1  0  0  0
 25 43  1  0  0  0
 26 44  1  0  0  0
 27 45  1  0  0  0
M  END
$$$$
