1vyq_ligand
  -I-interpret- 

 60 64  0  0  0  0  0  0  0  0999 V2000
   37.8290   -8.9620  -12.6150 F   0  0  0  0  0
   37.3800   -9.6380  -11.5560 C   0  0  0  0  0
   36.2180  -10.5470  -11.9640 C   0  0  0  0  0
   36.5220  -11.8020  -11.1630 C   0  0  0  0  0
   35.9400  -11.8400   -9.8170 N   0  0  0  0  0
   35.8490  -13.1040   -9.1740 C   0  0  0  0  0
   35.3030  -13.1860   -7.9360 N   0  0  0  0  0
   34.8650  -12.0830   -7.2780 C   0  0  0  0  0
   34.9510  -10.8210   -7.8630 C   0  0  0  0  0
   35.4940  -10.7320   -9.1490 C   0  0  0  0  0
   34.4020  -12.1570   -6.1310 O   0  0  0  0  0
   36.2720  -14.1170   -9.7800 O   0  0  0  0  0
   37.9440  -11.8280  -10.9840 O   0  0  0  0  0
   38.5220  -10.5050  -11.0940 C   0  0  0  0  0
   39.1520   -9.9530   -9.8220 C   0  0  0  0  0
   40.5210  -10.4390   -9.6660 O   0  0  0  0  0
   41.1400  -10.5420   -8.3480 C   0  0  0  0  0
   41.7220   -9.1670   -8.0130 C   0  0  0  0  0
   41.5580   -8.0490   -8.8700 C   0  0  0  0  0
   42.1120   -6.8100   -8.5390 C   0  0  0  0  0
   42.8720   -6.6580   -7.3740 C   0  0  0  0  0
   43.0660   -7.7530   -6.5360 C   0  0  0  0  0
   42.4930   -8.9990   -6.8430 C   0  0  0  0  0
   40.0380  -11.0310   -7.4310 C   0  0  0  0  0
   39.5480  -10.2750   -6.3650 C   0  0  0  0  0
   38.5090  -10.7520   -5.5640 C   0  0  0  0  0
   37.9090  -11.9710   -5.8420 C   0  0  0  0  0
   38.3690  -12.7440   -6.9040 C   0  0  0  0  0
   39.4220  -12.2750   -7.7040 C   0  0  0  0  0
   42.2870  -11.5390   -8.4740 C   0  0  0  0  0
   43.1010  -11.5630   -9.6240 C   0  0  0  0  0
   44.1740  -12.4790   -9.7290 C   0  0  0  0  0
   44.4400  -13.4070   -8.7110 C   0  0  0  0  0
   43.6470  -13.3850   -7.5640 C   0  0  0  0  0
   42.5930  -12.4660   -7.4560 C   0  0  0  0  0
   37.0344   -8.9553  -10.7797 H   0  0  0  0  0
   36.1541  -10.7191  -13.0384 H   0  0  0  0  0
   35.2363  -10.1220  -11.7547 H   0  0  0  0  0
   36.0982  -12.6405  -11.7156 H   0  0  0  0  0
   35.2194  -14.0987   -7.4883 H   0  0  0  0  0
   34.6062   -9.9318   -7.3353 H   0  0  0  0  0
   35.5636   -9.7567   -9.6307 H   0  0  0  0  0
   39.3675  -10.5326  -11.7813 H   0  0  0  0  0
   38.5627  -10.2835   -8.9666 H   0  0  0  0  0
   39.1708   -8.8649   -9.8834 H   0  0  0  0  0
   40.9940   -8.1576   -9.7964 H   0  0  0  0  0
   41.9508   -5.9539   -9.1942 H   0  0  0  0  0
   43.3084   -5.6908   -7.1246 H   0  0  0  0  0
   43.6677   -7.6428   -5.6338 H   0  0  0  0  0
   42.6455   -9.8436   -6.1711 H   0  0  0  0  0
   39.9830   -9.2979   -6.1549 H   0  0  0  0  0
   38.1668  -10.1620   -4.7138 H   0  0  0  0  0
   37.0787  -12.3231   -5.2299 H   0  0  0  0  0
   37.9124  -13.7113   -7.1137 H   0  0  0  0  0
   39.7691  -12.8755   -8.5448 H   0  0  0  0  0
   42.9020  -10.8690  -10.4406 H   0  0  0  0  0
   44.8057  -12.4635  -10.6172 H   0  0  0  0  0
   45.2493  -14.1298   -8.8144 H   0  0  0  0  0
   43.8465  -14.0827   -6.7507 H   0  0  0  0  0
   41.9868  -12.4683   -6.5501 H   0  0  0  0  0
  1  2  1  0  0  0
  2  3  1  0  0  0
  2 14  1  0  0  0
  3  4  1  0  0  0
  4  5  1  0  0  0
  4 13  1  0  0  0
  5  6  1  0  0  0
  5 10  1  0  0  0
  6  7  1  0  0  0
  6 12  2  0  0  0
  7  8  1  0  0  0
  8  9  1  0  0  0
  8 11  2  0  0  0
  9 10  2  0  0  0
 13 14  1  0  0  0
 14 15  1  0  0  0
 15 16  1  0  0  0
 16 17  1  0  0  0
 17 18  1  0  0  0
 17 24  1  0  0  0
 17 30  1  0  0  0
 18 19  4  0  0  0
 18 23  4  0  0  0
 19 20  4  0  0  0
 20 21  4  0  0  0
 21 22  4  0  0  0
 22 23  4  0  0  0
 24 25  4  0  0  0
 24 29  4  0  0  0
 25 26  4  0  0  0
 26 27  4  0  0  0
 27 28  4  0  0  0
 28 29  4  0  0  0
 30 31  4  0  0  0
 30 35  4  0  0  0
 31 32  4  0  0  0
 32 33  4  0  0  0
 33 34  4  0  0  0
 34 35  4  0  0  0
  2 36  1  0  0  0
  3 37  1  0  0  0
  3 38  1  0  0  0
  4 39  1  0  0  0
  7 40  1  0  0  0
  9 41  1  0  0  0
 10 42  1  0  0  0
 14 43  1  0  0  0
 15 44  1  0  0  0
 15 45  1  0  0  0
 19 46  1  0  0  0
 20 47  1  0  0  0
 21 48  1  0  0  0
 22 49  1  0  0  0
 23 50  1  0  0  0
 25 51  1  0  0  0
 26 52  1  0  0  0
 27 53  1  0  0  0
 28 54  1  0  0  0
 29 55  1  0  0  0
 31 56  1  0  0  0
 32 57  1  0  0  0
 33 58  1  0  0  0
 34 59  1  0  0  0
 35 60  1  0  0  0
M  END
$$$$
