4rrq_ligand
  -I-interpret- 

 45 47  0  0  0  0  0  0  0  0999 V2000
   25.9600    6.5750   -3.4680 O   0  0  0  0  0
   25.3730    7.8040   -3.9060 C   0  0  0  0  0
   24.2520    7.5170   -4.9090 C   0  0  0  0  0
   24.7680    6.7550   -6.0150 O   0  0  0  0  0
   23.9440    5.5940   -6.2190 C   0  0  0  0  0
   24.7300    4.4050   -5.8140 N   0  0  0  0  0
   24.2760    3.2420   -5.3520 C   0  0  0  0  0
   23.0570    2.7900   -5.0190 N   0  0  0  0  0
   22.8880    1.5550   -4.5760 C   0  0  0  0  0
   23.9120    0.7260   -4.4510 N   0  0  0  0  0
   25.1590    1.1070   -4.7640 C   0  0  0  0  0
   26.1770    0.2560   -4.6570 N   0  0  0  0  0
   25.3720    2.4000   -5.2280 C   0  0  0  0  0
   26.4490    3.0790   -5.6090 N   0  0  0  0  0
   26.0500    4.2980   -5.9600 C   0  0  0  0  0
   22.6540    5.8450   -5.4350 C   0  0  0  0  0
   21.7750    6.6620   -6.2130 O   0  0  0  0  0
   23.1950    6.6350   -4.2460 C   0  0  0  0  0
   22.1690    7.4800   -3.6160 N   0  0  0  0  0
   19.4280    7.3890   -1.1960 N   0  3  0  0  0
   20.4260    8.0990   -2.0090 C   0  0  0  0  0
   21.1340    9.1480   -1.1480 C   0  0  0  0  0
   20.1810   10.1080   -0.6830 O   0  0  0  0  0
   21.4540    7.1070   -2.5590 C   0  0  0  0  0
   21.5730    5.8980   -1.9490 O   0  0  0  0  0
   26.6614    6.7626   -2.8399 H   0  0  0  0  0
   26.1365    8.4166   -4.3854 H   0  0  0  0  0
   24.9602    8.3320   -3.0464 H   0  0  0  0  0
   23.8387    8.4695   -5.2407 H   0  0  0  0  0
   23.6538    5.4058   -7.2527 H   0  0  0  0  0
   21.8876    1.2142   -4.3092 H   0  0  0  0  0
   26.0129   -0.6975   -4.3340 H   0  0  0  0  0
   27.1212    0.5574   -4.8980 H   0  0  0  0  0
   26.7062    5.0927   -6.3149 H   0  0  0  0  0
   22.0907    4.9512   -5.1668 H   0  0  0  0  0
   21.4422    6.1541   -6.9565 H   0  0  0  0  0
   23.5615    5.9896   -3.4477 H   0  0  0  0  0
   21.9964    8.4039   -4.0123 H   0  0  0  0  0
   18.9573    6.6905   -1.7712 H   0  0  0  0  0
   19.8935    6.9291   -0.4135 H   0  0  0  0  0
   18.7432    8.0565   -0.8411 H   0  0  0  0  0
   19.9242    8.5903   -2.8426 H   0  0  0  0  0
   21.8954    9.6519   -1.7434 H   0  0  0  0  0
   21.6030    8.6595   -0.2939 H   0  0  0  0  0
   20.6272   10.7647   -0.1434 H   0  0  0  0  0
  2  1  1  0  0  0
  3  2  1  0  0  0
  3  4  1  0  0  0
 18  3  1  0  0  0
  5  4  1  0  0  0
  5  6  1  0  0  0
 16  5  1  0  0  0
  6  7  4  0  0  0
  6 15  4  0  0  0
  7  8  4  0  0  0
  7 13  4  0  0  0
  8  9  4  0  0  0
  9 10  4  0  0  0
 11 10  4  0  0  0
 11 12  1  0  0  0
 13 11  4  0  0  0
 14 13  4  0  0  0
 15 14  4  0  0  0
 16 17  1  0  0  0
 18 16  1  0  0  0
 19 18  1  0  0  0
 24 19  1  0  0  0
 21 20  1  0  0  0
 21 22  1  0  0  0
 21 24  1  0  0  0
 22 23  1  0  0  0
 24 25  2  0  0  0
  1 26  1  0  0  0
  2 27  1  0  0  0
  2 28  1  0  0  0
  3 29  1  0  0  0
  5 30  1  0  0  0
  9 31  1  0  0  0
 12 32  1  0  0  0
 12 33  1  0  0  0
 15 34  1  0  0  0
 16 35  1  0  0  0
 17 36  1  0  0  0
 18 37  1  0  0  0
 19 38  1  0  0  0
 20 39  1  0  0  0
 20 40  1  0  0  0
 20 41  1  0  0  0
 21 42  1  0  0  0
 22 43  1  0  0  0
 22 44  1  0  0  0
 23 45  1  0  0  0
M  END
$$$$
