4ura_ligand
  -I-interpret- 

 19 20  0  0  0  0  0  0  0  0999 V2000
  -24.4790  -22.3290  -25.9670 O   0  0  0  0  0
  -24.4460  -22.0310  -24.7870 C   0  0  0  0  0
  -23.2830  -21.8460  -24.1130 O   0  0  0  0  0
  -25.5980  -21.8590  -23.9460 C   0  0  0  0  0
  -26.5860  -22.8360  -23.9930 C   0  0  0  0  0
  -25.6370  -20.7470  -23.0830 C   0  0  0  0  0
  -26.7640  -20.6870  -22.2440 C   0  0  0  0  0
  -27.7020  -21.6690  -22.2920 N   0  0  0  0  0
  -27.6390  -22.6940  -23.1170 C   0  0  0  0  0
  -27.0200  -19.6210  -21.2380 C   0  0  0  0  0
  -28.2860  -19.4080  -20.6030 N   0  0  0  0  0
  -28.2570  -18.3660  -19.8470 N   0  0  0  0  0
  -26.9990  -17.8130  -19.9100 N   0  0  0  0  0
  -26.1900  -18.5730  -20.7800 C   0  0  0  0  0
  -23.4760  -21.6184  -23.2006 H   0  0  0  0  0
  -26.5299  -23.6731  -24.6889 H   0  0  0  0  0
  -24.8529  -19.9900  -23.0665 H   0  0  0  0  0
  -28.4325  -23.4412  -23.1061 H   0  0  0  0  0
  -25.1479  -18.3910  -21.0428 H   0  0  0  0  0
  1  2  2  0  0  0
  2  3  1  0  0  0
  2  4  1  0  0  0
  4  5  4  0  0  0
  4  6  4  0  0  0
  5  9  4  0  0  0
  6  7  4  0  0  0
  7  8  4  0  0  0
  7 10  1  0  0  0
  8  9  4  0  0  0
 10 11  4  0  0  0
 10 14  4  0  0  0
 11 12  4  0  0  0
 12 13  4  0  0  0
 13 14  4  0  0  0
  3 15  1  0  0  0
  5 16  1  0  0  0
  6 17  1  0  0  0
  9 18  1  0  0  0
 14 19  1  0  0  0
M  END
$$$$
