6fns_ligand
  -I-interpret- 

 31 32  0  0  0  0  0  0  0  0999 V2000
    9.1200   16.3470   15.7270 N   0  3  0  0  0
    8.1440   14.9910   13.9850 C   0  0  0  0  0
    8.4820   14.7350   12.8390 O   0  0  0  0  0
    9.6140   17.3190   14.7880 C   0  0  0  0  0
   10.8500   18.1620   15.0830 C   0  0  0  0  0
   11.5110   17.7970   16.2630 O   0  0  0  0  0
   10.5850   17.6220   17.2930 C   0  0  0  0  0
    9.7600   16.3910   17.0160 C   0  0  0  0  0
    9.1830   15.0470   15.1000 C   0  0  0  0  0
    6.9720   15.2230   14.2360 O   0  0  0  0  0
    8.9190   13.9020   16.0700 C   0  0  0  0  0
    8.9400   12.5420   15.4010 C   0  0  0  0  0
    9.7800   12.1030   14.3950 C   0  0  0  0  0
    9.4490   10.7930   14.1050 N   0  0  0  0  0
    8.4250   10.4180   14.9230 C   0  0  0  0  0
    8.1110   11.5010   15.7310 N   0  0  0  0  0
    8.1507   16.5729   15.9500 H   0  0  0  0  0
    9.4288   14.5787   12.8132 H   0  0  0  0  0
    8.8095   18.0520   14.7272 H   0  0  0  0  0
    9.9092   16.7198   13.9267 H   0  0  0  0  0
   10.5205   19.1945   15.1996 H   0  0  0  0  0
   11.5487   18.0161   14.2592 H   0  0  0  0  0
    9.9329   18.4936   17.3499 H   0  0  0  0  0
   11.1106   17.5039   18.2406 H   0  0  0  0  0
   10.4463   15.5449   17.0495 H   0  0  0  0  0
    8.9617   16.3804   17.7581 H   0  0  0  0  0
   10.1958   14.9211   14.7172 H   0  0  0  0  0
    7.9254   14.0482   16.4937 H   0  0  0  0  0
    9.7086   13.9146   16.8213 H   0  0  0  0  0
   10.5652   12.6871   13.9150 H   0  0  0  0  0
    7.9399    9.4420   14.9393 H   0  0  0  0  0
  1  4  1  0  0  0
  1  8  1  0  0  0
  9  1  1  0  0  0
  2  3  1  0  0  0
  2  9  1  0  0  0
  2 10  2  0  0  0
  4  5  1  0  0  0
  5  6  1  0  0  0
  6  7  1  0  0  0
  7  8  1  0  0  0
  9 11  1  0  0  0
 11 12  1  0  0  0
 12 13  4  0  0  0
 12 16  4  0  0  0
 13 14  4  0  0  0
 14 15  4  0  0  0
 15 16  4  0  0  0
  1 17  1  0  0  0
  3 18  1  0  0  0
  4 19  1  0  0  0
  4 20  1  0  0  0
  5 21  1  0  0  0
  5 22  1  0  0  0
  7 23  1  0  0  0
  7 24  1  0  0  0
  8 25  1  0  0  0
  8 26  1  0  0  0
  9 27  1  0  0  0
 11 28  1  0  0  0
 11 29  1  0  0  0
 13 30  1  0  0  0
 15 31  1  0  0  0
M  END
$$$$
