### 
### Created by X-TOOL on Mon Sep 10 21:13:24 2018
### 

@<TRIPOS>MOLECULE
4xyn_ligand
  158   159     1     0     0
SMALL
GAST_HUCK


@<TRIPOS>ATOM
      1 N         -22.5650   36.1130  -24.0520 N.4       1 ARG         0.2379
      2 CA        -23.1410   37.4010  -23.7100 C.3       1 ARG         0.0651
      3 C         -24.5290   37.2520  -23.0810 C.2       1 ARG         0.2268
      4 O         -25.4060   36.5830  -23.6510 O.2       1 ARG        -0.3907
      5 CB        -23.2250   38.2900  -24.9670 C.3       1 ARG         0.0110
      6 CG        -22.8520   39.7450  -24.6970 C.3       1 ARG        -0.0125
      7 CD        -22.7680   40.6010  -25.9490 C.3       1 ARG         0.0629
      8 NE        -21.5170   40.4450  -26.7120 N.pl3     1 ARG        -0.2723
      9 CZ        -21.2720   41.0860  -27.8680 C.cat     1 ARG         0.2882
     10 NH1       -20.1120   40.9340  -28.5280 N.pl3     1 ARG        -0.2849
     11 NH2       -22.2030   41.9020  -28.3640 N.pl3     1 ARG        -0.2849
     12 N         -24.7320   37.8760  -21.9150 N.am      1 THR        -0.2586
     13 CA        -26.0770   38.0490  -21.3500 C.3       1 THR         0.1566
     14 C         -26.3910   39.4660  -20.8030 C.2       1 THR         0.2065
     15 O         -25.4870   40.2540  -20.5420 O.2       1 THR        -0.3943
     16 CB        -26.3050   37.0470  -20.2340 C.3       1 THR         0.0924
     17 OG1       -25.6130   37.4410  -19.0600 O.3       1 THR        -0.3874
     18 CG2       -25.7930   35.6950  -20.6420 C.3       1 THR        -0.0346
     19 N         -27.6850   39.7760  -20.6480 N.am      1 GLU        -0.2635
     20 CA        -28.1230   41.0670  -20.1080 C.3       1 GLU         0.1325
     21 C         -27.6720   41.1100  -18.6630 C.2       1 GLU         0.2040
     22 O         -27.7500   40.1150  -17.9670 O.2       1 GLU        -0.3944
     23 CB        -29.6530   41.2730  -20.2160 C.3       1 GLU        -0.0008
     24 CG        -30.2500   41.3540  -21.6580 C.3       1 GLU         0.0044
     25 CD        -31.8110   41.3780  -21.7030 C.2       1 GLU         0.0350
     26 OE1       -32.4490   40.6640  -20.8850 O.co2     1 GLU        -0.5690
     27 OE2       -32.4070   42.1030  -22.5590 O.co2     1 GLU        -0.5690
     28 N         -27.1580   42.2490  -18.2250 N.am      1 ALA        -0.2640
     29 CA        -26.5220   42.3290  -16.9270 C.3       1 ALA         0.1282
     30 C         -27.5130   42.2340  -15.7890 C.2       1 ALA         0.2037
     31 O         -27.1720   41.7620  -14.7050 O.2       1 ALA        -0.3944
     32 CB        -25.7570   43.5980  -16.8090 C.3       1 ALA        -0.0244
     33 N         -28.7410   42.6870  -16.0090 N.am      1 TRP        -0.2627
     34 CA        -29.7110   42.7070  -14.9110 C.3       1 TRP         0.1352
     35 C         -30.2140   41.2900  -14.5730 C.2       1 TRP         0.2052
     36 O         -30.7230   41.0550  -13.4880 O.2       1 TRP        -0.3942
     37 CB        -30.8850   43.6430  -15.2400 C.3       1 TRP         0.0042
     38 CG        -31.5610   43.2470  -16.4580 C.2       1 TRP        -0.0418
     39 CD1       -31.3000   43.6710  -17.7190 C.2       1 TRP         0.0167
     40 CD2       -32.6070   42.3030  -16.5510 C.ar      1 TRP        -0.0214
     41 NE1       -32.1420   43.0510  -18.6100 N.pl3     1 TRP        -0.2890
     42 CE2       -32.9540   42.1990  -17.9110 C.ar      1 TRP         0.0603
     43 CE3       -33.2980   41.5300  -15.6080 C.ar      1 TRP        -0.0747
     44 CZ2       -33.9590   41.3560  -18.3570 C.ar      1 TRP        -0.0443
     45 CZ3       -34.2900   40.6880  -16.0500 C.ar      1 TRP        -0.0792
     46 CH2       -34.6200   40.6120  -17.4130 C.ar      1 TRP        -0.0768
     47 N         -30.0400   40.3280  -15.4670 N.am      1 LYS        -0.2636
     48 CA        -30.4630   38.9730  -15.1510 C.3       1 LYS         0.1310
     49 C         -29.5470   38.2680  -14.1290 C.2       1 LYS         0.2039
     50 O         -29.9090   37.2030  -13.6060 O.2       1 LYS        -0.3944
     51 CB        -30.5450   38.1430  -16.4220 C.3       1 LYS        -0.0122
     52 CG        -31.5410   38.6430  -17.4450 C.3       1 LYS        -0.0440
     53 CD        -31.1800   38.1010  -18.8180 C.3       1 LYS        -0.0124
     54 CE        -32.3780   37.7570  -19.6430 C.3       1 LYS        -0.0354
     55 NZ        -32.4640   36.2680  -19.7690 N.4       1 LYS         0.2185
     56 N         -28.3710   38.8420  -13.8450 N.am      1 VAL        -0.2635
     57 CA        -27.4180   38.1850  -12.9450 C.3       1 VAL         0.1332
     58 C         -28.0030   38.1350  -11.5610 C.2       1 VAL         0.2041
     59 O         -28.5050   39.1530  -11.0590 O.2       1 VAL        -0.3944
     60 CB        -26.0210   38.9010  -12.8460 C.3       1 VAL        -0.0063
     61 CG1       -25.2260   38.8190  -14.1730 C.3       1 VAL        -0.0584
     62 CG2       -26.1710   40.3340  -12.3130 C.3       1 VAL        -0.0584
     63 N         -27.9370   36.9740  -10.9140 N.am      1 LEU        -0.2637
     64 CA        -28.5700   36.8970   -9.6060 C.3       1 LEU         0.1312
     65 C         -27.5940   36.4860   -8.5200 C.2       1 LEU         0.2034
     66 O         -27.2550   37.3120   -7.6580 O.2       1 LEU        -0.3944
     67 CB        -29.7810   35.9510   -9.6580 C.3       1 LEU        -0.0101
     68 CG        -30.9680   36.2680   -8.7300 C.3       1 LEU        -0.0425
     69 CD1       -31.3790   37.7470   -8.7360 C.3       1 LEU        -0.0625
     70 CD2       -32.1680   35.4200   -9.1200 C.3       1 LEU        -0.0625
     71 N         -27.1380   35.2340   -8.5910 N.am      1 SER        -0.2672
     72 CA        -26.5180   34.5190   -7.4600 C.3       1 SER         0.1173
     73 C         -27.2050   33.1420   -7.3290 C.2       1 SER         0.0623
     74 O         -27.1700   32.4950   -6.2730 O.co2     1 SER        -0.5665
     75 CB        -26.6130   35.3120   -6.1260 C.3       1 SER         0.0789
     76 OG        -26.1380   34.5490   -5.0220 O.3       1 SER        -0.3910
     77 OXT       -27.8190   32.6280   -8.2750 O.co2     1 SER        -0.5665
     78 H1        -21.6546   36.2504  -24.4622 H         1 ARG         0.2015
     79 H2        -23.1634   35.6420  -24.7124 H         1 ARG         0.2015
     80 H3        -22.4770   35.5524  -23.2189 H         1 ARG         0.2015
     81 H4        -22.4816   37.8900  -22.9778 H         1 ARG         0.1098
     82 H5        -24.2556   38.2581  -25.3502 H         1 ARG         0.0347
     83 H6        -22.5387   37.8879  -25.7268 H         1 ARG         0.0347
     84 H7        -21.8720   39.7645  -24.1977 H         1 ARG         0.0302
     85 H8        -23.6118   40.1795  -24.0307 H         1 ARG         0.0302
     86 H9        -22.8596   41.6559  -25.6510 H         1 ARG         0.0689
     87 H10       -23.6076   40.3315  -26.6066 H         1 ARG         0.0689
     88 H11       -20.7936   39.8127  -26.3408 H         1 ARG         0.2642
     89 H12       -19.9525   41.4382  -29.4119 H         1 ARG         0.2615
     90 H13       -19.3820   40.3132  -28.1502 H         1 ARG         0.2615
     91 H14       -23.0964   42.0266  -27.8668 H         1 ARG         0.2615
     92 H15       -22.0286   42.4076  -29.2443 H         1 ARG         0.2615
     93 H16       -23.9450   38.2352  -21.4134 H         1 THR         0.1885
     94 H17       -26.7952   37.8413  -22.1569 H         1 THR         0.0826
     95 H18       -27.3825   36.9847  -20.0215 H         1 THR         0.0639
     96 H19       -25.7674   36.8027  -18.3735 H         1 THR         0.2101
     97 H20       -25.9633   34.9770  -19.8262 H         1 THR         0.0257
     98 H21       -24.7157   35.7597  -20.8546 H         1 THR         0.0257
     99 H22       -26.3252   35.3582  -21.5439 H         1 THR         0.0257
    100 H23       -28.3768   39.1031  -20.9099 H         1 GLU         0.1883
    101 H24       -27.6287   41.8746  -20.6678 H         1 GLU         0.0801
    102 H25       -29.9002   42.2123  -19.6997 H         1 GLU         0.0330
    103 H26       -30.1398   40.4321  -19.7005 H         1 GLU         0.0330
    104 H27       -29.9018   40.4784  -22.2255 H         1 GLU         0.0433
    105 H28       -29.8768   42.2722  -22.1350 H         1 GLU         0.0433
    106 H29       -27.2099   43.0660  -18.7993 H         1 ALA         0.1883
    107 H30       -25.8199   41.4867  -16.8406 H         1 ALA         0.0797
    108 H31       -25.2788   43.6472  -15.8196 H         1 ALA         0.0277
    109 H32       -26.4411   44.4510  -16.9284 H         1 ALA         0.0277
    110 H33       -24.9849   43.6348  -17.5916 H         1 ALA         0.0277
    111 H34       -29.0024   43.0124  -16.9177 H         1 TRP         0.1884
    112 H35       -29.2019   43.1033  -14.0201 H         1 TRP         0.0815
    113 H36       -30.5014   44.6667  -15.3620 H         1 TRP         0.0397
    114 H37       -31.6048   43.6178  -14.4086 H         1 TRP         0.0397
    115 H38       -30.5342   44.3975  -17.9867 H         1 TRP         0.0795
    116 H39       -32.1593   43.2014  -19.6288 H         1 TRP         0.2216
    117 H40       -33.0553   41.5949  -14.5535 H         1 TRP         0.0540
    118 H41       -34.2125   41.2872  -19.4087 H         1 TRP         0.0541
    119 H42       -34.8259   40.0732  -15.3359 H         1 TRP         0.0510
    120 H43       -35.4175   39.9484  -17.7271 H         1 TRP         0.0530
    121 H44       -29.6212   40.5319  -16.3519 H         1 LYS         0.1883
    122 H45       -31.4696   39.0329  -14.7114 H         1 LYS         0.0800
    123 H46       -30.8275   37.1172  -16.1428 H         1 LYS         0.0312
    124 H47       -29.5495   38.1348  -16.8898 H         1 LYS         0.0312
    125 H48       -31.5201   39.7425  -17.4688 H         1 LYS         0.0269
    126 H49       -32.5499   38.3013  -17.1706 H         1 LYS         0.0269
    127 H50       -30.5716   37.1938  -18.6880 H         1 LYS         0.0317
    128 H51       -30.5932   38.8626  -19.3525 H         1 LYS         0.0317
    129 H52       -32.2812   38.2077  -20.6417 H         1 LYS         0.0813
    130 H53       -33.2860   38.1399  -19.1543 H         1 LYS         0.0813
    131 H54       -33.2692   36.0237  -20.3241 H         1 LYS         0.1994
    132 H55       -32.5508   35.8577  -18.8524 H         1 LYS         0.1994
    133 H56       -31.6300   35.9198  -20.2154 H         1 LYS         0.1994
    134 H57       -28.1407   39.7267  -14.2504 H         1 VAL         0.1883
    135 H58       -27.2560   37.1601  -13.3100 H         1 VAL         0.0802
    136 H59       -25.4330   38.3485  -12.0983 H         1 VAL         0.0343
    137 H60       -24.2602   39.3319  -14.0541 H         1 VAL         0.0234
    138 H61       -25.8016   39.3028  -14.9758 H         1 VAL         0.0234
    139 H62       -25.0516   37.7641  -14.4314 H         1 VAL         0.0234
    140 H63       -26.7429   40.3177  -11.3735 H         1 VAL         0.0234
    141 H64       -26.7027   40.9475  -13.0552 H         1 VAL         0.0234
    142 H65       -25.1750   40.7628  -12.1286 H         1 VAL         0.0234
    143 H66       -27.4700   36.1842  -11.3117 H         1 LEU         0.1883
    144 H67       -28.9387   37.9023   -9.3541 H         1 LEU         0.0800
    145 H68       -29.4231   34.9426   -9.4032 H         1 LEU         0.0315
    146 H69       -30.1593   35.9557  -10.6909 H         1 LEU         0.0315
    147 H70       -30.6700   36.0049   -7.7043 H         1 LEU         0.0298
    148 H71       -32.2285   37.8942   -8.0528 H         1 LEU         0.0232
    149 H72       -31.6721   38.0420   -9.7544 H         1 LEU         0.0232
    150 H73       -30.5310   38.3646   -8.4050 H         1 LEU         0.0232
    151 H74       -31.8824   34.3577   -9.1183 H         1 LEU         0.0232
    152 H75       -32.5081   35.7066  -10.1261 H         1 LEU         0.0232
    153 H76       -32.9817   35.5820   -8.3978 H         1 LEU         0.0232
    154 H77       -27.2217   34.7518   -9.4631 H         1 SER         0.1876
    155 H78       -25.4529   34.3645   -7.6872 H         1 SER         0.0749
    156 H79       -27.6641   35.5817   -5.9463 H         1 SER         0.0599
    157 H80       -26.0091   36.2273   -6.2122 H         1 SER         0.0599
    158 H81       -26.6584   33.7587   -4.9374 H         1 SER         0.2096
@<TRIPOS>BOND
     1    1    2 1  
     2    2    3 1  
     3    2    5 1  
     4    3    4 2  
     5    3   12 am 
     6    5    6 1  
     7    6    7 1  
     8    7    8 1  
     9    8    9 ar 
    10    9   10 ar 
    11    9   11 ar 
    12   12   13 1  
    13   13   14 1  
    14   13   16 1  
    15   14   15 2  
    16   14   19 am 
    17   16   17 1  
    18   16   18 1  
    19   19   20 1  
    20   20   21 1  
    21   20   23 1  
    22   21   22 2  
    23   21   28 am 
    24   23   24 1  
    25   24   25 1  
    26   25   26 ar 
    27   25   27 ar 
    28   28   29 1  
    29   29   30 1  
    30   29   32 1  
    31   30   31 2  
    32   30   33 am 
    33   33   34 1  
    34   34   35 1  
    35   34   37 1  
    36   35   36 2  
    37   35   47 am 
    38   37   38 1  
    39   38   39 2  
    40   38   40 1  
    41   39   41 1  
    42   40   42 ar 
    43   40   43 ar 
    44   41   42 1  
    45   42   44 ar 
    46   43   45 ar 
    47   44   46 ar 
    48   45   46 ar 
    49   47   48 1  
    50   48   49 1  
    51   48   51 1  
    52   49   50 2  
    53   49   56 am 
    54   51   52 1  
    55   52   53 1  
    56   53   54 1  
    57   54   55 1  
    58   56   57 1  
    59   57   58 1  
    60   57   60 1  
    61   58   59 2  
    62   58   63 am 
    63   60   61 1  
    64   60   62 1  
    65   63   64 1  
    66   64   65 1  
    67   64   67 1  
    68   65   66 2  
    69   65   71 am 
    70   67   68 1  
    71   68   69 1  
    72   68   70 1  
    73   71   72 1  
    74   72   73 1  
    75   72   75 1  
    76   73   74 ar 
    77   73   77 ar 
    78   75   76 1  
    79    1   78 1  
    80    1   79 1  
    81    1   80 1  
    82    2   81 1  
    83    5   82 1  
    84    5   83 1  
    85    6   84 1  
    86    6   85 1  
    87    7   86 1  
    88    7   87 1  
    89    8   88 1  
    90   10   89 1  
    91   10   90 1  
    92   11   91 1  
    93   11   92 1  
    94   12   93 1  
    95   13   94 1  
    96   16   95 1  
    97   17   96 1  
    98   18   97 1  
    99   18   98 1  
   100   18   99 1  
   101   19  100 1  
   102   20  101 1  
   103   23  102 1  
   104   23  103 1  
   105   24  104 1  
   106   24  105 1  
   107   28  106 1  
   108   29  107 1  
   109   32  108 1  
   110   32  109 1  
   111   32  110 1  
   112   33  111 1  
   113   34  112 1  
   114   37  113 1  
   115   37  114 1  
   116   39  115 1  
   117   41  116 1  
   118   43  117 1  
   119   44  118 1  
   120   45  119 1  
   121   46  120 1  
   122   47  121 1  
   123   48  122 1  
   124   51  123 1  
   125   51  124 1  
   126   52  125 1  
   127   52  126 1  
   128   53  127 1  
   129   53  128 1  
   130   54  129 1  
   131   54  130 1  
   132   55  131 1  
   133   55  132 1  
   134   55  133 1  
   135   56  134 1  
   136   57  135 1  
   137   60  136 1  
   138   61  137 1  
   139   61  138 1  
   140   61  139 1  
   141   62  140 1  
   142   62  141 1  
   143   62  142 1  
   144   63  143 1  
   145   64  144 1  
   146   67  145 1  
   147   67  146 1  
   148   68  147 1  
   149   69  148 1  
   150   69  149 1  
   151   69  150 1  
   152   70  151 1  
   153   70  152 1  
   154   70  153 1  
   155   71  154 1  
   156   72  155 1  
   157   75  156 1  
   158   75  157 1  
   159   76  158 1  
@<TRIPOS>SUBSTRUCTURE
     1 ARG         1

