4xyn_ligand
  -I-interpret- 

158159  0  0  0  0  0  0  0  0999 V2000
  -22.5650   36.1130  -24.0520 N   0  3  0  0  0
  -23.1410   37.4010  -23.7100 C   0  0  0  0  0
  -24.5290   37.2520  -23.0810 C   0  0  0  0  0
  -25.4060   36.5830  -23.6510 O   0  0  0  0  0
  -23.2250   38.2900  -24.9670 C   0  0  0  0  0
  -22.8520   39.7450  -24.6970 C   0  0  0  0  0
  -22.7680   40.6010  -25.9490 C   0  0  0  0  0
  -21.5170   40.4450  -26.7120 N   0  0  0  0  0
  -21.2720   41.0860  -27.8680 C   0  0  0  0  0
  -20.1120   40.9340  -28.5280 N   0  0  0  0  0
  -22.2030   41.9020  -28.3640 N   0  0  0  0  0
  -24.7320   37.8760  -21.9150 N   0  0  0  0  0
  -26.0770   38.0490  -21.3500 C   0  0  0  0  0
  -26.3910   39.4660  -20.8030 C   0  0  0  0  0
  -25.4870   40.2540  -20.5420 O   0  0  0  0  0
  -26.3050   37.0470  -20.2340 C   0  0  0  0  0
  -25.6130   37.4410  -19.0600 O   0  0  0  0  0
  -25.7930   35.6950  -20.6420 C   0  0  0  0  0
  -27.6850   39.7760  -20.6480 N   0  0  0  0  0
  -28.1230   41.0670  -20.1080 C   0  0  0  0  0
  -27.6720   41.1100  -18.6630 C   0  0  0  0  0
  -27.7500   40.1150  -17.9670 O   0  0  0  0  0
  -29.6530   41.2730  -20.2160 C   0  0  0  0  0
  -30.2500   41.3540  -21.6580 C   0  0  0  0  0
  -31.8110   41.3780  -21.7030 C   0  0  0  0  0
  -32.4490   40.6640  -20.8850 O   0  0  0  0  0
  -32.4070   42.1030  -22.5590 O   0  0  0  0  0
  -27.1580   42.2490  -18.2250 N   0  0  0  0  0
  -26.5220   42.3290  -16.9270 C   0  0  0  0  0
  -27.5130   42.2340  -15.7890 C   0  0  0  0  0
  -27.1720   41.7620  -14.7050 O   0  0  0  0  0
  -25.7570   43.5980  -16.8090 C   0  0  0  0  0
  -28.7410   42.6870  -16.0090 N   0  0  0  0  0
  -29.7110   42.7070  -14.9110 C   0  0  0  0  0
  -30.2140   41.2900  -14.5730 C   0  0  0  0  0
  -30.7230   41.0550  -13.4880 O   0  0  0  0  0
  -30.8850   43.6430  -15.2400 C   0  0  0  0  0
  -31.5610   43.2470  -16.4580 C   0  0  0  0  0
  -31.3000   43.6710  -17.7190 C   0  0  0  0  0
  -32.6070   42.3030  -16.5510 C   0  0  0  0  0
  -32.1420   43.0510  -18.6100 N   0  0  0  0  0
  -32.9540   42.1990  -17.9110 C   0  0  0  0  0
  -33.2980   41.5300  -15.6080 C   0  0  0  0  0
  -33.9590   41.3560  -18.3570 C   0  0  0  0  0
  -34.2900   40.6880  -16.0500 C   0  0  0  0  0
  -34.6200   40.6120  -17.4130 C   0  0  0  0  0
  -30.0400   40.3280  -15.4670 N   0  0  0  0  0
  -30.4630   38.9730  -15.1510 C   0  0  0  0  0
  -29.5470   38.2680  -14.1290 C   0  0  0  0  0
  -29.9090   37.2030  -13.6060 O   0  0  0  0  0
  -30.5450   38.1430  -16.4220 C   0  0  0  0  0
  -31.5410   38.6430  -17.4450 C   0  0  0  0  0
  -31.1800   38.1010  -18.8180 C   0  0  0  0  0
  -32.3780   37.7570  -19.6430 C   0  0  0  0  0
  -32.4640   36.2680  -19.7690 N   0  3  0  0  0
  -28.3710   38.8420  -13.8450 N   0  0  0  0  0
  -27.4180   38.1850  -12.9450 C   0  0  0  0  0
  -28.0030   38.1350  -11.5610 C   0  0  0  0  0
  -28.5050   39.1530  -11.0590 O   0  0  0  0  0
  -26.0210   38.9010  -12.8460 C   0  0  0  0  0
  -25.2260   38.8190  -14.1730 C   0  0  0  0  0
  -26.1710   40.3340  -12.3130 C   0  0  0  0  0
  -27.9370   36.9740  -10.9140 N   0  0  0  0  0
  -28.5700   36.8970   -9.6060 C   0  0  0  0  0
  -27.5940   36.4860   -8.5200 C   0  0  0  0  0
  -27.2550   37.3120   -7.6580 O   0  0  0  0  0
  -29.7810   35.9510   -9.6580 C   0  0  0  0  0
  -30.9680   36.2680   -8.7300 C   0  0  0  0  0
  -31.3790   37.7470   -8.7360 C   0  0  0  0  0
  -32.1680   35.4200   -9.1200 C   0  0  0  0  0
  -27.1380   35.2340   -8.5910 N   0  0  0  0  0
  -26.5180   34.5190   -7.4600 C   0  0  0  0  0
  -27.2050   33.1420   -7.3290 C   0  0  0  0  0
  -27.1700   32.4950   -6.2730 O   0  0  0  0  0
  -26.6130   35.3120   -6.1260 C   0  0  0  0  0
  -26.1380   34.5490   -5.0220 O   0  0  0  0  0
  -27.8190   32.6280   -8.2750 O   0  0  0  0  0
  -22.5133   35.5320  -23.2152 H   0  0  0  0  0
  -23.1506   35.6546  -24.7500 H   0  0  0  0  0
  -21.6278   36.2507  -24.4302 H   0  0  0  0  0
  -22.4907   37.8712  -22.9724 H   0  0  0  0  0
  -24.2571   38.2721  -25.3171 H   0  0  0  0  0
  -22.5187   37.8972  -25.6984 H   0  0  0  0  0
  -21.8641   39.7464  -24.2363 H   0  0  0  0  0
  -23.6337   40.1685  -24.0664 H   0  0  0  0  0
  -22.8189   41.6415  -25.6284 H   0  0  0  0  0
  -23.5822   40.2901  -26.6036 H   0  0  0  0  0
  -20.8006   39.8189  -26.3444 H   0  0  0  0  0
  -19.9506   41.4400  -29.3988 H   0  0  0  0  0
  -19.3925   40.3126  -28.1583 H   0  0  0  0  0
  -23.0844   42.0318  -27.8673 H   0  0  0  0  0
  -23.9293   38.2424  -21.4033 H   0  0  0  0  0
  -26.7502   37.8871  -22.1918 H   0  0  0  0  0
  -27.3763   37.0052  -20.0374 H   0  0  0  0  0
  -25.7690   36.7960  -18.3663 H   0  0  0  0  0
  -26.3210   35.3625  -21.5357 H   0  0  0  0  0
  -24.7255   35.7605  -20.8524 H   0  0  0  0  0
  -25.9623   34.9845  -19.8329 H   0  0  0  0  0
  -28.3907   39.0896  -20.9151 H   0  0  0  0  0
  -27.6815   41.8765  -20.6892 H   0  0  0  0  0
  -29.8598   42.2368  -19.7508 H   0  0  0  0  0
  -30.1074   40.3978  -19.7516 H   0  0  0  0  0
  -29.9262   40.4602  -22.1912 H   0  0  0  0  0
  -29.9008   42.2876  -22.0991 H   0  0  0  0  0
  -31.7571   42.5700  -23.0892 H   0  0  0  0  0
  -27.2110   43.0823  -18.8108 H   0  0  0  0  0
  -25.8487   41.4751  -16.8520 H   0  0  0  0  0
  -24.9923   43.6333  -17.5850 H   0  0  0  0  0
  -26.4360   44.4424  -16.9275 H   0  0  0  0  0
  -25.2837   43.6456  -15.8283 H   0  0  0  0  0
  -29.0076   43.0189  -16.9359 H   0  0  0  0  0
  -29.2024   43.0920  -14.0271 H   0  0  0  0  0
  -30.4927   44.6507  -15.3771 H   0  0  0  0  0
  -31.6010   43.5971  -14.4195 H   0  0  0  0  0
  -30.5335   44.3982  -17.9869 H   0  0  0  0  0
  -33.0540   41.5952  -14.5477 H   0  0  0  0  0
  -34.2139   41.2868  -19.4145 H   0  0  0  0  0
  -34.8288   40.0698  -15.3319 H   0  0  0  0  0
  -35.4219   39.9447  -17.7288 H   0  0  0  0  0
  -29.6128   40.5360  -16.3696 H   0  0  0  0  0
  -31.4463   39.0572  -14.6882 H   0  0  0  0  0
  -30.8691   37.1450  -16.1271 H   0  0  0  0  0
  -29.5620   38.1857  -16.8911 H   0  0  0  0  0
  -31.5184   39.7325  -17.4691 H   0  0  0  0  0
  -32.5402   38.3025  -17.1732 H   0  0  0  0  0
  -30.6028   37.1878  -18.6734 H   0  0  0  0  0
  -30.6247   38.8763  -19.3458 H   0  0  0  0  0
  -32.2879   38.2072  -20.6316 H   0  0  0  0  0
  -33.2791   38.1403  -19.1643 H   0  0  0  0  0
  -33.2790   36.0220  -20.3308 H   0  0  0  0  0
  -31.6196   35.9169  -20.2208 H   0  0  0  0  0
  -32.5518   35.8540  -18.8410 H   0  0  0  0  0
  -28.1361   39.7444  -14.2585 H   0  0  0  0  0
  -27.2462   37.1944  -13.3660 H   0  0  0  0  0
  -25.4187   38.3598  -12.1163 H   0  0  0  0  0
  -25.0539   37.7733  -14.4279 H   0  0  0  0  0
  -25.7974   39.2987  -14.9676 H   0  0  0  0  0
  -24.2693   39.3275  -14.0539 H   0  0  0  0  0
  -26.8097   40.9057  -12.9863 H   0  0  0  0  0
  -26.6203   40.3059  -11.3203 H   0  0  0  0  0
  -25.1890   40.8036  -12.2556 H   0  0  0  0  0
  -27.4607   36.1684  -11.3196 H   0  0  0  0  0
  -28.9188   37.8964   -9.3460 H   0  0  0  0  0
  -29.4084   34.9782   -9.3373 H   0  0  0  0  0
  -30.1718   36.0288  -10.6726 H   0  0  0  0  0
  -30.6330   36.0341   -7.7195 H   0  0  0  0  0
  -30.5380   38.3578   -8.4079 H   0  0  0  0  0
  -31.6691   38.0381   -9.7456 H   0  0  0  0  0
  -32.2207   37.8916   -8.0588 H   0  0  0  0  0
  -32.4470   35.6396  -10.1506 H   0  0  0  0  0
  -31.9106   34.3648   -9.0289 H   0  0  0  0  0
  -33.0038   35.6497   -8.4591 H   0  0  0  0  0
  -27.2233   34.7422   -9.4805 H   0  0  0  0  0
  -25.4535   34.4003   -7.6621 H   0  0  0  0  0
  -27.6598   35.5577   -5.9474 H   0  0  0  0  0
  -25.9965   36.2065   -6.2147 H   0  0  0  0  0
  -26.2121   35.0698   -4.2190 H   0  0  0  0  0
  -27.7808   33.2128   -9.0353 H   0  0  0  0  0
  1  2  1  0  0  0
  2  3  1  0  0  0
  2  5  1  0  0  0
  3  4  2  0  0  0
  3 12  1  0  0  0
  5  6  1  0  0  0
  6  7  1  0  0  0
  7  8  1  0  0  0
  8  9  1  0  0  0
  9 10  1  0  0  0
  9 11  2  0  0  0
 12 13  1  0  0  0
 13 14  1  0  0  0
 13 16  1  0  0  0
 14 15  2  0  0  0
 14 19  1  0  0  0
 16 17  1  0  0  0
 16 18  1  0  0  0
 19 20  1  0  0  0
 20 21  1  0  0  0
 20 23  1  0  0  0
 21 22  2  0  0  0
 21 28  1  0  0  0
 23 24  1  0  0  0
 24 25  1  0  0  0
 25 26  2  0  0  0
 25 27  1  0  0  0
 28 29  1  0  0  0
 29 30  1  0  0  0
 29 32  1  0  0  0
 30 31  2  0  0  0
 30 33  1  0  0  0
 33 34  1  0  0  0
 34 35  1  0  0  0
 34 37  1  0  0  0
 35 36  2  0  0  0
 35 47  1  0  0  0
 37 38  1  0  0  0
 38 39  4  0  0  0
 38 40  4  0  0  0
 39 41  4  0  0  0
 40 42  4  0  0  0
 40 43  4  0  0  0
 41 42  4  0  0  0
 42 44  4  0  0  0
 43 45  4  0  0  0
 44 46  4  0  0  0
 45 46  4  0  0  0
 47 48  1  0  0  0
 48 49  1  0  0  0
 48 51  1  0  0  0
 49 50  2  0  0  0
 49 56  1  0  0  0
 51 52  1  0  0  0
 52 53  1  0  0  0
 53 54  1  0  0  0
 54 55  1  0  0  0
 56 57  1  0  0  0
 57 58  1  0  0  0
 57 60  1  0  0  0
 58 59  2  0  0  0
 58 63  1  0  0  0
 60 61  1  0  0  0
 60 62  1  0  0  0
 63 64  1  0  0  0
 64 65  1  0  0  0
 64 67  1  0  0  0
 65 66  2  0  0  0
 65 71  1  0  0  0
 67 68  1  0  0  0
 68 69  1  0  0  0
 68 70  1  0  0  0
 71 72  1  0  0  0
 72 73  1  0  0  0
 72 75  1  0  0  0
 73 74  2  0  0  0
 73 77  1  0  0  0
 75 76  1  0  0  0
  1 78  1  0  0  0
  1 79  1  0  0  0
  1 80  1  0  0  0
  2 81  1  0  0  0
  5 82  1  0  0  0
  5 83  1  0  0  0
  6 84  1  0  0  0
  6 85  1  0  0  0
  7 86  1  0  0  0
  7 87  1  0  0  0
  8 88  1  0  0  0
 10 89  1  0  0  0
 10 90  1  0  0  0
 11 91  1  0  0  0
 12 92  1  0  0  0
 13 93  1  0  0  0
 16 94  1  0  0  0
 17 95  1  0  0  0
 18 96  1  0  0  0
 18 97  1  0  0  0
 18 98  1  0  0  0
 19 99  1  0  0  0
 20100  1  0  0  0
 23101  1  0  0  0
 23102  1  0  0  0
 24103  1  0  0  0
 24104  1  0  0  0
 27105  1  0  0  0
 28106  1  0  0  0
 29107  1  0  0  0
 32108  1  0  0  0
 32109  1  0  0  0
 32110  1  0  0  0
 33111  1  0  0  0
 34112  1  0  0  0
 37113  1  0  0  0
 37114  1  0  0  0
 39115  1  0  0  0
 43116  1  0  0  0
 44117  1  0  0  0
 45118  1  0  0  0
 46119  1  0  0  0
 47120  1  0  0  0
 48121  1  0  0  0
 51122  1  0  0  0
 51123  1  0  0  0
 52124  1  0  0  0
 52125  1  0  0  0
 53126  1  0  0  0
 53127  1  0  0  0
 54128  1  0  0  0
 54129  1  0  0  0
 55130  1  0  0  0
 55131  1  0  0  0
 55132  1  0  0  0
 56133  1  0  0  0
 57134  1  0  0  0
 60135  1  0  0  0
 61136  1  0  0  0
 61137  1  0  0  0
 61138  1  0  0  0
 62139  1  0  0  0
 62140  1  0  0  0
 62141  1  0  0  0
 63142  1  0  0  0
 64143  1  0  0  0
 67144  1  0  0  0
 67145  1  0  0  0
 68146  1  0  0  0
 69147  1  0  0  0
 69148  1  0  0  0
 69149  1  0  0  0
 70150  1  0  0  0
 70151  1  0  0  0
 70152  1  0  0  0
 71153  1  0  0  0
 72154  1  0  0  0
 75155  1  0  0  0
 75156  1  0  0  0
 76157  1  0  0  0
 77158  1  0  0  0
M  END
$$$$
