5f5i_ligand
  -I-interpret- 

 33 34  0  0  0  0  0  0  0  0999 V2000
  -28.1130  -21.7000  -22.5010 N   0  0  0  0  0
  -27.9250  -22.7600  -23.3110 C   0  0  0  0  0
  -27.1850  -20.7200  -22.4950 C   0  0  0  0  0
  -27.4560  -19.5430  -21.5880 C   0  0  0  0  0
  -29.5320  -18.8780  -22.6690 C   0  0  0  0  0
  -29.2780  -17.4350  -23.0100 C   0  0  0  0  0
  -28.0110  -15.7730  -24.1970 C   0  0  0  0  0
  -30.0570  -16.4190  -22.4700 C   0  0  0  0  0
  -24.8630  -22.4350  -26.1890 O   0  0  0  0  0
  -24.6530  -21.9720  -24.9810 C   0  0  0  0  0
  -25.8690  -21.8780  -24.1290 C   0  0  0  0  0
  -26.8230  -22.8870  -24.1300 C   0  0  0  0  0
  -28.8760  -19.2660  -21.4100 N   0  3  0  0  0
  -28.2500  -17.0910  -23.8750 C   0  0  0  0  0
  -28.7840  -14.7760  -23.6480 C   0  0  0  0  0
  -29.8070  -15.0990  -22.7850 C   0  0  0  0  0
  -26.0540  -20.7800  -23.2960 C   0  0  0  0  0
  -23.5530  -21.6460  -24.5640 O   0  0  0  0  0
  -28.6755  -23.5504  -23.3193 H   0  0  0  0  0
  -27.0041  -18.6634  -22.0464 H   0  0  0  0  0
  -27.0417  -19.7804  -20.6082 H   0  0  0  0  0
  -29.1273  -19.4958  -23.4707 H   0  0  0  0  0
  -30.6066  -19.0184  -22.5527 H   0  0  0  0  0
  -27.2075  -15.5194  -24.8885 H   0  0  0  0  0
  -30.8731  -16.6670  -21.7913 H   0  0  0  0  0
  -25.7974  -22.6254  -26.2996 H   0  0  0  0  0
  -26.7029  -23.7635  -24.7667 H   0  0  0  0  0
  -28.9671  -18.4904  -20.7538 H   0  0  0  0  0
  -29.3239  -20.1166  -21.0691 H   0  0  0  0  0
  -27.6238  -17.8726  -24.3051 H   0  0  0  0  0
  -28.5870  -13.7330  -23.8957 H   0  0  0  0  0
  -30.4207  -14.3104  -22.3497 H   0  0  0  0  0
  -25.3187  -19.9757  -23.2727 H   0  0  0  0  0
  2  1  4  0  0  0
  1  3  4  0  0  0
 12  2  4  0  0  0
  3  4  1  0  0  0
  3 17  4  0  0  0
  4 13  1  0  0  0
  5  6  1  0  0  0
 13  5  1  0  0  0
  6  8  4  0  0  0
  6 14  4  0  0  0
 14  7  4  0  0  0
  7 15  4  0  0  0
  8 16  4  0  0  0
 10  9  1  0  0  0
 11 10  1  0  0  0
 10 18  2  0  0  0
 11 12  4  0  0  0
 11 17  4  0  0  0
 15 16  4  0  0  0
  2 19  1  0  0  0
  4 20  1  0  0  0
  4 21  1  0  0  0
  5 22  1  0  0  0
  5 23  1  0  0  0
  7 24  1  0  0  0
  8 25  1  0  0  0
  9 26  1  0  0  0
 12 27  1  0  0  0
 13 28  1  0  0  0
 13 29  1  0  0  0
 14 30  1  0  0  0
 15 31  1  0  0  0
 16 32  1  0  0  0
 17 33  1  0  0  0
M  END
$$$$
