6biy_ligand
  -I-interpret- 

214214  0  0  0  0  0  0  0  0999 V2000
   49.9700    7.3330    2.1120 N   0  3  0  0  0
   48.8290    7.9700    2.7700 C   0  0  0  0  0
   49.1190    9.4260    3.1750 C   0  0  0  0  0
   48.3330   10.0480    3.9020 O   0  0  0  0  0
   48.3950    7.1610    4.0010 C   0  0  0  0  0
   49.2620    7.4380    5.2200 C   0  0  0  0  0
   50.5030    7.3510    5.0880 O   0  0  0  0  0
   48.7060    7.7440    6.3040 O   0  0  0  0  0
   50.2390    9.9700    2.7090 N   0  0  0  0  0
   50.5540   11.3840    2.8930 C   0  0  0  0  0
   50.1710   12.1320    1.6240 C   0  0  0  0  0
   50.6420   11.7950    0.5290 O   0  0  0  0  0
   52.0370   11.6050    3.2170 C   0  0  0  0  0
   52.4770   10.7120    4.3820 C   0  0  0  0  0
   52.2920   13.0880    3.4910 C   0  0  0  0  0
   52.2880   11.3450    5.7460 C   0  0  0  0  0
   49.3040   13.1330    1.7780 N   0  0  0  0  0
   48.9720   14.0530    0.6980 C   0  0  0  0  0
   50.1930   14.8530    0.2910 C   0  0  0  0  0
   50.9030   15.3970    1.1390 O   0  0  0  0  0
   47.9020   15.0250    1.1660 C   0  0  0  0  0
   46.5740   14.8390    0.5350 C   0  0  0  0  0
   46.3250   15.3450   -0.7270 C   0  0  0  0  0
   45.5460   14.2280    1.2340 C   0  0  0  0  0
   45.0910   15.2090   -1.3000 C   0  0  0  0  0
   44.3040   14.0900    0.6650 C   0  0  0  0  0
   44.0800   14.5940   -0.6050 C   0  0  0  0  0
   50.4230   14.9550   -1.0060 N   0  0  0  0  0
   51.4760   15.8030   -1.5360 C   0  0  0  0  0
   50.8650   17.1030   -2.0340 C   0  0  0  0  0
   49.8790   17.0830   -2.7810 O   0  0  0  0  0
   52.2220   15.1050   -2.6740 C   0  0  0  0  0
   53.3070   14.1550   -2.2040 C   0  0  0  0  0
   54.4830   14.8940   -1.6170 C   0  0  0  0  0
   54.8170   14.6390   -0.4360 O   0  0  0  0  0
   55.0600   15.7380   -2.3410 O   0  0  0  0  0
   51.4400   18.2250   -1.6120 N   0  0  0  0  0
   51.1350   19.4990   -2.2380 C   0  0  0  0  0
   52.1710   19.7820   -3.3120 C   0  0  0  0  0
   53.3120   19.3280   -3.2330 O   0  0  0  0  0
   51.1150   20.6320   -1.2130 C   0  0  0  0  0
   52.3890   20.8020   -0.4510 C   0  0  0  0  0
   52.6000   22.2530   -0.0270 C   0  0  0  0  0
   53.9640   22.4400    0.4460 N   0  0  0  0  0
   54.8580   23.2270   -0.1400 C   0  0  0  0  0
   56.0870   23.3130    0.3500 N   0  0  0  0  0
   54.5210   23.9340   -1.2080 N   0  0  0  0  0
   51.7690   20.5110   -4.3300 N   0  0  0  0  0
   52.7300   20.9950   -5.3110 C   0  0  0  0  0
   52.9400   22.4800   -5.0700 C   0  0  0  0  0
   52.0130   23.1990   -4.6540 O   0  0  0  0  0
   52.2790   20.6930   -6.7560 C   0  0  0  0  0
   53.4330   20.9500   -7.7270 C   0  0  0  0  0
   51.0340   21.4900   -7.1330 C   0  0  0  0  0
   53.3080   20.1790   -9.0100 C   0  0  0  0  0
   54.1770   22.9290   -5.2620 N   0  0  0  0  0
   54.4920   24.3390   -5.1050 C   0  0  0  0  0
   53.8210   25.1590   -6.1970 C   0  0  0  0  0
   53.6300   24.6960   -7.3280 O   0  0  0  0  0
   56.0030   24.5670   -5.1540 C   0  0  0  0  0
   53.4570   26.3900   -5.8410 N   0  0  0  0  0
   53.1050   27.3940   -6.8310 C   0  0  0  0  0
   54.3660   28.0650   -7.3590 C   0  0  0  0  0
   55.3150   28.3070   -6.6100 O   0  0  0  0  0
   52.1600   28.4330   -6.2190 C   0  0  0  0  0
   50.9240   27.8120   -5.8790 O   0  0  0  0  0
   54.3730   28.3580   -8.6590 N   0  0  0  0  0
   55.5450   28.9170   -9.3200 C   0  0  0  0  0
   55.6290   30.4140   -9.0640 C   0  0  0  0  0
   54.6180   31.1240   -9.1090 O   0  0  0  0  0
   55.4830   28.6510  -10.8240 C   0  0  0  0  0
   56.8300   28.5620  -11.4960 C   0  0  0  0  0
   57.4190   27.1840  -11.3490 C   0  0  0  0  0
   58.1410   26.9540  -10.3530 O   0  0  0  0  0
   57.1290   26.3240  -12.2110 O   0  0  0  0  0
   56.8470   30.9000   -8.8110 N   0  0  0  0  0
   57.0560   32.2900   -8.4210 C   0  0  0  0  0
   57.3930   33.1370   -9.6410 C   0  0  0  0  0
   58.3330   32.8220  -10.3780 O   0  0  0  0  0
   58.1750   32.3880   -7.3820 C   0  0  0  0  0
   56.6390   34.2130   -9.8570 N   0  0  0  0  0
   57.0360   35.1480  -10.8930 C   0  0  0  0  0
   58.2310   35.9600  -10.4080 C   0  0  0  0  0
   58.5030   36.0540   -9.2100 O   0  0  0  0  0
   55.8870   36.0950  -11.2590 C   0  0  0  0  0
   54.7890   35.3810  -11.7910 O   0  0  0  0  0
   58.9540   36.5460  -11.3470 N   0  0  0  0  0
   60.0620   37.4110  -10.9710 C   0  0  0  0  0
   59.6040   38.8640  -10.8960 C   0  0  0  0  0
   58.6770   39.2850  -11.5990 O   0  0  0  0  0
   61.2240   37.2740  -11.9530 C   0  0  0  0  0
   60.9540   37.8230  -13.3290 C   0  0  0  0  0
   62.2640   37.9210  -14.0920 C   0  0  0  0  0
   62.0650   37.8050  -15.5330 N   0  0  0  0  0
   63.0460   37.5930  -16.4080 C   0  0  0  0  0
   62.7720   37.5010  -17.7090 N   0  0  0  0  0
   64.3020   37.4730  -15.9830 N   0  0  0  0  0
   60.2710   39.6290  -10.0290 N   0  0  0  0  0
   59.9660   41.0430   -9.8450 C   0  0  0  0  0
   60.3260   41.8470  -11.0890 C   0  0  0  0  0
   59.4500   42.2050  -11.8760 O   0  0  0  0  0
   60.7030   41.5980   -8.6210 C   0  0  0  0  0
   60.0760   41.3510   -7.2400 C   0  0  0  0  0
   61.0510   41.7190   -6.1210 C   0  0  0  0  0
   58.7650   42.1130   -7.0860 C   0  0  0  0  0
   61.4970   42.1470  -11.3210 O   0  0  0  0  0
   50.2429    7.8842    1.2983 H   0  0  0  0  0
   50.7514    7.2794    2.7655 H   0  0  0  0  0
   49.7084    6.3929    1.8151 H   0  0  0  0  0
   48.0177    7.9890    2.0423 H   0  0  0  0  0
   48.4889    6.1029    3.7566 H   0  0  0  0  0
   47.3719    7.4464    4.2458 H   0  0  0  0  0
   47.7537    7.7527    6.1826 H   0  0  0  0  0
   50.9010    9.3794    2.2057 H   0  0  0  0  0
   49.9866   11.7621    3.7434 H   0  0  0  0  0
   52.6426   11.3183    2.3572 H   0  0  0  0  0
   53.5428   10.5197    4.2586 H   0  0  0  0  0
   51.8601    9.8138    4.3530 H   0  0  0  0  0
   52.0244   13.6703    2.6093 H   0  0  0  0  0
   51.6856   13.4092    4.3379 H   0  0  0  0  0
   53.3470   13.2376    3.7204 H   0  0  0  0  0
   52.8730   12.2629    5.8033 H   0  0  0  0  0
   51.2331   11.5750    5.8954 H   0  0  0  0  0
   52.6225   10.6507    6.5168 H   0  0  0  0  0
   48.8564   13.2595    2.6858 H   0  0  0  0  0
   48.6140   13.4701   -0.1506 H   0  0  0  0  0
   48.2430   16.0246    0.8966 H   0  0  0  0  0
   47.7701   14.8595    2.2353 H   0  0  0  0  0
   47.1194   15.8569   -1.2702 H   0  0  0  0  0
   45.7242   13.8543    2.2423 H   0  0  0  0  0
   44.9108   15.5880   -2.3060 H   0  0  0  0  0
   43.5025   13.5887    1.2076 H   0  0  0  0  0
   43.0923   14.5015   -1.0566 H   0  0  0  0  0
   49.8435   14.4221   -1.6546 H   0  0  0  0  0
   52.1937   16.0110   -0.7425 H   0  0  0  0  0
   52.7046   15.8801   -3.2694 H   0  0  0  0  0
   51.4914   14.5151   -3.2275 H   0  0  0  0  0
   53.6565   13.5823   -3.0631 H   0  0  0  0  0
   52.8871   13.5108   -1.4315 H   0  0  0  0  0
   54.2365   13.9626   -0.0794 H   0  0  0  0  0
   52.1040   18.1903   -0.8385 H   0  0  0  0  0
   50.1421   19.4421   -2.6840 H   0  0  0  0  0
   50.3390   20.3909   -0.4866 H   0  0  0  0  0
   50.9474   21.5574   -1.7641 H   0  0  0  0  0
   53.2176   20.5071   -1.0949 H   0  0  0  0  0
   52.3391   20.1847    0.4459 H   0  0  0  0  0
   51.9051   22.4965    0.7767 H   0  0  0  0  0
   52.4243   22.9057   -0.8821 H   0  0  0  0  0
   54.2517   21.9328    1.2829 H   0  0  0  0  0
   56.7721   23.9233   -0.0955 H   0  0  0  0  0
   56.3474   22.7688    1.1725 H   0  0  0  0  0
   53.5736   23.8741   -1.5811 H   0  0  0  0  0
   50.7800   20.7383   -4.4328 H   0  0  0  0  0
   53.6783   20.4713   -5.1901 H   0  0  0  0  0
   52.0052   19.6399   -6.8206 H   0  0  0  0  0
   54.3537   20.6316   -7.2381 H   0  0  0  0  0
   53.4252   22.0110   -7.9766 H   0  0  0  0  0
   50.2197   21.2311   -6.4562 H   0  0  0  0  0
   51.2487   22.5557   -7.0542 H   0  0  0  0  0
   50.7471   21.2506   -8.1570 H   0  0  0  0  0
   53.2923   19.1114   -8.7908 H   0  0  0  0  0
   52.3835   20.4615   -9.5135 H   0  0  0  0  0
   54.1579   20.4066   -9.6535 H   0  0  0  0  0
   54.9147   22.2748   -5.5230 H   0  0  0  0  0
   54.1173   24.6589   -4.1327 H   0  0  0  0  0
   56.4798   24.0082   -4.3487 H   0  0  0  0  0
   56.3898   24.2249   -6.1139 H   0  0  0  0  0
   56.2128   25.6299   -5.0342 H   0  0  0  0  0
   53.4246   26.6334   -4.8510 H   0  0  0  0  0
   52.5918   26.9096   -7.6617 H   0  0  0  0  0
   51.9791   29.2287   -6.9417 H   0  0  0  0  0
   52.6143   28.8518   -5.3210 H   0  0  0  0  0
   50.3338   28.4650   -5.4958 H   0  0  0  0  0
   53.5313   28.1855   -9.2087 H   0  0  0  0  0
   56.4345   28.4366   -8.9123 H   0  0  0  0  0
   54.9545   29.4903  -11.2761 H   0  0  0  0  0
   54.9937   27.6864  -10.9586 H   0  0  0  0  0
   57.5021   29.2805  -11.0268 H   0  0  0  0  0
   56.7052   28.7766  -12.5573 H   0  0  0  0  0
   56.5670   26.7206  -12.8807 H   0  0  0  0  0
   57.6540   30.2816   -8.8928 H   0  0  0  0  0
   56.1349   32.6686   -7.9778 H   0  0  0  0  0
   57.9024   31.8078   -6.5005 H   0  0  0  0  0
   59.0986   31.9943   -7.8064 H   0  0  0  0  0
   58.3184   33.4315   -7.1016 H   0  0  0  0  0
   55.7976   34.3770   -9.3042 H   0  0  0  0  0
   57.3041   34.5800  -11.7838 H   0  0  0  0  0
   56.2420   36.7999  -12.0108 H   0  0  0  0  0
   55.5618   36.6138  -10.3572 H   0  0  0  0  0
   54.0854   35.9958  -12.0112 H   0  0  0  0  0
   58.7359   36.3923  -12.3315 H   0  0  0  0  0
   60.4100   37.1006   -9.9858 H   0  0  0  0  0
   61.4166   36.2075  -12.0694 H   0  0  0  0  0
   62.0560   37.8454  -11.5414 H   0  0  0  0  0
   60.5030   38.8119  -13.2469 H   0  0  0  0  0
   60.2696   37.1611  -13.8597 H   0  0  0  0  0
   62.9092   37.1038  -13.7694 H   0  0  0  0  0
   62.7074   38.8951  -13.8857 H   0  0  0  0  0
   61.1144   37.8918  -15.8926 H   0  0  0  0  0
   63.5243   37.3388  -18.3784 H   0  0  0  0  0
   61.8100   37.5928  -18.0353 H   0  0  0  0  0
   64.5125   37.5435  -14.9874 H   0  0  0  0  0
   61.0193   39.2103   -9.4766 H   0  0  0  0  0
   58.8928   41.1359   -9.6785 H   0  0  0  0  0
   60.7100   42.6804   -8.7497 H   0  0  0  0  0
   61.6648   41.0855   -8.6015 H   0  0  0  0  0
   59.8568   40.2861   -7.1622 H   0  0  0  0  0
   61.9511   41.1108   -6.2105 H   0  0  0  0  0
   61.3141   42.7737   -6.2023 H   0  0  0  0  0
   60.5804   41.5340   -5.1554 H   0  0  0  0  0
   58.9517   43.1810   -7.1979 H   0  0  0  0  0
   58.0626   41.7834   -7.8516 H   0  0  0  0  0
   58.3464   41.9175   -6.0987 H   0  0  0  0  0
   62.0590   41.8008  -10.6239 H   0  0  0  0  0
  1  2  1  0  0  0
  2  3  1  0  0  0
  2  5  1  0  0  0
  3  4  2  0  0  0
  3  9  1  0  0  0
  5  6  1  0  0  0
  6  7  2  0  0  0
  6  8  1  0  0  0
  9 10  1  0  0  0
 10 11  1  0  0  0
 10 13  1  0  0  0
 11 12  2  0  0  0
 11 17  1  0  0  0
 13 14  1  0  0  0
 13 15  1  0  0  0
 14 16  1  0  0  0
 17 18  1  0  0  0
 18 19  1  0  0  0
 18 21  1  0  0  0
 19 20  2  0  0  0
 19 28  1  0  0  0
 21 22  1  0  0  0
 22 23  4  0  0  0
 22 24  4  0  0  0
 23 25  4  0  0  0
 24 26  4  0  0  0
 25 27  4  0  0  0
 26 27  4  0  0  0
 28 29  1  0  0  0
 29 30  1  0  0  0
 29 32  1  0  0  0
 30 31  2  0  0  0
 30 37  1  0  0  0
 32 33  1  0  0  0
 33 34  1  0  0  0
 34 35  1  0  0  0
 34 36  2  0  0  0
 37 38  1  0  0  0
 38 39  1  0  0  0
 38 41  1  0  0  0
 39 40  2  0  0  0
 39 48  1  0  0  0
 41 42  1  0  0  0
 42 43  1  0  0  0
 43 44  1  0  0  0
 44 45  1  0  0  0
 45 46  1  0  0  0
 45 47  2  0  0  0
 48 49  1  0  0  0
 49 50  1  0  0  0
 49 52  1  0  0  0
 50 51  2  0  0  0
 50 56  1  0  0  0
 52 53  1  0  0  0
 52 54  1  0  0  0
 53 55  1  0  0  0
 56 57  1  0  0  0
 57 58  1  0  0  0
 57 60  1  0  0  0
 58 59  2  0  0  0
 58 61  1  0  0  0
 61 62  1  0  0  0
 62 63  1  0  0  0
 62 65  1  0  0  0
 63 64  2  0  0  0
 63 67  1  0  0  0
 65 66  1  0  0  0
 67 68  1  0  0  0
 68 69  1  0  0  0
 68 71  1  0  0  0
 69 70  2  0  0  0
 69 76  1  0  0  0
 71 72  1  0  0  0
 72 73  1  0  0  0
 73 74  2  0  0  0
 73 75  1  0  0  0
 76 77  1  0  0  0
 77 78  1  0  0  0
 77 80  1  0  0  0
 78 79  2  0  0  0
 78 81  1  0  0  0
 81 82  1  0  0  0
 82 83  1  0  0  0
 82 85  1  0  0  0
 83 84  2  0  0  0
 83 87  1  0  0  0
 85 86  1  0  0  0
 87 88  1  0  0  0
 88 89  1  0  0  0
 88 91  1  0  0  0
 89 90  2  0  0  0
 89 98  1  0  0  0
 91 92  1  0  0  0
 92 93  1  0  0  0
 93 94  1  0  0  0
 94 95  1  0  0  0
 95 96  1  0  0  0
 95 97  2  0  0  0
 98 99  1  0  0  0
 99100  1  0  0  0
 99102  1  0  0  0
100101  2  0  0  0
100106  1  0  0  0
102103  1  0  0  0
103104  1  0  0  0
103105  1  0  0  0
  1107  1  0  0  0
  1108  1  0  0  0
  1109  1  0  0  0
  2110  1  0  0  0
  5111  1  0  0  0
  5112  1  0  0  0
  8113  1  0  0  0
  9114  1  0  0  0
 10115  1  0  0  0
 13116  1  0  0  0
 14117  1  0  0  0
 14118  1  0  0  0
 15119  1  0  0  0
 15120  1  0  0  0
 15121  1  0  0  0
 16122  1  0  0  0
 16123  1  0  0  0
 16124  1  0  0  0
 17125  1  0  0  0
 18126  1  0  0  0
 21127  1  0  0  0
 21128  1  0  0  0
 23129  1  0  0  0
 24130  1  0  0  0
 25131  1  0  0  0
 26132  1  0  0  0
 27133  1  0  0  0
 28134  1  0  0  0
 29135  1  0  0  0
 32136  1  0  0  0
 32137  1  0  0  0
 33138  1  0  0  0
 33139  1  0  0  0
 35140  1  0  0  0
 37141  1  0  0  0
 38142  1  0  0  0
 41143  1  0  0  0
 41144  1  0  0  0
 42145  1  0  0  0
 42146  1  0  0  0
 43147  1  0  0  0
 43148  1  0  0  0
 44149  1  0  0  0
 46150  1  0  0  0
 46151  1  0  0  0
 47152  1  0  0  0
 48153  1  0  0  0
 49154  1  0  0  0
 52155  1  0  0  0
 53156  1  0  0  0
 53157  1  0  0  0
 54158  1  0  0  0
 54159  1  0  0  0
 54160  1  0  0  0
 55161  1  0  0  0
 55162  1  0  0  0
 55163  1  0  0  0
 56164  1  0  0  0
 57165  1  0  0  0
 60166  1  0  0  0
 60167  1  0  0  0
 60168  1  0  0  0
 61169  1  0  0  0
 62170  1  0  0  0
 65171  1  0  0  0
 65172  1  0  0  0
 66173  1  0  0  0
 67174  1  0  0  0
 68175  1  0  0  0
 71176  1  0  0  0
 71177  1  0  0  0
 72178  1  0  0  0
 72179  1  0  0  0
 75180  1  0  0  0
 76181  1  0  0  0
 77182  1  0  0  0
 80183  1  0  0  0
 80184  1  0  0  0
 80185  1  0  0  0
 81186  1  0  0  0
 82187  1  0  0  0
 85188  1  0  0  0
 85189  1  0  0  0
 86190  1  0  0  0
 87191  1  0  0  0
 88192  1  0  0  0
 91193  1  0  0  0
 91194  1  0  0  0
 92195  1  0  0  0
 92196  1  0  0  0
 93197  1  0  0  0
 93198  1  0  0  0
 94199  1  0  0  0
 96200  1  0  0  0
 96201  1  0  0  0
 97202  1  0  0  0
 98203  1  0  0  0
 99204  1  0  0  0
102205  1  0  0  0
102206  1  0  0  0
103207  1  0  0  0
104208  1  0  0  0
104209  1  0  0  0
104210  1  0  0  0
105211  1  0  0  0
105212  1  0  0  0
105213  1  0  0  0
106214  1  0  0  0
M  END
$$$$
