### 
### Created by X-TOOL on Wed Jan  1 15:39:36 2020
### 

@<TRIPOS>MOLECULE
6biy_ligand
  212   212     1     0     0
SMALL
GAST_HUCK


@<TRIPOS>ATOM
      1 N          49.9700    7.3330    2.1120 N.4       1 ASP         0.2391
      2 CA         48.8290    7.9700    2.7700 C.3       1 ASP         0.0764
      3 C          49.1190    9.4260    3.1750 C.2       1 ASP         0.2284
      4 O          48.3330   10.0480    3.9020 O.2       1 ASP        -0.3906
      5 CB         48.3950    7.1610    4.0010 C.3       1 ASP         0.0607
      6 CG         49.2620    7.4380    5.2200 C.2       1 ASP         0.0425
      7 OD1        50.5030    7.3510    5.0880 O.co2     1 ASP        -0.5686
      8 OD2        48.7060    7.7440    6.3040 O.co2     1 ASP        -0.5686
      9 N          50.2390    9.9700    2.7090 N.am      1 ILE        -0.2607
     10 CA         50.5540   11.3840    2.8930 C.3       1 ILE         0.1336
     11 C          50.1710   12.1320    1.6240 C.2       1 ILE         0.2043
     12 O          50.6420   11.7950    0.5290 O.2       1 ILE        -0.3944
     13 CB         52.0370   11.6050    3.2170 C.3       1 ILE        -0.0037
     14 CG1        52.4770   10.7120    4.3820 C.3       1 ILE        -0.0491
     15 CG2        52.2920   13.0880    3.4910 C.3       1 ILE        -0.0582
     16 CD1        52.2880   11.3450    5.7460 C.3       1 ILE        -0.0648
     17 N          49.3040   13.1330    1.7780 N.am      1 PHE        -0.2619
     18 CA         48.9720   14.0530    0.6980 C.3       1 PHE         0.1404
     19 C          50.1930   14.8530    0.2910 C.2       1 PHE         0.2060
     20 O          50.9030   15.3970    1.1390 O.2       1 PHE        -0.3942
     21 CB         47.9020   15.0250    1.1660 C.3       1 PHE         0.0214
     22 CG         46.5740   14.8390    0.5350 C.ar      1 PHE        -0.0386
     23 CD1        46.3250   15.3450   -0.7270 C.ar      1 PHE        -0.0601
     24 CD2        45.5460   14.2280    1.2340 C.ar      1 PHE        -0.0601
     25 CE1        45.0910   15.2090   -1.3000 C.ar      1 PHE        -0.0686
     26 CE2        44.3040   14.0900    0.6650 C.ar      1 PHE        -0.0686
     27 CZ         44.0800   14.5940   -0.6050 C.ar      1 PHE        -0.0687
     28 N          50.4230   14.9550   -1.0060 N.am      1 GLU        -0.2635
     29 CA         51.4760   15.8030   -1.5360 C.3       1 GLU         0.1325
     30 C          50.8650   17.1030   -2.0340 C.2       1 GLU         0.2040
     31 O          49.8790   17.0830   -2.7810 O.2       1 GLU        -0.3944
     32 CB         52.2220   15.1050   -2.6740 C.3       1 GLU        -0.0008
     33 CG         53.3070   14.1550   -2.2040 C.3       1 GLU         0.0044
     34 CD         54.4830   14.8940   -1.6170 C.2       1 GLU         0.0350
     35 OE1        54.8170   14.6390   -0.4360 O.co2     1 GLU        -0.5690
     36 OE2        55.0600   15.7380   -2.3410 O.co2     1 GLU        -0.5690
     37 N          51.4400   18.2250   -1.6120 N.am      1 ARG        -0.2637
     38 CA         51.1350   19.4990   -2.2380 C.3       1 ARG         0.1311
     39 C          52.1710   19.7820   -3.3120 C.2       1 ARG         0.2039
     40 O          53.3120   19.3280   -3.2330 O.2       1 ARG        -0.3944
     41 CB         51.1150   20.6320   -1.2130 C.3       1 ARG        -0.0092
     42 CG         52.3890   20.8020   -0.4510 C.3       1 ARG        -0.0156
     43 CD         52.6000   22.2530   -0.0270 C.3       1 ARG         0.0627
     44 NE         53.9640   22.4400    0.4460 N.pl3     1 ARG        -0.2723
     45 CZ         54.8580   23.2270   -0.1400 C.cat     1 ARG         0.2882
     46 NH1        56.0870   23.3130    0.3500 N.pl3     1 ARG        -0.2849
     47 NH2        54.5210   23.9340   -1.2080 N.pl3     1 ARG        -0.2849
     48 N          51.7690   20.5110   -4.3300 N.am      1 ILE        -0.2635
     49 CA         52.7300   20.9950   -5.3110 C.3       1 ILE         0.1335
     50 C          52.9400   22.4800   -5.0700 C.2       1 ILE         0.2041
     51 O          52.0130   23.1990   -4.6540 O.2       1 ILE        -0.3944
     52 CB         52.2790   20.6930   -6.7560 C.3       1 ILE        -0.0037
     53 CG1        53.4330   20.9500   -7.7270 C.3       1 ILE        -0.0491
     54 CG2        51.0340   21.4900   -7.1330 C.3       1 ILE        -0.0582
     55 CD1        53.3080   20.1790   -9.0100 C.3       1 ILE        -0.0648
     56 N          54.1770   22.9290   -5.2620 N.am      1 ALA        -0.2640
     57 CA         54.4920   24.3390   -5.1050 C.3       1 ALA         0.1282
     58 C          53.8210   25.1590   -6.1970 C.2       1 ALA         0.2037
     59 O          53.6300   24.6960   -7.3280 O.2       1 ALA        -0.3944
     60 CB         56.0030   24.5670   -5.1540 C.3       1 ALA        -0.0244
     61 N          53.4570   26.3900   -5.8410 N.am      1 SER        -0.2616
     62 CA         53.1050   27.3940   -6.8310 C.3       1 SER         0.1539
     63 C          54.3660   28.0650   -7.3590 C.2       1 SER         0.2062
     64 O          55.3150   28.3070   -6.6100 O.2       1 SER        -0.3943
     65 CB         52.1600   28.4330   -6.2190 C.3       1 SER         0.0843
     66 OG         50.9240   27.8120   -5.8790 O.3       1 SER        -0.3903
     67 N          54.3730   28.3580   -8.6590 N.am      1 GLU        -0.2636
     68 CA         55.5450   28.9170   -9.3200 C.3       1 GLU         0.1325
     69 C          55.6290   30.4140   -9.0640 C.2       1 GLU         0.2040
     70 O          54.6180   31.1240   -9.1090 O.2       1 GLU        -0.3944
     71 CB         55.4830   28.6510  -10.8240 C.3       1 GLU        -0.0008
     72 CG         56.8300   28.5620  -11.4960 C.3       1 GLU         0.0044
     73 CD         57.4190   27.1840  -11.3490 C.2       1 GLU         0.0350
     74 OE1        58.1410   26.9540  -10.3530 O.co2     1 GLU        -0.5690
     75 OE2        57.1290   26.3240  -12.2110 O.co2     1 GLU        -0.5690
     76 N          56.8470   30.9000   -8.8110 N.am      1 ALA        -0.2640
     77 CA         57.0560   32.2900   -8.4210 C.3       1 ALA         0.1282
     78 C          57.3930   33.1370   -9.6410 C.2       1 ALA         0.2037
     79 O          58.3330   32.8220  -10.3780 O.2       1 ALA        -0.3944
     80 CB         58.1750   32.3880   -7.3820 C.3       1 ALA        -0.0244
     81 N          56.6390   34.2130   -9.8570 N.am      1 SER        -0.2616
     82 CA         57.0360   35.1480  -10.8930 C.3       1 SER         0.1539
     83 C          58.2310   35.9600  -10.4080 C.2       1 SER         0.2062
     84 O          58.5030   36.0540   -9.2100 O.2       1 SER        -0.3943
     85 CB         55.8870   36.0950  -11.2590 C.3       1 SER         0.0843
     86 OG         54.7890   35.3810  -11.7910 O.3       1 SER        -0.3903
     87 N          58.9540   36.5460  -11.3470 N.am      1 ARG        -0.2637
     88 CA         60.0620   37.4110  -10.9710 C.3       1 ARG         0.1310
     89 C          59.6040   38.8640  -10.8960 C.2       1 ARG         0.2033
     90 O          58.6770   39.2850  -11.5990 O.2       1 ARG        -0.3944
     91 CB         61.2240   37.2740  -11.9530 C.3       1 ARG        -0.0092
     92 CG         60.9540   37.8230  -13.3290 C.3       1 ARG        -0.0156
     93 CD         62.2640   37.9210  -14.0920 C.3       1 ARG         0.0627
     94 NE         62.0650   37.8050  -15.5330 N.pl3     1 ARG        -0.2723
     95 CZ         63.0460   37.5930  -16.4080 C.cat     1 ARG         0.2882
     96 NH1        62.7720   37.5010  -17.7090 N.pl3     1 ARG        -0.2849
     97 NH2        64.3020   37.4730  -15.9830 N.pl3     1 ARG        -0.2849
     98 N          60.2710   39.6290  -10.0290 N.am      1 LEU        -0.2695
     99 CA         59.9660   41.0430   -9.8450 C.3       1 LEU         0.0946
    100 C          60.3260   41.8470  -11.0890 C.2       1 LEU         0.0601
    101 O          59.4500   42.2050  -11.8760 O.co2     1 LEU        -0.5666
    102 CB         60.7030   41.5980   -8.6210 C.3       1 LEU        -0.0156
    103 CG         60.0760   41.3510   -7.2400 C.3       1 LEU        -0.0431
    104 CD1        61.0510   41.7190   -6.1210 C.3       1 LEU        -0.0625
    105 CD2        58.7650   42.1130   -7.0860 C.3       1 LEU        -0.0625
    106 OXT        61.4970   42.1470  -11.3210 O.co2     1 LEU        -0.5666
    107 H1         49.7305    6.3849    1.8675 H         1 ASP         0.2016
    108 H2         50.7599    7.3292    2.7382 H         1 ASP         0.2016
    109 H3         50.2057    7.8460    1.2769 H         1 ASP         0.2016
    110 H4         47.9939    7.9802    2.0542 H         1 ASP         0.1117
    111 H5         48.4596    6.0899    3.7591 H         1 ASP         0.0512
    112 H6         47.3538    7.4200    4.2434 H         1 ASP         0.0512
    113 H7         50.8880    9.3910    2.2155 H         1 ILE         0.1885
    114 H8         49.9563   11.7716    3.7311 H         1 ILE         0.0803
    115 H9         52.6279   11.3184    2.3346 H         1 ILE         0.0345
    116 H10        53.5439   10.4766    4.2543 H         1 ILE         0.0267
    117 H11        51.8896    9.7826    4.3471 H         1 ILE         0.0267
    118 H12        51.9598   13.6828    2.6274 H         1 ILE         0.0235
    119 H13        53.3672   13.2507    3.6565 H         1 ILE         0.0235
    120 H14        51.7323   13.3971    4.3861 H         1 ILE         0.0235
    121 H15        52.6253   10.6452    6.5248 H         1 ILE         0.0230
    122 H16        51.2237   11.5776    5.8980 H         1 ILE         0.0230
    123 H17        52.8779   12.2715    5.8052 H         1 ILE         0.0230
    124 H18        48.8652   13.2571    2.6680 H         1 PHE         0.1885
    125 H19        48.6017   13.4810   -0.1655 H         1 PHE         0.0823
    126 H20        48.2463   16.0458    0.9439 H         1 PHE         0.0474
    127 H21        47.7838   14.9063    2.2532 H         1 PHE         0.0474
    128 H22        47.1150   15.8541   -1.2672 H         1 PHE         0.0557
    129 H23        45.7232   13.8564    2.2368 H         1 PHE         0.0557
    130 H24        44.9118   15.5859   -2.3004 H         1 PHE         0.0599
    131 H25        43.5069   13.5915    1.2046 H         1 PHE         0.0599
    132 H26        43.0977   14.5020   -1.0541 H         1 PHE         0.0559
    133 H27        49.8549   14.4325   -1.6418 H         1 GLU         0.1883
    134 H28        52.1913   16.0272   -0.7310 H         1 GLU         0.0801
    135 H29        52.6862   15.8749   -3.3078 H         1 GLU         0.0330
    136 H30        51.4931   14.5327   -3.2666 H         1 GLU         0.0330
    137 H31        53.6533   13.5582   -3.0607 H         1 GLU         0.0433
    138 H32        52.8877   13.4870   -1.4373 H         1 GLU         0.0433
    139 H33        52.0910   18.1910   -0.8536 H         1 ARG         0.1883
    140 H34        50.1419   19.4342   -2.7066 H         1 ARG         0.0800
    141 H35        50.3086   20.4294   -0.4928 H         1 ARG         0.0313
    142 H36        50.9046   21.5720   -1.7442 H         1 ARG         0.0313
    143 H37        53.2302   20.4901   -1.0875 H         1 ARG         0.0301
    144 H38        52.3548   20.1688    0.4478 H         1 ARG         0.0301
    145 H39        51.8968   22.5023    0.7813 H         1 ARG         0.0689
    146 H40        52.4190   22.9140   -0.8874 H         1 ARG         0.0689
    147 H41        54.2545   21.9279    1.2911 H         1 ARG         0.2642
    148 H42        56.7810   23.9235   -0.1044 H         1 ARG         0.2615
    149 H43        56.3477   22.7693    1.1850 H         1 ARG         0.2615
    150 H44        53.5665   23.8678   -1.5893 H         1 ARG         0.2615
    151 H45        55.2134   24.5501   -1.6573 H         1 ARG         0.2615
    152 H46        50.7994   20.7339   -4.4308 H         1 ILE         0.1883
    153 H47        53.6869   20.4781   -5.1460 H         1 ILE         0.0803
    154 H48        52.0200   19.6255   -6.8139 H         1 ILE         0.0345
    155 H49        54.3742   20.6618   -7.2360 H         1 ILE         0.0267
    156 H50        53.4574   22.0236   -7.9651 H         1 ILE         0.0267
    157 H51        50.2305   21.2775   -6.4124 H         1 ILE         0.0235
    158 H52        50.7063   21.2023   -8.1429 H         1 ILE         0.0235
    159 H53        51.2674   22.5648   -7.1155 H         1 ILE         0.0235
    160 H54        54.1652   20.4079   -9.6603 H         1 ILE         0.0230
    161 H55        52.3753   20.4632   -9.5192 H         1 ILE         0.0230
    162 H56        53.2921   19.1013   -8.7901 H         1 ILE         0.0230
    163 H57        54.9003   22.2876   -5.5179 H         1 ALA         0.1883
    164 H58        54.1155   24.6746   -4.1275 H         1 ALA         0.0797
    165 H59        56.2161   25.6394   -5.0332 H         1 ALA         0.0277
    166 H60        56.3947   24.2222   -6.1223 H         1 ALA         0.0277
    167 H61        56.4854   24.0036   -4.3417 H         1 ALA         0.0277
    168 H62        53.4252   26.6287   -4.8704 H         1 SER         0.1884
    169 H63        52.5904   26.9004   -7.6686 H         1 SER         0.0823
    170 H64        51.9778   29.2366   -6.9477 H         1 SER         0.0606
    171 H65        52.6184   28.8564   -5.3132 H         1 SER         0.0606
    172 H66        50.3400   28.4582   -5.4998 H         1 SER         0.2097
    173 H67        53.5478   28.1889   -9.1979 H         1 GLU         0.1883
    174 H68        56.4453   28.4353   -8.9109 H         1 GLU         0.0801
    175 H69        54.9167   29.4680  -11.2950 H         1 GLU         0.0330
    176 H70        54.9551   27.6993  -10.9838 H         1 GLU         0.0330
    177 H71        57.5100   29.2942  -11.0362 H         1 GLU         0.0433
    178 H72        56.7137   28.7907  -12.5656 H         1 GLU         0.0433
    179 H73        57.6382   30.2937   -8.8912 H         1 ALA         0.1883
    180 H74        56.1268   32.6726   -7.9736 H         1 ALA         0.0797
    181 H75        58.3206   33.4407   -7.0982 H         1 ALA         0.0277
    182 H76        59.1077   31.9910   -7.8091 H         1 ALA         0.0277
    183 H77        57.9011   31.8028   -6.4918 H         1 ALA         0.0277
    184 H78        55.8141   34.3738   -9.3150 H         1 SER         0.1884
    185 H79        57.3256   34.5808  -11.7899 H         1 SER         0.0823
    186 H80        56.2421   36.8182  -12.0079 H         1 SER         0.0606
    187 H81        55.5625   36.6322  -10.3556 H         1 SER         0.0606
    188 H82        54.0927   35.9894  -12.0089 H         1 SER         0.2097
    189 H83        58.7402   36.3953  -12.3122 H         1 ARG         0.1883
    190 H84        60.4142   37.1059   -9.9746 H         1 ARG         0.0800
    191 H85        61.4647   36.2052  -12.0519 H         1 ARG         0.0313
    192 H86        62.0903   37.8079  -11.5352 H         1 ARG         0.0313
    193 H87        60.5015   38.8221  -13.2446 H         1 ARG         0.0301
    194 H88        60.2655   37.1527  -13.8643 H         1 ARG         0.0301
    195 H89        62.9308   37.1120  -13.7590 H         1 ARG         0.0689
    196 H90        62.7302   38.8933  -13.8747 H         1 ARG         0.0689
    197 H91        61.1051   37.8926  -15.8961 H         1 ARG         0.2642
    198 H92        63.5317   37.3370  -18.3849 H         1 ARG         0.2615
    199 H93        61.8006   37.5939  -18.0385 H         1 ARG         0.2615
    200 H94        64.5145   37.5440  -14.9777 H         1 ARG         0.2615
    201 H95        65.0612   37.3092  -16.6595 H         1 ARG         0.2615
    202 H96        61.0046   39.2185   -9.4874 H         1 LEU         0.1875
    203 H97        58.8842   41.1416   -9.6720 H         1 LEU         0.0726
    204 H98        60.7879   42.6866   -8.7537 H         1 LEU         0.0308
    205 H99        61.7077   41.1503   -8.6109 H         1 LEU         0.0308
    206 H100       59.8547   40.2767   -7.1571 H         1 LEU         0.0297
    207 H101       60.5772   41.5327   -5.1459 H         1 LEU         0.0232
    208 H102       61.3173   42.7832   -6.2019 H         1 LEU         0.0232
    209 H103       61.9599   41.1058   -6.2101 H         1 LEU         0.0232
    210 H104       58.0804   41.8330   -7.9002 H         1 LEU         0.0232
    211 H105       58.9622   43.1943   -7.1283 H         1 LEU         0.0232
    212 H106       58.3062   41.8615   -6.1184 H         1 LEU         0.0232
@<TRIPOS>BOND
     1    1    2 1  
     2    2    3 1  
     3    2    5 1  
     4    3    4 2  
     5    3    9 am 
     6    5    6 1  
     7    6    7 ar 
     8    6    8 ar 
     9    9   10 1  
    10   10   11 1  
    11   10   13 1  
    12   11   12 2  
    13   11   17 am 
    14   13   14 1  
    15   13   15 1  
    16   14   16 1  
    17   17   18 1  
    18   18   19 1  
    19   18   21 1  
    20   19   20 2  
    21   19   28 am 
    22   21   22 1  
    23   22   23 ar 
    24   22   24 ar 
    25   23   25 ar 
    26   24   26 ar 
    27   25   27 ar 
    28   26   27 ar 
    29   28   29 1  
    30   29   30 1  
    31   29   32 1  
    32   30   31 2  
    33   30   37 am 
    34   32   33 1  
    35   33   34 1  
    36   34   35 ar 
    37   34   36 ar 
    38   37   38 1  
    39   38   39 1  
    40   38   41 1  
    41   39   40 2  
    42   39   48 am 
    43   41   42 1  
    44   42   43 1  
    45   43   44 1  
    46   44   45 ar 
    47   45   46 ar 
    48   45   47 ar 
    49   48   49 1  
    50   49   50 1  
    51   49   52 1  
    52   50   51 2  
    53   50   56 am 
    54   52   53 1  
    55   52   54 1  
    56   53   55 1  
    57   56   57 1  
    58   57   58 1  
    59   57   60 1  
    60   58   59 2  
    61   58   61 am 
    62   61   62 1  
    63   62   63 1  
    64   62   65 1  
    65   63   64 2  
    66   63   67 am 
    67   65   66 1  
    68   67   68 1  
    69   68   69 1  
    70   68   71 1  
    71   69   70 2  
    72   69   76 am 
    73   71   72 1  
    74   72   73 1  
    75   73   74 ar 
    76   73   75 ar 
    77   76   77 1  
    78   77   78 1  
    79   77   80 1  
    80   78   79 2  
    81   78   81 am 
    82   81   82 1  
    83   82   83 1  
    84   82   85 1  
    85   83   84 2  
    86   83   87 am 
    87   85   86 1  
    88   87   88 1  
    89   88   89 1  
    90   88   91 1  
    91   89   90 2  
    92   89   98 am 
    93   91   92 1  
    94   92   93 1  
    95   93   94 1  
    96   94   95 ar 
    97   95   96 ar 
    98   95   97 ar 
    99   98   99 1  
   100   99  100 1  
   101   99  102 1  
   102  100  101 ar 
   103  100  106 ar 
   104  102  103 1  
   105  103  104 1  
   106  103  105 1  
   107    1  107 1  
   108    1  108 1  
   109    1  109 1  
   110    2  110 1  
   111    5  111 1  
   112    5  112 1  
   113    9  113 1  
   114   10  114 1  
   115   13  115 1  
   116   14  116 1  
   117   14  117 1  
   118   15  118 1  
   119   15  119 1  
   120   15  120 1  
   121   16  121 1  
   122   16  122 1  
   123   16  123 1  
   124   17  124 1  
   125   18  125 1  
   126   21  126 1  
   127   21  127 1  
   128   23  128 1  
   129   24  129 1  
   130   25  130 1  
   131   26  131 1  
   132   27  132 1  
   133   28  133 1  
   134   29  134 1  
   135   32  135 1  
   136   32  136 1  
   137   33  137 1  
   138   33  138 1  
   139   37  139 1  
   140   38  140 1  
   141   41  141 1  
   142   41  142 1  
   143   42  143 1  
   144   42  144 1  
   145   43  145 1  
   146   43  146 1  
   147   44  147 1  
   148   46  148 1  
   149   46  149 1  
   150   47  150 1  
   151   47  151 1  
   152   48  152 1  
   153   49  153 1  
   154   52  154 1  
   155   53  155 1  
   156   53  156 1  
   157   54  157 1  
   158   54  158 1  
   159   54  159 1  
   160   55  160 1  
   161   55  161 1  
   162   55  162 1  
   163   56  163 1  
   164   57  164 1  
   165   60  165 1  
   166   60  166 1  
   167   60  167 1  
   168   61  168 1  
   169   62  169 1  
   170   65  170 1  
   171   65  171 1  
   172   66  172 1  
   173   67  173 1  
   174   68  174 1  
   175   71  175 1  
   176   71  176 1  
   177   72  177 1  
   178   72  178 1  
   179   76  179 1  
   180   77  180 1  
   181   80  181 1  
   182   80  182 1  
   183   80  183 1  
   184   81  184 1  
   185   82  185 1  
   186   85  186 1  
   187   85  187 1  
   188   86  188 1  
   189   87  189 1  
   190   88  190 1  
   191   91  191 1  
   192   91  192 1  
   193   92  193 1  
   194   92  194 1  
   195   93  195 1  
   196   93  196 1  
   197   94  197 1  
   198   96  198 1  
   199   96  199 1  
   200   97  200 1  
   201   97  201 1  
   202   98  202 1  
   203   99  203 1  
   204  102  204 1  
   205  102  205 1  
   206  103  206 1  
   207  104  207 1  
   208  104  208 1  
   209  104  209 1  
   210  105  210 1  
   211  105  211 1  
   212  105  212 1  
@<TRIPOS>SUBSTRUCTURE
     1 ASP         1

