6bgu_ligand
  -I-interpret- 

 40 42  0  0  0  0  0  0  0  0999 V2000
  -27.2750   22.4640    0.3610 C   0  0  0  0  0
  -23.3260   19.0300    7.7330 C   0  0  0  0  0
  -27.8220   25.0520    7.3290 C   0  0  0  0  0
  -27.0800   23.7720    6.9670 C   0  0  0  0  0
  -26.5480   23.7970    5.5390 C   0  0  0  0  0
  -25.7530   22.2840    3.8680 C   0  0  0  0  0
  -26.6990   22.1200    2.6870 C   0  0  0  0  0
  -27.9150   21.4700    2.8440 C   0  0  0  0  0
  -28.7980   21.3100    1.7900 C   0  0  0  0  0
  -28.4800   21.8090    0.5410 C   0  0  0  0  0
  -26.4020   22.6150    1.4260 C   0  0  0  0  0
  -25.0330   20.9760    4.1600 C   0  0  0  0  0
  -24.7260   19.9710    3.2500 C   0  0  0  0  0
  -24.0690   18.9460    3.9700 C   0  0  0  0  0
  -22.9940   17.0050    4.5180 C   0  0  0  0  0
  -22.8860   17.3540    5.8610 C   0  0  0  0  0
  -23.4020   18.5710    6.2810 C   0  0  0  0  0
  -24.0040   19.3740    5.3030 C   0  0  0  0  0
  -23.5620   17.7640    3.5930 N   0  0  0  0  0
  -24.5960   20.6080    5.3990 N   0  0  0  0  0
  -26.5820   22.5090    5.0030 O   0  0  0  0  0
  -22.5780   18.4260    8.5430 O   0  0  0  0  0
  -24.0120   20.0170    8.1100 O   0  0  0  0  0
  -24.9080   23.4430    1.1470 Cl  0  0  0  0  0
  -27.0122   22.8615   -0.6193 H   0  0  0  0  0
  -27.1457   25.9016    7.2345 H   0  0  0  0  0
  -28.6683   25.1829    6.6547 H   0  0  0  0  0
  -28.1811   24.9842    8.3559 H   0  0  0  0  0
  -27.7786   22.9398    7.0534 H   0  0  0  0  0
  -26.2309   23.6703    7.6428 H   0  0  0  0  0
  -25.5204   24.1605    5.5421 H   0  0  0  0  0
  -27.1686   24.4574    4.9333 H   0  0  0  0  0
  -25.0362   23.0780    3.6587 H   0  0  0  0  0
  -28.1821   21.0746    3.8240 H   0  0  0  0  0
  -29.7437   20.7907    1.9450 H   0  0  0  0  0
  -29.1712   21.6877   -0.2931 H   0  0  0  0  0
  -24.9494   19.9726    2.1831 H   0  0  0  0  0
  -22.5843   16.0440    4.2070 H   0  0  0  0  0
  -22.4039   16.6820    6.5710 H   0  0  0  0  0
  -24.5204   20.3538    7.3686 H   0  0  0  0  0
  1 10  4  0  0  0
 11  1  4  0  0  0
 17  2  1  0  0  0
  2 22  2  0  0  0
  2 23  1  0  0  0
  4  3  1  0  0  0
  5  4  1  0  0  0
 21  5  1  0  0  0
  6  7  1  0  0  0
 12  6  1  0  0  0
  6 21  1  0  0  0
  7  8  4  0  0  0
  7 11  4  0  0  0
  8  9  4  0  0  0
  9 10  4  0  0  0
 11 24  1  0  0  0
 13 12  4  0  0  0
 12 20  4  0  0  0
 14 13  4  0  0  0
 14 18  4  0  0  0
 19 14  4  0  0  0
 16 15  4  0  0  0
 15 19  4  0  0  0
 16 17  4  0  0  0
 17 18  4  0  0  0
 18 20  4  0  0  0
  1 25  1  0  0  0
  3 26  1  0  0  0
  3 27  1  0  0  0
  3 28  1  0  0  0
  4 29  1  0  0  0
  4 30  1  0  0  0
  5 31  1  0  0  0
  5 32  1  0  0  0
  6 33  1  0  0  0
  8 34  1  0  0  0
  9 35  1  0  0  0
 10 36  1  0  0  0
 13 37  1  0  0  0
 15 38  1  0  0  0
 16 39  1  0  0  0
 23 40  1  0  0  0
M  END
$$$$
