4xyc_ligand
  -I-interpret- 

 36 40  0  0  0  0  0  0  0  0999 V2000
  157.9920   33.8270    4.5710 O   0  0  0  0  0
  157.9750   34.1350    5.7810 C   0  0  0  0  0
  157.7040   35.5590    6.1600 C   0  0  0  0  0
  157.4550   36.7020    5.4750 N   0  0  0  0  0
  157.2890   37.7240    6.3640 C   0  0  0  0  0
  157.4420   37.2230    7.6470 C   0  0  0  0  0
  157.6850   35.9270    7.4380 N   0  0  0  0  0
  157.9120   35.0030    8.3850 C   0  0  0  0  0
  158.1990   33.1990    6.7330 N   0  0  0  0  0
  158.1720   33.5990    8.0130 C   0  0  0  0  0
  158.3600   32.8990    9.1890 C   0  0  0  0  0
  158.6340   31.5450    9.3730 C   0  0  0  0  0
  158.7790   31.0910   10.6870 C   0  0  0  0  0
  158.6490   31.9820   11.7680 C   0  0  0  0  0
  158.3820   33.3520   11.5720 C   0  0  0  0  0
  158.2290   33.7880   10.2510 C   0  0  0  0  0
  157.9400   35.1690    9.8330 C   0  0  0  0  0
  158.1940   34.3140   12.7180 C   0  0  0  0  0
  157.2950   33.9750   13.7370 C   0  0  0  0  0
  157.0580   34.8410   14.8110 C   0  0  0  0  0
  157.7010   36.0750   14.8750 C   0  0  0  0  0
  158.5810   36.4360   13.8580 C   0  0  0  0  0
  158.8240   35.5650   12.7870 C   0  0  0  0  0
  157.0723   38.7611    6.1078 H   0  0  0  0  0
  157.3793   37.7568    8.5953 H   0  0  0  0  0
  158.3814   32.2263    6.4862 H   0  0  0  0  0
  158.7314   30.8666    8.5254 H   0  0  0  0  0
  158.9943   30.0392   10.8755 H   0  0  0  0  0
  158.7577   31.6028   12.7841 H   0  0  0  0  0
  157.0229   35.5812   10.2539 H   0  0  0  0  0
  158.6639   35.9038   10.1852 H   0  0  0  0  0
  156.7708   33.0203   13.6930 H   0  0  0  0  0
  156.3667   34.5482   15.6013 H   0  0  0  0  0
  157.5175   36.7499   15.7111 H   0  0  0  0  0
  159.0842   37.4022   13.8950 H   0  0  0  0  0
  159.5124   35.8643   11.9966 H   0  0  0  0  0
  1  2  2  0  0  0
  2  3  1  0  0  0
  2  9  1  0  0  0
  3  4  4  0  0  0
  3  7  4  0  0  0
  4  5  4  0  0  0
  5  6  4  0  0  0
  6  7  4  0  0  0
  7  8  1  0  0  0
  8 10  2  0  0  0
  8 17  1  0  0  0
  9 10  1  0  0  0
 10 11  1  0  0  0
 11 12  4  0  0  0
 11 16  4  0  0  0
 12 13  4  0  0  0
 13 14  4  0  0  0
 14 15  4  0  0  0
 15 16  4  0  0  0
 15 18  1  0  0  0
 16 17  1  0  0  0
 18 19  4  0  0  0
 18 23  4  0  0  0
 19 20  4  0  0  0
 20 21  4  0  0  0
 21 22  4  0  0  0
 22 23  4  0  0  0
  5 24  1  0  0  0
  6 25  1  0  0  0
  9 26  1  0  0  0
 12 27  1  0  0  0
 13 28  1  0  0  0
 14 29  1  0  0  0
 17 30  1  0  0  0
 17 31  1  0  0  0
 19 32  1  0  0  0
 20 33  1  0  0  0
 21 34  1  0  0  0
 22 35  1  0  0  0
 23 36  1  0  0  0
M  END
$$$$
