4oya_ligand
  -I-interpret- 

 37 40  0  0  0  0  0  0  0  0999 V2000
   17.2900   20.7040   -1.0160 C   0  0  0  0  0
   18.0940   21.8720   -1.1490 C   0  0  0  0  0
   17.6110   23.2180   -1.5580 C   0  0  0  0  0
   19.4970   24.5220   -0.4750 C   0  0  0  0  0
   20.1700   25.7170   -0.2670 C   0  0  0  0  0
   19.7250   26.8770   -0.8680 C   0  0  0  0  0
   18.6200   26.8390   -1.6900 C   0  0  0  0  0
   16.8180   28.3100   -2.4230 C   0  0  0  0  0
   16.3740   28.0840   -3.8250 C   0  0  0  0  0
   14.6280   26.5480   -6.5220 C   0  0  0  0  0
   15.3290   28.0610   -8.2530 C   0  0  0  0  0
   16.0710   28.7900   -7.3320 C   0  0  0  0  0
   16.0910   28.3930   -5.9900 C   0  0  0  0  0
   17.9290   25.6580   -1.8830 C   0  0  0  0  0
   15.9530   20.6110   -1.1960 N   0  0  0  0  0
   18.0380   19.7010   -0.6610 N   0  0  0  0  0
   19.3070   20.2140   -0.5720 O   0  0  0  0  0
   19.3330   21.5610   -0.8900 N   0  0  0  0  0
   16.5410   23.2790   -2.1540 O   0  0  0  0  0
   18.3680   24.4790   -1.2860 C   0  0  0  0  0
   18.2130   28.0530   -2.2550 O   0  0  0  0  0
   15.5520   27.1150   -4.2300 N   0  0  0  0  0
   15.3770   27.2870   -5.5860 C   0  0  0  0  0
   14.6160   26.9430   -7.8500 C   0  0  0  0  0
   16.6910   28.8670   -4.8670 N   0  0  0  0  0
   19.8559   23.6094    0.0010 H   0  0  0  0  0
   21.0523   25.7399    0.3726 H   0  0  0  0  0
   20.2453   27.8187   -0.6932 H   0  0  0  0  0
   16.2657   27.6279   -1.7766 H   0  0  0  0  0
   16.6311   29.3537   -2.1705 H   0  0  0  0  0
   14.0622   25.6722   -6.2043 H   0  0  0  0  0
   15.3075   28.3700   -9.2981 H   0  0  0  0  0
   16.6344   29.6662   -7.6528 H   0  0  0  0  0
   17.0349   25.6492   -2.5063 H   0  0  0  0  0
   15.4147   21.4375   -1.4559 H   0  0  0  0  0
   15.4828   19.7144   -1.0719 H   0  0  0  0  0
   14.0434   26.3720   -8.5809 H   0  0  0  0  0
  2  1  4  0  0  0
  1 15  1  0  0  0
  1 16  4  0  0  0
  3  2  1  0  0  0
  2 18  4  0  0  0
  3 19  2  0  0  0
 20  3  1  0  0  0
  5  4  4  0  0  0
  4 20  4  0  0  0
  6  5  4  0  0  0
  7  6  4  0  0  0
  7 14  4  0  0  0
 21  7  1  0  0  0
  9  8  1  0  0  0
  8 21  1  0  0  0
  9 22  4  0  0  0
 25  9  4  0  0  0
 23 10  4  0  0  0
 10 24  4  0  0  0
 12 11  4  0  0  0
 11 24  4  0  0  0
 13 12  4  0  0  0
 13 23  4  0  0  0
 13 25  4  0  0  0
 14 20  4  0  0  0
 16 17  4  0  0  0
 17 18  4  0  0  0
 22 23  4  0  0  0
  4 26  1  0  0  0
  5 27  1  0  0  0
  6 28  1  0  0  0
  8 29  1  0  0  0
  8 30  1  0  0  0
 10 31  1  0  0  0
 11 32  1  0  0  0
 12 33  1  0  0  0
 14 34  1  0  0  0
 15 35  1  0  0  0
 15 36  1  0  0  0
 24 37  1  0  0  0
M  END
$$$$
