1hps_ligand
  -I-interpret- 

 92 95  0  0  0  0  0  0  0  0999 V2000
   -7.7930   17.1890   22.4770 C   0  0  0  0  0
   -7.8030   18.3960   22.1770 O   0  0  0  0  0
   -7.6940   16.1280   21.3860 C   0  0  0  0  0
   -6.5780   16.4880   20.4110 C   0  0  0  0  0
   -9.0400   16.1410   20.6690 C   0  0  0  0  0
   -7.9670   17.8950   24.6830 N   0  0  0  0  0
   -8.0280   17.2320   25.8340 C   0  0  0  0  0
   -7.9880   15.9030   25.7660 N   0  0  0  0  0
   -7.8960   15.6560   24.4730 C   0  0  0  0  0
   -7.8820   16.8800   23.8270 C   0  0  0  0  0
   -8.1210   18.0950   27.1080 C   0  0  0  0  0
   -8.9090   17.4250   28.1990 C   0  0  0  0  0
  -10.4200   17.3680   28.0950 C   0  0  0  0  0
  -10.9520   18.3750   28.9430 O   0  0  0  0  0
  -10.9490   15.9810   28.5710 C   0  0  0  0  0
  -11.0340   16.0070   30.0190 N   0  0  0  0  0
  -10.2110   15.2730   30.7500 C   0  0  0  0  0
   -9.3790   14.5270   30.2240 O   0  0  0  0  0
  -10.4230   15.4430   32.2530 C   0  0  0  0  0
  -11.3190   14.3780   32.6270 N   0  0  0  0  0
  -12.4970   14.6570   33.1870 C   0  0  0  0  0
  -12.7940   15.8340   33.3850 O   0  0  0  0  0
   -9.0690   15.3820   33.0050 C   0  0  0  0  0
   -9.2320   15.4490   34.5170 C   0  0  0  0  0
   -8.2850   16.6300   32.6380 C   0  0  0  0  0
   -6.7480   18.4180   27.7230 C   0  0  0  0  0
   -5.6400   18.6420   26.7080 C   0  0  0  0  0
   -4.6230   17.6810   26.5980 C   0  0  0  0  0
   -3.6490   17.8310   25.6130 C   0  0  0  0  0
   -3.6930   18.9330   24.7510 C   0  0  0  0  0
   -4.7040   19.8920   24.8720 C   0  0  0  0  0
   -5.6780   19.7480   25.8530 C   0  0  0  0  0
  -12.3350   15.6500   28.0040 C   0  0  0  0  0
  -12.8270   14.2790   28.4010 C   0  0  0  0  0
  -12.2480   13.1460   27.8290 C   0  0  0  0  0
  -12.6870   11.8780   28.2140 C   0  0  0  0  0
  -13.6990   11.7460   29.1660 C   0  0  0  0  0
  -14.2750   12.8770   29.7340 C   0  0  0  0  0
  -13.8460   14.1510   29.3580 C   0  0  0  0  0
  -13.4230   13.6870   33.5640 O   0  0  0  0  0
  -12.8350   12.4060   33.8000 C   0  0  0  0  0
  -13.7670   11.2300   33.8450 C   0  0  0  0  0
  -14.7550   11.1890   34.8220 C   0  0  0  0  0
  -15.5890   10.0820   34.8940 C   0  0  0  0  0
  -15.4310    9.0330   33.9910 C   0  0  0  0  0
  -14.4460    9.0860   33.0160 C   0  0  0  0  0
  -13.6060   10.1860   32.9380 C   0  0  0  0  0
   -7.4684   15.1445   21.7982 H   0  0  0  0  0
   -6.5586   15.7615   19.5987 H   0  0  0  0  0
   -6.7586   17.4835   20.0055 H   0  0  0  0  0
   -5.6220   16.4754   20.9344 H   0  0  0  0  0
   -9.2249   17.1359   20.2640 H   0  0  0  0  0
   -9.0248   15.4139   19.8571 H   0  0  0  0  0
   -9.8290   15.8825   21.3753 H   0  0  0  0  0
   -7.8414   14.6741   24.0028 H   0  0  0  0  0
   -8.6117   19.0061   26.7656 H   0  0  0  0  0
   -8.7138   18.0219   29.0899 H   0  0  0  0  0
   -8.5889   16.3834   28.1739 H   0  0  0  0  0
  -10.7219   17.5205   27.0588 H   0  0  0  0  0
  -11.9106   18.3591   28.8944 H   0  0  0  0  0
  -10.2599   15.2158   28.2137 H   0  0  0  0  0
  -11.7318   16.5942   30.4758 H   0  0  0  0  0
  -10.8485   16.4121   32.5137 H   0  0  0  0  0
  -11.0514   13.4075   32.4629 H   0  0  0  0  0
   -8.5876   14.4439   32.7288 H   0  0  0  0  0
   -9.7224   16.3842   34.7872 H   0  0  0  0  0
   -9.8391   14.6085   34.8533 H   0  0  0  0  0
   -8.2508   15.4021   34.9894 H   0  0  0  0  0
   -8.1218   16.6513   31.5605 H   0  0  0  0  0
   -8.8486   17.5131   32.9389 H   0  0  0  0  0
   -7.3239   16.6181   33.1521 H   0  0  0  0  0
   -6.4585   17.5578   28.3266 H   0  0  0  0  0
   -6.8598   19.3463   28.2833 H   0  0  0  0  0
   -4.5955   16.8273   27.2752 H   0  0  0  0  0
   -2.8543   17.0916   25.5139 H   0  0  0  0  0
   -2.9324   19.0448   23.9783 H   0  0  0  0  0
   -4.7279   20.7493   24.1993 H   0  0  0  0  0
   -6.4671   20.4930   25.9554 H   0  0  0  0  0
  -12.2616   15.6729   26.9167 H   0  0  0  0  0
  -13.0383   16.3817   28.4017 H   0  0  0  0  0
  -11.4575   13.2502   27.0858 H   0  0  0  0  0
  -12.2385   10.9892   27.7702 H   0  0  0  0  0
  -14.0386   10.7543   29.4649 H   0  0  0  0  0
  -15.0655   12.7682   30.4766 H   0  0  0  0  0
  -14.2977   15.0376   29.8030 H   0  0  0  0  0
  -12.3791   12.4640   34.7884 H   0  0  0  0  0
  -12.1657   12.2249   32.9589 H   0  0  0  0  0
  -14.8732   12.0157   35.5226 H   0  0  0  0  0
  -16.3667   10.0334   35.6562 H   0  0  0  0  0
  -16.0864    8.1641   34.0512 H   0  0  0  0  0
  -14.3324    8.2626   32.3109 H   0  0  0  0  0
  -12.8285   10.2331   32.1755 H   0  0  0  0  0
  1 10  1  0  0  0
  1  3  1  0  0  0
  1  2  2  0  0  0
  3  5  1  0  0  0
  3  4  1  0  0  0
 10  9  4  0  0  0
 10  6  4  0  0  0
  6  7  4  0  0  0
  7 11  1  0  0  0
  7  8  4  0  0  0
  8  9  4  0  0  0
 11 26  1  0  0  0
 11 12  1  0  0  0
 12 13  1  0  0  0
 13 15  1  0  0  0
 13 14  1  0  0  0
 15 33  1  0  0  0
 15 16  1  0  0  0
 16 17  1  0  0  0
 17 19  1  0  0  0
 17 18  2  0  0  0
 19 23  1  0  0  0
 19 20  1  0  0  0
 20 21  1  0  0  0
 21 40  1  0  0  0
 21 22  2  0  0  0
 40 41  1  0  0  0
 41 42  1  0  0  0
 42 47  4  0  0  0
 42 43  4  0  0  0
 43 44  4  0  0  0
 44 45  4  0  0  0
 45 46  4  0  0  0
 46 47  4  0  0  0
 23 25  1  0  0  0
 23 24  1  0  0  0
 33 34  1  0  0  0
 34 39  4  0  0  0
 34 35  4  0  0  0
 35 36  4  0  0  0
 36 37  4  0  0  0
 37 38  4  0  0  0
 38 39  4  0  0  0
 26 27  1  0  0  0
 27 32  4  0  0  0
 27 28  4  0  0  0
 28 29  4  0  0  0
 29 30  4  0  0  0
 30 31  4  0  0  0
 31 32  4  0  0  0
  3 48  1  0  0  0
  4 49  1  0  0  0
  4 50  1  0  0  0
  4 51  1  0  0  0
  5 52  1  0  0  0
  5 53  1  0  0  0
  5 54  1  0  0  0
  9 55  1  0  0  0
 11 56  1  0  0  0
 12 57  1  0  0  0
 12 58  1  0  0  0
 13 59  1  0  0  0
 14 60  1  0  0  0
 15 61  1  0  0  0
 16 62  1  0  0  0
 19 63  1  0  0  0
 20 64  1  0  0  0
 23 65  1  0  0  0
 24 66  1  0  0  0
 24 67  1  0  0  0
 24 68  1  0  0  0
 25 69  1  0  0  0
 25 70  1  0  0  0
 25 71  1  0  0  0
 26 72  1  0  0  0
 26 73  1  0  0  0
 28 74  1  0  0  0
 29 75  1  0  0  0
 30 76  1  0  0  0
 31 77  1  0  0  0
 32 78  1  0  0  0
 33 79  1  0  0  0
 33 80  1  0  0  0
 35 81  1  0  0  0
 36 82  1  0  0  0
 37 83  1  0  0  0
 38 84  1  0  0  0
 39 85  1  0  0  0
 41 86  1  0  0  0
 41 87  1  0  0  0
 43 88  1  0  0  0
 44 89  1  0  0  0
 45 90  1  0  0  0
 46 91  1  0  0  0
 47 92  1  0  0  0
M  END
$$$$
