4us4_ligand
  -I-interpret- 

 27 28  0  0  0  0  0  0  0  0999 V2000
  -14.0650  -16.4980   27.9150 N   0  3  0  0  0
  -14.5580  -16.1250   26.5950 C   0  0  0  0  0
  -13.9160  -14.8250   26.1260 C   0  0  0  0  0
  -14.1290  -14.3840   24.9970 O   0  0  0  0  0
  -16.0840  -15.9900   26.6070 C   0  0  0  0  0
  -16.7780  -17.1620   27.2340 C   0  0  0  0  0
  -16.9440  -18.4040   26.6910 C   0  0  0  0  0
  -17.3970  -17.2030   28.5250 C   0  0  0  0  0
  -17.6280  -19.2160   27.5650 N   0  0  0  0  0
  -17.9170  -18.5010   28.6980 C   0  0  0  0  0
  -17.5630  -16.2680   29.5510 C   0  0  0  0  0
  -18.5900  -18.8870   29.8550 C   0  0  0  0  0
  -18.2290  -16.6520   30.6980 C   0  0  0  0  0
  -18.7340  -17.9500   30.8420 C   0  0  0  0  0
  -13.1700  -14.1860   26.8690 O   0  0  0  0  0
  -13.0489  -16.5826   27.8857 H   0  0  0  0  0
  -14.3283  -15.7803   28.5903 H   0  0  0  0  0
  -14.4740  -17.3912   28.1895 H   0  0  0  0  0
  -14.2851  -16.9157   25.8962 H   0  0  0  0  0
  -16.4172  -15.9253   25.5712 H   0  0  0  0  0
  -16.3320  -15.1067   27.1955 H   0  0  0  0  0
  -16.5861  -18.7077   25.7072 H   0  0  0  0  0
  -17.1740  -15.2550   29.4475 H   0  0  0  0  0
  -18.9864  -19.8959   29.9697 H   0  0  0  0  0
  -18.3640  -15.9322   31.5053 H   0  0  0  0  0
  -19.2537  -18.2203   31.7612 H   0  0  0  0  0
  -13.0930  -14.6405   27.7111 H   0  0  0  0  0
  1  2  1  0  0  0
  2  3  1  0  0  0
  2  5  1  0  0  0
  3  4  2  0  0  0
  3 15  1  0  0  0
  5  6  1  0  0  0
  6  7  4  0  0  0
  6  8  4  0  0  0
  7  9  4  0  0  0
  8 10  4  0  0  0
  8 11  4  0  0  0
  9 10  4  0  0  0
 10 12  4  0  0  0
 11 13  4  0  0  0
 12 14  4  0  0  0
 13 14  4  0  0  0
  1 16  1  0  0  0
  1 17  1  0  0  0
  1 18  1  0  0  0
  2 19  1  0  0  0
  5 20  1  0  0  0
  5 21  1  0  0  0
  7 22  1  0  0  0
 11 23  1  0  0  0
 12 24  1  0  0  0
 13 25  1  0  0  0
 14 26  1  0  0  0
 15 27  1  0  0  0
M  END
$$$$
