1k1m_ligand
  -I-interpret- 

 65 68  0  0  0  0  0  0  0  0999 V2000
   -3.1730    5.6540   20.2490 C   0  0  0  0  0
   -3.7450    6.9360   20.2070 C   0  0  0  0  0
   -1.8430    5.4820   19.8390 C   0  0  0  0  0
   -1.0840    6.5810   19.4160 C   0  0  0  0  0
   -1.6560    7.8650   19.3790 C   0  0  0  0  0
   -2.9970    8.0490   19.7770 C   0  0  0  0  0
   -3.6340    9.4260   19.7420 C   0  0  0  0  0
   -2.9550   10.4400   19.2660 N   0  0  0  0  0
   -4.8630    9.5760   20.1840 N   0  0  0  0  0
   -3.9970    4.4420   20.7130 C   0  0  0  0  0
   -3.9400    4.2160   22.2590 C   0  0  0  0  0
   -2.6100    4.6180   22.8620 C   0  0  0  0  0
   -2.5170    5.8040   23.1540 O   0  0  0  0  0
   -1.5750    3.7580   23.0680 N   0  0  0  0  0
   -1.5450    2.4380   22.4400 C   0  0  0  0  0
   -1.1290    1.4750   23.5690 C   0  0  0  0  0
    0.1600    3.3960   24.6590 C   0  0  0  0  0
   -0.2940    4.3020   23.4970 C   0  0  0  0  0
   -0.0020    1.9730   24.3640 N   0  0  0  0  0
   -5.0150    4.9480   22.9320 N   0  0  0  0  0
   -5.8890    4.2530   24.2530 S   0  0  0  0  0
   -6.9290    5.1660   24.6370 O   0  0  0  0  0
   -6.2180    2.8790   23.9270 O   0  0  0  0  0
   -4.6560    4.2900   25.4950 C   0  0  0  0  0
   -4.3000    5.5150   26.0860 C   0  0  0  0  0
   -3.3270    5.5790   27.0850 C   0  0  0  0  0
   -3.0350    3.1740   26.9510 C   0  0  0  0  0
   -2.6930    4.4190   27.5220 C   0  0  0  0  0
   -4.0290    3.1110   25.9330 C   0  0  0  0  0
   -1.7280    4.4860   28.5210 C   0  0  0  0  0
   -1.0640    3.3260   28.9270 C   0  0  0  0  0
   -1.4180    2.0830   28.3780 C   0  0  0  0  0
   -2.4000    2.0060   27.3840 C   0  0  0  0  0
    0.9320    1.0670   24.7960 C   0  0  0  0  0
    1.8470    1.3940   25.5380 O   0  0  0  0  0
    0.8910   -0.3950   24.4080 C   0  0  0  0  0
   -4.7828    7.0714   20.5116 H   0  0  0  0  0
   -1.3971    4.4874   19.8495 H   0  0  0  0  0
   -0.0461    6.4402   19.1144 H   0  0  0  0  0
   -1.0644    8.7167   19.0434 H   0  0  0  0  0
   -3.3787   11.3672   19.2334 H   0  0  0  0  0
   -5.3050   10.4950   20.1601 H   0  0  0  0  0
   -5.3746    8.7734   20.5508 H   0  0  0  0  0
   -3.5810    3.5559   20.2335 H   0  0  0  0  0
   -5.0370    4.6263   20.4437 H   0  0  0  0  0
   -4.0667    3.1445   22.4134 H   0  0  0  0  0
   -0.8507    2.4035   21.6005 H   0  0  0  0  0
   -2.5112    2.1696   22.0128 H   0  0  0  0  0
   -0.8198    0.5373   23.1072 H   0  0  0  0  0
   -1.9818    1.3614   24.2383 H   0  0  0  0  0
    1.2197    3.5824   24.8335 H   0  0  0  0  0
   -0.4580    3.6298   25.5259 H   0  0  0  0  0
   -0.3828    5.3426   23.8090 H   0  0  0  0  0
    0.4326    4.3091   22.6846 H   0  0  0  0  0
   -5.2535    5.8877   22.6150 H   0  0  0  0  0
   -4.7923    6.4307   25.7585 H   0  0  0  0  0
   -3.0626    6.5408   27.5246 H   0  0  0  0  0
   -4.3026    2.1512   25.4949 H   0  0  0  0  0
   -1.4900    5.4424   28.9866 H   0  0  0  0  0
   -0.2698    3.3858   29.6712 H   0  0  0  0  0
   -0.9263    1.1751   28.7272 H   0  0  0  0  0
   -2.6679    1.0425   26.9505 H   0  0  0  0  0
    1.8134   -0.6582   23.8904 H   0  0  0  0  0
    0.7898   -1.0051   25.3056 H   0  0  0  0  0
    0.0404   -0.5711   23.7496 H   0  0  0  0  0
  1 10  1  0  0  0
  1  3  4  0  0  0
  1  2  4  0  0  0
  2  6  4  0  0  0
  6  7  1  0  0  0
  6  5  4  0  0  0
  5  4  4  0  0  0
  4  3  4  0  0  0
  7  9  1  0  0  0
  7  8  2  0  0  0
 10 11  1  0  0  0
 11 20  1  0  0  0
 11 12  1  0  0  0
 12 14  1  0  0  0
 12 13  2  0  0  0
 14 18  1  0  0  0
 14 15  1  0  0  0
 15 16  1  0  0  0
 16 19  1  0  0  0
 19 17  1  0  0  0
 19 34  1  0  0  0
 34 36  1  0  0  0
 34 35  2  0  0  0
 17 18  1  0  0  0
 20 21  1  0  0  0
 21 24  1  0  0  0
 21 23  2  0  0  0
 21 22  2  0  0  0
 24 29  4  0  0  0
 24 25  4  0  0  0
 25 26  4  0  0  0
 26 28  4  0  0  0
 28 27  4  0  0  0
 28 30  4  0  0  0
 30 31  4  0  0  0
 31 32  4  0  0  0
 32 33  4  0  0  0
 33 27  4  0  0  0
 27 29  4  0  0  0
  2 37  1  0  0  0
  3 38  1  0  0  0
  4 39  1  0  0  0
  5 40  1  0  0  0
  8 41  1  0  0  0
  9 42  1  0  0  0
  9 43  1  0  0  0
 10 44  1  0  0  0
 10 45  1  0  0  0
 11 46  1  0  0  0
 15 47  1  0  0  0
 15 48  1  0  0  0
 16 49  1  0  0  0
 16 50  1  0  0  0
 17 51  1  0  0  0
 17 52  1  0  0  0
 18 53  1  0  0  0
 18 54  1  0  0  0
 20 55  1  0  0  0
 25 56  1  0  0  0
 26 57  1  0  0  0
 29 58  1  0  0  0
 30 59  1  0  0  0
 31 60  1  0  0  0
 32 61  1  0  0  0
 33 62  1  0  0  0
 36 63  1  0  0  0
 36 64  1  0  0  0
 36 65  1  0  0  0
M  END
$$$$
