5tg1_ligand
  -I-interpret- 

 69 70  0  0  0  0  0  0  0  0999 V2000
   74.8950  -51.3260  133.3710 O   0  0  0  0  0
   75.0670  -52.4950  133.5210 C   0  0  0  0  0
   71.7720  -50.8800  130.6310 N   0  0  0  0  0
   70.7030  -51.7820  130.1920 C   0  0  0  0  0
   71.0500  -53.1500  130.7900 C   0  0  0  0  0
   71.0570  -53.0290  132.3000 C   0  0  0  0  0
   71.6730  -54.2500  133.0510 C   0  0  0  0  0
   71.8390  -53.8710  134.5390 C   0  0  0  0  0
   74.1280  -53.4010  134.0900 O   0  0  0  0  0
   72.9580  -52.8360  134.6670 C   0  0  0  0  0
   73.2400  -52.4300  136.1170 C   0  0  0  0  0
   73.3690  -53.3500  137.1340 C   0  0  0  0  0
   73.6170  -52.9070  138.4360 C   0  0  0  0  0
   73.7280  -51.5540  138.6880 C   0  0  0  0  0
   73.5940  -50.6510  137.6450 C   0  0  0  0  0
   73.7260  -48.9020  137.8970 Cl  0  0  0  0  0
   73.3460  -51.0810  136.3670 C   0  0  0  0  0
   76.2980  -53.1350  133.1030 N   0  0  0  0  0
   77.1460  -52.4170  132.1990 C   0  0  0  0  0
   76.3800  -52.1170  130.9080 C   0  0  0  0  0
   75.5780  -52.8460  130.3960 O   0  0  0  0  0
   78.3630  -53.2430  131.8850 C   0  0  0  0  0
   79.2000  -53.5570  133.1440 C   0  0  0  0  0
   80.3450  -54.5310  132.7850 C   0  0  0  0  0
   79.7220  -52.3200  133.8880 C   0  0  0  0  0
   76.6980  -50.8470  130.3130 N   0  0  0  0  0
   76.0270  -50.4370  129.0780 C   0  0  0  0  0
   75.0430  -49.2980  129.3760 C   0  0  0  0  0
   73.9630  -49.7000  130.3660 C   0  0  0  0  0
   72.8990  -50.6300  129.7600 C   0  0  0  0  0
   72.9740  -51.1140  128.6770 O   0  0  0  0  0
   77.1170  -49.9970  128.0660 C   0  0  0  0  0
   77.8680  -51.1490  127.7470 O   0  0  0  0  0
   71.7212  -50.4313  131.5456 H   0  0  0  0  0
   70.6390  -51.8260  129.1048 H   0  0  0  0  0
   69.7254  -51.4358  130.5276 H   0  0  0  0  0
   72.0306  -53.4709  130.4386 H   0  0  0  0  0
   70.3111  -53.8890  130.4801 H   0  0  0  0  0
   70.0166  -52.9547  132.6165 H   0  0  0  0  0
   71.6721  -52.1632  132.5454 H   0  0  0  0  0
   72.6412  -54.5044  132.6198 H   0  0  0  0  0
   71.0180  -55.1161  132.9567 H   0  0  0  0  0
   72.0913  -54.7589  135.1187 H   0  0  0  0  0
   70.9065  -53.4531  134.9183 H   0  0  0  0  0
   72.6481  -51.9261  134.1531 H   0  0  0  0  0
   73.2783  -54.4159  136.9248 H   0  0  0  0  0
   73.7223  -53.6259  139.2485 H   0  0  0  0  0
   73.9197  -51.1984  139.7004 H   0  0  0  0  0
   73.2338  -50.3609  135.5564 H   0  0  0  0  0
   76.5516  -54.0636  133.4404 H   0  0  0  0  0
   77.4566  -51.4798  132.6608 H   0  0  0  0  0
   78.9885  -52.6748  131.1965 H   0  0  0  0  0
   78.0287  -54.1881  131.4572 H   0  0  0  0  0
   78.5222  -54.0337  133.8521 H   0  0  0  0  0
   79.9234  -55.4565  132.3927 H   0  0  0  0  0
   80.9860  -54.0740  132.0311 H   0  0  0  0  0
   80.9302  -54.7470  133.6789 H   0  0  0  0  0
   80.3584  -51.7382  133.2212 H   0  0  0  0  0
   78.8789  -51.7097  134.2119 H   0  0  0  0  0
   80.2981  -52.6367  134.7574 H   0  0  0  0  0
   77.3876  -50.2349  130.7492 H   0  0  0  0  0
   75.4533  -51.2604  128.6527 H   0  0  0  0  0
   74.5546  -49.0245  128.4407 H   0  0  0  0  0
   75.6073  -48.4740  129.8127 H   0  0  0  0  0
   73.4588  -48.7900  130.6913 H   0  0  0  0  0
   74.4466  -50.2391  131.1806 H   0  0  0  0  0
   77.7556  -49.2254  128.4961 H   0  0  0  0  0
   76.6645  -49.5699  127.1711 H   0  0  0  0  0
   78.5566  -50.9171  127.1196 H   0  0  0  0  0
  2  1  2  0  0  0
  9  2  1  0  0  0
  2 18  1  0  0  0
  4  3  1  0  0  0
  3 30  1  0  0  0
  5  4  1  0  0  0
  6  5  1  0  0  0
  7  6  1  0  0  0
  8  7  1  0  0  0
 10  8  1  0  0  0
  9 10  1  0  0  0
 10 11  1  0  0  0
 11 12  4  0  0  0
 11 17  4  0  0  0
 12 13  4  0  0  0
 13 14  4  0  0  0
 14 15  4  0  0  0
 15 16  1  0  0  0
 15 17  4  0  0  0
 18 19  1  0  0  0
 19 20  1  0  0  0
 19 22  1  0  0  0
 20 21  2  0  0  0
 20 26  1  0  0  0
 22 23  1  0  0  0
 23 24  1  0  0  0
 23 25  1  0  0  0
 26 27  1  0  0  0
 27 28  1  0  0  0
 27 32  1  0  0  0
 28 29  1  0  0  0
 29 30  1  0  0  0
 30 31  2  0  0  0
 32 33  1  0  0  0
  3 34  1  0  0  0
  4 35  1  0  0  0
  4 36  1  0  0  0
  5 37  1  0  0  0
  5 38  1  0  0  0
  6 39  1  0  0  0
  6 40  1  0  0  0
  7 41  1  0  0  0
  7 42  1  0  0  0
  8 43  1  0  0  0
  8 44  1  0  0  0
 10 45  1  0  0  0
 12 46  1  0  0  0
 13 47  1  0  0  0
 14 48  1  0  0  0
 17 49  1  0  0  0
 18 50  1  0  0  0
 19 51  1  0  0  0
 22 52  1  0  0  0
 22 53  1  0  0  0
 23 54  1  0  0  0
 24 55  1  0  0  0
 24 56  1  0  0  0
 24 57  1  0  0  0
 25 58  1  0  0  0
 25 59  1  0  0  0
 25 60  1  0  0  0
 26 61  1  0  0  0
 27 62  1  0  0  0
 28 63  1  0  0  0
 28 64  1  0  0  0
 29 65  1  0  0  0
 29 66  1  0  0  0
 32 67  1  0  0  0
 32 68  1  0  0  0
 33 69  1  0  0  0
M  END
$$$$
