2qwb_ligand
  -I-interpret- 

 40 40  0  0  0  0  0  0  0  0999 V2000
   23.7280   19.8370   64.9840 C   0  0  0  0  0
   24.5860   18.6640   64.5290 C   0  0  0  0  0
   23.6070   17.6050   63.9200 C   0  0  0  0  0
   24.2190   16.8050   62.7910 C   0  0  0  0  0
   25.7570   16.8310   62.8300 C   0  0  0  0  0
   26.2740   18.2280   62.6740 C   0  0  0  0  0
   27.7770   18.3750   62.9660 C   0  0  0  0  0
   28.2180   19.8470   62.7670 C   0  0  0  0  0
   29.7330   19.9880   63.0740 C   0  0  0  0  0
   26.9900   15.0050   61.7830 C   0  0  0  0  0
   27.4530   14.2730   60.5880 C   0  0  0  0  0
   26.2350   16.0890   61.6450 N   0  0  0  0  0
   22.5170   19.7150   65.2880 O   0  0  0  0  0
   24.3390   20.9240   64.9930 O   0  0  0  0  0
   25.2890   18.1400   65.6500 O   0  0  0  0  0
   23.7990   15.4950   62.8360 O   0  0  0  0  0
   25.5780   19.1040   63.5680 O   0  0  0  0  0
   28.0060   17.9880   64.2750 O   0  0  0  0  0
   27.9290   20.0430   61.4080 O   0  0  0  0  0
   30.4070   19.4510   62.0060 O   0  0  0  0  0
   27.3030   14.5510   62.8850 O   0  0  0  0  0
   22.7494   18.1428   63.5159 H   0  0  0  0  0
   23.3421   16.9062   64.7135 H   0  0  0  0  0
   23.8851   17.2727   61.8648 H   0  0  0  0  0
   26.0935   16.4102   63.7775 H   0  0  0  0  0
   26.1077   18.4849   61.6278 H   0  0  0  0  0
   28.3510   17.7491   62.2827 H   0  0  0  0  0
   27.7279   20.5733   63.4154 H   0  0  0  0  0
   29.9911   19.4672   63.9961 H   0  0  0  0  0
   30.0034   21.0344   63.2158 H   0  0  0  0  0
   28.5423   14.2353   60.5860 H   0  0  0  0  0
   27.0531   13.2592   60.6069 H   0  0  0  0  0
   27.1043   14.7858   59.6916 H   0  0  0  0  0
   25.9825   16.4126   60.7112 H   0  0  0  0  0
   22.2601   18.7933   65.2106 H   0  0  0  0  0
   24.6592   17.8381   66.3087 H   0  0  0  0  0
   22.8397   15.4667   62.8122 H   0  0  0  0  0
   27.7306   17.0757   64.3906 H   0  0  0  0  0
   28.1640   20.9396   61.1581 H   0  0  0  0  0
   31.3523   19.5195   62.1584 H   0  0  0  0  0
  1 14  2  0  0  0
  1 13  1  0  0  0
  1  2  1  0  0  0
  2 17  1  0  0  0
  2 15  1  0  0  0
  2  3  1  0  0  0
  3  4  1  0  0  0
  4 16  1  0  0  0
  4  5  1  0  0  0
  5 12  1  0  0  0
  5  6  1  0  0  0
  6 17  1  0  0  0
  6  7  1  0  0  0
  7 18  1  0  0  0
  7  8  1  0  0  0
  8 19  1  0  0  0
  8  9  1  0  0  0
  9 20  1  0  0  0
 12 10  1  0  0  0
 10 21  2  0  0  0
 10 11  1  0  0  0
  3 22  1  0  0  0
  3 23  1  0  0  0
  4 24  1  0  0  0
  5 25  1  0  0  0
  6 26  1  0  0  0
  7 27  1  0  0  0
  8 28  1  0  0  0
  9 29  1  0  0  0
  9 30  1  0  0  0
 11 31  1  0  0  0
 11 32  1  0  0  0
 11 33  1  0  0  0
 12 34  1  0  0  0
 13 35  1  0  0  0
 15 36  1  0  0  0
 16 37  1  0  0  0
 18 38  1  0  0  0
 19 39  1  0  0  0
 20 40  1  0  0  0
M  END
$$$$
