5l3e_ligand
  -I-interpret- 

 75 78  0  0  0  0  0  0  0  0999 V2000
   -1.8570   47.3940   82.7040 N   0  0  0  0  0
   -1.3000   47.5440   83.9260 C   0  0  0  0  0
   -0.5810   46.5510   84.5010 N   0  0  0  0  0
   -0.4370   45.3880   83.8050 C   0  0  0  0  0
   -1.0190   45.2400   82.5310 C   0  0  0  0  0
   -1.7420   46.2870   81.9680 C   0  0  0  0  0
    0.3000   44.3380   84.3700 C   0  0  0  0  0
    0.4660   43.1290   83.6740 C   0  0  0  0  0
   -0.1260   42.9920   82.4080 C   0  0  0  0  0
   -0.8620   44.0510   81.8480 C   0  0  0  0  0
    0.0340   41.8140   81.7160 O   0  0  0  0  0
    1.1800   42.0810   84.2120 O   0  0  0  0  0
   -2.3480   46.2410   80.7510 N   0  0  0  0  0
   -1.4840   48.7240   84.5450 N   0  0  0  0  0
   -2.2640   49.7530   83.8710 C   0  0  0  0  0
   -1.7320   51.0670   84.3890 C   0  0  0  0  0
   -2.2840   51.3200   85.7940 C   0  0  0  0  0
   -2.1760   52.7490   86.1320 N   0  3  0  0  0
   -3.1090   53.5810   85.3020 C   0  0  0  0  0
   -0.7380   53.1720   86.1760 C   0  0  0  0  0
   -3.1230   47.3740   80.2460 C   0  0  0  0  0
   -3.2470   47.2050   78.7430 C   0  0  0  0  0
   -4.2650   48.1800   78.1340 C   0  0  0  0  0
   -5.5790   48.2910   78.8150 N   0  3  0  0  0
   -5.6760   47.2520   79.8740 C   0  0  0  0  0
   -4.5210   47.3700   80.8860 C   0  0  0  0  0
   -6.6810   48.2810   77.7880 C   0  0  0  0  0
   -8.0720   48.5220   78.3630 C   0  0  0  0  0
   -9.1640   47.7530   77.9080 C   0  0  0  0  0
  -10.4500   47.9340   78.4500 C   0  0  0  0  0
  -10.6530   48.8860   79.4570 C   0  0  0  0  0
   -9.5700   49.6510   79.9150 C   0  0  0  0  0
   -8.2840   49.4750   79.3740 C   0  0  0  0  0
    2.2240   42.2500   85.1780 C   0  0  0  0  0
   -0.6830   41.4520   80.5150 C   0  0  0  0  0
    0.7475   44.4604   85.3563 H   0  0  0  0  0
   -1.3137   43.9316   80.8632 H   0  0  0  0  0
   -2.2603   45.4005   80.1798 H   0  0  0  0  0
   -1.0852   48.8948   85.4681 H   0  0  0  0  0
   -3.3291   49.6449   84.0759 H   0  0  0  0  0
   -2.1668   49.6822   82.7877 H   0  0  0  0  0
   -2.0434   51.8732   83.7248 H   0  0  0  0  0
   -0.6433   51.0296   84.4268 H   0  0  0  0  0
   -1.7084   50.7382   86.5140 H   0  0  0  0  0
   -3.3326   51.0241   85.8244 H   0  0  0  0  0
   -2.5085   52.9178   87.0814 H   0  0  0  0  0
   -2.8649   53.4554   84.2471 H   0  0  0  0  0
   -4.1354   53.2600   85.4794 H   0  0  0  0  0
   -3.0020   54.6299   85.5786 H   0  0  0  0  0
   -0.2119   52.5884   86.9315 H   0  0  0  0  0
   -0.2809   53.0029   85.2010 H   0  0  0  0  0
   -0.6797   54.2310   86.4274 H   0  0  0  0  0
   -2.6336   48.3172   80.4890 H   0  0  0  0  0
   -3.5870   46.1891   78.5421 H   0  0  0  0  0
   -2.2734   47.4074   78.2967 H   0  0  0  0  0
   -4.4782   47.8027   77.1339 H   0  0  0  0  0
   -3.8094   49.1679   78.2017 H   0  0  0  0  0
   -5.6800   49.1807   79.3034 H   0  0  0  0  0
   -5.6231   46.2710   79.4018 H   0  0  0  0  0
   -6.6174   47.3877   80.4064 H   0  0  0  0  0
   -4.6415   48.3219   81.4031 H   0  0  0  0  0
   -4.5742   46.4987   81.5388 H   0  0  0  0  0
   -6.6879   47.2906   77.3329 H   0  0  0  0  0
   -6.4768   49.0919   77.0888 H   0  0  0  0  0
   -9.0095   47.0090   77.1265 H   0  0  0  0  0
  -11.2854   47.3352   78.0873 H   0  0  0  0  0
  -11.6461   49.0316   79.8821 H   0  0  0  0  0
   -9.7272   50.3909   80.6998 H   0  0  0  0  0
   -7.4520   50.0774   79.7386 H   0  0  0  0  0
    3.0130   42.8709   84.7536 H   0  0  0  0  0
    1.8194   42.7323   86.0678 H   0  0  0  0  0
    2.6314   41.2749   85.4452 H   0  0  0  0  0
   -1.7526   41.4319   80.7240 H   0  0  0  0  0
   -0.4775   42.1858   79.7356 H   0  0  0  0  0
   -0.3579   40.4662   80.1825 H   0  0  0  0  0
  1  2  4  0  0  0
  1  6  4  0  0  0
  2  3  4  0  0  0
  2 14  1  0  0  0
  3  4  4  0  0  0
  4  5  4  0  0  0
  4  7  4  0  0  0
  5  6  4  0  0  0
  5 10  4  0  0  0
  6 13  1  0  0  0
  7  8  4  0  0  0
  8  9  4  0  0  0
  8 12  1  0  0  0
  9 10  4  0  0  0
  9 11  1  0  0  0
 11 35  1  0  0  0
 12 34  1  0  0  0
 13 21  1  0  0  0
 14 15  1  0  0  0
 15 16  1  0  0  0
 16 17  1  0  0  0
 17 18  1  0  0  0
 18 19  1  0  0  0
 18 20  1  0  0  0
 21 22  1  0  0  0
 21 26  1  0  0  0
 22 23  1  0  0  0
 23 24  1  0  0  0
 24 25  1  0  0  0
 24 27  1  0  0  0
 25 26  1  0  0  0
 27 28  1  0  0  0
 28 29  4  0  0  0
 28 33  4  0  0  0
 29 30  4  0  0  0
 30 31  4  0  0  0
 31 32  4  0  0  0
 32 33  4  0  0  0
  7 36  1  0  0  0
 10 37  1  0  0  0
 13 38  1  0  0  0
 14 39  1  0  0  0
 15 40  1  0  0  0
 15 41  1  0  0  0
 16 42  1  0  0  0
 16 43  1  0  0  0
 17 44  1  0  0  0
 17 45  1  0  0  0
 18 46  1  0  0  0
 19 47  1  0  0  0
 19 48  1  0  0  0
 19 49  1  0  0  0
 20 50  1  0  0  0
 20 51  1  0  0  0
 20 52  1  0  0  0
 21 53  1  0  0  0
 22 54  1  0  0  0
 22 55  1  0  0  0
 23 56  1  0  0  0
 23 57  1  0  0  0
 24 58  1  0  0  0
 25 59  1  0  0  0
 25 60  1  0  0  0
 26 61  1  0  0  0
 26 62  1  0  0  0
 27 63  1  0  0  0
 27 64  1  0  0  0
 29 65  1  0  0  0
 30 66  1  0  0  0
 31 67  1  0  0  0
 32 68  1  0  0  0
 33 69  1  0  0  0
 34 70  1  0  0  0
 34 71  1  0  0  0
 34 72  1  0  0  0
 35 73  1  0  0  0
 35 74  1  0  0  0
 35 75  1  0  0  0
M  END
$$$$
