5w85_ligand
  -I-interpret- 

 54 57  0  0  0  0  0  0  0  0999 V2000
    7.0450   42.4100   10.7180 C   0  0  0  0  0
    6.9430   44.7910   13.4650 C   0  0  0  0  0
    7.6750   44.2560   12.4080 C   0  0  0  0  0
    6.2240   41.6240   11.7300 C   0  0  0  0  0
    7.5610   45.1210   14.6620 C   0  0  0  0  0
    8.9200   44.9160   14.8210 C   0  0  0  0  0
    9.6590   44.3840   13.7780 C   0  0  0  0  0
    9.0400   44.0550   12.5820 C   0  0  0  0  0
   11.6280   43.0280    7.9050 C   0  0  0  0  0
   11.4410   43.8230    9.0380 C   0  0  0  0  0
    3.1580   41.4430    5.6220 C   0  0  0  0  0
   13.7640   42.2710    8.7600 C   0  0  0  0  0
    6.5450   42.4590    6.9600 C   0  0  0  0  0
    7.3080   42.6720    5.8150 C   0  0  0  0  0
    8.6360   42.8380    5.8120 N   0  0  0  0  0
    9.2740   42.8060    6.9880 C   0  0  0  0  0
    8.6120   42.5990    8.2010 C   0  0  0  0  0
    7.2270   42.4240    8.1960 C   0  0  0  0  0
    6.5090   42.2140    9.3710 N   0  0  0  0  0
   10.6470   42.9950    6.9000 N   0  0  0  0  0
    5.0600   42.2850    6.8930 C   0  0  0  0  0
    4.5830   41.6190    5.8430 N   0  0  0  0  0
    4.3350   42.7410    7.7750 O   0  0  0  0  0
    6.9990   43.9000   11.1060 C   0  0  0  0  0
    4.8250   41.8630   11.5700 O   0  0  0  0  0
   12.4250   43.8240   10.0200 C   0  0  0  0  0
   13.5900   43.0580    9.9000 C   0  0  0  0  0
   12.7880   42.2590    7.7710 C   0  0  0  0  0
   12.4510   44.7030   11.5170 S   0  0  0  0  0
   13.9940   43.9840   11.8590 C   0  0  0  0  0
   14.4730   43.1700   10.9750 N   0  0  0  0  0
    8.0774   42.0604   10.7223 H   0  0  0  0  0
    5.8711   44.9524   13.3502 H   0  0  0  0  0
    6.5156   41.9411   12.7312 H   0  0  0  0  0
    6.4120   40.5615   11.5757 H   0  0  0  0  0
    6.9751   45.5425   15.4788 H   0  0  0  0  0
    9.4063   45.1719   15.7623 H   0  0  0  0  0
   10.7305   44.2234   13.8976 H   0  0  0  0  0
    9.6303   43.6337   11.7682 H   0  0  0  0  0
   10.5425   44.4298    9.1499 H   0  0  0  0  0
    2.7240   40.9077    6.4666 H   0  0  0  0  0
    2.6831   42.4194    5.5263 H   0  0  0  0  0
    3.0014   40.8702    4.7079 H   0  0  0  0  0
   14.6641   41.6669    8.6460 H   0  0  0  0  0
    6.7891   42.7058    4.8571 H   0  0  0  0  0
    9.1690   42.5745    9.1376 H   0  0  0  0  0
    5.5417   41.9017    9.2863 H   0  0  0  0  0
   11.0001   43.1319    5.9529 H   0  0  0  0  0
    5.2394   41.2195    5.1722 H   0  0  0  0  0
    5.9462   44.1570   11.2234 H   0  0  0  0  0
    7.5311   44.4403   10.3231 H   0  0  0  0  0
    4.3379   41.3536   12.2218 H   0  0  0  0  0
   12.9281   41.6440    6.8820 H   0  0  0  0  0
   14.5352   44.2086   12.7781 H   0  0  0  0  0
  1  4  1  0  0  0
 19  1  1  0  0  0
  1 24  1  0  0  0
  3  2  4  0  0  0
  2  5  4  0  0  0
  3  8  4  0  0  0
 24  3  1  0  0  0
  4 25  1  0  0  0
  5  6  4  0  0  0
  7  6  4  0  0  0
  8  7  4  0  0  0
  9 10  4  0  0  0
 20  9  1  0  0  0
  9 28  4  0  0  0
 10 26  4  0  0  0
 22 11  1  0  0  0
 12 27  4  0  0  0
 28 12  4  0  0  0
 13 14  4  0  0  0
 13 18  4  0  0  0
 21 13  1  0  0  0
 14 15  4  0  0  0
 15 16  4  0  0  0
 17 16  4  0  0  0
 16 20  1  0  0  0
 18 17  4  0  0  0
 18 19  1  0  0  0
 21 22  1  0  0  0
 21 23  2  0  0  0
 26 27  4  0  0  0
 26 29  4  0  0  0
 27 31  4  0  0  0
 29 30  4  0  0  0
 30 31  4  0  0  0
  1 32  1  0  0  0
  2 33  1  0  0  0
  4 34  1  0  0  0
  4 35  1  0  0  0
  5 36  1  0  0  0
  6 37  1  0  0  0
  7 38  1  0  0  0
  8 39  1  0  0  0
 10 40  1  0  0  0
 11 41  1  0  0  0
 11 42  1  0  0  0
 11 43  1  0  0  0
 12 44  1  0  0  0
 14 45  1  0  0  0
 17 46  1  0  0  0
 19 47  1  0  0  0
 20 48  1  0  0  0
 22 49  1  0  0  0
 24 50  1  0  0  0
 24 51  1  0  0  0
 25 52  1  0  0  0
 28 53  1  0  0  0
 30 54  1  0  0  0
M  END
$$$$
