5l97_ligand
  -I-interpret- 

 33 34  0  0  0  0  0  0  0  0999 V2000
  -30.4300  -10.2350    1.6030 C   0  0  0  0  0
  -31.5040  -11.0690    1.5990 C   0  0  0  0  0
  -31.3260  -11.9590    0.2860 C   0  0  0  0  0
  -30.7270  -10.8460   -0.7450 C   0  0  0  0  0
  -25.6490  -11.0840    0.8730 C   0  0  0  0  0
  -26.1990   -9.6850    0.7050 C   0  0  0  0  0
  -27.5190   -9.4530    0.3050 C   0  0  0  0  0
  -27.9630   -8.1370    0.1720 C   0  0  0  0  0
  -27.0810   -7.1010    0.4400 C   0  0  0  0  0
  -25.7830   -7.3810    0.8240 C   0  0  0  0  0
  -25.3700   -8.6560    0.9510 N   0  0  0  0  0
  -28.4580  -10.5050    0.0300 N   0  0  0  0  0
  -29.8130  -10.1370    0.0180 C   0  0  0  0  0
  -30.2890  -11.5650   -2.4040 S   0  0  0  0  0
  -30.7310  -10.7110   -3.4730 O   0  0  0  0  0
  -31.0910  -12.7330   -2.6490 O   0  0  0  0  0
  -28.5740  -11.9400   -2.6000 C   0  0  0  0  0
  -30.0307   -9.7160    2.4744 H   0  0  0  0  0
  -32.3096  -11.1188    2.3316 H   0  0  0  0  0
  -32.2433  -12.4376   -0.0569 H   0  0  0  0  0
  -30.6874  -12.8319    0.4213 H   0  0  0  0  0
  -31.4279  -10.1060   -1.1314 H   0  0  0  0  0
  -26.2305  -11.6134    1.6277 H   0  0  0  0  0
  -25.7144  -11.6152   -0.0766 H   0  0  0  0  0
  -24.6072  -11.0280    1.1885 H   0  0  0  0  0
  -28.9867   -7.9266   -0.1376 H   0  0  0  0  0
  -27.4112   -6.0663    0.3479 H   0  0  0  0  0
  -25.0896   -6.5644    1.0252 H   0  0  0  0  0
  -28.1577  -11.4637   -0.1463 H   0  0  0  0  0
  -29.7457   -9.1513   -0.4424 H   0  0  0  0  0
  -28.4210  -12.4479   -3.5522 H   0  0  0  0  0
  -27.9970  -11.0154   -2.5831 H   0  0  0  0  0
  -28.2495  -12.5872   -1.7852 H   0  0  0  0  0
  1  2  2  0  0  0
 13  1  1  0  0  0
  3  2  1  0  0  0
  4  3  1  0  0  0
 13  4  1  0  0  0
  4 14  1  0  0  0
  6  5  1  0  0  0
  7  6  4  0  0  0
  6 11  4  0  0  0
  7  8  4  0  0  0
 12  7  1  0  0  0
  8  9  4  0  0  0
  9 10  4  0  0  0
 11 10  4  0  0  0
 12 13  1  0  0  0
 14 15  2  0  0  0
 14 16  2  0  0  0
 14 17  1  0  0  0
  1 18  1  0  0  0
  2 19  1  0  0  0
  3 20  1  0  0  0
  3 21  1  0  0  0
  4 22  1  0  0  0
  5 23  1  0  0  0
  5 24  1  0  0  0
  5 25  1  0  0  0
  8 26  1  0  0  0
  9 27  1  0  0  0
 10 28  1  0  0  0
 12 29  1  0  0  0
 13 30  1  0  0  0
 17 31  1  0  0  0
 17 32  1  0  0  0
 17 33  1  0  0  0
M  END
$$$$
