6hb6_ligand
  -I-interpret- 

 56 58  0  0  0  0  0  0  0  0999 V2000
  -51.6620    3.1240  -42.2400 N   0  3  0  0  0
  -52.3960    2.7600  -43.4520 C   0  0  0  0  0
  -52.4600    1.2350  -43.5640 C   0  0  0  0  0
  -51.1090    0.5690  -43.5830 C   0  0  0  0  0
  -50.1860    0.8620  -44.5820 C   0  0  0  0  0
  -48.9590    0.2230  -44.6280 C   0  0  0  0  0
  -48.6250   -0.7040  -43.6520 C   0  0  0  0  0
  -47.3960   -1.3040  -43.6800 O   0  0  0  0  0
  -49.5340   -1.0010  -42.6420 C   0  0  0  0  0
  -50.7670   -0.3710  -42.6170 C   0  0  0  0  0
  -53.8440    3.1130  -43.1750 C   0  0  0  0  0
  -54.3790    3.2920  -42.0880 O   0  0  0  0  0
  -54.6060    3.1400  -44.3180 N   0  0  0  0  0
  -56.1770    3.3390  -44.4870 S   0  0  0  0  0
  -56.7320    4.4170  -43.7480 O   0  0  0  0  0
  -56.6410    2.0090  -44.3020 O   0  0  0  0  0
  -56.3420    3.6710  -46.0350 O   0  0  0  0  0
  -55.6950    2.7960  -46.9980 C   0  0  0  0  0
  -55.0720    3.6810  -48.0520 C   0  0  0  0  0
  -56.0840    4.5000  -48.6810 O   0  0  0  0  0
  -55.6780    5.8550  -48.6590 C   0  0  0  0  0
  -54.7170    5.9770  -47.4740 C   0  0  0  0  0
  -53.8340    7.0660  -47.6740 O   0  0  0  0  0
  -53.9820    4.6420  -47.5610 C   0  0  0  0  0
  -52.9240    4.7030  -48.5100 O   0  0  0  0  0
  -56.8790    6.7030  -48.5180 N   0  0  0  0  0
  -57.7480    6.5320  -47.4520 C   0  0  0  0  0
  -58.8720    7.2660  -47.3110 C   0  0  0  0  0
  -59.1840    8.2760  -48.2770 C   0  0  0  0  0
  -60.1650    9.0430  -48.2280 O   0  0  0  0  0
  -58.2680    8.3940  -49.3160 N   0  0  0  0  0
  -57.1170    7.6560  -49.4920 C   0  0  0  0  0
  -56.3990    7.7960  -50.4770 O   0  0  0  0  0
  -50.6729    2.9085  -42.3653 H   0  0  0  0  0
  -51.7740    4.1223  -42.0631 H   0  0  0  0  0
  -52.0291    2.5941  -41.4496 H   0  0  0  0  0
  -51.9381    3.2359  -44.3192 H   0  0  0  0  0
  -52.9518    0.9989  -44.5077 H   0  0  0  0  0
  -52.9913    0.8668  -42.6864 H   0  0  0  0  0
  -50.4328    1.6058  -45.3396 H   0  0  0  0  0
  -48.2562    0.4481  -45.4302 H   0  0  0  0  0
  -47.3221   -1.9141  -42.9425 H   0  0  0  0  0
  -49.2764   -1.7280  -41.8718 H   0  0  0  0  0
  -51.4794   -0.6154  -41.8291 H   0  0  0  0  0
  -54.0884    3.0138  -45.1878 H   0  0  0  0  0
  -56.4182    2.1143  -47.4457 H   0  0  0  0  0
  -54.9360    2.1828  -46.5122 H   0  0  0  0  0
  -54.6025    2.9713  -48.7332 H   0  0  0  0  0
  -55.1744    6.1791  -49.5698 H   0  0  0  0  0
  -55.1903    6.1608  -46.5095 H   0  0  0  0  0
  -53.2363    7.1334  -46.9258 H   0  0  0  0  0
  -53.5264    4.3464  -46.6159 H   0  0  0  0  0
  -52.2471    5.3062  -48.1946 H   0  0  0  0  0
  -57.5154    5.7776  -46.7004 H   0  0  0  0  0
  -59.5385    7.0909  -46.4665 H   0  0  0  0  0
  -58.4688    9.1014  -50.0229 H   0  0  0  0  0
  1  2  1  0  0  0
  2  3  1  0  0  0
  2 11  1  0  0  0
  3  4  1  0  0  0
  4  5  4  0  0  0
  4 10  4  0  0  0
  5  6  4  0  0  0
  6  7  4  0  0  0
  7  8  1  0  0  0
  7  9  4  0  0  0
  9 10  4  0  0  0
 11 12  2  0  0  0
 11 13  1  0  0  0
 13 14  1  0  0  0
 14 15  2  0  0  0
 14 16  2  0  0  0
 14 17  1  0  0  0
 17 18  1  0  0  0
 18 19  1  0  0  0
 19 20  1  0  0  0
 19 24  1  0  0  0
 20 21  1  0  0  0
 21 22  1  0  0  0
 21 26  1  0  0  0
 22 23  1  0  0  0
 22 24  1  0  0  0
 24 25  1  0  0  0
 26 27  1  0  0  0
 26 32  1  0  0  0
 27 28  2  0  0  0
 28 29  1  0  0  0
 29 30  2  0  0  0
 29 31  1  0  0  0
 31 32  1  0  0  0
 32 33  2  0  0  0
  1 34  1  0  0  0
  1 35  1  0  0  0
  1 36  1  0  0  0
  2 37  1  0  0  0
  3 38  1  0  0  0
  3 39  1  0  0  0
  5 40  1  0  0  0
  6 41  1  0  0  0
  8 42  1  0  0  0
  9 43  1  0  0  0
 10 44  1  0  0  0
 13 45  1  0  0  0
 18 46  1  0  0  0
 18 47  1  0  0  0
 19 48  1  0  0  0
 21 49  1  0  0  0
 22 50  1  0  0  0
 23 51  1  0  0  0
 24 52  1  0  0  0
 25 53  1  0  0  0
 27 54  1  0  0  0
 28 55  1  0  0  0
 31 56  1  0  0  0
M  END
$$$$
