2qlq_ligand
  -I-interpret- 

 50 52  0  0  0  0  0  0  0  0999 V2000
    5.1570    3.6610    7.7270 C   0  0  0  0  0
    4.2650    3.1910    8.7070 C   0  0  0  0  0
    2.7640    2.0450    8.3310 Br  0  0  0  0  0
    4.5160    3.5800   10.0250 C   0  0  0  0  0
    5.5840    4.3870   10.3870 C   0  0  0  0  0
    6.4200    4.8290    9.3640 C   0  0  0  0  0
    6.2520    4.4850    8.0260 C   0  0  0  0  0
    7.0950    4.9560    7.0540 N   0  0  0  0  0
    8.4310    4.7790    6.9660 C   0  0  0  0  0
    9.3260    5.5030    6.1230 C   0  0  0  0  0
    8.9790    6.5240    5.2400 C   0  0  0  0  0
    8.9610    3.8160    7.7320 N   0  0  0  0  0
   10.2370    3.5350    7.7200 C   0  0  0  0  0
   11.0890    4.1800    6.9700 N   0  0  0  0  0
   10.6790    5.1570    6.1710 C   0  0  0  0  0
   11.6140    5.8020    5.3960 C   0  0  0  0  0
   11.2410    6.7970    4.5400 C   0  0  0  0  0
    9.9300    7.2020    4.4690 C   0  0  0  0  0
    9.6430    8.1400    3.5650 N   0  0  0  0  0
    8.4240    8.0640    3.0720 C   0  0  0  0  0
    7.5780    7.4080    3.6460 O   0  0  0  0  0
    7.9250    8.9270    1.9140 C   0  0  0  0  0
    8.6160    9.0850    0.5590 C   0  0  0  0  0
    7.9630   10.3780    0.0800 C   0  0  0  0  0
    7.0140   10.1600   -1.0110 N   0  3  0  0  0
    6.0390    9.1070   -0.8290 C   0  0  0  0  0
    6.3000   11.3580   -1.3970 C   0  0  0  0  0
    4.9902    3.3723    6.6892 H   0  0  0  0  0
    3.8400    3.2326   10.8063 H   0  0  0  0  0
    5.7616    4.6634   11.4263 H   0  0  0  0  0
    7.2529    5.4813    9.6264 H   0  0  0  0  0
    6.6632    5.5042    6.3101 H   0  0  0  0  0
    7.9298    6.8043    5.1466 H   0  0  0  0  0
   10.6037    2.7324    8.3599 H   0  0  0  0  0
   12.6634    5.5156    5.4662 H   0  0  0  0  0
   11.9892    7.2745    3.9073 H   0  0  0  0  0
   10.3113    8.8558    3.2796 H   0  0  0  0  0
    8.0042    9.9320    2.3285 H   0  0  0  0  0
    6.9973    8.4250    1.6393 H   0  0  0  0  0
    8.4868    8.2379   -0.1147 H   0  0  0  0  0
    9.7043    9.1209    0.6091 H   0  0  0  0  0
    8.7512   11.0348   -0.2881 H   0  0  0  0  0
    7.4156   10.8075    0.9191 H   0  0  0  0  0
    7.6474    9.8557   -1.7503 H   0  0  0  0  0
    6.5542    8.1563   -0.6920 H   0  0  0  0  0
    5.4326    9.3232    0.0505 H   0  0  0  0  0
    5.3982    9.0509   -1.7089 H   0  0  0  0  0
    5.7379   11.7355   -0.5428 H   0  0  0  0  0
    7.0127   12.1137   -1.7273 H   0  0  0  0  0
    5.6135   11.1240   -2.2106 H   0  0  0  0  0
  1  2  4  0  0  0
  1  7  4  0  0  0
  2  3  1  0  0  0
  2  4  4  0  0  0
  4  5  4  0  0  0
  5  6  4  0  0  0
  6  7  4  0  0  0
  7  8  1  0  0  0
  8  9  1  0  0  0
  9 10  4  0  0  0
  9 12  4  0  0  0
 10 11  4  0  0  0
 10 15  4  0  0  0
 11 18  4  0  0  0
 12 13  4  0  0  0
 13 14  4  0  0  0
 14 15  4  0  0  0
 15 16  4  0  0  0
 16 17  4  0  0  0
 17 18  4  0  0  0
 18 19  1  0  0  0
 19 20  1  0  0  0
 20 21  2  0  0  0
 20 22  1  0  0  0
 22 23  1  0  0  0
 23 24  1  0  0  0
 24 25  1  0  0  0
 25 26  1  0  0  0
 25 27  1  0  0  0
  1 28  1  0  0  0
  4 29  1  0  0  0
  5 30  1  0  0  0
  6 31  1  0  0  0
  8 32  1  0  0  0
 11 33  1  0  0  0
 13 34  1  0  0  0
 16 35  1  0  0  0
 17 36  1  0  0  0
 19 37  1  0  0  0
 22 38  1  0  0  0
 22 39  1  0  0  0
 23 40  1  0  0  0
 23 41  1  0  0  0
 24 42  1  0  0  0
 24 43  1  0  0  0
 25 44  1  0  0  0
 26 45  1  0  0  0
 26 46  1  0  0  0
 26 47  1  0  0  0
 27 48  1  0  0  0
 27 49  1  0  0  0
 27 50  1  0  0  0
M  END
$$$$
