2qmg_ligand
  -I-interpret- 

 84 88  0  0  0  0  0  0  0  0999 V2000
   26.8950   15.4300   24.6060 C   0  0  0  0  0
   25.6140   15.8480   25.0530 C   0  0  0  0  0
   24.4680   15.0650   24.7210 C   0  0  0  0  0
   24.6020   13.8730   23.9460 C   0  0  0  0  0
   25.8780   13.4800   23.5200 C   0  0  0  0  0
   27.0340   14.2440   23.8330 C   0  0  0  0  0
   28.3630   13.7810   23.3640 C   0  0  0  0  0
   28.5850   13.5240   21.9940 N   0  0  0  0  0
   29.2740   13.6040   24.1700 O   0  0  0  0  0
   27.6480   13.6690   20.8640 C   0  0  0  0  0
   28.5730   14.2600   19.7950 C   0  0  0  0  0
   29.9380   13.5950   20.0480 C   0  0  0  0  0
   29.8790   13.0510   21.4890 C   0  0  0  0  0
   29.9180   11.4990   21.4840 C   0  0  0  0  0
   25.4770   17.1080   25.8680 C   0  0  0  0  0
   23.4140   13.0730   23.6040 C   0  0  0  0  0
   23.6280   11.7170   23.4740 N   0  0  0  0  0
   22.3000   13.5750   23.4400 O   0  0  0  0  0
   22.5560   10.7510   23.1270 C   0  0  0  0  0
   22.1050    9.9200   24.3510 C   0  0  0  0  0
   23.0700    9.8210   22.0060 C   0  0  0  0  0
   21.0380    9.0950   23.9460 O   0  0  0  0  0
   23.7320   10.5240   20.8460 C   0  0  0  0  0
   25.0800   10.2200   20.5160 C   0  0  0  0  0
   25.6970   10.8750   19.4300 C   0  0  0  0  0
   25.0260   11.8350   18.6460 C   0  0  0  0  0
   23.6860   12.1280   18.9880 C   0  0  0  0  0
   23.0280   11.4950   20.0680 C   0  0  0  0  0
   26.9600   10.5720   19.1390 F   0  0  0  0  0
   23.0270   13.0290   18.2670 F   0  0  0  0  0
   19.4600   11.4820   26.4880 C   0  0  0  0  0
   20.3570   10.7930   27.5050 C   0  0  0  0  0
   21.1720    9.8980   26.6800 N   0  3  0  0  0
   20.3960   11.6660   25.2810 C   0  0  0  0  0
   21.6090   10.7520   25.5660 C   0  0  0  0  0
   18.3940   10.5660   26.2380 O   0  0  0  0  0
   17.4160   10.8750   25.2760 C   0  0  0  0  0
   16.9480   12.1890   24.9230 C   0  0  0  0  0
   15.9540   12.3440   23.9290 C   0  0  0  0  0
   15.4200   11.2040   23.2780 C   0  0  0  0  0
   15.8810    9.9120   23.6250 C   0  0  0  0  0
   16.8730    9.7540   24.6170 C   0  0  0  0  0
   29.4570    9.5810   22.8470 C   0  0  0  0  0
   29.6270   10.9820   22.7780 O   0  0  0  0  0
   27.7762   16.0207   24.8563 H   0  0  0  0  0
   23.4817   15.3796   25.0620 H   0  0  0  0  0
   25.9859   12.5668   22.9348 H   0  0  0  0  0
   26.7786   14.2874   21.0872 H   0  0  0  0  0
   27.1670   12.7373   20.5663 H   0  0  0  0  0
   28.6311   15.3463   19.8632 H   0  0  0  0  0
   28.2063   14.0650   18.7872 H   0  0  0  0  0
   30.7546   14.3065   19.9258 H   0  0  0  0  0
   30.1297   12.7973   19.3304 H   0  0  0  0  0
   30.7190   13.3840   22.0986 H   0  0  0  0  0
   30.9163   11.1734   21.1917 H   0  0  0  0  0
   29.1699   11.1308   20.7820 H   0  0  0  0  0
   26.0591   17.0115   26.7845 H   0  0  0  0  0
   25.8454   17.9552   25.2895 H   0  0  0  0  0
   24.4277   17.2655   26.1175 H   0  0  0  0  0
   24.5714   11.3595   23.6240 H   0  0  0  0  0
   21.6842   11.3088   22.7851 H   0  0  0  0  0
   22.9869    9.3732   24.6846 H   0  0  0  0  0
   22.1996    9.3025   21.6040 H   0  0  0  0  0
   23.8251    9.1755   22.4547 H   0  0  0  0  0
   20.7410    8.5686   24.6919 H   0  0  0  0  0
   25.6344    9.4845   21.0990 H   0  0  0  0  0
   25.5199   12.3310   17.8105 H   0  0  0  0  0
   21.9939   11.7451   20.3050 H   0  0  0  0  0
   19.0180   12.4367   26.7730 H   0  0  0  0  0
   19.7929   10.2613   28.2713 H   0  0  0  0  0
   20.9574   11.4969   28.0813 H   0  0  0  0  0
   20.6516    9.0802   26.3624 H   0  0  0  0  0
   21.9566    9.5000   27.1961 H   0  0  0  0  0
   20.6964   12.7068   25.1600 H   0  0  0  0  0
   19.9032   11.4003   24.3458 H   0  0  0  0  0
   22.4851   11.3547   25.8055 H   0  0  0  0  0
   17.3600   13.0660   25.4223 H   0  0  0  0  0
   15.5988   13.3398   23.6637 H   0  0  0  0  0
   14.6549   11.3224   22.5107 H   0  0  0  0  0
   15.4688    9.0357   23.1247 H   0  0  0  0  0
   17.2225    8.7545   24.8759 H   0  0  0  0  0
   28.6294    9.2845   22.2025 H   0  0  0  0  0
   30.3714    9.0886   22.5160 H   0  0  0  0  0
   29.2395    9.2929   23.8755 H   0  0  0  0  0
  2  1  4  0  0  0
  6  1  4  0  0  0
  3  2  4  0  0  0
  2 15  1  0  0  0
  4  3  4  0  0  0
  4  5  4  0  0  0
 16  4  1  0  0  0
  5  6  4  0  0  0
  6  7  1  0  0  0
  7  8  1  0  0  0
  7  9  2  0  0  0
  8 10  1  0  0  0
  8 13  1  0  0  0
 10 11  1  0  0  0
 12 11  1  0  0  0
 13 12  1  0  0  0
 13 14  1  0  0  0
 14 44  1  0  0  0
 17 16  1  0  0  0
 16 18  2  0  0  0
 19 17  1  0  0  0
 20 19  1  0  0  0
 19 21  1  0  0  0
 20 22  1  0  0  0
 35 20  1  0  0  0
 21 23  1  0  0  0
 23 24  4  0  0  0
 23 28  4  0  0  0
 24 25  4  0  0  0
 25 26  4  0  0  0
 25 29  1  0  0  0
 27 26  4  0  0  0
 28 27  4  0  0  0
 27 30  1  0  0  0
 32 31  1  0  0  0
 31 34  1  0  0  0
 31 36  1  0  0  0
 33 32  1  0  0  0
 33 35  1  0  0  0
 34 35  1  0  0  0
 36 37  1  0  0  0
 37 38  4  0  0  0
 37 42  4  0  0  0
 38 39  4  0  0  0
 39 40  4  0  0  0
 40 41  4  0  0  0
 41 42  4  0  0  0
 44 43  1  0  0  0
  1 45  1  0  0  0
  3 46  1  0  0  0
  5 47  1  0  0  0
 10 48  1  0  0  0
 10 49  1  0  0  0
 11 50  1  0  0  0
 11 51  1  0  0  0
 12 52  1  0  0  0
 12 53  1  0  0  0
 13 54  1  0  0  0
 14 55  1  0  0  0
 14 56  1  0  0  0
 15 57  1  0  0  0
 15 58  1  0  0  0
 15 59  1  0  0  0
 17 60  1  0  0  0
 19 61  1  0  0  0
 20 62  1  0  0  0
 21 63  1  0  0  0
 21 64  1  0  0  0
 22 65  1  0  0  0
 24 66  1  0  0  0
 26 67  1  0  0  0
 28 68  1  0  0  0
 31 69  1  0  0  0
 32 70  1  0  0  0
 32 71  1  0  0  0
 33 72  1  0  0  0
 33 73  1  0  0  0
 34 74  1  0  0  0
 34 75  1  0  0  0
 35 76  1  0  0  0
 38 77  1  0  0  0
 39 78  1  0  0  0
 40 79  1  0  0  0
 41 80  1  0  0  0
 42 81  1  0  0  0
 43 82  1  0  0  0
 43 83  1  0  0  0
 43 84  1  0  0  0
M  END
$$$$
