4eo4_ligand
  -I-interpret- 

 49 51  0  0  0  0  0  0  0  0999 V2000
   26.1850  -18.8060  -53.0590 N   0  3  0  0  0
   25.7190  -17.4490  -53.0160 C   0  0  0  0  0
   24.9820  -17.1660  -54.2650 C   0  0  0  0  0
   25.4660  -17.7760  -55.4340 O   0  0  0  0  0
   24.7820  -17.2420  -51.8220 C   0  0  0  0  0
   24.8380  -18.0450  -50.8490 O   0  0  0  0  0
   23.8300  -16.1490  -51.8050 N   0  0  0  0  0
   22.8610  -15.9810  -50.4860 S   0  0  0  0  0
   22.4260  -14.6060  -50.3250 O   0  0  0  0  0
   23.5850  -16.1980  -49.2630 O   0  0  0  0  0
   21.7080  -16.9140  -50.5870 O   0  0  0  0  0
   21.0990  -17.1570  -51.8470 C   0  0  0  0  0
   19.6090  -17.3410  -51.7120 C   0  0  0  0  0
   19.3320  -18.6090  -51.0670 O   0  0  0  0  0
   18.8920  -16.3140  -50.8500 C   0  0  0  0  0
   18.5880  -15.1210  -51.5490 O   0  0  0  0  0
   17.6630  -17.0680  -50.3670 C   0  0  0  0  0
   16.6540  -17.0800  -51.3660 O   0  0  0  0  0
   18.2170  -18.4860  -50.2150 C   0  0  0  0  0
   18.6570  -18.7600  -48.8350 N   0  0  0  0  0
   19.6860  -18.2260  -48.1060 C   0  0  0  0  0
   19.7070  -18.7800  -46.8730 N   0  0  0  0  0
   18.6660  -19.6980  -46.8110 C   0  0  0  0  0
   18.1810  -20.5940  -45.7810 C   0  0  0  0  0
   18.8250  -20.6480  -44.4900 N   0  0  0  0  0
   17.1240  -21.3790  -46.0310 N   0  0  0  0  0
   16.5100  -21.3300  -47.2570 C   0  0  0  0  0
   16.9360  -20.5040  -48.2450 N   0  0  0  0  0
   18.0230  -19.6810  -48.0290 C   0  0  0  0  0
   26.8066  -18.9256  -53.8588 H   0  0  0  0  0
   26.6909  -19.0179  -52.1990 H   0  0  0  0  0
   25.3875  -19.4354  -53.1496 H   0  0  0  0  0
   26.5715  -16.7778  -52.9121 H   0  0  0  0  0
   25.0688  -16.0918  -54.4284 H   0  0  0  0  0
   23.9759  -17.5580  -54.1158 H   0  0  0  0  0
   24.9140  -17.5231  -56.1776 H   0  0  0  0  0
   23.7626  -15.5012  -52.5900 H   0  0  0  0  0
   21.5236  -18.0691  -52.2663 H   0  0  0  0  0
   21.2845  -16.2983  -52.4922 H   0  0  0  0  0
   19.2471  -17.2551  -52.7366 H   0  0  0  0  0
   19.5041  -15.9492  -50.0252 H   0  0  0  0  0
   18.1382  -14.5116  -50.9592 H   0  0  0  0  0
   17.2155  -16.6403  -49.4698 H   0  0  0  0  0
   15.8889  -17.5601  -51.0407 H   0  0  0  0  0
   17.4279  -19.1946  -50.4665 H   0  0  0  0  0
   20.3827  -17.4688  -48.4655 H   0  0  0  0  0
   19.6295  -20.0517  -44.2960 H   0  0  0  0  0
   18.4755  -21.2824  -43.7719 H   0  0  0  0  0
   15.6519  -21.9759  -47.4431 H   0  0  0  0  0
  1  2  1  0  0  0
  2  3  1  0  0  0
  2  5  1  0  0  0
  3  4  1  0  0  0
  5  6  2  0  0  0
  5  7  1  0  0  0
  7  8  1  0  0  0
  8  9  2  0  0  0
  8 10  2  0  0  0
  8 11  1  0  0  0
 11 12  1  0  0  0
 12 13  1  0  0  0
 13 14  1  0  0  0
 13 15  1  0  0  0
 14 19  1  0  0  0
 15 16  1  0  0  0
 15 17  1  0  0  0
 17 18  1  0  0  0
 17 19  1  0  0  0
 19 20  1  0  0  0
 20 21  4  0  0  0
 20 29  4  0  0  0
 21 22  4  0  0  0
 22 23  4  0  0  0
 23 24  4  0  0  0
 23 29  4  0  0  0
 24 25  1  0  0  0
 24 26  4  0  0  0
 26 27  4  0  0  0
 27 28  4  0  0  0
 28 29  4  0  0  0
  1 30  1  0  0  0
  1 31  1  0  0  0
  1 32  1  0  0  0
  2 33  1  0  0  0
  3 34  1  0  0  0
  3 35  1  0  0  0
  4 36  1  0  0  0
  7 37  1  0  0  0
 12 38  1  0  0  0
 12 39  1  0  0  0
 13 40  1  0  0  0
 15 41  1  0  0  0
 16 42  1  0  0  0
 17 43  1  0  0  0
 18 44  1  0  0  0
 19 45  1  0  0  0
 21 46  1  0  0  0
 25 47  1  0  0  0
 25 48  1  0  0  0
 27 49  1  0  0  0
M  END
$$$$
