5h15_ligand
  -I-interpret- 

 58 61  0  0  0  0  0  0  0  0999 V2000
   32.6530   14.2350   33.9370 C   0  0  0  0  0
   32.3160   15.7190   34.0810 C   0  0  0  0  0
   33.8530   13.6470   34.1140 C   0  0  0  0  0
   30.2980   17.1210   34.2260 C   0  0  0  0  0
   30.0330   17.6780   31.7350 C   0  0  0  0  0
   27.9550   16.5530   30.6790 C   0  0  0  0  0
   34.9040   11.4190   33.9930 C   0  0  0  0  0
   30.3560   13.0630   33.1370 C   0  0  0  0  0
   32.0170   10.7230   33.1730 C   0  0  0  0  0
   27.6670   18.4150   32.2440 C   0  0  0  0  0
   30.5750   17.2510   37.1520 C   0  0  0  0  0
   31.8050   15.1710   37.2850 C   0  0  0  0  0
   26.5430   16.4970   30.5440 C   0  0  0  0  0
   28.3920   14.5130   29.2390 C   0  0  0  0  0
   29.8420   11.7890   32.7990 C   0  0  0  0  0
   30.6590   10.6350   32.8090 C   0  0  0  0  0
   26.2700   18.3330   32.1230 C   0  0  0  0  0
   25.7030   17.3770   31.2560 C   0  0  0  0  0
   33.7740   12.3550   33.8880 N   0  0  0  0  0
   31.7080   13.1290   33.5120 C   0  0  0  0  0
   30.5040   16.7650   32.8110 N   0  3  0  0  0
   31.0940   16.0220   34.9970 C   0  0  0  0  0
   32.5210   11.9950   33.5290 C   0  0  0  0  0
   31.9230   16.3690   32.7260 C   0  0  0  0  0
   28.5120   17.5360   31.5340 C   0  0  0  0  0
   31.4780   16.3330   36.4170 N   0  3  0  0  0
   28.8170   15.7040   29.9500 O   0  0  0  0  0
   33.2354   16.1214   34.5064 H   0  0  0  0  0
   34.7635   14.1711   34.4046 H   0  0  0  0  0
   29.2438   17.1447   34.5019 H   0  0  0  0  0
   30.6439   18.1282   34.4583 H   0  0  0  0  0
   30.5388   17.4195   30.8047 H   0  0  0  0  0
   30.2582   18.7059   32.0191 H   0  0  0  0  0
   35.6857   11.7153   33.2936 H   0  0  0  0  0
   35.2974   11.4389   35.0093 H   0  0  0  0  0
   34.5632   10.4117   33.7536 H   0  0  0  0  0
   29.7299   13.9548   33.1077 H   0  0  0  0  0
   32.6571    9.8408   33.1799 H   0  0  0  0  0
   28.1053   19.1698   32.8969 H   0  0  0  0  0
   29.6594   16.7225   37.4175 H   0  0  0  0  0
   31.0713   17.5984   38.0581 H   0  0  0  0  0
   30.3328   18.1045   36.5188 H   0  0  0  0  0
   32.2984   15.5233   38.1908 H   0  0  0  0  0
   30.8865   14.6474   37.5502 H   0  0  0  0  0
   32.4689   14.4935   36.7481 H   0  0  0  0  0
   26.0993   15.7585   29.8762 H   0  0  0  0  0
   27.9407   13.8132   29.9423 H   0  0  0  0  0
   27.6614   14.7870   28.4779 H   0  0  0  0  0
   29.2556   14.0471   28.7645 H   0  0  0  0  0
   28.7914   11.6948   32.5244 H   0  0  0  0  0
   30.2347    9.6697   32.5329 H   0  0  0  0  0
   25.6291   19.0037   32.6953 H   0  0  0  0  0
   24.6211   17.3186   31.1368 H   0  0  0  0  0
   29.8558   16.0119   32.5808 H   0  0  0  0  0
   30.4532   15.1562   35.1636 H   0  0  0  0  0
   32.0704   15.6617   31.9099 H   0  0  0  0  0
   32.5479   17.2399   32.5285 H   0  0  0  0  0
   32.3488   16.8319   36.2345 H   0  0  0  0  0
  2  1  1  0  0  0
  1  3  4  0  0  0
  1 20  4  0  0  0
 22  2  1  0  0  0
  2 24  1  0  0  0
  3 19  4  0  0  0
  4 21  1  0  0  0
 22  4  1  0  0  0
 21  5  1  0  0  0
  5 25  1  0  0  0
  6 13  4  0  0  0
 25  6  4  0  0  0
  6 27  1  0  0  0
 19  7  1  0  0  0
  8 15  4  0  0  0
 20  8  4  0  0  0
  9 16  4  0  0  0
 23  9  4  0  0  0
 10 17  4  0  0  0
 25 10  4  0  0  0
 26 11  1  0  0  0
 26 12  1  0  0  0
 13 18  4  0  0  0
 27 14  1  0  0  0
 15 16  4  0  0  0
 17 18  4  0  0  0
 23 19  4  0  0  0
 20 23  4  0  0  0
 21 24  1  0  0  0
 22 26  1  0  0  0
  2 28  1  0  0  0
  3 29  1  0  0  0
  4 30  1  0  0  0
  4 31  1  0  0  0
  5 32  1  0  0  0
  5 33  1  0  0  0
  7 34  1  0  0  0
  7 35  1  0  0  0
  7 36  1  0  0  0
  8 37  1  0  0  0
  9 38  1  0  0  0
 10 39  1  0  0  0
 11 40  1  0  0  0
 11 41  1  0  0  0
 11 42  1  0  0  0
 12 43  1  0  0  0
 12 44  1  0  0  0
 12 45  1  0  0  0
 13 46  1  0  0  0
 14 47  1  0  0  0
 14 48  1  0  0  0
 14 49  1  0  0  0
 15 50  1  0  0  0
 16 51  1  0  0  0
 17 52  1  0  0  0
 18 53  1  0  0  0
 21 54  1  0  0  0
 22 55  1  0  0  0
 24 56  1  0  0  0
 24 57  1  0  0  0
 26 58  1  0  0  0
M  END
$$$$
