4pyn_ligand
  -I-interpret- 

 47 49  0  0  0  0  0  0  0  0999 V2000
  -10.3550  -11.2210   15.7120 N   0  3  0  0  0
  -10.8820  -10.3010   14.6820 C   0  0  0  0  0
  -12.2070   -9.6430   15.1200 C   0  0  0  0  0
  -13.2660  -10.6360   15.5450 C   0  0  0  0  0
  -14.8390   -9.7880   15.7240 S   0  0  0  0  0
   -9.8470   -9.2270   14.3870 C   0  0  0  0  0
   -9.9000   -8.6930   13.2810 O   0  0  0  0  0
   -9.0190   -8.9020   15.2560 O   0  0  0  0  0
  -15.8040  -11.0750   16.5320 C   0  0  0  0  0
  -16.1070  -12.2820   15.6210 C   0  0  0  0  0
  -16.5710  -13.3420   16.4690 O   0  0  0  0  0
  -17.2010  -12.0300   14.5790 C   0  0  0  0  0
  -16.7820  -12.2660   13.2290 O   0  0  0  0  0
  -18.3220  -13.0010   15.0410 C   0  0  0  0  0
  -19.1340  -13.5240   13.9780 O   0  0  0  0  0
  -17.5480  -14.0850   15.7570 C   0  0  0  0  0
  -18.3090  -14.8500   16.7520 N   0  0  0  0  0
  -19.2100  -14.3390   17.6400 C   0  0  0  0  0
  -19.6190  -15.3030   18.5030 N   0  0  0  0  0
  -18.9560  -16.4440   18.1050 C   0  0  0  0  0
  -18.9450  -17.7730   18.5920 C   0  0  0  0  0
  -19.7040  -18.1610   19.6540 N   0  0  0  0  0
  -18.1670  -18.6540   17.9670 N   0  0  0  0  0
  -17.4360  -18.2640   16.9070 C   0  0  0  0  0
  -17.3680  -17.0400   16.3650 N   0  0  0  0  0
  -18.1360  -16.1560   16.9920 C   0  0  0  0  0
  -11.0493  -11.9415   15.9099 H   0  0  0  0  0
   -9.4985  -11.6571   15.3705 H   0  0  0  0  0
  -10.1548  -10.6969   16.5639 H   0  0  0  0  0
  -11.0858  -10.8839   13.7838 H   0  0  0  0  0
  -12.5984   -9.0952   14.2628 H   0  0  0  0  0
  -11.9886   -9.0104   15.9804 H   0  0  0  0  0
  -12.9835  -11.0849   16.4972 H   0  0  0  0  0
  -13.3569  -11.4173   14.7904 H   0  0  0  0  0
   -9.1509   -9.4408   16.0395 H   0  0  0  0  0
  -16.7587  -10.6354   16.8209 H   0  0  0  0  0
  -15.2195  -11.4409   17.3762 H   0  0  0  0  0
  -15.1912  -12.5087   15.0750 H   0  0  0  0  0
  -17.5127  -10.9862   14.5400 H   0  0  0  0  0
  -17.5133  -12.0895   12.6327 H   0  0  0  0  0
  -19.0605  -12.4971   15.6645 H   0  0  0  0  0
  -19.7988  -14.1118   14.3442 H   0  0  0  0  0
  -17.1980  -14.8216   15.0338 H   0  0  0  0  0
  -19.5524  -13.3043   17.6542 H   0  0  0  0  0
  -20.3053  -17.4851   20.1252 H   0  0  0  0  0
  -19.6712  -19.1275   19.9783 H   0  0  0  0  0
  -16.8274  -19.0341   16.4331 H   0  0  0  0  0
  1  2  1  0  0  0
  2  3  1  0  0  0
  2  6  1  0  0  0
  3  4  1  0  0  0
  4  5  1  0  0  0
  5  9  1  0  0  0
  6  7  2  0  0  0
  6  8  1  0  0  0
  9 10  1  0  0  0
 10 11  1  0  0  0
 10 12  1  0  0  0
 11 16  1  0  0  0
 12 13  1  0  0  0
 12 14  1  0  0  0
 14 15  1  0  0  0
 14 16  1  0  0  0
 16 17  1  0  0  0
 17 18  4  0  0  0
 17 26  4  0  0  0
 18 19  4  0  0  0
 19 20  4  0  0  0
 20 21  4  0  0  0
 20 26  4  0  0  0
 21 22  1  0  0  0
 21 23  4  0  0  0
 23 24  4  0  0  0
 24 25  4  0  0  0
 25 26  4  0  0  0
  1 27  1  0  0  0
  1 28  1  0  0  0
  1 29  1  0  0  0
  2 30  1  0  0  0
  3 31  1  0  0  0
  3 32  1  0  0  0
  4 33  1  0  0  0
  4 34  1  0  0  0
  8 35  1  0  0  0
  9 36  1  0  0  0
  9 37  1  0  0  0
 10 38  1  0  0  0
 12 39  1  0  0  0
 13 40  1  0  0  0
 14 41  1  0  0  0
 15 42  1  0  0  0
 16 43  1  0  0  0
 18 44  1  0  0  0
 22 45  1  0  0  0
 22 46  1  0  0  0
 24 47  1  0  0  0
M  END
$$$$
