5ml0_ligand
  -I-interpret- 

 35 36  0  0  0  0  0  0  0  0999 V2000
  -14.8940   16.3570    9.8770 C   0  0  0  0  0
  -13.8680   16.3660   10.9870 C   0  0  0  0  0
  -14.6170   14.3150    8.4750 C   0  0  0  0  0
  -13.4740   16.9770   13.2890 C   0  0  0  0  0
  -14.4170   17.0540   12.1620 N   0  3  0  0  0
  -14.7160   18.4510   11.8330 C   0  0  0  0  0
  -15.7590   18.5240   10.7380 C   0  0  0  0  0
  -15.2940   17.7680    9.5050 C   0  0  0  0  0
  -14.3710   15.6030    8.7390 N   0  0  0  0  0
  -15.4080   13.5140    9.3710 C   0  0  0  0  0
  -15.7020   12.2680    9.1850 N   0  0  0  0  0
  -15.2220   11.6600    8.0650 N   0  0  0  0  0
  -15.5990   10.2560    7.9200 C   0  0  0  0  0
  -14.4470   12.2560    7.1030 C   0  0  0  0  0
  -14.0710   11.6340    6.1160 O   0  0  0  0  0
  -14.1510   13.6430    7.3620 C   0  0  0  0  0
  -13.1670   14.4460    6.1870 Cl  0  0  0  0  0
  -15.8021   15.8598   10.2180 H   0  0  0  0  0
  -12.9731   16.8878   10.6479 H   0  0  0  0  0
  -13.6154   15.3399   11.2542 H   0  0  0  0  0
  -12.5467   17.4831   13.0204 H   0  0  0  0  0
  -13.9131   17.4596   14.1621 H   0  0  0  0  0
  -13.2660   15.9314   13.5163 H   0  0  0  0  0
  -15.2835   16.5924   12.4386 H   0  0  0  0  0
  -13.8038   18.9373   11.4873 H   0  0  0  0  0
  -15.0996   18.9508   12.7224 H   0  0  0  0  0
  -15.9192   19.5688   10.4720 H   0  0  0  0  0
  -16.6834   18.0741   11.1003 H   0  0  0  0  0
  -16.1088   17.7289    8.7821 H   0  0  0  0  0
  -14.4337   18.2811    9.0753 H   0  0  0  0  0
  -15.7878   13.9926   10.2737 H   0  0  0  0  0
  -15.2215    9.6900    8.7716 H   0  0  0  0  0
  -16.6853   10.1750    7.8810 H   0  0  0  0  0
  -15.1705    9.8592    6.9996 H   0  0  0  0  0
  -14.6230   13.8501    8.3224 H   0  0  0  0  0
  1  2  1  0  0  0
  1  8  1  0  0  0
  1  9  1  0  0  0
  2  5  1  0  0  0
  9  3  2  0  0  0
  3 10  1  0  0  0
  3 16  1  0  0  0
  5  4  1  0  0  0
  5  6  1  0  0  0
  6  7  1  0  0  0
  7  8  1  0  0  0
 10 11  2  0  0  0
 11 12  1  0  0  0
 12 13  1  0  0  0
 12 14  1  0  0  0
 14 15  2  0  0  0
 14 16  1  0  0  0
 16 17  1  0  0  0
  1 18  1  0  0  0
  2 19  1  0  0  0
  2 20  1  0  0  0
  4 21  1  0  0  0
  4 22  1  0  0  0
  4 23  1  0  0  0
  5 24  1  0  0  0
  6 25  1  0  0  0
  6 26  1  0  0  0
  7 27  1  0  0  0
  7 28  1  0  0  0
  8 29  1  0  0  0
  8 30  1  0  0  0
 10 31  1  0  0  0
 13 32  1  0  0  0
 13 33  1  0  0  0
 13 34  1  0  0  0
 16 35  1  0  0  0
M  END
$$$$
