### 
### Created by X-TOOL on Mon Sep 10 21:13:03 2018
### 

@<TRIPOS>MOLECULE
3pup_ligand
   51    58     1     0     0
SMALL
GAST_HUCK


@<TRIPOS>ATOM
      1 C1         21.8620  -17.3870   -8.0250 C.ar      1 OS1        -0.0017
      2 C2         20.7340  -18.1060   -7.5560 C.ar      1 OS1        -0.0042
      3 C3         21.1470  -18.7670   -6.3710 C.2       1 OS1         0.1778
      4 O4         20.6440  -19.5140   -5.5080 O.2       1 OS1        -0.4105
      5 N5         22.4310  -18.4380   -6.1690 N.am      1 OS1        -0.2209
      6 C6         22.9000  -17.6180   -7.1270 C.2       1 OS1         0.1880
      7 O7         24.0750  -17.1840   -7.1310 O.2       1 OS1        -0.4011
      8 C8         19.5170  -18.0290   -8.2660 C.ar      1 OS1        -0.0586
      9 C9         19.5020  -17.2140   -9.4250 C.ar      1 OS1         0.0089
     10 C10        20.6360  -16.5300   -9.8830 C.ar      1 OS1         0.0844
     11 C11        21.8450  -16.5970   -9.1920 C.ar      1 OS1        -0.0255
     12 C12        22.7230  -15.7820   -9.9380 C.ar      1 OS1        -0.0114
     13 C13        21.9710  -15.2910  -11.0300 C.ar      1 OS1         0.0923
     14 N14        20.7570  -15.7840  -10.9670 N.pl3     1 OS1        -0.1558
     15 RU15       18.8820  -15.7190  -11.7610 Ru        1 OS1         6.0000
     16 CL16       16.5740  -15.5010  -12.3400 Cl        1 OS1        -1.0000
     17 C17        19.0400  -17.0940  -12.9160 C.1       1 OS1        -0.3173
     18 O18        19.0810  -17.9860  -13.6160 O.2       1 OS1        -0.6827
     19 N19        18.3770  -17.0580  -10.2440 N.ar      1 OS1        -0.3788
     20 C20        17.2090  -17.6690   -9.8790 C.ar      1 OS1        -0.0408
     21 C21        17.1670  -18.4880   -8.7250 C.ar      1 OS1         0.0057
     22 N22        16.0150  -19.1910   -8.2930 N.pl3     1 OS1        -0.3440
     23 C23        18.3140  -18.6680   -7.9200 C.ar      1 OS1        -0.0747
     24 N24        18.5980  -14.0600  -10.4400 N.4       1 OS1        -0.3109
     25 C25        19.6270  -13.0910  -10.8390 C.3       1 OS1        -0.2291
     26 C26        19.5450  -13.0460  -12.3330 C.ar      1 OS1        -0.0059
     27 N27        19.2820  -14.1650  -13.0390 N.ar      1 OS1        -0.3006
     28 C28        19.1880  -14.0150  -14.3430 C.ar      1 OS1         0.0027
     29 C29        19.3620  -12.8470  -15.0150 C.ar      1 OS1        -0.0410
     30 C30        19.6330  -11.7240  -14.2930 C.ar      1 OS1        -0.0489
     31 C31        19.7280  -11.8460  -12.9490 C.ar      1 OS1        -0.0349
     32 C32        22.5490  -14.4320  -11.9850 C.ar      1 OS1        -0.0397
     33 C33        23.9130  -14.0800  -11.8120 C.ar      1 OS1        -0.0748
     34 C34        24.6860  -14.5840  -10.7260 C.ar      1 OS1        -0.0768
     35 C35        24.0820  -15.4300   -9.7800 C.ar      1 OS1        -0.0706
     36 H          22.9762  -18.7640   -5.3967 H         1 OS1         0.2175
     37 H          16.3143  -17.5260  -10.4741 H         1 OS1         0.0370
     38 H          16.0541  -19.7703   -7.4423 H         1 OS1         0.1708
     39 H          15.1385  -19.1227   -8.8297 H         1 OS1         0.1708
     40 H          18.2663  -19.2969   -7.0384 H         1 OS1         0.0207
     41 H          17.9744  -13.6271   -9.6718 H         1 OS1        -0.3263
     42 H          20.6231  -13.4268  -10.5148 H         1 OS1         0.0062
     43 H          19.4157  -12.1010  -10.4086 H         1 OS1         0.0062
     44 H          18.9523  -14.8958  -14.9293 H         1 OS1         0.0803
     45 H          19.2872  -12.8098  -16.0958 H         1 OS1         0.0652
     46 H          19.7680  -10.7646  -14.7792 H         1 OS1         0.0719
     47 H          19.9543  -10.9708  -12.3508 H         1 OS1         0.0650
     48 H          21.9730  -14.0535  -12.8217 H         1 OS1         0.0528
     49 H          24.3793  -13.4098  -12.5251 H         1 OS1         0.0561
     50 H          25.7322  -14.3168  -10.6302 H         1 OS1         0.0505
     51 H          24.6522  -15.8079   -8.9391 H         1 OS1         0.0564
@<TRIPOS>BOND
     1    1    2 ar 
     2    1    6 1  
     3   11    1 ar 
     4    2    3 1  
     5    8    2 ar 
     6    3    4 2  
     7    5    3 am 
     8    6    5 am 
     9    6    7 2  
    10    9    8 ar 
    11    8   23 ar 
    12   10    9 ar 
    13    9   19 ar 
    14   10   11 ar 
    15   14   10 1  
    16   12   11 1  
    17   13   12 ar 
    18   12   35 ar 
    19   14   13 1  
    20   13   32 ar 
    21   17   18 2  
    22   19   20 ar 
    23   20   21 ar 
    24   21   22 1  
    25   23   21 ar 
    26   24   25 1  
    27   26   25 1  
    28   27   26 ar 
    29   26   31 ar 
    30   27   28 ar 
    31   28   29 ar 
    32   29   30 ar 
    33   31   30 ar 
    34   32   33 ar 
    35   33   34 ar 
    36   35   34 ar 
    37   15   17 1  
    38   15   24 1  
    39   15   27 1  
    40   15   14 1  
    41   15   19 1  
    42   15   16 1  
    43    5   36 1  
    44   20   37 1  
    45   22   38 1  
    46   22   39 1  
    47   23   40 1  
    48   24   41 1  
    49   25   42 1  
    50   25   43 1  
    51   28   44 1  
    52   29   45 1  
    53   30   46 1  
    54   31   47 1  
    55   32   48 1  
    56   33   49 1  
    57   34   50 1  
    58   35   51 1  
@<TRIPOS>SUBSTRUCTURE
     1 OS1         1

