3pup_ligand
  -I-interpret- 

 53 60  0  0  0  0  0  0  0  0999 V2000
   21.8620  -17.3870   -8.0250 C   0  0  0  0  0
   20.7340  -18.1060   -7.5560 C   0  0  0  0  0
   21.1470  -18.7670   -6.3710 C   0  0  0  0  0
   20.6440  -19.5140   -5.5080 O   0  0  0  0  0
   22.4310  -18.4380   -6.1690 N   0  0  0  0  0
   22.9000  -17.6180   -7.1270 C   0  0  0  0  0
   24.0750  -17.1840   -7.1310 O   0  0  0  0  0
   19.5170  -18.0290   -8.2660 C   0  0  0  0  0
   19.5020  -17.2140   -9.4250 C   0  0  0  0  0
   20.6360  -16.5300   -9.8830 C   0  0  0  0  0
   21.8450  -16.5970   -9.1920 C   0  0  0  0  0
   22.7230  -15.7820   -9.9380 C   0  0  0  0  0
   21.9710  -15.2910  -11.0300 C   0  0  0  0  0
   20.7570  -15.7840  -10.9670 N   0  0  0  0  0
   18.8820  -15.7190  -11.7610 Ru  0  0  0  0  0
   16.5740  -15.5010  -12.3400 Cl  0  0  0  0  0
   19.0400  -17.0940  -12.9160 C   0  0  0  0  0
   19.0810  -17.9860  -13.6160 O   0  0  0  0  0
   18.3770  -17.0580  -10.2440 N   0  0  0  0  0
   17.2090  -17.6690   -9.8790 C   0  0  0  0  0
   17.1670  -18.4880   -8.7250 C   0  0  0  0  0
   16.0150  -19.1910   -8.2930 N   0  0  0  0  0
   18.3140  -18.6680   -7.9200 C   0  0  0  0  0
   18.5980  -14.0600  -10.4400 N   0  3  0  0  0
   19.6270  -13.0910  -10.8390 C   0  0  0  0  0
   19.5450  -13.0460  -12.3330 C   0  0  0  0  0
   19.2820  -14.1650  -13.0390 N   0  0  0  0  0
   19.1880  -14.0150  -14.3430 C   0  0  0  0  0
   19.3620  -12.8470  -15.0150 C   0  0  0  0  0
   19.6330  -11.7240  -14.2930 C   0  0  0  0  0
   19.7280  -11.8460  -12.9490 C   0  0  0  0  0
   22.5490  -14.4320  -11.9850 C   0  0  0  0  0
   23.9130  -14.0800  -11.8120 C   0  0  0  0  0
   24.6860  -14.5840  -10.7260 C   0  0  0  0  0
   24.0820  -15.4300   -9.7800 C   0  0  0  0  0
   22.9871  -18.7705   -5.3812 H   0  0  0  0  0
   19.9549  -16.6782  -13.3381 H   0  0  0  0  0
   16.3094  -17.5252  -10.4774 H   0  0  0  0  0
   15.1471  -19.1233   -8.8245 H   0  0  0  0  0
   16.0537  -19.7647   -7.4505 H   0  0  0  0  0
   18.2661  -19.3004   -7.0335 H   0  0  0  0  0
   17.6580  -13.6706  -10.5122 H   0  0  0  0  0
   18.6880  -14.3315   -9.4609 H   0  0  0  0  0
   20.6185  -13.3845  -10.4941 H   0  0  0  0  0
   19.4589  -12.1111  -10.3921 H   0  0  0  0  0
   18.9510  -14.9007  -14.9325 H   0  0  0  0  0
   19.2868  -12.8096  -16.1018 H   0  0  0  0  0
   19.7688  -10.7593  -14.7819 H   0  0  0  0  0
   19.9556  -10.9660  -12.3475 H   0  0  0  0  0
   21.9698  -14.0514  -12.8263 H   0  0  0  0  0
   24.3819  -13.4061  -12.5290 H   0  0  0  0  0
   25.7380  -14.3154  -10.6297 H   0  0  0  0  0
   24.6554  -15.8100   -8.9345 H   0  0  0  0  0
  1  2  4  0  0  0
  1  6  1  0  0  0
 11  1  4  0  0  0
  2  3  1  0  0  0
  8  2  4  0  0  0
  3  4  2  0  0  0
  5  3  1  0  0  0
  6  5  1  0  0  0
  6  7  2  0  0  0
  9  8  4  0  0  0
  8 23  4  0  0  0
 10  9  4  0  0  0
  9 19  4  0  0  0
 10 11  4  0  0  0
 14 10  4  0  0  0
 12 11  4  0  0  0
 13 12  4  0  0  0
 12 35  4  0  0  0
 14 13  4  0  0  0
 13 32  4  0  0  0
 17 18  2  0  0  0
 19 20  4  0  0  0
 20 21  4  0  0  0
 21 22  1  0  0  0
 23 21  4  0  0  0
 24 25  1  0  0  0
 26 25  1  0  0  0
 27 26  4  0  0  0
 26 31  4  0  0  0
 27 28  4  0  0  0
 28 29  4  0  0  0
 29 30  4  0  0  0
 31 30  4  0  0  0
 32 33  4  0  0  0
 33 34  4  0  0  0
 35 34  4  0  0  0
 15 17  1  0  0  0
 15 24  1  0  0  0
 15 27  1  0  0  0
 15 14  1  0  0  0
 15 19  1  0  0  0
 15 16  1  0  0  0
  5 36  1  0  0  0
 17 37  1  0  0  0
 20 38  1  0  0  0
 22 39  1  0  0  0
 22 40  1  0  0  0
 23 41  1  0  0  0
 24 42  1  0  0  0
 24 43  1  0  0  0
 25 44  1  0  0  0
 25 45  1  0  0  0
 28 46  1  0  0  0
 29 47  1  0  0  0
 30 48  1  0  0  0
 31 49  1  0  0  0
 32 50  1  0  0  0
 33 51  1  0  0  0
 34 52  1  0  0  0
 35 53  1  0  0  0
M  END
$$$$
