3pn1_ligand
  -I-interpret- 

 45 47  0  0  0  0  0  0  0  0999 V2000
  110.6990   91.2810   24.4730 S   0  0  0  0  0
  108.9230   94.9930   23.1840 C   0  0  0  0  0
  111.3870   89.0600   25.5020 N   0  0  0  0  0
  111.4120   92.1060   30.1480 O   0  0  0  0  0
  109.2290   93.7130   23.9540 C   0  0  0  0  0
  111.6530   90.9400   26.8820 N   0  0  0  0  0
  109.3610   93.6200   31.0420 O   0  0  0  0  0
  110.3770   93.9700   24.9240 C   0  0  0  0  0
  112.5920   90.3600   29.0850 N   0  0  0  0  0
  112.9900   95.1110   29.1310 O   0  0  0  0  0
  111.3970   92.8480   24.9410 C   0  0  0  0  0
  112.6920   88.1790   28.7150 N   0  0  0  0  0
  114.4470   93.1240   30.0100 O   0  0  0  0  0
  111.2840   90.3780   25.7460 C   0  0  0  0  0
  111.8640   86.8950   26.0870 N   0  0  0  0  0
  111.8310   88.2360   26.4070 C   0  0  0  0  0
  112.2180   88.7690   27.6080 C   0  0  0  0  0
  112.1230   90.1540   27.8490 C   0  0  0  0  0
  112.9280   89.1550   29.5890 C   0  0  0  0  0
  112.7310   91.6050   29.8850 C   0  0  0  0  0
  113.4320   92.6970   29.1340 C   0  0  0  0  0
  112.4050   93.8380   29.0030 C   0  0  0  0  0
  111.4640   93.5620   30.1150 C   0  0  0  0  0
  110.0530   94.0250   29.8340 C   0  0  0  0  0
  108.6401   95.7783   23.8850 H   0  0  0  0  0
  109.8085   95.3018   22.6284 H   0  0  0  0  0
  108.1024   94.8107   22.4901 H   0  0  0  0  0
  109.5114   92.9257   23.2551 H   0  0  0  0  0
  108.3446   93.4016   24.5099 H   0  0  0  0  0
  108.4357   93.8674   30.9776 H   0  0  0  0  0
  109.9548   94.0515   25.9256 H   0  0  0  0  0
  110.8867   94.8787   24.6036 H   0  0  0  0  0
  112.3114   95.7842   29.0422 H   0  0  0  0  0
  112.1786   93.0947   24.2225 H   0  0  0  0  0
  111.7764   92.7554   25.9586 H   0  0  0  0  0
  114.9478   93.8314   29.5972 H   0  0  0  0  0
  111.5475   86.5817   25.1693 H   0  0  0  0  0
  112.2049   86.2164   26.7680 H   0  0  0  0  0
  113.3406   88.9999   30.5859 H   0  0  0  0  0
  113.3007   91.3543   30.7798 H   0  0  0  0  0
  113.8195   92.4007   28.1592 H   0  0  0  0  0
  111.9306   93.8611   28.0219 H   0  0  0  0  0
  111.7965   94.0655   31.0227 H   0  0  0  0  0
  109.9801   95.0933   29.6304 H   0  0  0  0  0
  109.6286   93.5951   28.9268 H   0  0  0  0  0
  1 11  1  0  0  0
 14  1  1  0  0  0
  5  2  1  0  0  0
 14  3  4  0  0  0
 16  3  4  0  0  0
  4 20  1  0  0  0
 23  4  1  0  0  0
  8  5  1  0  0  0
  6 14  4  0  0  0
 18  6  4  0  0  0
 24  7  1  0  0  0
 11  8  1  0  0  0
  9 18  4  0  0  0
  9 19  4  0  0  0
 20  9  1  0  0  0
 22 10  1  0  0  0
 12 17  4  0  0  0
 19 12  4  0  0  0
 21 13  1  0  0  0
 16 15  1  0  0  0
 17 16  4  0  0  0
 18 17  4  0  0  0
 21 20  1  0  0  0
 22 21  1  0  0  0
 23 22  1  0  0  0
 23 24  1  0  0  0
  2 25  1  0  0  0
  2 26  1  0  0  0
  2 27  1  0  0  0
  5 28  1  0  0  0
  5 29  1  0  0  0
  7 30  1  0  0  0
  8 31  1  0  0  0
  8 32  1  0  0  0
 10 33  1  0  0  0
 11 34  1  0  0  0
 11 35  1  0  0  0
 13 36  1  0  0  0
 15 37  1  0  0  0
 15 38  1  0  0  0
 19 39  1  0  0  0
 20 40  1  0  0  0
 21 41  1  0  0  0
 22 42  1  0  0  0
 23 43  1  0  0  0
 24 44  1  0  0  0
 24 45  1  0  0  0
M  END
$$$$
