3zc5_ligand
  -I-interpret- 

 44 48  0  0  0  0  0  0  0  0999 V2000
   23.5420   85.9150    5.1940 C   0  0  0  0  0
   24.8680   85.8070    4.8700 N   0  0  0  0  0
   23.1980   86.0620    6.5600 C   0  0  0  0  0
   18.5720   83.8540    6.4710 N   0  0  0  0  0
   21.8390   86.1920    6.9630 C   0  0  0  0  0
   18.5880   83.5670    5.1940 N   0  0  0  0  0
   20.7440   86.1820    6.0140 C   0  0  0  0  0
   18.3780   82.2900    1.1570 N   0  0  0  0  0
   19.2610   86.3650    6.5320 C   0  0  0  0  0
   18.0270   81.0630    1.3950 N   0  0  0  0  0
   18.8360   85.0240    7.1440 C   0  0  0  0  0
   18.3070   83.5700    8.6150 N   0  0  0  0  0
   18.2560   82.2920    4.8290 C   0  0  0  0  0
   18.2280   81.9830    3.3710 C   0  0  0  0  0
   18.5210   82.9110    2.2770 C   0  0  0  0  0
   17.9110   80.7820    2.7540 C   0  0  0  0  0
   18.6540   84.8030    8.4100 N   0  0  0  0  0
   17.7770   80.0700    0.3510 C   0  0  0  0  0
   17.9190   81.2890    5.8060 C   0  0  0  0  0
   17.9130   81.6290    7.1920 C   0  0  0  0  0
   18.2470   82.9660    7.4830 C   0  0  0  0  0
   19.3520   87.4690    7.6100 C   0  0  0  0  0
   21.0780   86.0240    4.6220 C   0  0  0  0  0
   22.4700   85.8890    4.2070 C   0  0  0  0  0
   22.8500   85.7360    2.8360 C   0  0  0  0  0
   24.2380   85.6210    2.4990 C   0  0  0  0  0
   25.2060   85.6650    3.5510 C   0  0  0  0  0
   23.9854   86.0758    7.3136 H   0  0  0  0  0
   21.6139   86.3031    8.0237 H   0  0  0  0  0
   18.5404   86.6410    5.7621 H   0  0  0  0  0
   18.8121   83.9552    2.3912 H   0  0  0  0  0
   17.6352   79.8378    3.2236 H   0  0  0  0  0
   16.9666   80.4156   -0.2908 H   0  0  0  0  0
   18.6804   79.9345   -0.2436 H   0  0  0  0  0
   17.4983   79.1224    0.8119 H   0  0  0  0  0
   17.6700   80.2763    5.4888 H   0  0  0  0  0
   17.6675   80.9058    7.9697 H   0  0  0  0  0
   20.0211   87.1431    8.4064 H   0  0  0  0  0
   19.7388   88.3833    7.1601 H   0  0  0  0  0
   18.3600   87.6563    8.0211 H   0  0  0  0  0
   20.2856   86.0052    3.8738 H   0  0  0  0  0
   22.0903   85.7072    2.0548 H   0  0  0  0  0
   24.5500   85.5023    1.4614 H   0  0  0  0  0
   26.2612   85.5817    3.2906 H   0  0  0  0  0
  1  2  4  0  0  0
  3  1  4  0  0  0
  1 24  4  0  0  0
  2 27  4  0  0  0
  5  3  4  0  0  0
  6  4  4  0  0  0
  4 11  4  0  0  0
  4 21  4  0  0  0
  7  5  4  0  0  0
 13  6  4  0  0  0
  9  7  1  0  0  0
  7 23  4  0  0  0
  8 10  4  0  0  0
 15  8  4  0  0  0
 11  9  1  0  0  0
  9 22  1  0  0  0
 10 16  4  0  0  0
 10 18  1  0  0  0
 11 17  4  0  0  0
 12 17  4  0  0  0
 21 12  4  0  0  0
 14 13  1  0  0  0
 13 19  4  0  0  0
 14 15  4  0  0  0
 14 16  4  0  0  0
 19 20  4  0  0  0
 20 21  4  0  0  0
 23 24  4  0  0  0
 24 25  4  0  0  0
 25 26  4  0  0  0
 26 27  4  0  0  0
  3 28  1  0  0  0
  5 29  1  0  0  0
  9 30  1  0  0  0
 15 31  1  0  0  0
 16 32  1  0  0  0
 18 33  1  0  0  0
 18 34  1  0  0  0
 18 35  1  0  0  0
 19 36  1  0  0  0
 20 37  1  0  0  0
 22 38  1  0  0  0
 22 39  1  0  0  0
 22 40  1  0  0  0
 23 41  1  0  0  0
 25 42  1  0  0  0
 26 43  1  0  0  0
 27 44  1  0  0  0
M  END
$$$$
