4o97_ligand
  -I-interpret- 

 73 76  0  0  0  0  0  0  0  0999 V2000
   20.5680    2.7730   23.3550 N   0  0  0  0  0
   20.1870    8.6940   32.3640 N   0  0  0  0  0
   19.3470    6.0660   26.0310 C   0  0  0  0  0
   19.8750    5.1260   25.1300 C   0  0  0  0  0
   19.0490    4.6370   24.1100 C   0  0  0  0  0
   19.5850    3.6540   23.1070 C   0  0  0  0  0
   21.0150    1.8800   22.2520 C   0  0  0  0  0
   22.6020    8.3080   27.7140 C   0  0  0  0  0
   14.7910   10.3200   23.0520 C   0  0  0  0  0
   13.9780   11.0690   25.2320 C   0  0  0  0  0
   14.8370    8.7910   24.9750 C   0  0  0  0  0
   21.6760    8.8050   30.3190 C   0  0  0  0  0
   22.5180    9.7170   29.6760 C   0  0  0  0  0
   22.9710    9.4770   28.3820 C   0  0  0  0  0
   23.2010    1.0130   21.2340 C   0  0  0  0  0
   21.4360   -0.6100   21.7380 C   0  0  0  0  0
   21.2230    9.2080   31.6910 C   0  0  0  0  0
   19.0950    3.7310   21.9980 O   0  0  0  0  0
   22.5280    2.1170   22.0470 C   0  0  0  0  0
   22.9220   -0.3150   21.9270 C   0  0  0  0  0
   23.7830   -1.3720   21.4370 N   0  3  0  0  0
   20.6760    0.4110   22.5990 C   0  0  0  0  0
   20.0960    6.5900   27.0630 O   0  0  0  0  0
   21.3660    6.1390   27.5950 C   0  0  0  0  0
   21.7850    7.3790   28.3560 C   0  0  0  0  0
   21.9060   10.2000   32.2410 N   0  0  0  0  0
   21.2990    7.6290   29.6690 C   0  0  0  0  0
   18.0100    6.5090   25.8860 C   0  0  0  0  0
   17.1510    6.0230   24.8660 C   0  0  0  0  0
   17.7060    5.0780   23.9850 C   0  0  0  0  0
   15.8090    6.4440   24.7160 O   0  0  0  0  0
   15.1540    7.4130   25.5800 C   0  0  0  0  0
   14.2790    9.8040   25.7840 C   0  0  0  0  0
   13.3970   12.1920   26.0770 C   0  0  0  0  0
   12.7210   11.9990   27.2190 N   0  0  0  0  0
   13.5640   13.4590   25.6790 N   0  0  0  0  0
   14.2470   11.3220   23.8660 C   0  0  0  0  0
   15.0880    9.0640   23.6160 C   0  0  0  0  0
   20.9982    2.7174   24.2782 H   0  0  0  0  0
   19.9385    9.0669   33.2803 H   0  0  0  0  0
   19.6457    7.9293   31.9607 H   0  0  0  0  0
   20.9059    4.7844   25.2229 H   0  0  0  0  0
   20.4992    2.0999   21.3173 H   0  0  0  0  0
   22.9503    8.1231   26.6978 H   0  0  0  0  0
   14.9820   10.5099   21.9958 H   0  0  0  0  0
   22.8232   10.6263   30.1938 H   0  0  0  0  0
   23.6159   10.2041   27.8886 H   0  0  0  0  0
   24.2750    1.1894   21.1742 H   0  0  0  0  0
   22.8069    0.9987   20.2178 H   0  0  0  0  0
   21.1988   -1.6298   22.0411 H   0  0  0  0  0
   21.1514   -0.5250   20.6892 H   0  0  0  0  0
   22.9969    2.1374   23.0308 H   0  0  0  0  0
   22.6461    3.0517   21.4988 H   0  0  0  0  0
   23.1494   -0.2555   22.9914 H   0  0  0  0  0
   23.5644   -2.2406   21.9250 H   0  0  0  0  0
   23.6315   -1.4956   20.4359 H   0  0  0  0  0
   24.7571   -1.1214   21.6063 H   0  0  0  0  0
   19.6111    0.2674   22.4160 H   0  0  0  0  0
   20.9630    0.2438   23.6372 H   0  0  0  0  0
   22.0802    5.8101   26.8401 H   0  0  0  0  0
   21.3056    5.2359   28.2023 H   0  0  0  0  0
   22.6781   10.6310   31.7326 H   0  0  0  0  0
   20.6413    6.9122   30.1607 H   0  0  0  0  0
   17.6256    7.2520   26.5847 H   0  0  0  0  0
   17.0876    4.6730   23.1840 H   0  0  0  0  0
   14.1905    6.9747   25.8400 H   0  0  0  0  0
   15.8512    7.6011   26.3965 H   0  0  0  0  0
   14.0797    9.6097   26.8379 H   0  0  0  0  0
   12.3616   12.7987   27.7403 H   0  0  0  0  0
   12.5662   11.0525   27.5663 H   0  0  0  0  0
   14.0751   13.6604   24.8196 H   0  0  0  0  0
   14.0294   12.3033   23.4442 H   0  0  0  0  0
   15.5215    8.2863   22.9872 H   0  0  0  0  0
  6  1  1  0  0  0
  1  7  1  0  0  0
 17  2  1  0  0  0
  3  4  4  0  0  0
  3 23  1  0  0  0
 28  3  4  0  0  0
  5  4  4  0  0  0
  5  6  1  0  0  0
 30  5  4  0  0  0
  6 18  2  0  0  0
  7 19  1  0  0  0
  7 22  1  0  0  0
  8 14  4  0  0  0
 25  8  4  0  0  0
  9 37  4  0  0  0
 38  9  4  0  0  0
 33 10  4  0  0  0
 10 34  1  0  0  0
 10 37  4  0  0  0
 32 11  1  0  0  0
 11 33  4  0  0  0
 11 38  4  0  0  0
 12 13  4  0  0  0
 12 17  1  0  0  0
 27 12  4  0  0  0
 14 13  4  0  0  0
 19 15  1  0  0  0
 15 20  1  0  0  0
 16 20  1  0  0  0
 22 16  1  0  0  0
 17 26  2  0  0  0
 20 21  1  0  0  0
 23 24  1  0  0  0
 24 25  1  0  0  0
 25 27  4  0  0  0
 29 28  4  0  0  0
 29 30  4  0  0  0
 31 29  1  0  0  0
 31 32  1  0  0  0
 34 35  1  0  0  0
 34 36  2  0  0  0
  1 39  1  0  0  0
  2 40  1  0  0  0
  2 41  1  0  0  0
  4 42  1  0  0  0
  7 43  1  0  0  0
  8 44  1  0  0  0
  9 45  1  0  0  0
 13 46  1  0  0  0
 14 47  1  0  0  0
 15 48  1  0  0  0
 15 49  1  0  0  0
 16 50  1  0  0  0
 16 51  1  0  0  0
 19 52  1  0  0  0
 19 53  1  0  0  0
 20 54  1  0  0  0
 21 55  1  0  0  0
 21 56  1  0  0  0
 21 57  1  0  0  0
 22 58  1  0  0  0
 22 59  1  0  0  0
 24 60  1  0  0  0
 24 61  1  0  0  0
 26 62  1  0  0  0
 27 63  1  0  0  0
 28 64  1  0  0  0
 30 65  1  0  0  0
 32 66  1  0  0  0
 32 67  1  0  0  0
 33 68  1  0  0  0
 35 69  1  0  0  0
 35 70  1  0  0  0
 36 71  1  0  0  0
 37 72  1  0  0  0
 38 73  1  0  0  0
M  END
$$$$
