3fkv_ligand
  -I-interpret- 

 19 20  0  0  0  0  0  0  0  0999 V2000
   26.2240    4.8290   16.4410 B   0  0  0  0  0
   26.4520    5.7000   17.6170 O   0  0  0  0  0
   25.2200    3.7530   16.7350 O   0  0  0  0  0
   25.5950    5.6870   15.3190 C   0  0  0  0  0
   25.1940    7.0200   15.5230 C   0  0  0  0  0
   24.6310    6.4830   13.1850 C   0  0  0  0  0
   24.6270    7.4980   14.2700 C   0  0  0  0  0
   24.1250    6.7730   11.9200 C   0  0  0  0  0
   25.3090    5.0280   13.7300 S   0  0  0  0  0
   24.1110    8.7680   13.9920 C   0  0  0  0  0
   23.6110    8.0610   11.6990 C   0  0  0  0  0
   23.6080    9.0400   12.7100 C   0  0  0  0  0
   26.8430    5.1834   18.3254 H   0  0  0  0  0
   25.5574    3.1833   17.4302 H   0  0  0  0  0
   25.2900    7.5893   16.4475 H   0  0  0  0  0
   24.1279    6.0246   11.1275 H   0  0  0  0  0
   24.0996    9.5385   14.7629 H   0  0  0  0  0
   23.2037    8.3090   10.7188 H   0  0  0  0  0
   23.2068   10.0300   12.4931 H   0  0  0  0  0
  1  2  1  0  0  0
  1  3  1  0  0  0
  1  4  1  0  0  0
  4  5  4  0  0  0
  4  9  4  0  0  0
  5  7  4  0  0  0
  7  6  4  0  0  0
  6  8  4  0  0  0
  6  9  4  0  0  0
  7 10  4  0  0  0
  8 11  4  0  0  0
 10 12  4  0  0  0
 11 12  4  0  0  0
  2 13  1  0  0  0
  3 14  1  0  0  0
  5 15  1  0  0  0
  8 16  1  0  0  0
 10 17  1  0  0  0
 11 18  1  0  0  0
 12 19  1  0  0  0
M  END
$$$$
