### 
### Created by X-TOOL on Mon Sep 10 21:12:59 2018
### 

@<TRIPOS>MOLECULE
3fkv_ligand
   19    20     1     0     0
SMALL
GAST_HUCK


@<TRIPOS>ATOM
      1 B          26.2240    4.8290   16.4410 B         1 BZB         3.0000
      2 O1         26.4520    5.7000   17.6170 O.3       1 BZB        -0.8710
      3 O2         25.2200    3.7530   16.7350 O.3       1 BZB        -0.8710
      4 C1         25.5950    5.6870   15.3190 C.2       1 BZB        -0.1102
      5 C2         25.1940    7.0200   15.5230 C.2       1 BZB        -0.1652
      6 C8         24.6310    6.4830   13.1850 C.ar      1 BZB        -0.0361
      7 C3         24.6270    7.4980   14.2700 C.ar      1 BZB        -0.1161
      8 C7         24.1250    6.7730   11.9200 C.ar      1 BZB        -0.1132
      9 S          25.3090    5.0280   13.7300 S.3       1 BZB        -0.1356
     10 C4         24.1110    8.7680   13.9920 C.ar      1 BZB        -0.1362
     11 C6         23.6110    8.0610   11.6990 C.ar      1 BZB        -0.1356
     12 C5         23.6080    9.0400   12.7100 C.ar      1 BZB        -0.1337
     13 H1         27.0908    6.3675   17.3961 H         1 BZB        -0.1290
     14 H4         25.0985    3.2149   15.9616 H         1 BZB        -0.1290
     15 H6         25.2899    7.5888   16.4467 H         1 BZB        -0.0010
     16 H7         24.1279    6.0287   11.1319 H         1 BZB         0.0222
     17 H8         24.0996    9.5343   14.7586 H         1 BZB         0.0096
     18 H9         23.2060    8.3076   10.7242 H         1 BZB         0.0101
     19 H10        23.2090   10.0245   12.4943 H         1 BZB         0.0409
@<TRIPOS>BOND
     1    1    2 1  
     2    1    3 1  
     3    1    4 1  
     4    4    5 2  
     5    4    9 1  
     6    5    7 1  
     7    7    6 ar 
     8    6    8 ar 
     9    6    9 1  
    10    7   10 ar 
    11    8   11 ar 
    12   10   12 ar 
    13   11   12 ar 
    14    2   13 1  
    15    3   14 1  
    16    5   15 1  
    17    8   16 1  
    18   10   17 1  
    19   11   18 1  
    20   12   19 1  
@<TRIPOS>SUBSTRUCTURE
     1 BZB         1

