1uvu_ligand
  -I-interpret- 

 38 39  0  0  0  0  0  0  0  0999 V2000
  -40.5130  -31.7940   40.6990 C   0  0  0  0  0
  -41.4660  -30.9130   40.4530 N   0  0  0  0  0
  -40.6450  -33.1040   40.7160 N   0  0  0  0  0
  -39.1950  -31.1150   40.9500 C   0  0  0  0  0
  -38.3370  -31.6200   41.9030 C   0  0  0  0  0
  -37.1250  -30.9650   42.1090 C   0  0  0  0  0
  -36.2890  -31.5020   43.0770 C   0  0  0  0  0
  -35.0500  -30.9210   43.3510 C   0  0  0  0  0
  -34.6680  -29.7420   42.6540 C   0  0  0  0  0
  -35.5100  -29.1720   41.6780 C   0  0  0  0  0
  -36.7450  -29.7830   41.3980 C   0  0  0  0  0
  -37.5960  -29.2590   40.4370 C   0  0  0  0  0
  -38.8120  -29.9430   40.2200 C   0  0  0  0  0
  -34.2340  -31.5860   44.4640 C   0  0  0  0  0
  -34.7480  -30.9950   45.8200 C   0  0  0  0  0
  -34.7110  -29.4350   45.9130 C   0  0  0  0  0
  -35.5520  -28.8830   46.6220 O   0  0  0  0  0
  -33.7450  -28.7320   45.1840 O   0  0  0  0  0
  -33.1660  -27.4690   45.7410 C   0  0  0  0  0
  -32.5910  -26.8750   44.4140 C   0  0  0  0  0
  -42.4141  -31.2303   40.2508 H   0  0  0  0  0
  -41.2538  -29.9154   40.4652 H   0  0  0  0  0
  -39.8358  -33.6957   40.9043 H   0  0  0  0  0
  -38.5995  -32.5071   42.4794 H   0  0  0  0  0
  -36.6032  -32.3874   43.6297 H   0  0  0  0  0
  -33.7102  -29.2723   42.8777 H   0  0  0  0  0
  -35.2077  -28.2693   41.1472 H   0  0  0  0  0
  -37.3384  -28.3611   39.8753 H   0  0  0  0  0
  -39.4930  -29.5606   39.4596 H   0  0  0  0  0
  -33.1700  -31.3880   44.3345 H   0  0  0  0  0
  -34.3596  -32.6685   44.4416 H   0  0  0  0  0
  -34.0877  -31.3737   46.6002 H   0  0  0  0  0
  -35.7919  -31.2927   45.9188 H   0  0  0  0  0
  -32.4400  -27.6044   46.5427 H   0  0  0  0  0
  -33.8712  -26.8280   46.2701 H   0  0  0  0  0
  -31.8589  -27.5656   43.9955 H   0  0  0  0  0
  -33.4027  -26.7282   43.7014 H   0  0  0  0  0
  -32.1120  -25.9185   44.6231 H   0  0  0  0  0
  1  2  1  0  0  0
  1  3  2  0  0  0
  1  4  1  0  0  0
  4  5  4  0  0  0
  4 13  4  0  0  0
  5  6  4  0  0  0
  6  7  4  0  0  0
  6 11  4  0  0  0
  7  8  4  0  0  0
  8  9  4  0  0  0
  8 14  1  0  0  0
  9 10  4  0  0  0
 10 11  4  0  0  0
 11 12  4  0  0  0
 12 13  4  0  0  0
 14 15  1  0  0  0
 15 16  1  0  0  0
 16 17  2  0  0  0
 16 18  1  0  0  0
 18 19  1  0  0  0
 19 20  1  0  0  0
  2 21  1  0  0  0
  2 22  1  0  0  0
  3 23  1  0  0  0
  5 24  1  0  0  0
  7 25  1  0  0  0
  9 26  1  0  0  0
 10 27  1  0  0  0
 12 28  1  0  0  0
 13 29  1  0  0  0
 14 30  1  0  0  0
 14 31  1  0  0  0
 15 32  1  0  0  0
 15 33  1  0  0  0
 19 34  1  0  0  0
 19 35  1  0  0  0
 20 36  1  0  0  0
 20 37  1  0  0  0
 20 38  1  0  0  0
M  END
$$$$
