6jij_ligand
  -I-interpret- 

 97 99  0  0  0  0  0  0  0  0999 V2000
   45.9290   22.8140   17.7830 C   0  0  0  0  0
   47.3020   22.7540   17.7080 C   0  0  0  0  0
   48.2790   23.5940   18.5300 C   0  0  0  0  0
   47.6310   21.8240   16.7840 O   0  0  0  0  0
   46.4450   21.2940   16.2680 N   0  0  0  0  0
   45.4130   21.9030   16.8840 C   0  0  0  0  0
   43.9140   21.6170   16.6190 C   0  0  0  0  0
   43.0840   21.7770   17.4900 O   0  0  0  0  0
   43.5080   21.1530   15.3070 N   0  0  0  0  0
   42.1270   20.8660   15.0420 C   0  0  0  0  0
   41.8320   19.5700   15.7920 C   0  0  0  0  0
   42.6950   18.6820   15.8460 O   0  0  0  0  0
   41.9700   20.6790   13.5650 C   0  0  0  0  0
   40.5560   19.3790   16.4640 N   0  0  0  0  0
   40.3210   18.1390   17.1940 C   0  0  0  0  0
   39.6210   17.1140   16.3370 C   0  0  0  0  0
   38.5900   17.4180   15.7270 O   0  0  0  0  0
   39.4500   18.4570   18.3860 C   0  0  0  0  0
   39.2130   17.2090   19.2060 C   0  0  0  0  0
   40.1150   19.5210   19.2430 C   0  0  0  0  0
   40.1510   15.7370   16.2270 N   0  0  0  0  0
   39.4350   14.7900   15.4230 C   0  0  0  0  0
   38.1920   14.4190   16.2650 C   0  0  0  0  0
   38.3250   14.0420   17.4290 O   0  0  0  0  0
   40.2990   13.5980   15.1410 C   0  0  0  0  0
   41.0660   13.8010   13.8050 C   0  0  0  0  0
   42.3700   12.9840   13.8360 C   0  0  0  0  0
   40.1510   13.2940   12.5960 C   0  0  0  0  0
   35.7680   14.1780   16.6670 C   0  0  0  0  0
   35.2730   12.7810   16.4930 C   0  0  0  0  0
   35.7840   11.9050   17.4510 C   0  0  0  0  0
   35.4350   10.4130   17.4950 C   0  0  0  0  0
   34.6650   15.2220   16.6430 C   0  0  0  0  0
   35.1670   16.3050   17.3940 C   0  0  0  0  0
   35.2000   15.9250   18.8820 C   0  0  0  0  0
   34.9280   17.1230   19.5340 C   0  0  0  0  0
   34.0180   17.9140   18.5850 N   0  0  0  0  0
   34.1480   17.4510   17.3560 C   0  0  0  0  0
   33.5670   17.8550   16.3460 O   0  0  0  0  0
   36.8370   14.5380   15.7330 N   0  0  0  0  0
   34.3350   10.0630   17.7710 O   0  0  0  0  0
   36.8750    8.6890   18.3650 C   0  0  0  0  0
   36.4450    9.4500   17.2000 O   0  0  0  0  0
   38.7060   10.5710   18.5420 C   0  0  0  0  0
   39.8360   11.1260   19.1600 C   0  0  0  0  0
   40.4160   10.4870   20.2600 C   0  0  0  0  0
   39.8670    9.2920   20.7410 C   0  0  0  0  0
   38.7430    8.7340   20.1280 C   0  0  0  0  0
   38.1590    9.3720   19.0240 C   0  0  0  0  0
   45.3509   23.4664   18.4374 H   0  0  0  0  0
   48.1080   24.6510   18.3262 H   0  0  0  0  0
   48.1223   23.3972   19.5906 H   0  0  0  0  0
   49.3010   23.3308   18.2574 H   0  0  0  0  0
   44.2042   21.0304   14.5717 H   0  0  0  0  0
   41.4481   21.6574   15.3595 H   0  0  0  0  0
   42.2714   21.5914   13.0505 H   0  0  0  0  0
   42.5976   19.8507   13.2362 H   0  0  0  0  0
   40.9271   20.4593   13.3367 H   0  0  0  0  0
   39.8369   20.1013   16.4251 H   0  0  0  0  0
   41.2810   17.7226   17.4991 H   0  0  0  0  0
   38.4903   18.8327   18.0312 H   0  0  0  0  0
   38.7162   16.4597   18.5896 H   0  0  0  0  0
   40.1688   16.8184   19.5553 H   0  0  0  0  0
   38.5837   17.4524   20.0621 H   0  0  0  0  0
   41.0810   19.1546   19.5903 H   0  0  0  0  0
   40.2593   20.4247   18.6509 H   0  0  0  0  0
   39.4801   19.7443   20.1004 H   0  0  0  0  0
   41.0067   15.4674   16.7123 H   0  0  0  0  0
   39.1464   15.1875   14.4500 H   0  0  0  0  0
   39.6709   12.7106   15.0624 H   0  0  0  0  0
   41.0173   13.4762   15.9517 H   0  0  0  0  0
   41.3019   14.8568   13.6715 H   0  0  0  0  0
   42.9891   13.3216   14.6672 H   0  0  0  0  0
   42.1326   11.9279   13.9637 H   0  0  0  0  0
   42.9086   13.1260   12.8990 H   0  0  0  0  0
   39.9237   12.2368   12.7326 H   0  0  0  0  0
   39.2239   13.8670   12.5786 H   0  0  0  0  0
   40.6838   13.4338   11.6554 H   0  0  0  0  0
   36.1950   14.1819   17.6699 H   0  0  0  0  0
   34.5863   12.4778   15.7027 H   0  0  0  0  0
   36.4645   12.3007   18.2049 H   0  0  0  0  0
   33.7362   14.8364   17.0635 H   0  0  0  0  0
   34.4143   15.5197   15.6249 H   0  0  0  0  0
   36.1451   16.5677   16.9911 H   0  0  0  0  0
   36.1568   15.4968   19.1808 H   0  0  0  0  0
   34.4798   15.1447   19.1281 H   0  0  0  0  0
   35.8433   17.6714   19.7567 H   0  0  0  0  0
   34.4460   16.9516   20.4965 H   0  0  0  0  0
   33.4056   18.6812   18.8620 H   0  0  0  0  0
   36.6489   14.8493   14.7800 H   0  0  0  0  0
   37.1285    7.6749   18.0560 H   0  0  0  0  0
   36.0668    8.6673   19.0960 H   0  0  0  0  0
   38.2522   11.0714   17.6865 H   0  0  0  0  0
   40.2621   12.0556   18.7827 H   0  0  0  0  0
   41.2935   10.9180   20.7420 H   0  0  0  0  0
   40.3195    8.7944   21.5988 H   0  0  0  0  0
   38.3201    7.8037   20.5072 H   0  0  0  0  0
  1  2  4  0  0  0
  6  1  4  0  0  0
  2  3  1  0  0  0
  4  2  4  0  0  0
  5  4  4  0  0  0
  6  5  4  0  0  0
  7  6  1  0  0  0
  7  8  2  0  0  0
  9  7  1  0  0  0
 10  9  1  0  0  0
 11 10  1  0  0  0
 10 13  1  0  0  0
 11 12  2  0  0  0
 14 11  1  0  0  0
 15 14  1  0  0  0
 16 15  1  0  0  0
 15 18  1  0  0  0
 16 17  2  0  0  0
 21 16  1  0  0  0
 18 19  1  0  0  0
 18 20  1  0  0  0
 22 21  1  0  0  0
 23 22  1  0  0  0
 22 25  1  0  0  0
 23 24  2  0  0  0
 40 23  1  0  0  0
 25 26  1  0  0  0
 26 27  1  0  0  0
 26 28  1  0  0  0
 30 29  1  0  0  0
 29 33  1  0  0  0
 29 40  1  0  0  0
 31 30  2  0  0  0
 32 31  1  0  0  0
 32 41  2  0  0  0
 43 32  1  0  0  0
 33 34  1  0  0  0
 34 35  1  0  0  0
 34 38  1  0  0  0
 35 36  1  0  0  0
 37 36  1  0  0  0
 38 37  1  0  0  0
 38 39  2  0  0  0
 42 43  1  0  0  0
 49 42  1  0  0  0
 44 45  4  0  0  0
 44 49  4  0  0  0
 45 46  4  0  0  0
 46 47  4  0  0  0
 47 48  4  0  0  0
 48 49  4  0  0  0
  1 50  1  0  0  0
  3 51  1  0  0  0
  3 52  1  0  0  0
  3 53  1  0  0  0
  9 54  1  0  0  0
 10 55  1  0  0  0
 13 56  1  0  0  0
 13 57  1  0  0  0
 13 58  1  0  0  0
 14 59  1  0  0  0
 15 60  1  0  0  0
 18 61  1  0  0  0
 19 62  1  0  0  0
 19 63  1  0  0  0
 19 64  1  0  0  0
 20 65  1  0  0  0
 20 66  1  0  0  0
 20 67  1  0  0  0
 21 68  1  0  0  0
 22 69  1  0  0  0
 25 70  1  0  0  0
 25 71  1  0  0  0
 26 72  1  0  0  0
 27 73  1  0  0  0
 27 74  1  0  0  0
 27 75  1  0  0  0
 28 76  1  0  0  0
 28 77  1  0  0  0
 28 78  1  0  0  0
 29 79  1  0  0  0
 30 80  1  0  0  0
 31 81  1  0  0  0
 33 82  1  0  0  0
 33 83  1  0  0  0
 34 84  1  0  0  0
 35 85  1  0  0  0
 35 86  1  0  0  0
 36 87  1  0  0  0
 36 88  1  0  0  0
 37 89  1  0  0  0
 40 90  1  0  0  0
 42 91  1  0  0  0
 42 92  1  0  0  0
 44 93  1  0  0  0
 45 94  1  0  0  0
 46 95  1  0  0  0
 47 96  1  0  0  0
 48 97  1  0  0  0
M  END
$$$$
