4awj_ligand
  -I-interpret- 

 27 27  0  0  0  0  0  0  0  0999 V2000
   -9.9740   31.7170    0.9150 O   0  0  0  0  0
   -8.6380   31.4420    1.2880 C   0  0  0  0  0
   -8.2020   32.5390    2.2520 C   0  0  0  0  0
   -7.6640   33.6770    1.3810 C   0  0  0  0  0
   -6.3270   34.1510    1.9590 C   0  0  0  0  0
   -6.4410   35.1790    2.9160 N   0  0  0  0  0
   -5.2150   35.6780    3.5060 C   0  0  0  0  0
   -5.2520   33.7000    1.6380 O   0  0  0  0  0
   -7.4510   33.0820    0.0410 N   0  0  0  0  0
   -7.0030   33.8680   -1.0410 C   0  0  0  0  0
   -6.8150   33.1780   -2.3750 C   0  0  0  0  0
   -6.7820   35.0570   -0.8780 O   0  0  0  0  0
   -7.7710   31.6520    0.0360 C   0  0  0  0  0
  -10.5485   31.5961    1.6746 H   0  0  0  0  0
   -8.5479   30.4420    1.7121 H   0  0  0  0  0
   -7.4408   32.1773    2.9433 H   0  0  0  0  0
   -9.0344   32.8749    2.8703 H   0  0  0  0  0
   -8.3423   34.5291    1.3383 H   0  0  0  0  0
   -7.3501   35.5568    3.1828 H   0  0  0  0  0
   -4.7004   34.8631    4.0151 H   0  0  0  0  0
   -4.5737   36.0809    2.7221 H   0  0  0  0  0
   -5.4520   36.4640    4.2230 H   0  0  0  0  0
   -7.4622   33.6440   -3.1180 H   0  0  0  0  0
   -5.7749   33.2713   -2.6875 H   0  0  0  0  0
   -7.0730   32.1235   -2.2767 H   0  0  0  0  0
   -8.2921   31.3550   -0.8741 H   0  0  0  0  0
   -6.8732   31.0342    0.0547 H   0  0  0  0  0
  1  2  1  0  0  0
  2  3  1  0  0  0
  2 13  1  0  0  0
  3  4  1  0  0  0
  4  5  1  0  0  0
  4  9  1  0  0  0
  5  6  1  0  0  0
  5  8  2  0  0  0
  6  7  1  0  0  0
  9 10  1  0  0  0
  9 13  1  0  0  0
 10 11  1  0  0  0
 10 12  2  0  0  0
  1 14  1  0  0  0
  2 15  1  0  0  0
  3 16  1  0  0  0
  3 17  1  0  0  0
  4 18  1  0  0  0
  6 19  1  0  0  0
  7 20  1  0  0  0
  7 21  1  0  0  0
  7 22  1  0  0  0
 11 23  1  0  0  0
 11 24  1  0  0  0
 11 25  1  0  0  0
 13 26  1  0  0  0
 13 27  1  0  0  0
M  END
$$$$
