4aaw_ligand
  -I-interpret- 

 81 83  0  0  0  0  0  0  0  0999 V2000
   57.1290   17.3790  -22.2320 C   0  0  0  0  0
   56.0480   18.1420  -21.7730 O   0  0  0  0  0
   55.5530   18.9290  -22.8040 C   0  0  0  0  0
   55.9300   18.6970  -24.1350 C   0  0  0  0  0
   55.4010   19.5410  -25.1180 C   0  0  0  0  0
   55.7120   19.3700  -26.4520 O   0  0  0  0  0
   56.3610   18.0590  -26.6780 C   0  0  0  0  0
   54.5360   20.6000  -24.7940 C   0  0  0  0  0
   54.1550   20.7830  -23.4740 C   0  0  0  0  0
   54.6850   19.9870  -22.4780 C   0  0  0  0  0
   54.2960   20.1990  -21.1410 N   0  0  0  0  0
   53.8940   21.4100  -20.5220 C   0  0  0  0  0
   53.8920   22.4660  -21.1020 O   0  0  0  0  0
   53.4050   21.4540  -19.1170 C   0  0  0  0  0
   54.5910   21.2760  -18.1570 C   0  0  0  0  0
   54.0480   21.3560  -16.7420 C   0  0  0  0  0
   54.8250   21.7930  -15.8630 O   0  0  0  0  0
   52.7270   21.0000  -16.5270 O   0  0  0  0  0
   53.8680   21.6210  -26.0930 S   0  0  0  0  0
   52.9840   22.3650  -25.2530 O   0  0  0  0  0
   54.9720   22.0780  -26.8870 O   0  0  0  0  0
   52.9680   20.5530  -27.1010 N   0  0  0  0  0
   51.8650   19.5500  -26.7360 C   0  0  0  0  0
   52.2760   18.0640  -26.8680 C   0  0  0  0  0
   52.0850   17.1330  -25.8370 C   0  0  0  0  0
   52.4810   15.7960  -25.9550 C   0  0  0  0  0
   53.1010   15.2860  -27.1060 C   0  0  0  0  0
   53.2490   16.2010  -28.1420 C   0  0  0  0  0
   52.8580   17.5650  -28.0080 C   0  0  0  0  0
   53.0380   18.4500  -29.0340 N   0  0  0  0  0
   53.7960   17.8090  -30.0870 C   0  0  0  0  0
   54.3390   18.9820  -30.9110 C   0  0  0  0  0
   53.2240   19.9200  -31.3880 C   0  0  0  0  0
   53.0160   19.7640  -32.8820 C   0  0  0  0  0
   52.6010   21.0650  -33.4090 O   0  0  0  0  0
   51.6900   21.1790  -34.4100 C   0  0  0  0  0
   50.7210   20.4240  -34.4780 O   0  0  0  0  0
   51.9060   22.2590  -35.4540 C   0  0  0  0  0
   50.8190   22.1850  -36.5450 C   0  0  0  0  0
   50.9890   21.0810  -37.5880 C   0  0  0  0  0
   50.0710   20.8070  -38.3390 O   0  0  0  0  0
   52.1360   20.3850  -37.7150 O   0  0  0  0  0
   51.9180   19.9140  -30.5910 C   0  0  0  0  0
   51.7240   18.7630  -29.6250 C   0  0  0  0  0
   56.7982   16.7367  -23.0482 H   0  0  0  0  0
   57.9164   18.0437  -22.5873 H   0  0  0  0  0
   57.5108   16.7648  -21.4165 H   0  0  0  0  0
   56.6116   17.8871  -24.3948 H   0  0  0  0  0
   57.2792   18.0039  -26.0932 H   0  0  0  0  0
   55.6842   17.2621  -26.3699 H   0  0  0  0  0
   56.5959   17.9490  -27.7367 H   0  0  0  0  0
   53.4331   21.5595  -23.2208 H   0  0  0  0  0
   54.3045   19.3748  -20.5401 H   0  0  0  0  0
   52.6845   20.6518  -18.9575 H   0  0  0  0  0
   52.9258   22.4147  -18.9287 H   0  0  0  0  0
   55.3366   22.0534  -18.3238 H   0  0  0  0  0
   55.0769   20.3149  -18.3252 H   0  0  0  0  0
   52.3407   20.6951  -17.3513 H   0  0  0  0  0
   53.2042   20.5932  -28.0925 H   0  0  0  0  0
   51.0420   19.7153  -27.4312 H   0  0  0  0  0
   51.6152   19.7191  -25.6886 H   0  0  0  0  0
   51.6118   17.4620  -24.9118 H   0  0  0  0  0
   52.3002   15.1222  -25.1175 H   0  0  0  0  0
   53.4401   14.2529  -27.1818 H   0  0  0  0  0
   53.6774   15.8648  -29.0862 H   0  0  0  0  0
   53.1867   17.1295  -30.6829 H   0  0  0  0  0
   54.5901   17.1716  -29.6983 H   0  0  0  0  0
   54.8397   18.5759  -31.7899 H   0  0  0  0  0
   55.0171   19.5553  -30.2789 H   0  0  0  0  0
   53.5920   20.9235  -31.1741 H   0  0  0  0  0
   52.2537   19.0114  -33.0833 H   0  0  0  0  0
   53.9379   19.4357  -33.3621 H   0  0  0  0  0
   52.8817   22.1121  -35.9172 H   0  0  0  0  0
   51.8539   23.2339  -34.9694 H   0  0  0  0  0
   50.8665   23.1287  -37.0883 H   0  0  0  0  0
   49.8818   21.9764  -36.0290 H   0  0  0  0  0
   52.7723   20.6982  -37.0680 H   0  0  0  0  0
   51.1160   19.8321  -31.3246 H   0  0  0  0  0
   51.9292   20.8197  -29.9846 H   0  0  0  0  0
   51.0124   19.0365  -28.8460 H   0  0  0  0  0
   51.3246   17.8928  -30.1460 H   0  0  0  0  0
  1  2  1  0  0  0
  2  3  1  0  0  0
  3  4  4  0  0  0
  3 10  4  0  0  0
  4  5  4  0  0  0
  5  6  1  0  0  0
  5  8  4  0  0  0
  6  7  1  0  0  0
  8  9  4  0  0  0
  8 19  1  0  0  0
  9 10  4  0  0  0
 10 11  1  0  0  0
 11 12  1  0  0  0
 12 13  2  0  0  0
 12 14  1  0  0  0
 14 15  1  0  0  0
 15 16  1  0  0  0
 16 17  2  0  0  0
 16 18  1  0  0  0
 19 20  2  0  0  0
 19 21  2  0  0  0
 19 22  1  0  0  0
 22 23  1  0  0  0
 23 24  1  0  0  0
 24 25  4  0  0  0
 24 29  4  0  0  0
 25 26  4  0  0  0
 26 27  4  0  0  0
 27 28  4  0  0  0
 28 29  4  0  0  0
 29 30  1  0  0  0
 30 31  1  0  0  0
 30 44  1  0  0  0
 31 32  1  0  0  0
 32 33  1  0  0  0
 33 34  1  0  0  0
 33 43  1  0  0  0
 34 35  1  0  0  0
 35 36  1  0  0  0
 36 37  2  0  0  0
 36 38  1  0  0  0
 38 39  1  0  0  0
 39 40  1  0  0  0
 40 41  2  0  0  0
 40 42  1  0  0  0
 43 44  1  0  0  0
  1 45  1  0  0  0
  1 46  1  0  0  0
  1 47  1  0  0  0
  4 48  1  0  0  0
  7 49  1  0  0  0
  7 50  1  0  0  0
  7 51  1  0  0  0
  9 52  1  0  0  0
 11 53  1  0  0  0
 14 54  1  0  0  0
 14 55  1  0  0  0
 15 56  1  0  0  0
 15 57  1  0  0  0
 18 58  1  0  0  0
 22 59  1  0  0  0
 23 60  1  0  0  0
 23 61  1  0  0  0
 25 62  1  0  0  0
 26 63  1  0  0  0
 27 64  1  0  0  0
 28 65  1  0  0  0
 31 66  1  0  0  0
 31 67  1  0  0  0
 32 68  1  0  0  0
 32 69  1  0  0  0
 33 70  1  0  0  0
 34 71  1  0  0  0
 34 72  1  0  0  0
 38 73  1  0  0  0
 38 74  1  0  0  0
 39 75  1  0  0  0
 39 76  1  0  0  0
 42 77  1  0  0  0
 43 78  1  0  0  0
 43 79  1  0  0  0
 44 80  1  0  0  0
 44 81  1  0  0  0
M  END
$$$$
