6gbw_ligand
  -I-interpret- 

 76 78  0  0  0  0  0  0  0  0999 V2000
   15.9830  -12.8170   22.6490 O   0  0  0  0  0
   15.5160  -12.2450   19.7130 O   0  0  0  0  0
   19.4500  -13.3300   25.1420 C   0  0  0  0  0
   17.5200  -11.4690   20.8120 C   0  0  0  0  0
   13.1690   -9.9550   21.5750 C   0  0  0  0  0
   12.1820   -7.4180   24.5030 Cl  0  0  0  0  0
   12.2290   -8.8230   23.4700 C   0  0  0  0  0
   13.0960   -8.8360   22.4030 C   0  0  0  0  0
   11.4120   -9.8920   23.7440 C   0  0  0  0  0
   11.4930  -11.0170   22.9430 C   0  0  0  0  0
   12.3700  -11.0750   21.8640 C   0  0  0  0  0
   12.4610  -12.3800   21.0450 C   0  0  0  0  0
   13.0520  -13.4890   21.8440 N   0  3  0  0  0
   14.0660   -9.9460   20.3600 C   0  0  0  0  0
   15.4600  -10.2130   20.6870 N   0  0  0  0  0
   16.0700  -11.3490   20.3510 C   0  0  0  0  0
   18.4940  -11.3610   19.6320 C   0  0  0  0  0
   19.6810  -12.2340   20.0780 C   0  0  0  0  0
   19.0270  -13.4000   20.7870 C   0  0  0  0  0
   17.7930  -12.8110   21.3400 N   0  0  0  0  0
   16.8860  -13.4370   22.1000 C   0  0  0  0  0
   17.0640  -14.9520   22.2950 C   0  0  0  0  0
   16.1270  -15.7040   21.3280 C   0  0  0  0  0
   16.6420  -16.9950   20.6900 C   0  0  0  0  0
   15.6380  -17.5700   19.6940 C   0  0  0  0  0
   15.4800  -16.7470   18.4990 N   0  0  0  0  0
   16.0870  -17.2380   17.2800 C   0  0  0  0  0
   16.9000  -18.3760   17.4380 N   0  0  0  0  0
   15.8570  -16.6230   16.1470 N   0  0  0  0  0
   16.6660  -15.2160   23.6680 N   0  0  0  0  0
   17.3640  -16.3720   24.5640 S   0  0  0  0  0
   16.3170  -17.0130   25.3040 O   0  0  0  0  0
   18.1860  -17.1570   23.6880 O   0  0  0  0  0
   18.3830  -15.5210   25.7590 C   0  0  0  0  0
   19.4850  -14.7200   25.1270 C   0  0  0  0  0
   20.5630  -15.3480   24.5160 C   0  0  0  0  0
   21.5800  -14.6050   23.9380 C   0  0  0  0  0
   21.5320  -13.2270   23.9630 C   0  0  0  0  0
   20.4660  -12.5900   24.5630 C   0  0  0  0  0
   18.6126  -12.8173   25.6153 H   0  0  0  0  0
   17.6536  -10.6768   21.5486 H   0  0  0  0  0
   13.7273   -7.9699   22.2042 H   0  0  0  0  0
   10.7116   -9.8548   24.5784 H   0  0  0  0  0
   10.8573  -11.8751   23.1613 H   0  0  0  0  0
   13.1001  -12.2000   20.1805 H   0  0  0  0  0
   11.4536  -12.6699   20.7462 H   0  0  0  0  0
   13.0962  -14.3324   21.2721 H   0  0  0  0  0
   13.9924  -13.2287   22.1412 H   0  0  0  0  0
   12.4708  -13.6629   22.6640 H   0  0  0  0  0
   14.0119   -8.9538   19.9120 H   0  0  0  0  0
   13.7243  -10.7319   19.6864 H   0  0  0  0  0
   15.9897   -9.5030   21.1927 H   0  0  0  0  0
   18.7844  -10.3324   19.4181 H   0  0  0  0  0
   18.0554  -11.6947   18.6916 H   0  0  0  0  0
   20.3743  -11.6932   20.7222 H   0  0  0  0  0
   20.2992  -12.5530   19.2389 H   0  0  0  0  0
   19.6654  -13.8357   21.5556 H   0  0  0  0  0
   18.8295  -14.2395   20.1204 H   0  0  0  0  0
   18.0862  -15.2759   22.0995 H   0  0  0  0  0
   15.9569  -15.0185   20.4978 H   0  0  0  0  0
   15.2678  -16.0009   21.9295 H   0  0  0  0  0
   16.8021  -17.7290   21.4797 H   0  0  0  0  0
   17.5657  -16.7706   20.1567 H   0  0  0  0  0
   14.6696  -17.6198   20.1918 H   0  0  0  0  0
   16.0076  -18.5454   19.3775 H   0  0  0  0  0
   14.9656  -15.8665   18.5218 H   0  0  0  0  0
   17.3661  -18.7861   16.6287 H   0  0  0  0  0
   17.0231  -18.7906   18.3618 H   0  0  0  0  0
   15.2524  -15.8018   16.1261 H   0  0  0  0  0
   15.9218  -14.6543   24.0817 H   0  0  0  0  0
   18.8445  -16.2741   26.3977 H   0  0  0  0  0
   17.7435  -14.8300   26.3082 H   0  0  0  0  0
   20.6094  -16.4367   24.4909 H   0  0  0  0  0
   22.4201  -15.1111   23.4624 H   0  0  0  0  0
   22.3336  -12.6434   23.5102 H   0  0  0  0  0
   20.4237  -11.5010   24.5812 H   0  0  0  0  0
 21  1  2  0  0  0
 16  2  2  0  0  0
 35  3  4  0  0  0
  3 39  4  0  0  0
  4 16  1  0  0  0
  4 17  1  0  0  0
 20  4  1  0  0  0
  5  8  4  0  0  0
  5 11  4  0  0  0
 14  5  1  0  0  0
  7  6  1  0  0  0
  8  7  4  0  0  0
  7  9  4  0  0  0
 10  9  4  0  0  0
 11 10  4  0  0  0
 11 12  1  0  0  0
 12 13  1  0  0  0
 15 14  1  0  0  0
 16 15  1  0  0  0
 18 17  1  0  0  0
 19 18  1  0  0  0
 20 19  1  0  0  0
 21 20  1  0  0  0
 22 21  1  0  0  0
 22 23  1  0  0  0
 30 22  1  0  0  0
 23 24  1  0  0  0
 24 25  1  0  0  0
 25 26  1  0  0  0
 26 27  1  0  0  0
 27 28  1  0  0  0
 27 29  2  0  0  0
 31 30  1  0  0  0
 31 32  2  0  0  0
 31 33  2  0  0  0
 34 31  1  0  0  0
 34 35  1  0  0  0
 35 36  4  0  0  0
 36 37  4  0  0  0
 37 38  4  0  0  0
 38 39  4  0  0  0
  3 40  1  0  0  0
  4 41  1  0  0  0
  8 42  1  0  0  0
  9 43  1  0  0  0
 10 44  1  0  0  0
 12 45  1  0  0  0
 12 46  1  0  0  0
 13 47  1  0  0  0
 13 48  1  0  0  0
 13 49  1  0  0  0
 14 50  1  0  0  0
 14 51  1  0  0  0
 15 52  1  0  0  0
 17 53  1  0  0  0
 17 54  1  0  0  0
 18 55  1  0  0  0
 18 56  1  0  0  0
 19 57  1  0  0  0
 19 58  1  0  0  0
 22 59  1  0  0  0
 23 60  1  0  0  0
 23 61  1  0  0  0
 24 62  1  0  0  0
 24 63  1  0  0  0
 25 64  1  0  0  0
 25 65  1  0  0  0
 26 66  1  0  0  0
 28 67  1  0  0  0
 28 68  1  0  0  0
 29 69  1  0  0  0
 30 70  1  0  0  0
 34 71  1  0  0  0
 34 72  1  0  0  0
 36 73  1  0  0  0
 37 74  1  0  0  0
 38 75  1  0  0  0
 39 76  1  0  0  0
M  END
$$$$
