5fe6_ligand
  -I-interpret- 

 27 28  0  0  0  0  0  0  0  0999 V2000
    0.6790    7.6270   32.9760 C   0  0  0  0  0
    0.6710   11.4090   32.8820 C   0  0  0  0  0
   -0.4020   11.7260   33.7730 C   0  0  0  0  0
    1.0710   10.1100   32.8090 N   0  0  0  0  0
   -1.1430   12.9890   33.4860 C   0  0  0  0  0
   -0.2040   12.9380   34.6350 C   0  0  0  0  0
    1.1230   12.2880   32.1500 O   0  0  0  0  0
    2.1440    9.6130   31.9480 C   0  0  0  0  0
    1.5950    8.6770   30.8650 C   0  0  0  0  0
    0.4380    9.0170   33.5850 C   0  0  0  0  0
    0.6270    7.6690   31.4590 C   0  0  0  0  0
    0.8250    6.3280   30.9020 N   0  3  0  0  0
   -0.1020    6.9542   33.3302 H   0  0  0  0  0
    1.6682    7.2837   33.2787 H   0  0  0  0  0
   -0.6816   10.6871   33.9476 H   0  0  0  0  0
   -1.8554   13.5448   32.8763 H   0  0  0  0  0
    0.2770   13.4247   35.4835 H   0  0  0  0  0
    2.8540    9.0579   32.5611 H   0  0  0  0  0
    2.6239   10.4632   31.4633 H   0  0  0  0  0
    2.4276    8.1385   30.4124 H   0  0  0  0  0
    1.0669    9.2736   30.1212 H   0  0  0  0  0
    0.8771    9.0220   34.5826 H   0  0  0  0  0
   -0.6375    9.1943   33.5899 H   0  0  0  0  0
   -0.3684    8.0131   31.1780 H   0  0  0  0  0
    0.1577    5.6833   31.3256 H   0  0  0  0  0
    0.6794    6.3554   29.8928 H   0  0  0  0  0
    1.7752    6.0153   31.1013 H   0  0  0  0  0
 10  1  1  0  0  0
  1 11  1  0  0  0
  2  3  1  0  0  0
  4  2  1  0  0  0
  2  7  2  0  0  0
  3  5  1  0  0  0
  3  6  1  0  0  0
  4  8  1  0  0  0
  4 10  1  0  0  0
  5  6  2  0  0  0
  8  9  1  0  0  0
  9 11  1  0  0  0
 11 12  1  0  0  0
  1 13  1  0  0  0
  1 14  1  0  0  0
  3 15  1  0  0  0
  5 16  1  0  0  0
  6 17  1  0  0  0
  8 18  1  0  0  0
  8 19  1  0  0  0
  9 20  1  0  0  0
  9 21  1  0  0  0
 10 22  1  0  0  0
 10 23  1  0  0  0
 11 24  1  0  0  0
 12 25  1  0  0  0
 12 26  1  0  0  0
 12 27  1  0  0  0
M  END
$$$$
