6fgf_ligand
  -I-interpret- 

 46 47  0  0  0  0  0  0  0  0999 V2000
  -33.7150   37.7180  -19.8540 C   0  0  0  0  0
  -35.7410   39.2220  -20.1030 C   0  0  0  0  0
  -36.3710   40.5010  -20.6370 C   0  0  0  0  0
  -35.5580   41.4650  -21.4330 C   0  0  0  0  0
  -34.1200   41.1720  -21.6970 C   0  0  0  0  0
  -33.4910   39.8900  -21.1570 C   0  0  0  0  0
  -37.8420   40.7750  -20.3570 C   0  0  0  0  0
  -39.8510   42.3120  -20.5310 C   0  0  0  0  0
  -40.7540   41.2540  -21.1690 C   0  0  0  0  0
  -41.2780   41.6450  -22.5460 C   0  0  0  0  0
  -43.5590   42.8250  -22.9610 C   0  0  0  0  0
  -43.0440   44.1060  -23.6420 C   0  0  0  0  0
  -41.8770   44.1450  -24.3910 C   0  0  0  0  0
  -41.4620   45.3210  -24.9890 C   0  0  0  0  0
  -42.2140   46.4740  -24.8620 C   0  0  0  0  0
  -43.3880   46.4490  -24.1250 C   0  0  0  0  0
  -43.7990   45.2670  -23.5240 C   0  0  0  0  0
  -41.7870   47.6240  -25.4640 F   0  0  0  0  0
  -34.3110   38.9360  -20.3690 N   0  0  0  0  0
  -38.4490   42.0270  -20.7830 N   0  0  0  0  0
  -42.7280   41.7230  -22.4770 N   0  0  0  0  0
  -32.3500   39.6510  -21.3660 O   0  0  0  0  0
  -38.4700   39.9470  -19.7940 O   0  0  0  0  0
  -44.7300   42.7170  -22.8100 O   0  0  0  0  0
  -33.3396   37.1195  -20.6841 H   0  0  0  0  0
  -32.8919   37.9720  -19.1861 H   0  0  0  0  0
  -34.4672   37.1504  -19.3062 H   0  0  0  0  0
  -36.2789   38.4203  -20.6090 H   0  0  0  0  0
  -35.8035   39.3183  -19.0191 H   0  0  0  0  0
  -35.8559   41.4595  -20.7008 H   0  0  0  0  0
  -35.5490   42.3772  -20.8365 H   0  0  0  0  0
  -36.0239   41.4716  -22.4184 H   0  0  0  0  0
  -33.5812   41.9738  -21.1920 H   0  0  0  0  0
  -34.0567   41.0714  -22.7805 H   0  0  0  0  0
  -40.0186   42.3089  -19.4540 H   0  0  0  0  0
  -40.0922   43.2826  -20.9645 H   0  0  0  0  0
  -41.6174   41.1259  -20.5161 H   0  0  0  0  0
  -40.1591   40.3489  -21.2917 H   0  0  0  0  0
  -40.9782   40.9021  -23.2851 H   0  0  0  0  0
  -40.8653   42.6091  -22.8433 H   0  0  0  0  0
  -41.2813   43.2399  -24.5094 H   0  0  0  0  0
  -40.5362   45.3388  -25.5640 H   0  0  0  0  0
  -43.9860   47.3540  -24.0178 H   0  0  0  0  0
  -44.7265   45.2492  -22.9517 H   0  0  0  0  0
  -37.8782   42.7189  -21.2687 H   0  0  0  0  0
  -43.2124   40.9334  -22.0501 H   0  0  0  0  0
 19  1  1  0  0  0
  3  2  1  0  0  0
  2 19  1  0  0  0
  3  4  1  0  0  0
  7  3  1  0  0  0
  4  5  1  0  0  0
  5  6  1  0  0  0
 19  6  1  0  0  0
  6 22  2  0  0  0
 20  7  1  0  0  0
  7 23  2  0  0  0
  9  8  1  0  0  0
  8 20  1  0  0  0
 10  9  1  0  0  0
 21 10  1  0  0  0
 11 12  1  0  0  0
 11 21  1  0  0  0
 11 24  2  0  0  0
 12 13  4  0  0  0
 12 17  4  0  0  0
 13 14  4  0  0  0
 14 15  4  0  0  0
 15 16  4  0  0  0
 15 18  1  0  0  0
 16 17  4  0  0  0
  1 25  1  0  0  0
  1 26  1  0  0  0
  1 27  1  0  0  0
  2 28  1  0  0  0
  2 29  1  0  0  0
  3 30  1  0  0  0
  4 31  1  0  0  0
  4 32  1  0  0  0
  5 33  1  0  0  0
  5 34  1  0  0  0
  8 35  1  0  0  0
  8 36  1  0  0  0
  9 37  1  0  0  0
  9 38  1  0  0  0
 10 39  1  0  0  0
 10 40  1  0  0  0
 13 41  1  0  0  0
 14 42  1  0  0  0
 16 43  1  0  0  0
 17 44  1  0  0  0
 20 45  1  0  0  0
 21 46  1  0  0  0
M  END
$$$$
