3l5f_ligand
  -I-interpret- 

 56 58  0  0  0  0  0  0  0  0999 V2000
   21.8760   10.0680   23.9510 C   0  0  0  0  0
   21.8230   11.4090   24.1020 N   0  0  0  0  0
   20.8220   13.1100   22.9070 O   0  0  0  0  0
   21.0900   11.9250   23.0950 C   0  0  0  0  0
   21.2030    9.6030   22.8680 N   0  0  0  0  0
   20.6170   10.7640   22.2050 C   0  0  0  0  0
   22.5410    9.2920   24.8060 N   0  0  0  0  0
   19.0830   10.7130   22.2210 C   0  0  0  0  0
   22.5190   11.3120   20.4990 C   0  0  0  0  0
   23.5300   10.2400   20.8960 C   0  0  0  0  0
   24.9510   10.5350   20.4320 C   0  0  0  0  0
   24.9910   10.7910   18.9350 C   0  0  0  0  0
   24.1130   11.9600   18.5710 C   0  0  0  0  0
   22.6810   11.7280   19.0270 C   0  0  0  0  0
   21.0760   10.8830   20.7450 C   0  0  0  0  0
   18.4870   10.6260   23.6120 C   0  0  0  0  0
   17.0040   10.2220   23.6080 C   0  0  0  0  0
   16.4470   10.0440   25.0170 C   0  0  0  0  0
   14.9700    9.6640   25.0330 C   0  0  0  0  0
   14.1380   10.6630   24.2380 C   0  0  0  0  0
   14.6570   10.8360   22.8070 C   0  0  0  0  0
   16.1470   11.1820   22.7800 C   0  0  0  0  0
   22.4480   12.1690   25.1650 C   0  0  0  0  0
   21.1222    8.6296   22.5740 H   0  0  0  0  0
   23.0275    9.7081   25.6001 H   0  0  0  0  0
   18.7825    9.8143   21.6823 H   0  0  0  0  0
   18.7228   11.6380   21.7708 H   0  0  0  0  0
   22.7325   12.1668   21.1408 H   0  0  0  0  0
   23.2197    9.3085   20.4225 H   0  0  0  0  0
   23.5459   10.1948   21.9849 H   0  0  0  0  0
   25.5790    9.6729   20.6569 H   0  0  0  0  0
   25.3109   11.4244   20.9492 H   0  0  0  0  0
   24.6291    9.9035   18.4159 H   0  0  0  0  0
   26.0168   11.0165   18.6434 H   0  0  0  0  0
   24.1203   12.0791   17.4875 H   0  0  0  0  0
   24.4970   12.8530   19.0642 H   0  0  0  0  0
   22.1591   12.6780   18.9119 H   0  0  0  0  0
   22.2913   10.9065   18.4258 H   0  0  0  0  0
   20.4564   11.6635   20.3033 H   0  0  0  0  0
   20.9904    9.8805   20.3258 H   0  0  0  0  0
   18.5600   11.6142   24.0661 H   0  0  0  0  0
   19.0371    9.8617   24.1610 H   0  0  0  0  0
   16.9540    9.2473   23.1227 H   0  0  0  0  0
   16.5495   10.9968   25.5364 H   0  0  0  0  0
   17.0021    9.2356   25.4929 H   0  0  0  0  0
   14.6212    9.6632   26.0657 H   0  0  0  0  0
   14.8584    8.6787   24.5804 H   0  0  0  0  0
   14.1960   11.6290   24.7397 H   0  0  0  0  0
   13.1157   10.2885   24.1858 H   0  0  0  0  0
   14.1073   11.6532   22.3400 H   0  0  0  0  0
   14.5144    9.8953   22.2751 H   0  0  0  0  0
   16.4828   11.1156   21.7451 H   0  0  0  0  0
   16.2624   12.1787   23.2058 H   0  0  0  0  0
   22.0533   11.8394   26.1261 H   0  0  0  0  0
   23.5258   12.0087   25.1392 H   0  0  0  0  0
   22.2335   13.2287   25.0268 H   0  0  0  0  0
  1  2  4  0  0  0
  5  1  1  0  0  0
  1  7  2  0  0  0
  4  2  1  0  0  0
  2 23  1  0  0  0
  4  3  2  0  0  0
  6  4  1  0  0  0
  6  5  1  0  0  0
  6  8  1  0  0  0
 15  6  1  0  0  0
  8 16  1  0  0  0
  9 10  1  0  0  0
  9 14  1  0  0  0
  9 15  1  0  0  0
 10 11  1  0  0  0
 11 12  1  0  0  0
 12 13  1  0  0  0
 13 14  1  0  0  0
 16 17  1  0  0  0
 17 18  1  0  0  0
 17 22  1  0  0  0
 18 19  1  0  0  0
 19 20  1  0  0  0
 20 21  1  0  0  0
 21 22  1  0  0  0
  5 24  1  0  0  0
  7 25  1  0  0  0
  8 26  1  0  0  0
  8 27  1  0  0  0
  9 28  1  0  0  0
 10 29  1  0  0  0
 10 30  1  0  0  0
 11 31  1  0  0  0
 11 32  1  0  0  0
 12 33  1  0  0  0
 12 34  1  0  0  0
 13 35  1  0  0  0
 13 36  1  0  0  0
 14 37  1  0  0  0
 14 38  1  0  0  0
 15 39  1  0  0  0
 15 40  1  0  0  0
 16 41  1  0  0  0
 16 42  1  0  0  0
 17 43  1  0  0  0
 18 44  1  0  0  0
 18 45  1  0  0  0
 19 46  1  0  0  0
 19 47  1  0  0  0
 20 48  1  0  0  0
 20 49  1  0  0  0
 21 50  1  0  0  0
 21 51  1  0  0  0
 22 52  1  0  0  0
 22 53  1  0  0  0
 23 54  1  0  0  0
 23 55  1  0  0  0
 23 56  1  0  0  0
M  END
$$$$
