1phw_ligand
  -I-interpret- 

 24 24  0  0  0  0  0  0  0  0999 V2000
    6.7200   -9.2370   43.1190 C   0  0  0  0  0
    5.6870  -10.1770   42.8500 O   0  0  0  0  0
    6.0070   -8.2400   44.0600 C   0  0  0  0  0
    6.7360   -6.9930   44.1230 O   0  0  0  0  0
    4.6630   -8.0810   43.3510 C   0  0  0  0  0
    3.6650   -7.4540   44.0940 O   0  0  0  0  0
    4.3510   -9.5630   43.0090 C   0  0  0  0  0
    3.5470   -9.9180   41.7050 C   0  0  0  0  0
    2.6750   -8.8990   41.2190 O   0  0  0  0  0
    3.1220   -7.6760   40.2330 P   0  0  0  0  0
    4.3040   -8.1030   39.2380 O   0  0  0  0  0
    3.6150   -6.4910   41.1100 O   0  0  0  0  0
    1.8540   -7.1410   39.4320 O   0  0  0  0  0
    7.1247   -8.7703   42.2209 H   0  0  0  0  0
    7.6099   -9.6866   43.5595 H   0  0  0  0  0
    5.9204   -8.5638   45.0972 H   0  0  0  0  0
    7.5715   -7.1345   44.5741 H   0  0  0  0  0
    4.7045   -7.4094   42.4935 H   0  0  0  0  0
    3.9211   -6.5455   44.2693 H   0  0  0  0  0
    3.6924   -9.9113   43.8047 H   0  0  0  0  0
    2.9160  -10.7711   41.9542 H   0  0  0  0  0
    4.2870  -10.0896   40.9233 H   0  0  0  0  0
    4.0110   -8.8351   38.6904 H   0  0  0  0  0
    1.5114   -7.8418   38.8724 H   0  0  0  0  0
  1  2  1  0  0  0
  1  3  1  0  0  0
  2  7  1  0  0  0
  3  4  1  0  0  0
  3  5  1  0  0  0
  5  6  1  0  0  0
  5  7  1  0  0  0
  7  8  1  0  0  0
  8  9  1  0  0  0
  9 10  1  0  0  0
 10 11  1  0  0  0
 10 12  2  0  0  0
 10 13  1  0  0  0
  1 14  1  0  0  0
  1 15  1  0  0  0
  3 16  1  0  0  0
  4 17  1  0  0  0
  5 18  1  0  0  0
  6 19  1  0  0  0
  7 20  1  0  0  0
  8 21  1  0  0  0
  8 22  1  0  0  0
 11 23  1  0  0  0
 13 24  1  0  0  0
M  END
$$$$
