5tuy_ligand
  -I-interpret- 

 58 61  0  0  0  0  0  0  0  0999 V2000
   34.1410  -15.7900   35.7860 C   0  0  0  0  0
   35.5060  -16.0530   35.7030 C   0  0  0  0  0
   35.9440  -17.2820   35.1980 C   0  0  0  0  0
   31.0150  -19.9010   35.6340 C   0  0  0  0  0
   35.0510  -18.2030   34.7820 N   0  0  0  0  0
   32.7660  -21.2000   34.7560 C   0  0  0  0  0
   33.2810  -16.7470   35.3640 N   0  0  0  0  0
   33.1510  -20.1080   33.7690 C   0  0  0  0  0
   32.7580  -18.8890   34.4540 N   0  0  0  0  0
   33.7140  -17.9330   34.8660 C   0  0  0  0  0
   33.6850  -14.5590   36.2990 C   0  0  0  0  0
   34.6040  -13.5960   36.7310 C   0  0  0  0  0
   34.2320  -12.3720   37.2380 O   0  0  0  0  0
   32.8640  -11.9930   37.3390 C   0  0  0  0  0
   35.9600  -13.8550   36.6450 C   0  0  0  0  0
   36.8180  -12.8720   37.0610 O   0  0  0  0  0
   38.1800  -13.1570   37.3300 C   0  0  0  0  0
   36.4180  -15.0740   36.1280 C   0  0  0  0  0
   37.2800  -17.4550   35.1300 N   0  0  0  0  0
   38.1200  -18.6200   34.8770 C   0  0  0  0  0
   38.5210  -18.6920   33.4190 C   0  0  0  0  0
   37.5880  -19.9830   35.2740 C   0  0  0  0  0
   38.7500  -20.9680   35.1750 C   0  0  0  0  0
   39.3670  -20.9830   33.8350 N   0  3  0  0  0
   40.6040  -21.7760   33.8880 C   0  0  0  0  0
   39.7100  -19.6370   33.3370 C   0  0  0  0  0
   31.3410  -18.7150   34.7350 C   0  0  0  0  0
   31.3680  -21.1290   34.9920 O   0  0  0  0  0
   29.9448  -19.9047   35.8407 H   0  0  0  0  0
   31.5829  -19.8098   36.5599 H   0  0  0  0  0
   33.3068  -21.0601   35.6920 H   0  0  0  0  0
   33.0228  -22.1767   34.3459 H   0  0  0  0  0
   32.6619  -20.2235   32.8018 H   0  0  0  0  0
   34.2109  -20.1250   33.5151 H   0  0  0  0  0
   32.6156  -14.3568   36.3593 H   0  0  0  0  0
   32.4124  -11.9991   36.3470 H   0  0  0  0  0
   32.3393  -12.6989   37.9828 H   0  0  0  0  0
   32.7962  -10.9917   37.7643 H   0  0  0  0  0
   38.2442  -13.9023   38.1228 H   0  0  0  0  0
   38.6542  -13.5428   36.4276 H   0  0  0  0  0
   38.6854  -12.2443   37.6458 H   0  0  0  0  0
   37.4890  -15.2634   36.0553 H   0  0  0  0  0
   37.8099  -16.5977   35.2873 H   0  0  0  0  0
   38.9596  -18.4326   35.5463 H   0  0  0  0  0
   38.7838  -17.7044   33.0399 H   0  0  0  0  0
   37.6949  -19.0542   32.8071 H   0  0  0  0  0
   36.7731  -20.2835   34.6154 H   0  0  0  0  0
   37.1907  -19.9591   36.2887 H   0  0  0  0  0
   38.3621  -21.9664   35.3773 H   0  0  0  0  0
   39.5117  -20.6619   35.8920 H   0  0  0  0  0
   38.6790  -21.3849   33.1982 H   0  0  0  0  0
   41.2912  -21.3274   34.6053 H   0  0  0  0  0
   40.3682  -22.7944   34.1968 H   0  0  0  0  0
   41.0664  -21.7920   32.9010 H   0  0  0  0  0
   40.5135  -19.2351   33.9543 H   0  0  0  0  0
   40.0120  -19.7219   32.2931 H   0  0  0  0  0
   31.1208  -17.7573   35.2067 H   0  0  0  0  0
   30.7329  -18.6938   33.8306 H   0  0  0  0  0
  1  2  4  0  0  0
  7  1  4  0  0  0
  1 11  4  0  0  0
  3  2  4  0  0  0
  2 18  4  0  0  0
  5  3  4  0  0  0
  3 19  1  0  0  0
  4 27  1  0  0  0
 28  4  1  0  0  0
 10  5  4  0  0  0
  8  6  1  0  0  0
  6 28  1  0  0  0
 10  7  4  0  0  0
  9  8  1  0  0  0
  9 10  1  0  0  0
  9 27  1  0  0  0
 11 12  4  0  0  0
 12 13  1  0  0  0
 12 15  4  0  0  0
 13 14  1  0  0  0
 15 16  1  0  0  0
 15 18  4  0  0  0
 16 17  1  0  0  0
 19 20  1  0  0  0
 20 21  1  0  0  0
 20 22  1  0  0  0
 21 26  1  0  0  0
 22 23  1  0  0  0
 23 24  1  0  0  0
 24 25  1  0  0  0
 24 26  1  0  0  0
  4 29  1  0  0  0
  4 30  1  0  0  0
  6 31  1  0  0  0
  6 32  1  0  0  0
  8 33  1  0  0  0
  8 34  1  0  0  0
 11 35  1  0  0  0
 14 36  1  0  0  0
 14 37  1  0  0  0
 14 38  1  0  0  0
 17 39  1  0  0  0
 17 40  1  0  0  0
 17 41  1  0  0  0
 18 42  1  0  0  0
 19 43  1  0  0  0
 20 44  1  0  0  0
 21 45  1  0  0  0
 21 46  1  0  0  0
 22 47  1  0  0  0
 22 48  1  0  0  0
 23 49  1  0  0  0
 23 50  1  0  0  0
 24 51  1  0  0  0
 25 52  1  0  0  0
 25 53  1  0  0  0
 25 54  1  0  0  0
 26 55  1  0  0  0
 26 56  1  0  0  0
 27 57  1  0  0  0
 27 58  1  0  0  0
M  END
$$$$
