6nk1_ligand
  -I-interpret- 

235241  0  0  0  0  0  0  0  0999 V2000
  -11.9300  -43.5720   38.7130 N   0  3  0  0  0
  -12.9260  -42.6220   38.2110 C   0  0  0  0  0
  -13.2680  -42.9700   36.7350 C   0  0  0  0  0
  -14.6270  -42.4900   36.3180 C   0  0  0  0  0
  -15.5910  -42.6160   37.0480 O   0  0  0  0  0
  -14.7200  -41.9350   35.1090 N   0  0  0  0  0
  -15.9720  -41.3490   34.6390 C   0  0  0  0  0
  -16.2350  -41.7380   33.1810 C   0  0  0  0  0
  -15.3040  -41.9820   32.3970 O   0  0  0  0  0
  -15.9510  -39.8180   34.7440 C   0  0  0  0  0
  -15.6870  -39.3230   36.1380 C   0  0  0  0  0
  -16.6030  -38.9620   37.0780 C   0  0  0  0  0
  -14.4020  -39.1370   36.7280 C   0  0  0  0  0
  -15.9580  -38.5810   38.2460 N   0  0  0  0  0
  -14.6040  -38.6690   38.0390 C   0  0  0  0  0
  -13.0920  -39.3200   36.2660 C   0  0  0  0  0
  -13.5430  -38.3820   38.8980 C   0  0  0  0  0
  -12.0440  -39.0410   37.1160 C   0  0  0  0  0
  -12.2730  -38.5740   38.4180 C   0  0  0  0  0
  -17.5110  -41.7970   32.8230 N   0  0  0  0  0
  -17.9140  -42.0510   31.4470 C   0  0  0  0  0
  -18.2630  -40.7480   30.7320 C   0  0  0  0  0
  -18.8530  -39.8350   31.3200 O   0  0  0  0  0
  -19.1130  -42.9910   31.3980 C   0  0  0  0  0
  -18.9470  -44.3870   31.9800 C   0  0  0  0  0
  -20.2890  -45.0750   31.8510 C   0  0  0  0  0
  -17.8510  -45.1980   31.2810 C   0  0  0  0  0
  -17.9440  -40.6930   29.4390 N   0  0  0  0  0
  -18.3340  -39.5620   28.6060 C   0  0  0  0  0
  -19.8270  -39.5760   28.3080 C   0  0  0  0  0
  -20.4210  -38.5130   28.1380 O   0  0  0  0  0
  -17.5510  -39.5540   27.2810 C   0  0  0  0  0
  -20.4540  -40.7570   28.2210 N   0  0  0  0  0
  -21.8310  -40.8620   27.7660 C   0  0  0  0  0
  -22.6100  -41.7900   28.6900 C   0  0  0  0  0
  -22.0930  -42.8380   29.0830 O   0  0  0  0  0
  -21.8630  -41.3940   26.3240 C   0  0  0  0  0
  -23.1590  -41.1680   25.5930 C   0  0  0  0  0
  -24.2190  -42.0650   25.7200 C   0  0  0  0  0
  -23.3560  -40.0300   24.8250 C   0  0  0  0  0
  -25.4230  -41.8410   25.0640 C   0  0  0  0  0
  -24.5520  -39.8010   24.1690 C   0  0  0  0  0
  -25.5790  -40.7070   24.2900 C   0  0  0  0  0
  -26.7750  -40.4850   23.6510 O   0  0  0  0  0
  -23.8320  -41.4320   29.0960 N   0  0  0  0  0
  -24.5350  -42.2620   30.0800 C   0  0  0  0  0
  -24.7690  -43.6780   29.5740 C   0  0  0  0  0
  -25.0480  -43.8930   28.3960 O   0  0  0  0  0
  -25.8650  -41.5270   30.3030 C   0  0  0  0  0
  -25.6870  -40.1780   29.7620 C   0  0  0  0  0
  -24.5880  -40.2140   28.7460 C   0  0  0  0  0
  -24.6480  -44.6440   30.4860 N   0  0  0  0  0
  -25.0020  -46.0360   30.2050 C   0  0  0  0  0
  -24.2520  -46.5960   29.0050 C   0  0  0  0  0
  -24.7960  -47.4080   28.2490 O   0  0  0  0  0
  -26.5050  -46.1650   29.9640 C   0  0  0  0  0
  -27.3190  -45.6200   31.1110 C   0  0  0  0  0
  -27.1300  -46.0880   32.2540 O   0  0  0  0  0
  -28.1400  -44.7160   30.8610 O   0  0  0  0  0
  -23.0060  -46.1850   28.8120 N   0  0  0  0  0
  -22.1960  -46.7210   27.7300 C   0  0  0  0  0
  -21.2180  -47.7630   28.2620 C   0  0  0  0  0
  -20.7340  -47.6670   29.3900 O   0  0  0  0  0
  -21.4500  -45.6000   27.0000 C   0  0  0  0  0
  -20.6080  -44.8390   27.8600 O   0  0  0  0  0
  -20.9560  -48.7760   27.4420 N   0  0  0  0  0
  -20.0130  -49.8360   27.8060 C   0  0  0  0  0
  -19.1280  -50.1470   26.6150 C   0  0  0  0  0
  -19.5190  -49.9620   25.4540 O   0  0  0  0  0
  -20.7410  -51.1130   28.2650 C   0  0  0  0  0
  -21.6300  -50.8010   29.4570 C   0  0  0  0  0
  -21.5680  -51.7110   27.1390 C   0  0  0  0  0
  -17.9030  -50.6000   26.8720 N   0  0  0  0  0
  -16.9910  -50.9260   25.7630 C   0  0  0  0  0
  -17.5930  -51.9750   24.8450 C   0  0  0  0  0
  -18.2600  -52.9170   25.2950 O   0  0  0  0  0
  -15.7320  -51.4390   26.4700 C   0  0  0  0  0
  -15.7630  -50.7850   27.8180 C   0  0  0  0  0
  -17.2210  -50.6870   28.1870 C   0  0  0  0  0
  -17.3630  -51.7930   23.5380 N   0  0  0  0  0
  -17.9330  -52.6250   22.4910 C   0  0  0  0  0
  -16.8820  -53.0340   21.4680 C   0  0  0  0  0
  -16.0730  -52.2040   21.0360 O   0  0  0  0  0
  -19.0330  -51.8880   21.7450 C   0  0  0  0  0
  -19.6540  -52.7050   20.6390 C   0  0  0  0  0
  -20.5380  -53.7350   20.9210 C   0  0  0  0  0
  -19.3210  -52.4840   19.3120 C   0  0  0  0  0
  -21.0980  -54.4790   19.9040 C   0  0  0  0  0
  -19.8710  -53.2350   18.2930 C   0  0  0  0  0
  -20.7620  -54.2260   18.5970 C   0  0  0  0  0
  -21.3030  -54.9700   17.5690 O   0  0  0  0  0
  -16.9010  -54.3030   21.0670 N   0  0  0  0  0
  -16.0540  -54.7820   19.9570 C   0  0  0  0  0
  -16.8540  -55.8010   19.1500 C   0  0  0  0  0
  -17.4390  -56.7220   19.7490 O   0  0  0  0  0
  -14.7390  -55.3990   20.4360 C   0  0  0  0  0
  -13.8390  -55.8410   19.2940 C   0  0  0  0  0
  -12.4490  -56.2240   19.7780 C   0  0  0  0  0
  -11.7030  -56.9680   18.7630 N   0  0  0  0  0
  -10.8110  -56.4410   17.9250 C   0  0  0  0  0
  -10.5250  -55.1440   17.9570 N   0  0  0  0  0
  -10.1970  -57.2240   17.0470 N   0  0  0  0  0
  -16.9610  -55.6690   17.8270 N   0  0  0  0  0
  -17.6710  -56.7110   17.0770 C   0  0  0  0  0
  -16.9520  -58.0470   17.2530 C   0  0  0  0  0
  -15.7230  -58.1190   17.3230 O   0  0  0  0  0
  -17.6080  -56.2310   15.6220 C   0  0  0  0  0
  -17.1810  -54.8340   15.6520 C   0  0  0  0  0
  -16.4330  -54.6110   16.9370 C   0  0  0  0  0
  -17.7190  -59.1250   17.2690 N   0  0  0  0  0
  -17.0990  -60.4300   17.4700 C   0  0  0  0  0
  -17.1880  -61.2850   16.2140 C   0  0  0  0  0
  -16.4450  -62.2570   16.0670 O   0  0  0  0  0
  -17.7410  -61.1240   18.6740 C   0  0  0  0  0
  -17.3660  -60.4390   19.9880 C   0  0  0  0  0
  -18.0070  -61.0640   21.2180 C   0  0  0  0  0
  -17.5600  -60.3250   22.4770 C   0  0  0  0  0
  -18.1570  -60.8710   23.7260 N   0  3  0  0  0
  -17.9750  -61.0070   15.3090 O   0  0  0  0  0
  -11.7039  -43.3457   39.6815 H   0  0  0  0  0
  -12.3086  -44.5178   38.6631 H   0  0  0  0  0
  -11.0865  -43.5116   38.1427 H   0  0  0  0  0
  -12.5248  -41.6099   38.2642 H   0  0  0  0  0
  -13.8284  -42.6833   38.8193 H   0  0  0  0  0
  -13.2559  -44.0557   36.6389 H   0  0  0  0  0
  -12.5327  -42.4770   36.0991 H   0  0  0  0  0
  -13.9011  -41.9196   34.5011 H   0  0  0  0  0
  -16.7661  -41.7376   35.2765 H   0  0  0  0  0
  -16.9336  -39.4532   34.4448 H   0  0  0  0  0
  -15.1450  -39.4545   34.1066 H   0  0  0  0  0
  -17.6835  -38.9709   36.9344 H   0  0  0  0  0
  -12.9053  -39.6765   35.2530 H   0  0  0  0  0
  -13.7167  -38.0193   39.9111 H   0  0  0  0  0
  -11.0204  -39.1857   36.7706 H   0  0  0  0  0
  -11.4217  -38.3586   39.0637 H   0  0  0  0  0
  -18.2310  -41.6604   33.5325 H   0  0  0  0  0
  -17.0712  -42.5204   30.9396 H   0  0  0  0  0
  -19.3208  -43.1412   30.3386 H   0  0  0  0  0
  -19.8815  -42.5129   32.0054 H   0  0  0  0  0
  -18.6312  -44.3122   33.0206 H   0  0  0  0  0
  -21.0398  -44.5107   32.4040 H   0  0  0  0  0
  -20.5712  -45.1240   30.7993 H   0  0  0  0  0
  -20.2190  -46.0841   32.2571 H   0  0  0  0  0
  -18.0978  -45.3052   30.2247 H   0  0  0  0  0
  -16.8973  -44.6800   31.3818 H   0  0  0  0  0
  -17.7810  -46.1837   31.7409 H   0  0  0  0  0
  -17.4151  -41.4595   29.0230 H   0  0  0  0  0
  -18.0973  -38.6586   29.1681 H   0  0  0  0  0
  -16.4840  -39.4813   27.4914 H   0  0  0  0  0
  -17.7531  -40.4758   26.7355 H   0  0  0  0  0
  -17.8633  -38.6993   26.6810 H   0  0  0  0  0
  -19.9515  -41.6057   28.4811 H   0  0  0  0  0
  -22.2946  -39.8757   27.7868 H   0  0  0  0  0
  -21.7181  -42.4727   26.3827 H   0  0  0  0  0
  -21.0920  -40.8561   25.7724 H   0  0  0  0  0
  -24.1016  -42.9527   26.3415 H   0  0  0  0  0
  -22.5510  -39.3004   24.7365 H   0  0  0  0  0
  -26.2402  -42.5560   25.1594 H   0  0  0  0  0
  -24.6796  -38.9067   23.5591 H   0  0  0  0  0
  -26.7253  -39.6628   23.1579 H   0  0  0  0  0
  -23.9578  -42.3837   30.9966 H   0  0  0  0  0
  -26.1207  -41.4933   31.3620 H   0  0  0  0  0
  -26.6857  -42.0432   29.8049 H   0  0  0  0  0
  -25.4291  -39.4867   30.5643 H   0  0  0  0  0
  -26.6125  -39.8389   29.2967 H   0  0  0  0  0
  -24.9658  -40.2371   27.7238 H   0  0  0  0  0
  -23.9685  -39.3175   28.7699 H   0  0  0  0  0
  -24.2960  -44.4038   31.4127 H   0  0  0  0  0
  -24.7124  -46.6156   31.0816 H   0  0  0  0  0
  -26.7400  -47.2239   29.8563 H   0  0  0  0  0
  -26.7542  -45.5920   29.0709 H   0  0  0  0  0
  -26.4563  -46.7706   32.2117 H   0  0  0  0  0
  -22.6089  -45.4805   29.4335 H   0  0  0  0  0
  -22.8597  -47.2056   27.0139 H   0  0  0  0  0
  -22.1951  -44.9234   26.5815 H   0  0  0  0  0
  -20.8185  -46.0614   26.2407 H   0  0  0  0  0
  -20.1679  -44.1542   27.3511 H   0  0  0  0  0
  -21.4235  -48.8161   26.5363 H   0  0  0  0  0
  -19.4082  -49.4833   28.6415 H   0  0  0  0  0
  -19.9895  -51.8468   28.5563 H   0  0  0  0  0
  -21.0183  -50.4212   30.2753 H   0  0  0  0  0
  -22.3662  -50.0491   29.1727 H   0  0  0  0  0
  -22.1411  -51.7097   29.7752 H   0  0  0  0  0
  -22.3123  -50.9851   26.8115 H   0  0  0  0  0
  -20.9140  -51.9644   26.3046 H   0  0  0  0  0
  -22.0688  -52.6109   27.4961 H   0  0  0  0  0
  -16.7850  -50.0732   25.1162 H   0  0  0  0  0
  -14.8252  -51.1922   25.9179 H   0  0  0  0  0
  -15.7207  -52.5264   26.5446 H   0  0  0  0  0
  -15.2906  -49.8029   27.7955 H   0  0  0  0  0
  -15.2035  -51.3623   28.5541 H   0  0  0  0  0
  -17.5610  -51.5362   28.7798 H   0  0  0  0  0
  -17.4345  -49.8309   28.8270 H   0  0  0  0  0
  -16.7516  -51.0250   23.2609 H   0  0  0  0  0
  -18.3347  -53.5087   22.9868 H   0  0  0  0  0
  -18.5874  -51.0030   21.2908 H   0  0  0  0  0
  -19.8189  -51.6542   22.4632 H   0  0  0  0  0
  -20.7929  -53.9589   21.9568 H   0  0  0  0  0
  -18.6071  -51.6976   19.0670 H   0  0  0  0  0
  -21.8097  -55.2706   20.1385 H   0  0  0  0  0
  -19.5976  -53.0398   17.2561 H   0  0  0  0  0
  -20.9569  -54.6548   16.7309 H   0  0  0  0  0
  -17.5182  -54.9631   21.5400 H   0  0  0  0  0
  -15.7806  -53.9251   19.3413 H   0  0  0  0  0
  -14.9826  -56.2817   21.0272 H   0  0  0  0  0
  -14.2038  -54.6390   21.0052 H   0  0  0  0  0
  -13.7395  -55.0087   18.5972 H   0  0  0  0  0
  -14.2892  -56.7158   18.8248 H   0  0  0  0  0
  -12.5565  -56.8594   20.6571 H   0  0  0  0  0
  -11.9011  -55.3087   20.0021 H   0  0  0  0  0
  -11.8798  -57.9700   18.6911 H   0  0  0  0  0
   -9.8381  -54.7571   17.3098 H   0  0  0  0  0
  -10.9924  -54.5351   18.6287 H   0  0  0  0  0
  -10.4092  -58.2212   17.0171 H   0  0  0  0  0
  -18.6977  -56.8642   17.4094 H   0  0  0  0  0
  -18.5817  -56.3267   15.1415 H   0  0  0  0  0
  -16.9081  -56.8362   15.0459 H   0  0  0  0  0
  -18.0454  -54.1723   15.5970 H   0  0  0  0  0
  -16.5403  -54.6152   14.7978 H   0  0  0  0  0
  -15.3522  -54.6713   16.8091 H   0  0  0  0  0
  -16.5826  -53.6098   17.3411 H   0  0  0  0  0
  -18.7280  -59.0448   17.1428 H   0  0  0  0  0
  -16.0383  -60.2885   17.6774 H   0  0  0  0  0
  -15.8900  -62.3546   16.8442 H   0  0  0  0  0
  -17.3825  -62.1528   18.7086 H   0  0  0  0  0
  -18.8240  -61.0778   18.5596 H   0  0  0  0  0
  -17.7191  -59.4095   19.9277 H   0  0  0  0  0
  -16.2862  -60.5322   20.1040 H   0  0  0  0  0
  -17.7011  -62.1078   21.2889 H   0  0  0  0  0
  -19.0913  -60.9956   21.1296 H   0  0  0  0  0
  -17.8854  -59.2890   22.3829 H   0  0  0  0  0
  -16.4782  -60.4335   22.5551 H   0  0  0  0  0
  -17.8190  -60.3352   24.5254 H   0  0  0  0  0
  -19.1733  -60.8020   23.6741 H   0  0  0  0  0
  -17.8864  -61.8488   23.8316 H   0  0  0  0  0
  1  2  1  0  0  0
  2  3  1  0  0  0
  3  4  1  0  0  0
  4  5  2  0  0  0
  4  6  1  0  0  0
  6  7  1  0  0  0
  7  8  1  0  0  0
  7 10  1  0  0  0
  8  9  2  0  0  0
  8 20  1  0  0  0
 10 11  1  0  0  0
 11 12  4  0  0  0
 11 13  4  0  0  0
 12 14  4  0  0  0
 13 15  4  0  0  0
 13 16  4  0  0  0
 14 15  4  0  0  0
 15 17  4  0  0  0
 16 18  4  0  0  0
 17 19  4  0  0  0
 18 19  4  0  0  0
 20 21  1  0  0  0
 21 22  1  0  0  0
 21 24  1  0  0  0
 22 23  2  0  0  0
 22 28  1  0  0  0
 24 25  1  0  0  0
 25 26  1  0  0  0
 25 27  1  0  0  0
 28 29  1  0  0  0
 29 30  1  0  0  0
 29 32  1  0  0  0
 30 31  2  0  0  0
 30 33  1  0  0  0
 33 34  1  0  0  0
 34 35  1  0  0  0
 34 37  1  0  0  0
 35 36  2  0  0  0
 35 45  1  0  0  0
 37 38  1  0  0  0
 38 39  4  0  0  0
 38 40  4  0  0  0
 39 41  4  0  0  0
 40 42  4  0  0  0
 41 43  4  0  0  0
 42 43  4  0  0  0
 43 44  1  0  0  0
 45 46  1  0  0  0
 45 51  1  0  0  0
 46 47  1  0  0  0
 46 49  1  0  0  0
 47 48  2  0  0  0
 47 52  1  0  0  0
 49 50  1  0  0  0
 50 51  1  0  0  0
 52 53  1  0  0  0
 53 54  1  0  0  0
 53 56  1  0  0  0
 54 55  2  0  0  0
 54 60  1  0  0  0
 56 57  1  0  0  0
 57 58  1  0  0  0
 57 59  2  0  0  0
 60 61  1  0  0  0
 61 62  1  0  0  0
 61 64  1  0  0  0
 62 63  2  0  0  0
 62 66  1  0  0  0
 64 65  1  0  0  0
 66 67  1  0  0  0
 67 68  1  0  0  0
 67 70  1  0  0  0
 68 69  2  0  0  0
 68 73  1  0  0  0
 70 71  1  0  0  0
 70 72  1  0  0  0
 73 74  1  0  0  0
 73 79  1  0  0  0
 74 75  1  0  0  0
 74 77  1  0  0  0
 75 76  2  0  0  0
 75 80  1  0  0  0
 77 78  1  0  0  0
 78 79  1  0  0  0
 80 81  1  0  0  0
 81 82  1  0  0  0
 81 84  1  0  0  0
 82 83  2  0  0  0
 82 92  1  0  0  0
 84 85  1  0  0  0
 85 86  4  0  0  0
 85 87  4  0  0  0
 86 88  4  0  0  0
 87 89  4  0  0  0
 88 90  4  0  0  0
 89 90  4  0  0  0
 90 91  1  0  0  0
 92 93  1  0  0  0
 93 94  1  0  0  0
 93 96  1  0  0  0
 94 95  2  0  0  0
 94103  1  0  0  0
 96 97  1  0  0  0
 97 98  1  0  0  0
 98 99  1  0  0  0
 99100  1  0  0  0
100101  1  0  0  0
100102  2  0  0  0
103104  1  0  0  0
103109  1  0  0  0
104105  1  0  0  0
104107  1  0  0  0
105106  2  0  0  0
105110  1  0  0  0
107108  1  0  0  0
108109  1  0  0  0
110111  1  0  0  0
111112  1  0  0  0
111114  1  0  0  0
112113  1  0  0  0
112119  2  0  0  0
114115  1  0  0  0
115116  1  0  0  0
116117  1  0  0  0
117118  1  0  0  0
  1120  1  0  0  0
  1121  1  0  0  0
  1122  1  0  0  0
  2123  1  0  0  0
  2124  1  0  0  0
  3125  1  0  0  0
  3126  1  0  0  0
  6127  1  0  0  0
  7128  1  0  0  0
 10129  1  0  0  0
 10130  1  0  0  0
 12131  1  0  0  0
 16132  1  0  0  0
 17133  1  0  0  0
 18134  1  0  0  0
 19135  1  0  0  0
 20136  1  0  0  0
 21137  1  0  0  0
 24138  1  0  0  0
 24139  1  0  0  0
 25140  1  0  0  0
 26141  1  0  0  0
 26142  1  0  0  0
 26143  1  0  0  0
 27144  1  0  0  0
 27145  1  0  0  0
 27146  1  0  0  0
 28147  1  0  0  0
 29148  1  0  0  0
 32149  1  0  0  0
 32150  1  0  0  0
 32151  1  0  0  0
 33152  1  0  0  0
 34153  1  0  0  0
 37154  1  0  0  0
 37155  1  0  0  0
 39156  1  0  0  0
 40157  1  0  0  0
 41158  1  0  0  0
 42159  1  0  0  0
 44160  1  0  0  0
 46161  1  0  0  0
 49162  1  0  0  0
 49163  1  0  0  0
 50164  1  0  0  0
 50165  1  0  0  0
 51166  1  0  0  0
 51167  1  0  0  0
 52168  1  0  0  0
 53169  1  0  0  0
 56170  1  0  0  0
 56171  1  0  0  0
 58172  1  0  0  0
 60173  1  0  0  0
 61174  1  0  0  0
 64175  1  0  0  0
 64176  1  0  0  0
 65177  1  0  0  0
 66178  1  0  0  0
 67179  1  0  0  0
 70180  1  0  0  0
 71181  1  0  0  0
 71182  1  0  0  0
 71183  1  0  0  0
 72184  1  0  0  0
 72185  1  0  0  0
 72186  1  0  0  0
 74187  1  0  0  0
 77188  1  0  0  0
 77189  1  0  0  0
 78190  1  0  0  0
 78191  1  0  0  0
 79192  1  0  0  0
 79193  1  0  0  0
 80194  1  0  0  0
 81195  1  0  0  0
 84196  1  0  0  0
 84197  1  0  0  0
 86198  1  0  0  0
 87199  1  0  0  0
 88200  1  0  0  0
 89201  1  0  0  0
 91202  1  0  0  0
 92203  1  0  0  0
 93204  1  0  0  0
 96205  1  0  0  0
 96206  1  0  0  0
 97207  1  0  0  0
 97208  1  0  0  0
 98209  1  0  0  0
 98210  1  0  0  0
 99211  1  0  0  0
101212  1  0  0  0
101213  1  0  0  0
102214  1  0  0  0
104215  1  0  0  0
107216  1  0  0  0
107217  1  0  0  0
108218  1  0  0  0
108219  1  0  0  0
109220  1  0  0  0
109221  1  0  0  0
110222  1  0  0  0
111223  1  0  0  0
113224  1  0  0  0
114225  1  0  0  0
114226  1  0  0  0
115227  1  0  0  0
115228  1  0  0  0
116229  1  0  0  0
116230  1  0  0  0
117231  1  0  0  0
117232  1  0  0  0
118233  1  0  0  0
118234  1  0  0  0
118235  1  0  0  0
M  END
$$$$
