### 
### Created by X-TOOL on Mon Aug  2 16:15:20 2021
### 

@<TRIPOS>MOLECULE
6nk1_ligand
  235   241     1     0     0
SMALL
GAST_HUCK


@<TRIPOS>ATOM
      1 N         -11.9300  -43.5720   38.7130 N.4       1 BAL         0.2202
      2 CB        -12.9260  -42.6220   38.2110 C.3       1 BAL        -0.0184
      3 CA        -13.2680  -42.9700   36.7350 C.3       1 BAL         0.0773
      4 C         -14.6270  -42.4900   36.3180 C.2       1 BAL         0.1834
      5 O         -15.5910  -42.6160   37.0480 O.2       1 BAL        -0.3967
      6 N         -14.7200  -41.9350   35.1090 N.am      1 BAL        -0.2644
      7 CA        -15.9720  -41.3490   34.6390 C.3       1 BAL         0.1351
      8 C         -16.2350  -41.7380   33.1810 C.2       1 BAL         0.2052
      9 O         -15.3040  -41.9820   32.3970 O.2       1 BAL        -0.3942
     10 CB        -15.9510  -39.8180   34.7440 C.3       1 BAL         0.0042
     11 CG        -15.6870  -39.3230   36.1380 C.2       1 BAL        -0.0418
     12 CD1       -16.6030  -38.9620   37.0780 C.2       1 BAL         0.0167
     13 CD2       -14.4020  -39.1370   36.7280 C.ar      1 BAL        -0.0214
     14 NE1       -15.9580  -38.5810   38.2460 N.pl3     1 BAL        -0.2890
     15 CE2       -14.6040  -38.6690   38.0390 C.ar      1 BAL         0.0603
     16 CE3       -13.0920  -39.3200   36.2660 C.ar      1 BAL        -0.0747
     17 CZ2       -13.5430  -38.3820   38.8980 C.ar      1 BAL        -0.0443
     18 CZ3       -12.0440  -39.0410   37.1160 C.ar      1 BAL        -0.0792
     19 CH2       -12.2730  -38.5740   38.4180 C.ar      1 BAL        -0.0768
     20 N         -17.5110  -41.7970   32.8230 N.am      1 BAL        -0.2636
     21 CA        -17.9140  -42.0510   31.4470 C.3       1 BAL         0.1312
     22 C         -18.2630  -40.7480   30.7320 C.2       1 BAL         0.2039
     23 O         -18.8530  -39.8350   31.3200 O.2       1 BAL        -0.3944
     24 CB        -19.1130  -42.9910   31.3980 C.3       1 BAL        -0.0101
     25 CG        -18.9470  -44.3870   31.9800 C.3       1 BAL        -0.0425
     26 CD1       -20.2890  -45.0750   31.8510 C.3       1 BAL        -0.0625
     27 CD2       -17.8510  -45.1980   31.2810 C.3       1 BAL        -0.0625
     28 N         -17.9440  -40.6930   29.4390 N.am      1 BAL        -0.2640
     29 CA        -18.3340  -39.5620   28.6060 C.3       1 BAL         0.1282
     30 C         -19.8270  -39.5760   28.3080 C.2       1 BAL         0.2037
     31 O         -20.4210  -38.5130   28.1380 O.2       1 BAL        -0.3944
     32 CB        -17.5510  -39.5540   27.2810 C.3       1 BAL        -0.0244
     33 N         -20.4540  -40.7570   28.2210 N.am      1 BAL        -0.2621
     34 CA        -21.8310  -40.8620   27.7660 C.3       1 BAL         0.1392
     35 C         -22.6100  -41.7900   28.6900 C.2       1 BAL         0.2082
     36 O         -22.0930  -42.8380   29.0830 O.2       1 BAL        -0.3940
     37 CB        -21.8630  -41.3940   26.3240 C.3       1 BAL         0.0164
     38 CG        -23.1590  -41.1680   25.5930 C.ar      1 BAL        -0.0493
     39 CD1       -24.2190  -42.0650   25.7200 C.ar      1 BAL        -0.0685
     40 CD2       -23.3560  -40.0300   24.8250 C.ar      1 BAL        -0.0685
     41 CE1       -25.4230  -41.8410   25.0640 C.ar      1 BAL        -0.0398
     42 CE2       -24.5520  -39.8010   24.1690 C.ar      1 BAL        -0.0398
     43 CZ        -25.5790  -40.7070   24.2900 C.ar      1 BAL         0.0805
     44 OH        -26.7750  -40.4850   23.6510 O.3       1 BAL        -0.3376
     45 N         -23.8320  -41.4320   29.0960 N.am      1 BAL        -0.2497
     46 CA        -24.5350  -42.2620   30.0800 C.3       1 BAL         0.1338
     47 C         -24.7690  -43.6780   29.5740 C.2       1 BAL         0.2042
     48 O         -25.0480  -43.8930   28.3960 O.2       1 BAL        -0.3944
     49 CB        -25.8650  -41.5270   30.3030 C.3       1 BAL        -0.0104
     50 CG        -25.6870  -40.1780   29.7620 C.3       1 BAL        -0.0281
     51 CD        -24.5880  -40.2140   28.7460 C.3       1 BAL         0.0369
     52 N         -24.6480  -44.6440   30.4860 N.am      1 BAL        -0.2622
     53 CA        -25.0020  -46.0360   30.2050 C.3       1 BAL         0.1423
     54 C         -24.2520  -46.5960   29.0050 C.2       1 BAL         0.2057
     55 O         -24.7960  -47.4080   28.2490 O.2       1 BAL        -0.3943
     56 CB        -26.5050  -46.1650   29.9640 C.3       1 BAL         0.0406
     57 CG        -27.3190  -45.6200   31.1110 C.2       1 BAL         0.0393
     58 OD1       -27.1300  -46.0880   32.2540 O.co2     1 BAL        -0.5688
     59 OD2       -28.1400  -44.7160   30.8610 O.co2     1 BAL        -0.5688
     60 N         -23.0060  -46.1850   28.8120 N.am      1 BAL        -0.2615
     61 CA        -22.1960  -46.7210   27.7300 C.3       1 BAL         0.1539
     62 C         -21.2180  -47.7630   28.2620 C.2       1 BAL         0.2062
     63 O         -20.7340  -47.6670   29.3900 O.2       1 BAL        -0.3943
     64 CB        -21.4500  -45.6000   27.0000 C.3       1 BAL         0.0843
     65 OG        -20.6080  -44.8390   27.8600 O.3       1 BAL        -0.3903
     66 N         -20.9560  -48.7760   27.4420 N.am      1 BAL        -0.2634
     67 CA        -20.0130  -49.8360   27.8060 C.3       1 BAL         0.1334
     68 C         -19.1280  -50.1470   26.6150 C.2       1 BAL         0.2066
     69 O         -19.5190  -49.9620   25.4540 O.2       1 BAL        -0.3942
     70 CB        -20.7410  -51.1130   28.2650 C.3       1 BAL        -0.0062
     71 CG1       -21.6300  -50.8010   29.4570 C.3       1 BAL        -0.0584
     72 CG2       -21.5680  -51.7110   27.1390 C.3       1 BAL        -0.0584
     73 N         -17.9030  -50.6000   26.8720 N.am      1 BAL        -0.2498
     74 CA        -16.9910  -50.9260   25.7630 C.3       1 BAL         0.1338
     75 C         -17.5930  -51.9750   24.8450 C.2       1 BAL         0.2042
     76 O         -18.2600  -52.9170   25.2950 O.2       1 BAL        -0.3944
     77 CB        -15.7320  -51.4390   26.4700 C.3       1 BAL        -0.0104
     78 CG        -15.7630  -50.7850   27.8180 C.3       1 BAL        -0.0281
     79 CD        -17.2210  -50.6870   28.1870 C.3       1 BAL         0.0369
     80 N         -17.3630  -51.7930   23.5380 N.am      1 BAL        -0.2621
     81 CA        -17.9330  -52.6250   22.4910 C.3       1 BAL         0.1390
     82 C         -16.8820  -53.0340   21.4680 C.2       1 BAL         0.2057
     83 O         -16.0730  -52.2040   21.0360 O.2       1 BAL        -0.3942
     84 CB        -19.0330  -51.8880   21.7450 C.3       1 BAL         0.0163
     85 CG        -19.6540  -52.7050   20.6390 C.ar      1 BAL        -0.0493
     86 CD1       -20.5380  -53.7350   20.9210 C.ar      1 BAL        -0.0685
     87 CD2       -19.3210  -52.4840   19.3120 C.ar      1 BAL        -0.0685
     88 CE1       -21.0980  -54.4790   19.9040 C.ar      1 BAL        -0.0398
     89 CE2       -19.8710  -53.2350   18.2930 C.ar      1 BAL        -0.0398
     90 CZ        -20.7620  -54.2260   18.5970 C.ar      1 BAL         0.0805
     91 OH        -21.3030  -54.9700   17.5690 O.3       1 BAL        -0.3376
     92 N         -16.9010  -54.3030   21.0670 N.am      1 BAL        -0.2636
     93 CA        -16.0540  -54.7820   19.9570 C.3       1 BAL         0.1313
     94 C         -16.8540  -55.8010   19.1500 C.2       1 BAL         0.2064
     95 O         -17.4390  -56.7220   19.7490 O.2       1 BAL        -0.3942
     96 CB        -14.7390  -55.3990   20.4360 C.3       1 BAL        -0.0092
     97 CG        -13.8390  -55.8410   19.2940 C.3       1 BAL        -0.0156
     98 CD        -12.4490  -56.2240   19.7780 C.3       1 BAL         0.0627
     99 NE        -11.7030  -56.9680   18.7630 N.pl3     1 BAL        -0.2723
    100 CZ        -10.8110  -56.4410   17.9250 C.cat     1 BAL         0.2882
    101 NH1       -10.5250  -55.1440   17.9570 N.pl3     1 BAL        -0.2849
    102 NH2       -10.1970  -57.2240   17.0470 N.pl3     1 BAL        -0.2849
    103 N         -16.9610  -55.6690   17.8270 N.am      1 BAL        -0.2498
    104 CA        -17.6710  -56.7110   17.0770 C.3       1 BAL         0.1337
    105 C         -16.9520  -58.0470   17.2530 C.2       1 BAL         0.2035
    106 O         -15.7230  -58.1190   17.3230 O.2       1 BAL        -0.3944
    107 CB        -17.6080  -56.2310   15.6220 C.3       1 BAL        -0.0104
    108 CG        -17.1810  -54.8340   15.6520 C.3       1 BAL        -0.0281
    109 CD        -16.4330  -54.6110   16.9370 C.3       1 BAL         0.0369
    110 N         -17.7190  -59.1250   17.2690 N.am      1 BAL        -0.2695
    111 CA        -17.0990  -60.4300   17.4700 C.3       1 BAL         0.0944
    112 C         -17.1880  -61.2850   16.2140 C.2       1 BAL         0.0601
    113 O         -16.4450  -62.2570   16.0670 O.co2     1 BAL        -0.5666
    114 CB        -17.7410  -61.1240   18.6740 C.3       1 BAL        -0.0177
    115 CG        -17.3660  -60.4390   19.9880 C.3       1 BAL        -0.0446
    116 CD        -18.0070  -61.0640   21.2180 C.3       1 BAL        -0.0125
    117 CE        -17.5600  -60.3250   22.4770 C.3       1 BAL        -0.0354
    118 NZ        -18.1570  -60.8710   23.7260 N.4       1 BAL         0.2185
    119 OXT       -17.9750  -61.0070   15.3090 O.co2     1 BAL        -0.5666
    120 H1        -11.7058  -43.3493   39.6702 H         1 BAL         0.1996
    121 H2        -11.0959  -43.5132   38.1501 H         1 BAL         0.1996
    122 H3        -12.3031  -44.5071   38.6642 H         1 BAL         0.1996
    123 H4        -12.5196  -41.6012   38.2633 H         1 BAL         0.0839
    124 H5        -13.8369  -42.6859   38.8243 H         1 BAL         0.0839
    125 H6        -13.2305  -44.0628   36.6150 H         1 BAL         0.0556
    126 H7        -12.5160  -42.5033   36.0818 H         1 BAL         0.0556
    127 H8        -13.9171  -41.9199   34.5131 H         1 BAL         0.1884
    128 H9        -16.7910  -41.7345   35.2640 H         1 BAL         0.0815
    129 H10       -16.9270  -39.4317   34.4150 H         1 BAL         0.0397
    130 H11       -15.1620  -39.4330   34.0813 H         1 BAL         0.0397
    131 H12       -17.6825  -38.9709   36.9345 H         1 BAL         0.0795
    132 H13       -16.4167  -38.2832   39.1188 H         1 BAL         0.2216
    133 H14       -12.9064  -39.6745   35.2586 H         1 BAL         0.0540
    134 H15       -13.7158  -38.0213   39.9055 H         1 BAL         0.0541
    135 H16       -11.0260  -39.1849   36.7725 H         1 BAL         0.0510
    136 H17       -11.4263  -38.3597   39.0601 H         1 BAL         0.0530
    137 H18       -18.2169  -41.6631   33.5186 H         1 BAL         0.1883
    138 H19       -17.0725  -42.5261   30.9216 H         1 BAL         0.0800
    139 H20       -19.3946  -43.1080   30.3411 H         1 BAL         0.0315
    140 H21       -19.9339  -42.5037   31.9445 H         1 BAL         0.0315
    141 H22       -18.6826  -44.3006   33.0442 H         1 BAL         0.0298
    142 H23       -20.2197  -46.0936   32.2605 H         1 BAL         0.0232
    143 H24       -20.5749  -45.1251   30.7900 H         1 BAL         0.0232
    144 H25       -21.0477  -44.5064   32.4088 H         1 BAL         0.0232
    145 H26       -16.8867  -44.6796   31.3878 H         1 BAL         0.0232
    146 H27       -18.0955  -45.3012   30.2135 H         1 BAL         0.0232
    147 H28       -17.7838  -46.1954   31.7399 H         1 BAL         0.0232
    148 H29       -17.4255  -41.4445   29.0312 H         1 BAL         0.1883
    149 H30       -18.0988  -38.6382   29.1549 H         1 BAL         0.0797
    150 H31       -17.8654  -38.6918   26.6746 H         1 BAL         0.0277
    151 H32       -17.7541  -40.4838   26.7294 H         1 BAL         0.0277
    152 H33       -16.4739  -39.4806   27.4920 H         1 BAL         0.0277
    153 H34       -19.9614  -41.5890   28.4760 H         1 BAL         0.1885
    154 H35       -22.2938  -39.8644   27.7889 H         1 BAL         0.0821
    155 H36       -21.6729  -42.4770   26.3552 H         1 BAL         0.0453
    156 H37       -21.0609  -40.8970   25.7587 H         1 BAL         0.0453
    157 H38       -24.1022  -42.9478   26.3381 H         1 BAL         0.0530
    158 H39       -22.5554  -39.3044   24.7370 H         1 BAL         0.0530
    159 H40       -26.2357  -42.5520   25.1588 H         1 BAL         0.0525
    160 H41       -24.6789  -38.9116   23.5625 H         1 BAL         0.0525
    161 H42       -27.3703  -41.2013   23.8379 H         1 BAL         0.2458
    162 H43       -23.9607  -42.3100   31.0169 H         1 BAL         0.0802
    163 H44       -26.0976  -41.4786   31.3770 H         1 BAL         0.0313
    164 H45       -26.6791  -42.0446   29.7744 H         1 BAL         0.0313
    165 H46       -25.4193  -39.4853   30.5734 H         1 BAL         0.0287
    166 H47       -26.6206  -39.8428   29.2867 H         1 BAL         0.0287
    167 H48       -24.9970  -40.2847   27.7273 H         1 BAL         0.0524
    168 H49       -23.9513  -39.3204   28.8243 H         1 BAL         0.0524
    169 H50       -24.3029  -44.4085   31.3946 H         1 BAL         0.1884
    170 H51       -24.7359  -46.6376   31.0866 H         1 BAL         0.0819
    171 H52       -26.7515  -47.2286   29.8297 H         1 BAL         0.0478
    172 H53       -26.7655  -45.6100   29.0507 H         1 BAL         0.0478
    173 H54       -22.6167  -45.4943   29.4214 H         1 BAL         0.1884
    174 H55       -22.8660  -47.2131   27.0096 H         1 BAL         0.0823
    175 H56       -22.1899  -44.9242   26.5464 H         1 BAL         0.0606
    176 H57       -20.8300  -46.0484   26.2098 H         1 BAL         0.0606
    177 H58       -20.1725  -44.1614   27.3564 H         1 BAL         0.2097
    178 H59       -21.4144  -48.8153   26.5541 H         1 BAL         0.1883
    179 H60       -19.3844  -49.4769   28.6341 H         1 BAL         0.0803
    180 H61       -19.9867  -51.8523   28.5721 H         1 BAL         0.0343
    181 H62       -22.1464  -51.7173   29.7790 H         1 BAL         0.0234
    182 H63       -22.3735  -50.0423   29.1713 H         1 BAL         0.0234
    183 H64       -21.0138  -50.4176   30.2836 H         1 BAL         0.0234
    184 H65       -20.9148  -51.9327   26.2822 H         1 BAL         0.0234
    185 H66       -22.3436  -50.9936   26.8328 H         1 BAL         0.0234
    186 H67       -22.0441  -52.6396   27.4869 H         1 BAL         0.0234
    187 H68       -16.7610  -50.0258   25.1741 H         1 BAL         0.0802
    188 H69       -14.8283  -51.1446   25.9162 H         1 BAL         0.0313
    189 H70       -15.7610  -52.5341   26.5689 H         1 BAL         0.0313
    190 H71       -15.3110  -49.7833   27.7694 H         1 BAL         0.0287
    191 H72       -15.2208  -51.3966   28.5542 H         1 BAL         0.0287
    192 H73       -17.5475  -51.5791   28.7416 H         1 BAL         0.0524
    193 H74       -17.4146  -49.7884   28.7911 H         1 BAL         0.0524
    194 H75       -16.7636  -51.0401   23.2663 H         1 BAL         0.1885
    195 H76       -18.3539  -53.5286   22.9560 H         1 BAL         0.0821
    196 H77       -18.6058  -50.9741   21.3064 H         1 BAL         0.0453
    197 H78       -19.8207  -51.6166   22.4632 H         1 BAL         0.0453
    198 H79       -20.7915  -53.9577   21.9511 H         1 BAL         0.0530
    199 H80       -18.6110  -51.7020   19.0684 H         1 BAL         0.0530
    200 H81       -21.8058  -55.2662   20.1372 H         1 BAL         0.0525
    201 H82       -19.5991  -53.0409   17.2618 H         1 BAL         0.0525
    202 H83       -21.7744  -54.3951   16.9776 H         1 BAL         0.2458
    203 H84       -17.5061  -54.9501   21.5307 H         1 BAL         0.1883
    204 H85       -15.8120  -53.9257   19.3104 H         1 BAL         0.0800
    205 H86       -14.9697  -56.2753   21.0596 H         1 BAL         0.0313
    206 H87       -14.2003  -54.6523   21.0378 H         1 BAL         0.0313
    207 H88       -13.7487  -55.0151   18.5731 H         1 BAL         0.0301
    208 H89       -14.2948  -56.7113   18.7993 H         1 BAL         0.0301
    209 H90       -12.5456  -56.8494   20.6777 H         1 BAL         0.0689
    210 H91       -11.8939  -55.3074   20.0264 H         1 BAL         0.0689
    211 H92       -11.8815  -57.9798   18.6903 H         1 BAL         0.2642
    212 H93        -9.8329  -54.7529   17.3020 H         1 BAL         0.2615
    213 H94       -10.9954  -54.5295   18.6368 H         1 BAL         0.2615
    214 H95       -10.4128  -58.2306   17.0154 H         1 BAL         0.2615
    215 H96        -9.5046  -56.8251   16.3971 H         1 BAL         0.2615
    216 H97       -18.7141  -56.8030   17.4138 H         1 BAL         0.0802
    217 H98       -18.5999  -56.3130   15.1537 H         1 BAL         0.0313
    218 H99       -16.8841  -56.8353   15.0557 H         1 BAL         0.0313
    219 H100      -18.0593  -54.1730   15.6105 H         1 BAL         0.0287
    220 H101      -16.5238  -54.6248   14.7951 H         1 BAL         0.0287
    221 H102      -15.3494  -54.7267   16.7872 H         1 BAL         0.0524
    222 H103      -16.6420  -53.6115   17.3461 H         1 BAL         0.0524
    223 H104      -18.7082  -59.0464   17.1452 H         1 BAL         0.1875
    224 H105      -16.0336  -60.2729   17.6942 H         1 BAL         0.0726
    225 H106      -17.3996  -62.1691   18.7068 H         1 BAL         0.0305
    226 H107      -18.8346  -61.0990   18.5585 H         1 BAL         0.0305
    227 H108      -17.6808  -59.3865   19.9313 H         1 BAL         0.0269
    228 H109      -16.2733  -60.4892   20.1045 H         1 BAL         0.0269
    229 H110      -17.7046  -62.1192   21.2892 H         1 BAL         0.0317
    230 H111      -19.1016  -61.0014   21.1291 H         1 BAL         0.0317
    231 H112      -17.8523  -59.2687   22.3836 H         1 BAL         0.0813
    232 H113      -16.4650  -60.3971   22.5535 H         1 BAL         0.0813
    233 H114      -17.8237  -60.3422   24.5168 H         1 BAL         0.1994
    234 H115      -17.8902  -61.8373   23.8315 H         1 BAL         0.1994
    235 H116      -19.1615  -60.8033   23.6759 H         1 BAL         0.1994
@<TRIPOS>BOND
     1    1    2 1  
     2    2    3 1  
     3    3    4 1  
     4    4    5 2  
     5    4    6 am 
     6    6    7 1  
     7    7    8 1  
     8    7   10 1  
     9    8    9 2  
    10    8   20 am 
    11   10   11 1  
    12   11   12 2  
    13   11   13 1  
    14   12   14 1  
    15   13   15 ar 
    16   13   16 ar 
    17   14   15 1  
    18   15   17 ar 
    19   16   18 ar 
    20   17   19 ar 
    21   18   19 ar 
    22   20   21 1  
    23   21   22 1  
    24   21   24 1  
    25   22   23 2  
    26   22   28 am 
    27   24   25 1  
    28   25   26 1  
    29   25   27 1  
    30   28   29 1  
    31   29   30 1  
    32   29   32 1  
    33   30   31 2  
    34   30   33 am 
    35   33   34 1  
    36   34   35 1  
    37   34   37 1  
    38   35   36 2  
    39   35   45 am 
    40   37   38 1  
    41   38   39 ar 
    42   38   40 ar 
    43   39   41 ar 
    44   40   42 ar 
    45   41   43 ar 
    46   42   43 ar 
    47   43   44 1  
    48   45   46 1  
    49   45   51 1  
    50   46   47 1  
    51   46   49 1  
    52   47   48 2  
    53   47   52 am 
    54   49   50 1  
    55   50   51 1  
    56   52   53 1  
    57   53   54 1  
    58   53   56 1  
    59   54   55 2  
    60   54   60 am 
    61   56   57 1  
    62   57   58 ar 
    63   57   59 ar 
    64   60   61 1  
    65   61   62 1  
    66   61   64 1  
    67   62   63 2  
    68   62   66 am 
    69   64   65 1  
    70   66   67 1  
    71   67   68 1  
    72   67   70 1  
    73   68   69 2  
    74   68   73 am 
    75   70   71 1  
    76   70   72 1  
    77   73   74 1  
    78   73   79 1  
    79   74   75 1  
    80   74   77 1  
    81   75   76 2  
    82   75   80 am 
    83   77   78 1  
    84   78   79 1  
    85   80   81 1  
    86   81   82 1  
    87   81   84 1  
    88   82   83 2  
    89   82   92 am 
    90   84   85 1  
    91   85   86 ar 
    92   85   87 ar 
    93   86   88 ar 
    94   87   89 ar 
    95   88   90 ar 
    96   89   90 ar 
    97   90   91 1  
    98   92   93 1  
    99   93   94 1  
   100   93   96 1  
   101   94   95 2  
   102   94  103 am 
   103   96   97 1  
   104   97   98 1  
   105   98   99 1  
   106   99  100 ar 
   107  100  101 ar 
   108  100  102 ar 
   109  103  104 1  
   110  103  109 1  
   111  104  105 1  
   112  104  107 1  
   113  105  106 2  
   114  105  110 am 
   115  107  108 1  
   116  108  109 1  
   117  110  111 1  
   118  111  112 1  
   119  111  114 1  
   120  112  113 ar 
   121  112  119 ar 
   122  114  115 1  
   123  115  116 1  
   124  116  117 1  
   125  117  118 1  
   126    1  120 1  
   127    1  121 1  
   128    1  122 1  
   129    2  123 1  
   130    2  124 1  
   131    3  125 1  
   132    3  126 1  
   133    6  127 1  
   134    7  128 1  
   135   10  129 1  
   136   10  130 1  
   137   12  131 1  
   138   14  132 1  
   139   16  133 1  
   140   17  134 1  
   141   18  135 1  
   142   19  136 1  
   143   20  137 1  
   144   21  138 1  
   145   24  139 1  
   146   24  140 1  
   147   25  141 1  
   148   26  142 1  
   149   26  143 1  
   150   26  144 1  
   151   27  145 1  
   152   27  146 1  
   153   27  147 1  
   154   28  148 1  
   155   29  149 1  
   156   32  150 1  
   157   32  151 1  
   158   32  152 1  
   159   33  153 1  
   160   34  154 1  
   161   37  155 1  
   162   37  156 1  
   163   39  157 1  
   164   40  158 1  
   165   41  159 1  
   166   42  160 1  
   167   44  161 1  
   168   46  162 1  
   169   49  163 1  
   170   49  164 1  
   171   50  165 1  
   172   50  166 1  
   173   51  167 1  
   174   51  168 1  
   175   52  169 1  
   176   53  170 1  
   177   56  171 1  
   178   56  172 1  
   179   60  173 1  
   180   61  174 1  
   181   64  175 1  
   182   64  176 1  
   183   65  177 1  
   184   66  178 1  
   185   67  179 1  
   186   70  180 1  
   187   71  181 1  
   188   71  182 1  
   189   71  183 1  
   190   72  184 1  
   191   72  185 1  
   192   72  186 1  
   193   74  187 1  
   194   77  188 1  
   195   77  189 1  
   196   78  190 1  
   197   78  191 1  
   198   79  192 1  
   199   79  193 1  
   200   80  194 1  
   201   81  195 1  
   202   84  196 1  
   203   84  197 1  
   204   86  198 1  
   205   87  199 1  
   206   88  200 1  
   207   89  201 1  
   208   91  202 1  
   209   92  203 1  
   210   93  204 1  
   211   96  205 1  
   212   96  206 1  
   213   97  207 1  
   214   97  208 1  
   215   98  209 1  
   216   98  210 1  
   217   99  211 1  
   218  101  212 1  
   219  101  213 1  
   220  102  214 1  
   221  102  215 1  
   222  104  216 1  
   223  107  217 1  
   224  107  218 1  
   225  108  219 1  
   226  108  220 1  
   227  109  221 1  
   228  109  222 1  
   229  110  223 1  
   230  111  224 1  
   231  114  225 1  
   232  114  226 1  
   233  115  227 1  
   234  115  228 1  
   235  116  229 1  
   236  116  230 1  
   237  117  231 1  
   238  117  232 1  
   239  118  233 1  
   240  118  234 1  
   241  118  235 1  
@<TRIPOS>SUBSTRUCTURE
     1 BAL         1

