3shb_ligand
  -I-interpret- 

114113  0  0  0  0  0  0  0  0999 V2000
   -6.4290   15.6170   13.0640 N   0  3  0  0  0
   -6.7810   14.5370   12.1440 C   0  0  0  0  0
   -8.1370   13.9530   12.5160 C   0  0  0  0  0
   -8.5190   13.9500   13.6850 O   0  0  0  0  0
   -5.7030   13.4640   12.1520 C   0  0  0  0  0
   -8.8800   13.4790   11.5280 N   0  0  0  0  0
  -10.1600   12.8420   11.7940 C   0  0  0  0  0
   -9.9380   11.4130   12.2460 C   0  0  0  0  0
   -9.0340   10.7570   11.7690 O   0  0  0  0  0
  -11.0180   12.7970   10.5440 C   0  0  0  0  0
  -11.4620   14.1480   10.0360 C   0  0  0  0  0
  -12.3960   13.8960    8.8900 C   0  0  0  0  0
  -11.6700   13.2310    7.8210 N   0  0  0  0  0
  -12.1980   12.3310    7.0030 C   0  0  0  0  0
  -13.4700   11.9580    7.1310 N   0  0  0  0  0
  -11.4380   11.7900    6.0720 N   0  0  0  0  0
  -10.7830   10.9340   13.1470 N   0  0  0  0  0
  -10.8000    9.5210   13.4990 C   0  0  0  0  0
  -12.1820    8.9490   13.2260 C   0  0  0  0  0
  -13.1250    9.6900   12.9960 O   0  0  0  0  0
  -10.4470    9.2930   14.9570 C   0  0  0  0  0
  -11.4960    9.8260   15.7730 O   0  0  0  0  0
   -9.1380    9.9750   15.2910 C   0  0  0  0  0
  -12.2980    7.6260   13.2260 N   0  0  0  0  0
  -13.5890    6.9700   13.0790 C   0  0  0  0  0
  -14.5540    7.5000   14.1160 C   0  0  0  0  0
  -15.7620    7.5870   13.8840 O   0  0  0  0  0
  -13.4610    5.4560   13.2660 C   0  0  0  0  0
  -13.5950    4.6770   12.0180 C   0  0  0  0  0
  -14.9890    4.8270   11.4630 C   0  0  0  0  0
  -15.1770    3.9280   10.2710 C   0  0  0  0  0
  -14.3700    4.3750    9.1180 N   0  3  0  0  0
  -14.0170    7.8480   15.2720 N   0  0  0  0  0
  -14.8650    8.3140   16.3480 C   0  0  0  0  0
  -15.4750    9.6750   16.0270 C   0  0  0  0  0
  -16.6550    9.9030   16.2750 O   0  0  0  0  0
  -14.1040    8.3510   17.6610 C   0  0  0  0  0
  -14.9260    8.9350   18.7580 C   0  0  0  0  0
  -14.1460    9.0680   20.0170 C   0  0  0  0  0
  -13.0600    9.6690   20.0350 O   0  0  0  0  0
  -14.6800    8.5000   21.1000 N   0  0  0  0  0
  -14.6830   10.5690   15.4470 N   0  0  0  0  0
  -15.1800   11.9070   15.1600 C   0  0  0  0  0
  -15.8690   11.9860   13.7960 C   0  0  0  0  0
  -16.6280   12.9160   13.5340 O   0  0  0  0  0
  -14.0740   12.9820   15.2950 C   0  0  0  0  0
  -13.0560   12.7760   14.3010 O   0  0  0  0  0
  -13.4620   12.9320   16.6840 C   0  0  0  0  0
  -15.6230   10.9980   12.9440 N   0  0  0  0  0
  -16.2840   10.9230   11.6460 C   0  0  0  0  0
  -17.7520   10.5170   11.8200 C   0  0  0  0  0
  -18.2200   10.3070   12.9550 O   0  0  0  0  0
  -15.5430    9.9410   10.7130 C   0  0  0  0  0
  -18.4910   10.3948   10.8068 O   0  0  0  0  0
   -7.1603   16.3279   13.0476 H   0  0  0  0  0
   -6.3389   15.2419   14.0082 H   0  0  0  0  0
   -5.5430   16.0323   12.7759 H   0  0  0  0  0
   -6.8488   14.9396   11.1334 H   0  0  0  0  0
   -5.6342   13.0273   13.1483 H   0  0  0  0  0
   -5.9592   12.6880   11.4307 H   0  0  0  0  0
   -4.7458   13.9104   11.8826 H   0  0  0  0  0
   -8.5499   13.5618   10.5664 H   0  0  0  0  0
  -10.6623   13.4247   12.5662 H   0  0  0  0  0
  -11.9204   12.2407   10.7979 H   0  0  0  0  0
  -10.4117   12.3458    9.7586 H   0  0  0  0  0
  -10.6059   14.7410    9.7143 H   0  0  0  0  0
  -11.9598   14.7133   10.8239 H   0  0  0  0  0
  -12.7952   14.8433    8.5276 H   0  0  0  0  0
  -13.2202   13.2643    9.2212 H   0  0  0  0  0
  -10.6877   13.4731    7.6912 H   0  0  0  0  0
  -13.8594   11.2512    6.5072 H   0  0  0  0  0
  -14.0548   12.3791    7.8528 H   0  0  0  0  0
  -10.4594   12.0652    5.9890 H   0  0  0  0  0
  -11.4366   11.5695   13.6046 H   0  0  0  0  0
  -10.0487    9.0194   12.8891 H   0  0  0  0  0
  -10.3370    8.2248   15.1439 H   0  0  0  0  0
  -11.2822    9.6867   16.6985 H   0  0  0  0  0
   -8.3462    9.5659   14.6635 H   0  0  0  0  0
   -9.2309   11.0457   15.1091 H   0  0  0  0  0
   -8.8975    9.8029   16.3401 H   0  0  0  0  0
  -11.4599    7.0543   13.3318 H   0  0  0  0  0
  -13.9567    7.1777   12.0741 H   0  0  0  0  0
  -14.2696    5.1446   13.9273 H   0  0  0  0  0
  -12.4624    5.2642   13.6587 H   0  0  0  0  0
  -13.4049    3.6249   12.2301 H   0  0  0  0  0
  -12.8763    5.0459   11.2863 H   0  0  0  0  0
  -15.1397    5.8617   11.1552 H   0  0  0  0  0
  -15.7098    4.5519   12.2330 H   0  0  0  0  0
  -16.2284    3.9523    9.9847 H   0  0  0  0  0
  -14.8574    2.9226   10.5450 H   0  0  0  0  0
  -14.5232    3.7433    8.3320 H   0  0  0  0  0
  -14.6489    5.3203    8.8554 H   0  0  0  0  0
  -13.3824    4.3691    9.3730 H   0  0  0  0  0
  -13.0075    7.7883   15.4056 H   0  0  0  0  0
  -15.6856    7.6045   16.4543 H   0  0  0  0  0
  -13.2184    8.9723   17.5273 H   0  0  0  0  0
  -13.8418    7.3291   17.9350 H   0  0  0  0  0
  -15.7706    8.2719   18.9452 H   0  0  0  0  0
  -15.2544    9.9278   18.4504 H   0  0  0  0  0
  -14.1922    8.5487   21.9945 H   0  0  0  0  0
  -15.5760    8.0171   21.0333 H   0  0  0  0  0
  -13.7251   10.3181   15.2022 H   0  0  0  0  0
  -15.9345   12.1227   15.9165 H   0  0  0  0  0
  -14.5215   13.9640   15.1416 H   0  0  0  0  0
  -12.3773   13.4483   14.3956 H   0  0  0  0  0
  -14.2363   13.1200   17.4278 H   0  0  0  0  0
  -13.0261   11.9472   16.8524 H   0  0  0  0  0
  -12.6859   13.6930   16.7653 H   0  0  0  0  0
  -14.9545   10.2727   13.2038 H   0  0  0  0  0
  -16.2556   11.9092   11.1826 H   0  0  0  0  0
  -14.5181   10.2827   10.5682 H   0  0  0  0  0
  -15.5362    8.9486   11.1638 H   0  0  0  0  0
  -16.0534    9.9009    9.7507 H   0  0  0  0  0
  -17.9828   10.5899   10.0161 H   0  0  0  0  0
  1  2  1  0  0  0
  2  3  1  0  0  0
  2  5  1  0  0  0
  3  4  2  0  0  0
  3  6  1  0  0  0
  6  7  1  0  0  0
  7  8  1  0  0  0
  7 10  1  0  0  0
  8  9  2  0  0  0
  8 17  1  0  0  0
 10 11  1  0  0  0
 11 12  1  0  0  0
 12 13  1  0  0  0
 13 14  1  0  0  0
 14 15  1  0  0  0
 14 16  2  0  0  0
 17 18  1  0  0  0
 18 19  1  0  0  0
 18 21  1  0  0  0
 19 20  2  0  0  0
 19 24  1  0  0  0
 21 22  1  0  0  0
 21 23  1  0  0  0
 24 25  1  0  0  0
 25 26  1  0  0  0
 25 28  1  0  0  0
 26 27  2  0  0  0
 26 33  1  0  0  0
 28 29  1  0  0  0
 29 30  1  0  0  0
 30 31  1  0  0  0
 31 32  1  0  0  0
 33 34  1  0  0  0
 34 35  1  0  0  0
 34 37  1  0  0  0
 35 36  2  0  0  0
 35 42  1  0  0  0
 37 38  1  0  0  0
 38 39  1  0  0  0
 39 40  2  0  0  0
 39 41  1  0  0  0
 42 43  1  0  0  0
 43 44  1  0  0  0
 43 46  1  0  0  0
 44 45  2  0  0  0
 44 49  1  0  0  0
 46 47  1  0  0  0
 46 48  1  0  0  0
 49 50  1  0  0  0
 50 51  1  0  0  0
 50 53  1  0  0  0
 51 52  2  0  0  0
 51 54  1  0  0  0
  1 55  1  0  0  0
  1 56  1  0  0  0
  1 57  1  0  0  0
  2 58  1  0  0  0
  5 59  1  0  0  0
  5 60  1  0  0  0
  5 61  1  0  0  0
  6 62  1  0  0  0
  7 63  1  0  0  0
 10 64  1  0  0  0
 10 65  1  0  0  0
 11 66  1  0  0  0
 11 67  1  0  0  0
 12 68  1  0  0  0
 12 69  1  0  0  0
 13 70  1  0  0  0
 15 71  1  0  0  0
 15 72  1  0  0  0
 16 73  1  0  0  0
 17 74  1  0  0  0
 18 75  1  0  0  0
 21 76  1  0  0  0
 22 77  1  0  0  0
 23 78  1  0  0  0
 23 79  1  0  0  0
 23 80  1  0  0  0
 24 81  1  0  0  0
 25 82  1  0  0  0
 28 83  1  0  0  0
 28 84  1  0  0  0
 29 85  1  0  0  0
 29 86  1  0  0  0
 30 87  1  0  0  0
 30 88  1  0  0  0
 31 89  1  0  0  0
 31 90  1  0  0  0
 32 91  1  0  0  0
 32 92  1  0  0  0
 32 93  1  0  0  0
 33 94  1  0  0  0
 34 95  1  0  0  0
 37 96  1  0  0  0
 37 97  1  0  0  0
 38 98  1  0  0  0
 38 99  1  0  0  0
 41100  1  0  0  0
 41101  1  0  0  0
 42102  1  0  0  0
 43103  1  0  0  0
 46104  1  0  0  0
 47105  1  0  0  0
 48106  1  0  0  0
 48107  1  0  0  0
 48108  1  0  0  0
 49109  1  0  0  0
 50110  1  0  0  0
 53111  1  0  0  0
 53112  1  0  0  0
 53113  1  0  0  0
 54114  1  0  0  0
M  END
$$$$
