### 
### Created by X-TOOL on Mon Sep 10 21:13:07 2018
### 

@<TRIPOS>MOLECULE
3shb_ligand
  114   113     1     0     0
SMALL
GAST_HUCK


@<TRIPOS>ATOM
      1 N          -6.4290   15.6170   13.0640 N.4       1 ALA         0.2377
      2 CA         -6.7810   14.5370   12.1440 C.3       1 ALA         0.0621
      3 C          -8.1370   13.9530   12.5160 C.2       1 ALA         0.2264
      4 O          -8.5190   13.9500   13.6850 O.2       1 ALA        -0.3907
      5 CB         -5.7030   13.4640   12.1520 C.3       1 ALA        -0.0040
      6 N          -8.8800   13.4790   11.5280 N.am      1 ARG        -0.2610
      7 CA        -10.1600   12.8420   11.7940 C.3       1 ARG         0.1312
      8 C          -9.9380   11.4130   12.2460 C.2       1 ARG         0.2040
      9 O          -9.0340   10.7570   11.7690 O.2       1 ARG        -0.3944
     10 CB        -11.0180   12.7970   10.5440 C.3       1 ARG        -0.0092
     11 CG        -11.4620   14.1480   10.0360 C.3       1 ARG        -0.0156
     12 CD        -12.3960   13.8960    8.8900 C.3       1 ARG         0.0627
     13 NE        -11.6700   13.2310    7.8210 N.pl3     1 ARG        -0.2723
     14 CZ        -12.1980   12.3310    7.0030 C.cat     1 ARG         0.2882
     15 NH1       -13.4700   11.9580    7.1310 N.pl3     1 ARG        -0.2849
     16 NH2       -11.4380   11.7900    6.0720 N.pl3     1 ARG        -0.2849
     17 N         -10.7830   10.9340   13.1470 N.am      1 THR        -0.2613
     18 CA        -10.8000    9.5210   13.4990 C.3       1 THR         0.1565
     19 C         -12.1820    8.9490   13.2260 C.2       1 THR         0.2065
     20 O         -13.1250    9.6900   12.9960 O.2       1 THR        -0.3943
     21 CB        -10.4470    9.2930   14.9570 C.3       1 THR         0.0924
     22 OG1       -11.4960    9.8260   15.7730 O.3       1 THR        -0.3874
     23 CG2        -9.1380    9.9750   15.2910 C.3       1 THR        -0.0346
     24 N         -12.2980    7.6260   13.2260 N.am      1 LYS        -0.2637
     25 CA        -13.5890    6.9700   13.0790 C.3       1 LYS         0.1310
     26 C         -14.5540    7.5000   14.1160 C.2       1 LYS         0.2039
     27 O         -15.7620    7.5870   13.8840 O.2       1 LYS        -0.3944
     28 CB        -13.4610    5.4560   13.2660 C.3       1 LYS        -0.0122
     29 CG        -13.5950    4.6770   12.0180 C.3       1 LYS        -0.0440
     30 CD        -14.9890    4.8270   11.4630 C.3       1 LYS        -0.0124
     31 CE        -15.1770    3.9280   10.2710 C.3       1 LYS        -0.0354
     32 NZ        -14.3700    4.3750    9.1180 N.4       1 LYS         0.2185
     33 N         -14.0170    7.8480   15.2720 N.am      1 GLN        -0.2636
     34 CA        -14.8650    8.3140   16.3480 C.3       1 GLN         0.1330
     35 C         -15.4750    9.6750   16.0270 C.2       1 GLN         0.2041
     36 O         -16.6550    9.9030   16.2750 O.2       1 GLN        -0.3944
     37 CB        -14.1040    8.3510   17.6610 C.3       1 GLN         0.0045
     38 CG        -14.9260    8.9350   18.7580 C.3       1 GLN         0.0412
     39 CD        -14.1460    9.0680   20.0170 C.2       1 GLN         0.1737
     40 OE1       -13.0600    9.6690   20.0350 O.2       1 GLN        -0.3973
     41 NE2       -14.6800    8.5000   21.1000 N.am      1 GLN        -0.3009
     42 N         -14.6830   10.5690   15.4470 N.am      1 THR        -0.2613
     43 CA        -15.1800   11.9070   15.1600 C.3       1 THR         0.1564
     44 C         -15.8690   11.9860   13.7960 C.2       1 THR         0.2059
     45 O         -16.6280   12.9160   13.5340 O.2       1 THR        -0.3943
     46 CB        -14.0740   12.9820   15.2950 C.3       1 THR         0.0924
     47 OG1       -13.0560   12.7760   14.3010 O.3       1 THR        -0.3874
     48 CG2       -13.4620   12.9320   16.6840 C.3       1 THR        -0.0346
     49 N         -15.6230   10.9980   12.9440 N.am      1 ALA        -0.2697
     50 CA        -16.2840   10.9230   11.6460 C.3       1 ALA         0.0916
     51 C         -17.7520   10.5170   11.8200 C.2       1 ALA         0.0598
     52 O         -18.2200   10.3070   12.9550 O.co2     1 ALA        -0.5666
     53 CB        -15.5430    9.9410   10.7130 C.3       1 ALA        -0.0300
     54 H          -7.1603   16.3279   13.0476 H         1 ALA         0.2015
     55 H          -6.3389   15.2419   14.0082 H         1 ALA         0.2015
     56 H          -5.5430   16.0323   12.7759 H         1 ALA         0.2015
     57 H          -6.8488   14.9396   11.1334 H         1 ALA         0.1095
     58 H          -5.6342   13.0273   13.1483 H         1 ALA         0.0310
     59 H          -5.9592   12.6880   11.4307 H         1 ALA         0.0310
     60 H          -4.7458   13.9104   11.8826 H         1 ALA         0.0310
     61 H          -8.5499   13.5618   10.5664 H         1 ARG         0.1884
     62 H         -10.6623   13.4247   12.5662 H         1 ARG         0.0800
     63 H         -11.9204   12.2407   10.7979 H         1 ARG         0.0313
     64 H         -10.4117   12.3458    9.7586 H         1 ARG         0.0313
     65 H         -10.6059   14.7410    9.7143 H         1 ARG         0.0301
     66 H         -11.9598   14.7133   10.8239 H         1 ARG         0.0301
     67 H         -12.7952   14.8433    8.5276 H         1 ARG         0.0689
     68 H         -13.2202   13.2643    9.2212 H         1 ARG         0.0689
     69 H         -10.6877   13.4731    7.6912 H         1 ARG         0.2642
     70 H         -14.0497   12.3657    7.8646 H         1 ARG         0.2615
     71 H         -13.8646   11.2646    6.4954 H         1 ARG         0.2615
     72 H         -10.4594   12.0652    5.9890 H         1 ARG         0.2615
     73 H         -11.8285   11.0961    5.4345 H         1 ARG         0.2615
     74 H         -11.4366   11.5695   13.6046 H         1 THR         0.1884
     75 H         -10.0487    9.0194   12.8891 H         1 THR         0.0826
     76 H         -10.3370    8.2248   15.1439 H         1 THR         0.0639
     77 H         -11.2822    9.6867   16.6985 H         1 THR         0.2101
     78 H          -8.3462    9.5659   14.6635 H         1 THR         0.0257
     79 H          -9.2309   11.0457   15.1091 H         1 THR         0.0257
     80 H          -8.8975    9.8029   16.3401 H         1 THR         0.0257
     81 H         -11.4599    7.0543   13.3318 H         1 LYS         0.1883
     82 H         -13.9567    7.1777   12.0741 H         1 LYS         0.0800
     83 H         -14.2696    5.1446   13.9273 H         1 LYS         0.0312
     84 H         -12.4624    5.2642   13.6587 H         1 LYS         0.0312
     85 H         -13.4049    3.6249   12.2301 H         1 LYS         0.0269
     86 H         -12.8763    5.0459   11.2863 H         1 LYS         0.0269
     87 H         -15.1397    5.8617   11.1552 H         1 LYS         0.0317
     88 H         -15.7098    4.5519   12.2330 H         1 LYS         0.0317
     89 H         -16.2284    3.9523    9.9847 H         1 LYS         0.0813
     90 H         -14.8574    2.9226   10.5450 H         1 LYS         0.0813
     91 H         -14.5232    3.7433    8.3320 H         1 LYS         0.1994
     92 H         -14.6489    5.3203    8.8554 H         1 LYS         0.1994
     93 H         -13.3824    4.3691    9.3730 H         1 LYS         0.1994
     94 H         -13.0075    7.7883   15.4056 H         1 GLN         0.1883
     95 H         -15.6856    7.6045   16.4543 H         1 GLN         0.0801
     96 H         -13.2184    8.9723   17.5273 H         1 GLN         0.0337
     97 H         -13.8418    7.3291   17.9350 H         1 GLN         0.0337
     98 H         -15.7706    8.2719   18.9452 H         1 GLN         0.0504
     99 H         -15.2544    9.9278   18.4504 H         1 GLN         0.0504
    100 H         -14.1922    8.5487   21.9945 H         1 GLN         0.1814
    101 H         -15.5760    8.0171   21.0333 H         1 GLN         0.1814
    102 H         -13.7251   10.3181   15.2022 H         1 THR         0.1884
    103 H         -15.9345   12.1227   15.9165 H         1 THR         0.0826
    104 H         -14.5215   13.9640   15.1416 H         1 THR         0.0639
    105 H         -12.3773   13.4483   14.3956 H         1 THR         0.2101
    106 H         -14.2363   13.1200   17.4278 H         1 THR         0.0257
    107 H         -13.0261   11.9472   16.8524 H         1 THR         0.0257
    108 H         -12.6859   13.6930   16.7653 H         1 THR         0.0257
    109 H         -14.9545   10.2727   13.2038 H         1 ALA         0.1875
    110 H         -16.2556   11.9092   11.1826 H         1 ALA         0.0723
    111 O         -18.4910   10.3948   10.8068 O.co2     1 ALA        -0.5666
    112 H         -14.5181   10.2827   10.5682 H         1 ALA         0.0270
    113 H         -15.5362    8.9486   11.1638 H         1 ALA         0.0270
    114 H         -16.0534    9.9009    9.7507 H         1 ALA         0.0270
@<TRIPOS>BOND
     1    1    2 1  
     2    2    3 1  
     3    2    5 1  
     4    3    4 2  
     5    3    6 am 
     6    6    7 1  
     7    7    8 1  
     8    7   10 1  
     9    8    9 2  
    10    8   17 am 
    11   10   11 1  
    12   11   12 1  
    13   12   13 1  
    14   13   14 ar 
    15   14   15 ar 
    16   14   16 ar 
    17   17   18 1  
    18   18   19 1  
    19   18   21 1  
    20   19   20 2  
    21   19   24 am 
    22   21   22 1  
    23   21   23 1  
    24   24   25 1  
    25   25   26 1  
    26   25   28 1  
    27   26   27 2  
    28   26   33 am 
    29   28   29 1  
    30   29   30 1  
    31   30   31 1  
    32   31   32 1  
    33   33   34 1  
    34   34   35 1  
    35   34   37 1  
    36   35   36 2  
    37   35   42 am 
    38   37   38 1  
    39   38   39 1  
    40   39   40 2  
    41   39   41 am 
    42   42   43 1  
    43   43   44 1  
    44   43   46 1  
    45   44   45 2  
    46   44   49 am 
    47   46   47 1  
    48   46   48 1  
    49   49   50 1  
    50   50   51 1  
    51   50   53 1  
    52   51   52 ar 
    53    1   54 1  
    54    1   55 1  
    55    1   56 1  
    56    2   57 1  
    57    5   58 1  
    58    5   59 1  
    59    5   60 1  
    60    6   61 1  
    61    7   62 1  
    62   10   63 1  
    63   10   64 1  
    64   11   65 1  
    65   11   66 1  
    66   12   67 1  
    67   12   68 1  
    68   13   69 1  
    69   15   70 1  
    70   15   71 1  
    71   16   72 1  
    72   16   73 1  
    73   17   74 1  
    74   18   75 1  
    75   21   76 1  
    76   22   77 1  
    77   23   78 1  
    78   23   79 1  
    79   23   80 1  
    80   24   81 1  
    81   25   82 1  
    82   28   83 1  
    83   28   84 1  
    84   29   85 1  
    85   29   86 1  
    86   30   87 1  
    87   30   88 1  
    88   31   89 1  
    89   31   90 1  
    90   32   91 1  
    91   32   92 1  
    92   32   93 1  
    93   33   94 1  
    94   34   95 1  
    95   37   96 1  
    96   37   97 1  
    97   38   98 1  
    98   38   99 1  
    99   41  100 1  
   100   41  101 1  
   101   42  102 1  
   102   43  103 1  
   103   46  104 1  
   104   47  105 1  
   105   48  106 1  
   106   48  107 1  
   107   48  108 1  
   108   49  109 1  
   109   50  110 1  
   110   51  111 ar 
   111   53  112 1  
   112   53  113 1  
   113   53  114 1  
@<TRIPOS>SUBSTRUCTURE
     1 ALA         1

