5c5t_ligand
  -I-interpret- 

 16 15  0  0  0  0  0  0  0  0999 V2000
  -10.0550   17.0510   -9.4890 C   0  0  0  0  0
   -8.9490   17.6630   -9.6030 O   0  0  0  0  0
  -10.0440   15.8510   -9.1070 O   0  0  0  0  0
  -11.3310   17.7180   -9.9220 C   0  0  0  0  0
  -12.2980   17.0230  -10.0770 O   0  0  0  0  0
  -11.3620   19.2360  -10.1650 C   0  0  0  0  0
  -12.7480   19.7340  -10.4840 C   0  0  0  0  0
  -12.7370   21.1140  -11.0890 C   0  0  0  0  0
  -11.7160   21.5300  -11.7040 O   0  0  0  0  0
  -13.7590   21.8530  -10.9500 O   0  0  0  0  0
   -9.1108   18.5614   -9.9002 H   0  0  0  0  0
  -10.7185   19.4560  -11.0168 H   0  0  0  0  0
  -11.0249   19.7318   -9.2547 H   0  0  0  0  0
  -13.3132   19.7783   -9.5530 H   0  0  0  0  0
  -13.1933   19.0517  -11.2081 H   0  0  0  0  0
  -14.4332   21.3761  -10.4605 H   0  0  0  0  0
  1  2  1  0  0  0
  1  3  2  0  0  0
  1  4  1  0  0  0
  4  5  2  0  0  0
  4  6  1  0  0  0
  6  7  1  0  0  0
  7  8  1  0  0  0
  8  9  2  0  0  0
  8 10  1  0  0  0
  2 11  1  0  0  0
  6 12  1  0  0  0
  6 13  1  0  0  0
  7 14  1  0  0  0
  7 15  1  0  0  0
 10 16  1  0  0  0
M  END
$$$$
