4dhu_ligand
  -I-interpret- 

 35 36  0  0  0  0  0  0  0  0999 V2000
   21.9600   12.5370   -9.2220 O   0  0  0  0  0
   21.9180   13.7190  -10.2900 P   0  0  0  0  0
   20.9180   14.7950   -9.6930 O   0  0  0  0  0
   21.6100   13.2570  -11.6790 O   0  0  0  0  0
   23.5670   14.5470  -10.2700 C   0  0  0  0  0
   23.6870   15.9430  -10.0340 C   0  0  0  0  0
   24.9860   16.5260  -10.0390 C   0  0  0  0  0
   26.1440   15.7690  -10.3270 C   0  0  0  0  0
   25.9800   14.3820  -10.5980 C   0  0  0  0  0
   24.6960   13.8090  -10.5840 C   0  0  0  0  0
   24.4530   12.4980  -10.8680 O   0  0  0  0  0
   25.5000   11.5080  -10.6580 C   0  0  0  0  0
   24.8220   10.1430  -10.3810 C   0  0  0  0  0
   25.4900    9.1100  -10.4680 O   0  0  0  0  0
   23.5100   10.1990  -10.0480 N   0  0  0  0  0
   22.7680    9.0930   -9.7310 C   0  0  0  0  0
   22.3620    8.2710  -10.7590 C   0  0  0  0  0
   22.9000    8.5920  -12.3470 Cl  0  0  0  0  0
   21.5820    7.1360  -10.4830 C   0  0  0  0  0
   21.1680    6.0710  -11.7530 Cl  0  0  0  0  0
   21.1380    6.8620   -9.1870 C   0  0  0  0  0
   21.5180    7.6940   -8.1500 C   0  0  0  0  0
   22.3170    8.8160   -8.4300 C   0  0  0  0  0
   22.1613   12.8974   -8.3553 H   0  0  0  0  0
   21.1948   15.0289   -8.8040 H   0  0  0  0  0
   22.8032   16.5547   -9.8529 H   0  0  0  0  0
   25.0903   17.5874   -9.8141 H   0  0  0  0  0
   27.1304   16.2325  -10.3411 H   0  0  0  0  0
   26.8502   13.7631  -10.8166 H   0  0  0  0  0
   26.1253   11.7956   -9.8128 H   0  0  0  0  0
   26.1355   11.4398  -11.5409 H   0  0  0  0  0
   23.0523   11.1104  -10.0327 H   0  0  0  0  0
   20.4982    6.0006   -8.9952 H   0  0  0  0  0
   21.2020    7.4825   -7.1285 H   0  0  0  0  0
   22.5935    9.4878   -7.6173 H   0  0  0  0  0
  1  2  1  0  0  0
  2  3  1  0  0  0
  2  4  2  0  0  0
  2  5  1  0  0  0
  5  6  4  0  0  0
  5 10  4  0  0  0
  6  7  4  0  0  0
  7  8  4  0  0  0
  8  9  4  0  0  0
  9 10  4  0  0  0
 10 11  1  0  0  0
 11 12  1  0  0  0
 12 13  1  0  0  0
 13 14  2  0  0  0
 13 15  1  0  0  0
 15 16  1  0  0  0
 16 17  4  0  0  0
 16 23  4  0  0  0
 17 18  1  0  0  0
 17 19  4  0  0  0
 19 20  1  0  0  0
 19 21  4  0  0  0
 21 22  4  0  0  0
 22 23  4  0  0  0
  1 24  1  0  0  0
  3 25  1  0  0  0
  6 26  1  0  0  0
  7 27  1  0  0  0
  8 28  1  0  0  0
  9 29  1  0  0  0
 12 30  1  0  0  0
 12 31  1  0  0  0
 15 32  1  0  0  0
 21 33  1  0  0  0
 22 34  1  0  0  0
 23 35  1  0  0  0
M  END
$$$$
