### 
### Created by X-TOOL on Mon Sep 10 21:13:12 2018
### 

@<TRIPOS>MOLECULE
4dhu_ligand
   33    34     1     0     0
SMALL
GAST_HUCK


@<TRIPOS>ATOM
      1 OAC        21.9600   12.5370   -9.2220 O.co2     1 0KH        -0.5643
      2 PAW        21.9180   13.7190  -10.2900 P.3       1 0KH         0.0783
      3 OAD        20.9180   14.7950   -9.6930 O.co2     1 0KH        -0.5643
      4 OAB        21.6100   13.2570  -11.6790 O.co2     1 0KH        -0.5643
      5 CAV        23.5670   14.5470  -10.2700 C.ar      1 0KH         0.0641
      6 CAM        23.6870   15.9430  -10.0340 C.ar      1 0KH        -0.0499
      7 CAH        24.9860   16.5260  -10.0390 C.ar      1 0KH        -0.0681
      8 CAG        26.1440   15.7690  -10.3270 C.ar      1 0KH        -0.0672
      9 CAL        25.9800   14.3820  -10.5980 C.ar      1 0KH        -0.0277
     10 CAU        24.6960   13.8090  -10.5840 C.ar      1 0KH         0.1159
     11 OAP        24.4530   12.4980  -10.8680 O.3       1 0KH        -0.2925
     12 CAN        25.5000   11.5080  -10.6580 C.3       1 0KH         0.1661
     13 CAQ        24.8220   10.1430  -10.3810 C.2       1 0KH         0.2350
     14 OAA        25.4900    9.1100  -10.4680 O.2       1 0KH        -0.3817
     15 NAO        23.5100   10.1990  -10.0480 N.am      1 0KH        -0.2307
     16 CAS        22.7680    9.0930   -9.7310 C.ar      1 0KH         0.0808
     17 CAT        22.3620    8.2710  -10.7590 C.ar      1 0KH         0.0731
     18 CL1        22.9000    8.5920  -12.3470 Cl        1 0KH        -0.0824
     19 CAR        21.5820    7.1360  -10.4830 C.ar      1 0KH         0.0409
     20 CL2        21.1680    6.0710  -11.7530 Cl        1 0KH        -0.0741
     21 CAJ        21.1380    6.8620   -9.1870 C.ar      1 0KH        -0.0627
     22 CAI        21.5180    7.6940   -8.1500 C.ar      1 0KH        -0.0748
     23 CAK        22.3170    8.8160   -8.4300 C.ar      1 0KH        -0.0404
     24 H1         22.8081   16.5514   -9.8539 H         1 0KH         0.0634
     25 H2         25.0897   17.5816   -9.8153 H         1 0KH         0.0533
     26 H3         27.1250   16.2300  -10.3410 H         1 0KH         0.0616
     27 H4         26.8455   13.7665  -10.8154 H         1 0KH         0.0552
     28 H5         26.1202   11.7979   -9.7970 H         1 0KH         0.0867
     29 H6         26.1306   11.4357  -11.5564 H         1 0KH         0.0867
     30 H7         23.0613   11.0925  -10.0330 H         1 0KH         0.2262
     31 H8         20.5017    6.0054   -8.9962 H         1 0KH         0.0494
     32 H9         21.2037    7.4836   -7.1341 H         1 0KH         0.0579
     33 H10        22.5919    9.4841   -7.6218 H         1 0KH         0.0504
@<TRIPOS>BOND
     1    1    2 ar 
     2    2    3 ar 
     3    2    4 ar 
     4    2    5 1  
     5    5    6 ar 
     6    5   10 ar 
     7    6    7 ar 
     8    7    8 ar 
     9    8    9 ar 
    10    9   10 ar 
    11   10   11 1  
    12   11   12 1  
    13   12   13 1  
    14   13   14 2  
    15   13   15 am 
    16   15   16 1  
    17   16   17 ar 
    18   16   23 ar 
    19   17   18 1  
    20   17   19 ar 
    21   19   20 1  
    22   19   21 ar 
    23   21   22 ar 
    24   22   23 ar 
    25    6   24 1  
    26    7   25 1  
    27    8   26 1  
    28    9   27 1  
    29   12   28 1  
    30   12   29 1  
    31   15   30 1  
    32   21   31 1  
    33   22   32 1  
    34   23   33 1  
@<TRIPOS>SUBSTRUCTURE
     1 0KH         1

