4u0g_ligand
  -I-interpret- 

113117  0  0  0  0  0  0  0  0999 V2000
  -75.8970   16.6220   54.3950 O   0  0  0  0  0
  -75.1790   15.6180   54.4970 C   0  0  0  0  0
  -73.8110   15.5460   53.9480 C   0  0  0  0  0
  -73.2780   16.5680   53.3260 C   0  0  0  0  0
  -71.9010   16.5780   52.7510 C   0  0  0  0  0
  -71.1220   17.8350   53.1010 C   0  0  0  0  0
  -70.9480   17.9280   54.6130 C   0  0  0  0  0
  -69.8220   17.8450   52.4060 C   0  0  0  0  0
  -69.8260   17.6900   50.9040 C   0  0  0  0  0
  -76.8530   14.9210   57.1600 C   0  0  0  0  0
  -75.6010   14.5040   55.1140 N   0  0  0  0  0
  -76.7010   14.1310   58.0870 O   0  0  0  0  0
  -79.8060   12.7390   51.4610 F   0  0  0  0  0
  -75.6840   10.5600   51.8470 F   0  0  0  0  0
  -76.9120   14.4130   55.7250 C   0  0  0  0  0
  -77.4250   12.9670   55.6820 C   0  0  0  0  0
  -77.5640   12.4550   54.2720 C   0  0  0  0  0
  -77.7460   11.6400   51.6020 C   0  0  0  0  0
  -78.6710   12.7990   53.5060 C   0  0  0  0  0
  -76.5570   11.6870   53.7020 C   0  0  0  0  0
  -78.7250   12.3850   52.2010 C   0  0  0  0  0
  -76.6780   11.3070   52.3920 C   0  0  0  0  0
  -76.9470   16.2450   57.3270 N   0  0  0  0  0
  -76.6850   16.8770   58.6080 C   0  0  0  0  0
  -77.8370   17.8370   58.9280 C   0  0  0  0  0
  -78.2440   18.6360   58.0850 O   0  0  0  0  0
  -75.2810   17.4930   58.6200 C   0  0  0  0  0
  -74.1890   16.5160   58.6590 O   0  0  0  0  0
  -75.0820   18.5160   59.7130 C   0  0  0  0  0
  -78.4170   17.7470   60.1420 N   0  0  0  0  0
  -78.0310   16.7560   61.1580 C   0  0  0  0  0
  -78.4460   15.3370   60.7440 C   0  0  0  0  0
  -79.2200   15.1930   59.8170 O   0  0  0  0  0
  -78.8000   17.2100   62.4040 C   0  0  0  0  0
  -80.0060   17.9270   61.8530 C   0  0  0  0  0
  -79.4900   18.6340   60.6220 C   0  0  0  0  0
  -77.9460   14.2760   61.4090 N   0  0  0  0  0
  -74.8700   12.7390   62.4330 O   0  0  0  0  0
  -76.7040   14.2510   62.1920 C   0  0  0  0  0
  -75.5960   13.3440   61.6500 C   0  0  0  0  0
  -77.0300   13.8810   63.6370 C   0  0  0  0  0
  -77.6950   12.5130   63.6900 C   0  0  0  0  0
  -77.9910   12.0940   65.1240 C   0  0  0  0  0
  -78.9460   12.5400   62.8340 C   0  0  0  0  0
  -78.6570   12.9920   61.4050 C   0  0  0  0  0
  -75.4740   13.2420   60.3200 N   0  0  0  0  0
  -74.5080   12.3350   59.7190 C   0  0  0  0  0
  -74.0140   12.8290   58.3530 C   0  0  0  0  0
  -73.9180   12.0440   57.4290 O   0  0  0  0  0
  -75.1230   10.9540   59.5460 C   0  0  0  0  0
  -73.2540   13.9340   58.4150 N   0  0  0  0  0
  -73.0020   14.6890   59.6400 C   0  0  0  0  0
  -73.9730   15.8500   59.8110 C   0  0  0  0  0
  -74.4970   16.1140   60.8540 O   0  0  0  0  0
  -71.5650   15.1760   59.4470 C   0  0  0  0  0
  -71.4240   15.3460   57.9400 C   0  0  0  0  0
  -72.4900   14.4770   57.2820 C   0  0  0  0  0
  -73.2350   14.6277   54.0620 H   0  0  0  0  0
  -73.8799   17.4707   53.2215 H   0  0  0  0  0
  -71.9935   16.5354   51.6658 H   0  0  0  0  0
  -71.3615   15.7263   53.1652 H   0  0  0  0  0
  -71.6791   18.7103   52.7669 H   0  0  0  0  0
  -70.3624   17.0779   54.9630 H   0  0  0  0  0
  -70.4303   18.8545   54.8616 H   0  0  0  0  0
  -71.9273   17.9179   55.0914 H   0  0  0  0  0
  -69.2818   16.9782   52.7866 H   0  0  0  0  0
  -69.3981   18.8311   52.5957 H   0  0  0  0  0
  -70.2845   16.7371   50.6396 H   0  0  0  0  0
  -70.3955   18.5051   50.4574 H   0  0  0  0  0
  -68.8008   17.7163   50.5346 H   0  0  0  0  0
  -74.9799   13.6959   55.1543 H   0  0  0  0  0
  -77.6075   15.0362   55.1628 H   0  0  0  0  0
  -78.4087   12.9418   56.1508 H   0  0  0  0  0
  -76.7050   12.3358   56.2029 H   0  0  0  0  0
  -77.8121   11.3303   50.5590 H   0  0  0  0  0
  -79.4817   13.3875   53.9354 H   0  0  0  0  0
  -75.6859   11.3920   54.2870 H   0  0  0  0  0
  -77.2102   16.8272   56.5319 H   0  0  0  0  0
  -76.6654   16.1522   59.4219 H   0  0  0  0  0
  -75.2305   18.0002   57.6565 H   0  0  0  0  0
  -75.7952   19.3297   59.5815 H   0  0  0  0  0
  -75.2410   18.0450   60.6830 H   0  0  0  0  0
  -74.0667   18.9090   59.6605 H   0  0  0  0  0
  -76.9530   16.7084   61.3118 H   0  0  0  0  0
  -78.1983   17.8517   63.0477 H   0  0  0  0  0
  -79.0764   16.3726   63.0447 H   0  0  0  0  0
  -80.4358   18.6213   62.5750 H   0  0  0  0  0
  -80.8206   17.2410   61.6209 H   0  0  0  0  0
  -80.2671   18.7929   59.8743 H   0  0  0  0  0
  -79.1348   19.6419   60.8366 H   0  0  0  0  0
  -76.2910   15.2571   62.1192 H   0  0  0  0  0
  -77.7097   14.6252   64.0519 H   0  0  0  0  0
  -76.1067   13.8523   64.2157 H   0  0  0  0  0
  -77.0134   11.7625   63.2897 H   0  0  0  0  0
  -77.0591   12.0483   65.6875 H   0  0  0  0  0
  -78.6595   12.8222   65.5833 H   0  0  0  0  0
  -78.4655   11.1127   65.1239 H   0  0  0  0  0
  -79.6460   13.2475   63.2785 H   0  0  0  0  0
  -79.3518   11.5291   62.7945 H   0  0  0  0  0
  -78.0352   12.2431   60.9145 H   0  0  0  0  0
  -79.6005   13.1101   60.8721 H   0  0  0  0  0
  -76.0692   13.8105   59.7175 H   0  0  0  0  0
  -73.6542   12.2918   60.3952 H   0  0  0  0  0
  -75.4208   10.5657   60.5200 H   0  0  0  0  0
  -75.9974   11.0255   58.8992 H   0  0  0  0  0
  -74.3898   10.2850   59.0954 H   0  0  0  0  0
  -73.1390   14.0925   60.5419 H   0  0  0  0  0
  -70.8360   14.4732   59.8505 H   0  0  0  0  0
  -71.3708   16.1042   59.9844 H   0  0  0  0  0
  -70.4291   15.0440   57.6127 H   0  0  0  0  0
  -71.5559   16.3909   57.6592 H   0  0  0  0  0
  -73.1175   15.0427   56.5933 H   0  0  0  0  0
  -72.0583   13.6925   56.6604 H   0  0  0  0  0
  2  1  2  0  0  0
  2  3  1  0  0  0
 11  2  1  0  0  0
  3  4  2  0  0  0
  4  5  1  0  0  0
  5  6  1  0  0  0
  6  7  1  0  0  0
  6  8  1  0  0  0
  8  9  1  0  0  0
 10 12  2  0  0  0
 10 15  1  0  0  0
 23 10  1  0  0  0
 15 11  1  0  0  0
 21 13  1  0  0  0
 22 14  1  0  0  0
 15 16  1  0  0  0
 16 17  1  0  0  0
 17 19  4  0  0  0
 17 20  4  0  0  0
 21 18  4  0  0  0
 22 18  4  0  0  0
 19 21  4  0  0  0
 20 22  4  0  0  0
 24 23  1  0  0  0
 25 24  1  0  0  0
 24 27  1  0  0  0
 25 26  2  0  0  0
 30 25  1  0  0  0
 27 28  1  0  0  0
 27 29  1  0  0  0
 28 53  1  0  0  0
 31 30  1  0  0  0
 30 36  1  0  0  0
 32 31  1  0  0  0
 31 34  1  0  0  0
 32 33  2  0  0  0
 37 32  1  0  0  0
 34 35  1  0  0  0
 35 36  1  0  0  0
 39 37  1  0  0  0
 37 45  1  0  0  0
 40 38  2  0  0  0
 39 40  1  0  0  0
 39 41  1  0  0  0
 40 46  1  0  0  0
 41 42  1  0  0  0
 42 43  1  0  0  0
 42 44  1  0  0  0
 44 45  1  0  0  0
 46 47  1  0  0  0
 47 48  1  0  0  0
 47 50  1  0  0  0
 48 49  2  0  0  0
 48 51  1  0  0  0
 51 52  1  0  0  0
 51 57  1  0  0  0
 52 53  1  0  0  0
 52 55  1  0  0  0
 53 54  2  0  0  0
 55 56  1  0  0  0
 56 57  1  0  0  0
  3 58  1  0  0  0
  4 59  1  0  0  0
  5 60  1  0  0  0
  5 61  1  0  0  0
  6 62  1  0  0  0
  7 63  1  0  0  0
  7 64  1  0  0  0
  7 65  1  0  0  0
  8 66  1  0  0  0
  8 67  1  0  0  0
  9 68  1  0  0  0
  9 69  1  0  0  0
  9 70  1  0  0  0
 11 71  1  0  0  0
 15 72  1  0  0  0
 16 73  1  0  0  0
 16 74  1  0  0  0
 18 75  1  0  0  0
 19 76  1  0  0  0
 20 77  1  0  0  0
 23 78  1  0  0  0
 24 79  1  0  0  0
 27 80  1  0  0  0
 29 81  1  0  0  0
 29 82  1  0  0  0
 29 83  1  0  0  0
 31 84  1  0  0  0
 34 85  1  0  0  0
 34 86  1  0  0  0
 35 87  1  0  0  0
 35 88  1  0  0  0
 36 89  1  0  0  0
 36 90  1  0  0  0
 39 91  1  0  0  0
 41 92  1  0  0  0
 41 93  1  0  0  0
 42 94  1  0  0  0
 43 95  1  0  0  0
 43 96  1  0  0  0
 43 97  1  0  0  0
 44 98  1  0  0  0
 44 99  1  0  0  0
 45100  1  0  0  0
 45101  1  0  0  0
 46102  1  0  0  0
 47103  1  0  0  0
 50104  1  0  0  0
 50105  1  0  0  0
 50106  1  0  0  0
 52107  1  0  0  0
 55108  1  0  0  0
 55109  1  0  0  0
 56110  1  0  0  0
 56111  1  0  0  0
 57112  1  0  0  0
 57113  1  0  0  0
M  END
$$$$
