5ia4_ligand
  -I-interpret- 

 81 86  0  0  0  0  0  0  0  0999 V2000
   15.1840   -4.9890   99.9780 C   0  0  0  0  0
   13.8280   -4.7680  100.1590 C   0  0  0  0  0
   13.1680   -5.1760  101.3120 C   0  0  0  0  0
   13.9200   -5.8260  102.2920 C   0  0  0  0  0
   15.2960   -6.0460  102.1290 C   0  0  0  0  0
   15.9470   -5.6350  100.9570 C   0  0  0  0  0
   13.2790   -6.2210  103.3970 N   0  0  0  0  0
   13.9910   -6.8680  104.4170 C   0  0  0  0  0
   15.3640   -7.1080  104.2990 C   0  0  0  0  0
   16.0270   -6.6900  103.1440 C   0  0  0  0  0
   15.6650   -4.5340   98.7920 O   0  0  0  0  0
   17.0460   -4.7790   98.5010 C   0  0  0  0  0
   13.2150   -4.1250   99.1300 O   0  0  0  0  0
   17.3740   -6.8970  102.9180 O   0  0  0  0  0
   18.1430   -7.0980  104.0540 C   0  0  0  0  0
   18.4610   -6.0890  104.9450 C   0  0  0  0  0
   19.2160   -6.3580  106.0800 C   0  0  0  0  0
   19.7030   -7.6440  106.3540 C   0  0  0  0  0
   19.3810   -8.6690  105.4450 C   0  0  0  0  0
   18.6110   -8.3880  104.3000 C   0  0  0  0  0
   18.2770   -9.3560  103.4050 F   0  0  0  0  0
   20.4230   -7.7700  107.4960 N   0  0  0  0  0
   11.7850   -3.9730   99.2700 C   0  0  0  0  0
   11.2880   -3.4050   97.9360 C   0  0  0  0  0
   11.7340   -1.9360   97.8750 C   0  0  0  0  0
   11.2500   -1.2640   96.6600 N   0  3  0  0  0
   12.1370   -1.5340   95.5180 C   0  0  0  0  0
   11.6400   -0.7850   94.2800 C   0  0  0  0  0
   11.6230    0.6270   94.5580 O   0  0  0  0  0
   10.7050    0.9000   95.6290 C   0  0  0  0  0
   11.1820    0.1850   96.8930 C   0  0  0  0  0
   21.3530   -8.7370  107.6980 C   0  0  0  0  0
   22.0470   -8.7320  109.0700 C   0  0  0  0  0
   21.5380   -7.6760  110.0840 C   0  0  0  0  0
   22.0980   -7.7660  111.3220 N   0  0  0  0  0
   21.6960   -9.5690  106.8630 O   0  0  0  0  0
   20.6800   -6.8330  109.7640 O   0  0  0  0  0
   21.7390   -6.8940  112.2860 C   0  0  0  0  0
   20.4040   -6.5840  112.5380 C   0  0  0  0  0
   20.0330   -5.6780  113.5230 C   0  0  0  0  0
   21.0160   -5.0910  114.2910 C   0  0  0  0  0
   22.3540   -5.4130  114.0690 C   0  0  0  0  0
   22.7220   -6.3090  113.0740 C   0  0  0  0  0
   20.6380   -4.1780  115.2820 F   0  0  0  0  0
   23.5390   -9.1450  109.0760 C   0  0  0  0  0
   22.4720  -10.0980  109.6330 C   0  0  0  0  0
   12.1016   -4.9949  101.4462 H   0  0  0  0  0
   17.0127   -5.8130  100.8133 H   0  0  0  0  0
   13.4660   -7.1892  105.3166 H   0  0  0  0  0
   15.9079   -7.6137  105.0968 H   0  0  0  0  0
   17.6659   -4.3081   99.2640 H   0  0  0  0  0
   17.2295   -5.8534   98.4942 H   0  0  0  0  0
   17.2898   -4.3612   97.5242 H   0  0  0  0  0
   18.1159   -5.0727  104.7549 H   0  0  0  0  0
   19.4355   -5.5481  106.7756 H   0  0  0  0  0
   19.7294   -9.6855  105.6282 H   0  0  0  0  0
   20.2559   -7.0994  108.2462 H   0  0  0  0  0
   11.5378   -3.3091  100.0984 H   0  0  0  0  0
   11.3069   -4.9261   99.4959 H   0  0  0  0  0
   10.2028   -3.4804   97.8666 H   0  0  0  0  0
   11.7033   -3.9678   97.1000 H   0  0  0  0  0
   12.8237   -1.9104   97.8678 H   0  0  0  0  0
   11.3195   -1.4176   98.7396 H   0  0  0  0  0
   10.3218   -1.6262   96.4415 H   0  0  0  0  0
   12.1402   -2.6043   95.3120 H   0  0  0  0  0
   13.1451   -1.1973   95.7598 H   0  0  0  0  0
   10.6341   -1.1209   94.0279 H   0  0  0  0  0
   12.3046   -0.9849   93.4395 H   0  0  0  0  0
    9.7111    0.5429   95.3593 H   0  0  0  0  0
   10.6623    1.9740   95.8099 H   0  0  0  0  0
   12.1740    0.5511   97.1577 H   0  0  0  0  0
   10.4797    0.3840   97.7025 H   0  0  0  0  0
   22.7874   -8.4913  111.5197 H   0  0  0  0  0
   19.6278   -7.0670  111.9444 H   0  0  0  0  0
   18.9830   -5.4352  113.6860 H   0  0  0  0  0
   23.1250   -4.9533  114.6874 H   0  0  0  0  0
   23.7725   -6.5510  112.9128 H   0  0  0  0  0
   24.5024   -8.7306  109.3731 H   0  0  0  0  0
   24.3837   -9.1736  108.3877 H   0  0  0  0  0
   22.1839  -11.1444  109.5324 H   0  0  0  0  0
   22.3038  -10.6967  110.5282 H   0  0  0  0  0
  1  2  4  0  0  0
  1  6  4  0  0  0
  1 11  1  0  0  0
  2  3  4  0  0  0
  2 13  1  0  0  0
  3  4  4  0  0  0
  4  5  4  0  0  0
  4  7  4  0  0  0
  5  6  4  0  0  0
  5 10  4  0  0  0
  7  8  4  0  0  0
  8  9  4  0  0  0
  9 10  4  0  0  0
 10 14  1  0  0  0
 11 12  1  0  0  0
 13 23  1  0  0  0
 14 15  1  0  0  0
 15 16  4  0  0  0
 15 20  4  0  0  0
 16 17  4  0  0  0
 17 18  4  0  0  0
 18 19  4  0  0  0
 18 22  1  0  0  0
 19 20  4  0  0  0
 20 21  1  0  0  0
 22 32  1  0  0  0
 23 24  1  0  0  0
 24 25  1  0  0  0
 25 26  1  0  0  0
 26 27  1  0  0  0
 26 31  1  0  0  0
 27 28  1  0  0  0
 28 29  1  0  0  0
 29 30  1  0  0  0
 30 31  1  0  0  0
 32 33  1  0  0  0
 32 36  2  0  0  0
 33 34  1  0  0  0
 33 45  1  0  0  0
 33 46  1  0  0  0
 34 35  1  0  0  0
 34 37  2  0  0  0
 35 38  1  0  0  0
 38 39  4  0  0  0
 38 43  4  0  0  0
 39 40  4  0  0  0
 40 41  4  0  0  0
 41 42  4  0  0  0
 41 44  1  0  0  0
 42 43  4  0  0  0
 45 46  1  0  0  0
  3 47  1  0  0  0
  6 48  1  0  0  0
  8 49  1  0  0  0
  9 50  1  0  0  0
 12 51  1  0  0  0
 12 52  1  0  0  0
 12 53  1  0  0  0
 16 54  1  0  0  0
 17 55  1  0  0  0
 19 56  1  0  0  0
 22 57  1  0  0  0
 23 58  1  0  0  0
 23 59  1  0  0  0
 24 60  1  0  0  0
 24 61  1  0  0  0
 25 62  1  0  0  0
 25 63  1  0  0  0
 26 64  1  0  0  0
 27 65  1  0  0  0
 27 66  1  0  0  0
 28 67  1  0  0  0
 28 68  1  0  0  0
 30 69  1  0  0  0
 30 70  1  0  0  0
 31 71  1  0  0  0
 31 72  1  0  0  0
 35 73  1  0  0  0
 39 74  1  0  0  0
 40 75  1  0  0  0
 42 76  1  0  0  0
 43 77  1  0  0  0
 45 78  1  0  0  0
 45 79  1  0  0  0
 46 80  1  0  0  0
 46 81  1  0  0  0
M  END
$$$$
