3nan_ligand
  -I-interpret- 

142145  0  0  0  0  0  0  0  0999 V2000
   -4.5470    9.2310   84.7280 C   0  0  0  0  0
   -4.6190    7.6780   82.7720 O   0  0  0  0  0
   -4.2820    8.9990   83.2360 C   0  0  0  0  0
   -5.4240    8.8310   81.0350 O   0  0  0  0  0
   -2.8120    9.3030   82.9770 C   0  0  0  0  0
   -2.6910   10.3970   82.0520 O   0  0  0  0  0
   -2.2460    9.7380   84.3310 C   0  0  0  0  0
   -2.4800    8.7140   80.5890 O   0  0  0  0  0
   -3.2270    9.7380   85.3150 C   0  0  0  0  0
   -1.8940    9.4030   87.3630 O   0  0  0  0  0
   -2.9230   10.1900   86.7440 C   0  0  0  0  0
   -4.5740    8.6650   87.6610 O   0  0  0  0  0
   -4.1000   10.0110   87.6970 C   0  0  0  0  0
   -4.8450   12.3050   87.1040 O   0  0  0  0  0
   -5.2550   10.9590   87.3910 C   0  0  0  0  0
   -5.4030   12.6980   89.2410 O   0  0  0  0  0
   -6.1870   10.3550   86.3350 C   0  0  0  0  0
   -6.6890    9.8290   84.0350 O   0  0  0  0  0
   -5.6460   10.2800   84.9030 C   0  0  0  0  0
   -7.7780   11.7450   84.5050 O   0  0  0  0  0
   -3.3930   10.2280   89.0320 C   0  0  0  0  0
   -3.3100   11.6180   89.3470 O   0  0  0  0  0
   -2.0040    9.6820   88.6930 C   0  0  0  0  0
   -1.1150    9.4850   89.5130 O   0  0  0  0  0
   -5.1540    7.7300   81.5230 C   0  0  0  0  0
   -5.5040    6.4370   80.7810 C   0  0  0  0  0
   -5.9520    6.6510   79.3310 C   0  0  0  0  0
   -4.8090    6.4920   78.3220 C   0  0  0  0  0
   -5.3210    6.5610   76.8810 C   0  0  0  0  0
   -4.2270    6.1950   75.8740 C   0  0  0  0  0
   -4.7820    6.1770   74.4490 C   0  0  0  0  0
   -5.2860    7.5670   74.0560 C   0  0  0  0  0
   -2.5600    9.9260   80.7810 C   0  0  0  0  0
   -2.4650   10.9100   79.6120 C   0  0  0  0  0
   -2.4580   10.3800   78.1770 C   0  0  0  0  0
   -2.3880   12.2790   79.8410 C   0  0  0  0  0
   -2.3940   12.8340   81.2660 C   0  0  0  0  0
   -0.7770   10.0910   84.5790 C   0  0  0  0  0
   -4.9370   13.1280   88.1840 C   0  0  0  0  0
   -4.5200   14.5970   88.0640 C   0  0  0  0  0
   -4.6100   15.3390   89.4010 C   0  0  0  0  0
   -3.3150   15.2640   90.2130 C   0  0  0  0  0
   -5.1300   11.6480   84.4570 C   0  0  0  0  0
   -7.7610   10.6590   83.9280 C   0  0  0  0  0
   -8.9860   10.1860   83.1450 C   0  0  0  0  0
   -4.0310    9.4300   90.1690 C   0  0  0  0  0
    7.7210   23.2630   82.8810 C   0  0  0  0  0
    6.3460   22.6570   83.1720 C   0  0  0  0  0
    5.6660   22.3010   81.8480 C   0  0  0  0  0
    5.5070   23.6660   83.9590 C   0  0  0  0  0
    6.5410   21.4730   83.9550 O   0  0  0  0  0
    5.3930   20.8330   84.3160 C   0  0  0  0  0
    5.4990   19.7840   84.9400 O   0  0  0  0  0
    4.2100   21.3440   83.9720 N   0  0  0  0  0
    2.9070   20.7430   84.2930 C   0  0  0  0  0
    2.9950   19.2720   84.7090 C   0  0  0  0  0
    3.0980   19.1220   86.2290 C   0  0  0  0  0
    2.1080   18.0710   86.7400 C   0  0  0  0  0
    0.6710   18.5120   86.4490 C   0  0  0  0  0
   -0.3710   17.4520   86.8180 C   0  0  0  0  0
   -0.9270   17.5210   88.2480 C   0  0  0  0  0
   -1.7350   16.4500   88.6240 C   0  0  0  0  0
   -2.3900   16.4270   89.8500 C   0  0  0  0  0
   -2.2330   17.4900   90.7350 C   0  0  0  0  0
   -1.4250   18.5580   90.3780 C   0  0  0  0  0
   -0.7790   18.5720   89.1390 C   0  0  0  0  0
   -0.0090   19.6470   88.8180 O   0  0  0  0  0
   -4.8795    8.3211   85.2276 H   0  0  0  0  0
   -4.9366    9.6633   82.6718 H   0  0  0  0  0
   -2.2914    8.4418   82.5581 H   0  0  0  0  0
   -2.6467   11.2360   86.6116 H   0  0  0  0  0
   -5.3135    8.5711   88.2659 H   0  0  0  0  0
   -5.8343   11.0634   88.3084 H   0  0  0  0  0
   -7.0580   11.0090   86.2934 H   0  0  0  0  0
   -6.3636    9.3247   86.6439 H   0  0  0  0  0
   -2.8624   11.7279   90.1891 H   0  0  0  0  0
   -6.3368    5.9754   81.3116 H   0  0  0  0  0
   -4.6017    5.8260   80.7535 H   0  0  0  0  0
   -6.3301    7.6699   79.2470 H   0  0  0  0  0
   -6.7053    5.8974   79.1013 H   0  0  0  0  0
   -4.3435    5.5187   78.4773 H   0  0  0  0  0
   -4.0972    7.3031   78.4752 H   0  0  0  0  0
   -5.6455    7.5820   76.6800 H   0  0  0  0  0
   -6.1398    5.8497   76.7727 H   0  0  0  0  0
   -3.8464    5.2024   76.1148 H   0  0  0  0  0
   -3.4334    6.9399   75.9320 H   0  0  0  0  0
   -5.6113    5.4714   74.3997 H   0  0  0  0  0
   -3.9892    5.8795   73.7627 H   0  0  0  0  0
   -6.0761    7.8729   74.7417 H   0  0  0  0  0
   -4.4622    8.2789   74.1080 H   0  0  0  0  0
   -5.6775    7.5361   73.0392 H   0  0  0  0  0
   -3.3106   10.7898   77.6355 H   0  0  0  0  0
   -1.5338   10.6817   77.6841 H   0  0  0  0  0
   -2.5246    9.2921   78.1925 H   0  0  0  0  0
   -2.3226   12.9642   78.9958 H   0  0  0  0  0
   -3.3181   12.5415   81.7646 H   0  0  0  0  0
   -1.5414   12.4333   81.8142 H   0  0  0  0  0
   -2.3268   13.9214   81.2313 H   0  0  0  0  0
   -0.7088   11.1102   84.9594 H   0  0  0  0  0
   -0.3571    9.4001   85.3100 H   0  0  0  0  0
   -0.2230   10.0131   83.6435 H   0  0  0  0  0
   -5.1963   15.0838   87.3613 H   0  0  0  0  0
   -3.4829   14.6275   87.7299 H   0  0  0  0  0
   -5.3990   14.8702   89.9891 H   0  0  0  0  0
   -4.8074   16.3892   89.1860 H   0  0  0  0  0
   -2.8093   14.3248   89.9889 H   0  0  0  0  0
   -3.5575   15.3211   91.2742 H   0  0  0  0  0
   -5.9446   12.3713   84.4923 H   0  0  0  0  0
   -4.3292   11.9679   85.1237 H   0  0  0  0  0
   -4.7495   11.5768   83.4381 H   0  0  0  0  0
   -9.8398   10.1122   83.8185 H   0  0  0  0  0
   -9.2074   10.9009   82.3526 H   0  0  0  0  0
   -8.7810    9.2088   82.7077 H   0  0  0  0  0
   -5.0710    9.7346   90.2860 H   0  0  0  0  0
   -3.9868    8.3665   89.9342 H   0  0  0  0  0
   -3.4886    9.6218   91.0948 H   0  0  0  0  0
    8.3286   22.5384   82.3389 H   0  0  0  0  0
    7.5999   24.1620   82.2767 H   0  0  0  0  0
    8.2103   23.5186   83.8209 H   0  0  0  0  0
    5.5504   23.2026   81.2464 H   0  0  0  0  0
    6.2792   21.5790   81.3087 H   0  0  0  0  0
    4.6858   21.8688   82.0492 H   0  0  0  0  0
    6.0095   23.9011   84.8972 H   0  0  0  0  0
    5.3890   24.5759   83.3706 H   0  0  0  0  0
    4.5269   23.2372   84.1678 H   0  0  0  0  0
    4.2091   22.2181   83.4463 H   0  0  0  0  0
    2.2944   20.7915   83.3927 H   0  0  0  0  0
    2.4910   21.2961   85.1351 H   0  0  0  0  0
    3.8884   18.8394   84.2587 H   0  0  0  0  0
    2.0909   18.7642   84.3731 H   0  0  0  0  0
    2.8644   20.0801   86.6934 H   0  0  0  0  0
    4.1095   18.8051   86.4832 H   0  0  0  0  0
    2.2345   17.9554   87.8164 H   0  0  0  0  0
    2.2999   17.1246   86.2344 H   0  0  0  0  0
    0.5918   18.6944   85.3773 H   0  0  0  0  0
    0.4688   19.3980   87.0509 H   0  0  0  0  0
    0.1301   16.4879   86.7313 H   0  0  0  0  0
   -1.2191   17.6127   86.1524 H   0  0  0  0  0
   -1.8565   15.6098   87.9403 H   0  0  0  0  0
   -2.7407   17.4825   91.6995 H   0  0  0  0  0
   -1.2927   19.3917   91.0676 H   0  0  0  0  0
   -0.0184   20.2743   89.5446 H   0  0  0  0  0
  1  3  1  0  0  0
  1  9  1  0  0  0
 19  1  1  0  0  0
  3  2  1  0  0  0
  2 25  1  0  0  0
  3  5  1  0  0  0
 25  4  2  0  0  0
  5  6  1  0  0  0
  7  5  1  0  0  0
  6 33  1  0  0  0
  9  7  2  0  0  0
  7 38  1  0  0  0
 33  8  2  0  0  0
 11  9  1  0  0  0
 11 10  1  0  0  0
 23 10  1  0  0  0
 13 11  1  0  0  0
 13 12  1  0  0  0
 15 13  1  0  0  0
 13 21  1  0  0  0
 14 15  1  0  0  0
 39 14  1  0  0  0
 15 17  1  0  0  0
 39 16  2  0  0  0
 17 19  1  0  0  0
 19 18  1  0  0  0
 18 44  1  0  0  0
 19 43  1  0  0  0
 44 20  2  0  0  0
 21 22  1  0  0  0
 21 23  1  0  0  0
 21 46  1  0  0  0
 23 24  2  0  0  0
 25 26  1  0  0  0
 26 27  1  0  0  0
 27 28  1  0  0  0
 28 29  1  0  0  0
 29 30  1  0  0  0
 30 31  1  0  0  0
 31 32  1  0  0  0
 33 34  1  0  0  0
 34 35  1  0  0  0
 34 36  2  0  0  0
 36 37  1  0  0  0
 40 39  1  0  0  0
 41 40  1  0  0  0
 42 41  1  0  0  0
 63 42  1  0  0  0
 44 45  1  0  0  0
 48 47  1  0  0  0
 48 49  1  0  0  0
 48 50  1  0  0  0
 51 48  1  0  0  0
 52 51  1  0  0  0
 52 53  2  0  0  0
 54 52  1  0  0  0
 55 54  1  0  0  0
 56 55  1  0  0  0
 57 56  1  0  0  0
 58 57  1  0  0  0
 59 58  1  0  0  0
 60 59  1  0  0  0
 61 60  1  0  0  0
 62 61  4  0  0  0
 61 66  4  0  0  0
 62 63  4  0  0  0
 63 64  4  0  0  0
 64 65  4  0  0  0
 65 66  4  0  0  0
 66 67  1  0  0  0
  1 68  1  0  0  0
  3 69  1  0  0  0
  5 70  1  0  0  0
 11 71  1  0  0  0
 12 72  1  0  0  0
 15 73  1  0  0  0
 17 74  1  0  0  0
 17 75  1  0  0  0
 22 76  1  0  0  0
 26 77  1  0  0  0
 26 78  1  0  0  0
 27 79  1  0  0  0
 27 80  1  0  0  0
 28 81  1  0  0  0
 28 82  1  0  0  0
 29 83  1  0  0  0
 29 84  1  0  0  0
 30 85  1  0  0  0
 30 86  1  0  0  0
 31 87  1  0  0  0
 31 88  1  0  0  0
 32 89  1  0  0  0
 32 90  1  0  0  0
 32 91  1  0  0  0
 35 92  1  0  0  0
 35 93  1  0  0  0
 35 94  1  0  0  0
 36 95  1  0  0  0
 37 96  1  0  0  0
 37 97  1  0  0  0
 37 98  1  0  0  0
 38 99  1  0  0  0
 38100  1  0  0  0
 38101  1  0  0  0
 40102  1  0  0  0
 40103  1  0  0  0
 41104  1  0  0  0
 41105  1  0  0  0
 42106  1  0  0  0
 42107  1  0  0  0
 43108  1  0  0  0
 43109  1  0  0  0
 43110  1  0  0  0
 45111  1  0  0  0
 45112  1  0  0  0
 45113  1  0  0  0
 46114  1  0  0  0
 46115  1  0  0  0
 46116  1  0  0  0
 47117  1  0  0  0
 47118  1  0  0  0
 47119  1  0  0  0
 49120  1  0  0  0
 49121  1  0  0  0
 49122  1  0  0  0
 50123  1  0  0  0
 50124  1  0  0  0
 50125  1  0  0  0
 54126  1  0  0  0
 55127  1  0  0  0
 55128  1  0  0  0
 56129  1  0  0  0
 56130  1  0  0  0
 57131  1  0  0  0
 57132  1  0  0  0
 58133  1  0  0  0
 58134  1  0  0  0
 59135  1  0  0  0
 59136  1  0  0  0
 60137  1  0  0  0
 60138  1  0  0  0
 62139  1  0  0  0
 64140  1  0  0  0
 65141  1  0  0  0
 67142  1  0  0  0
M  END
$$$$
