### 
### Created by X-TOOL on Mon Sep 10 21:13:04 2018
### 

@<TRIPOS>MOLECULE
3nan_ligand
  142   145     1     0     0
SMALL
GAST_HUCK


@<TRIPOS>ATOM
      1 C1         -4.5470    9.2310   84.7280 C.3       1 HZ1         0.0447
      2 O1         -4.6190    7.6780   82.7720 O.3       1 HZ1        -0.2670
      3 C2         -4.2820    8.9990   83.2360 C.3       1 HZ1         0.1334
      4 O2         -5.4240    8.8310   81.0350 O.2       1 HZ1        -0.3704
      5 C3         -2.8120    9.3030   82.9770 C.3       1 HZ1         0.1334
      6 O3         -2.6910   10.3970   82.0520 O.3       1 HZ1        -0.2673
      7 C4         -2.2460    9.7380   84.3310 C.2       1 HZ1        -0.0534
      8 O4         -2.4800    8.7140   80.5890 O.2       1 HZ1        -0.3692
      9 C5         -3.2270    9.7380   85.3150 C.2       1 HZ1        -0.0420
     10 O5         -1.8940    9.4030   87.3630 O.3       1 HZ1        -0.2615
     11 C6         -2.9230   10.1900   86.7440 C.3       1 HZ1         0.1362
     12 O6         -4.5740    8.6650   87.6610 O.3       1 HZ1        -0.3796
     13 C7         -4.1000   10.0110   87.6970 C.3       1 HZ1         0.1681
     14 O7         -4.8450   12.3050   87.1040 O.3       1 HZ1        -0.2704
     15 C8         -5.2550   10.9590   87.3910 C.3       1 HZ1         0.1251
     16 O8         -5.4030   12.6980   89.2410 O.2       1 HZ1        -0.3704
     17 C9         -6.1870   10.3550   86.3350 C.3       1 HZ1         0.0159
     18 O9         -6.6890    9.8290   84.0350 O.3       1 HZ1        -0.2687
     19 C10        -5.6460   10.2800   84.9030 C.3       1 HZ1         0.1089
     20 O10        -7.7780   11.7450   84.5050 O.2       1 HZ1        -0.3707
     21 C11        -3.3930   10.2280   89.0320 C.3       1 HZ1         0.1892
     22 O11        -3.3100   11.6180   89.3470 O.3       1 HZ1        -0.3810
     23 C12        -2.0040    9.6820   88.6930 C.2       1 HZ1         0.2925
     24 O12        -1.1150    9.4850   89.5130 O.2       1 HZ1        -0.3091
     25 C13        -5.1540    7.7300   81.5230 C.2       1 HZ1         0.2343
     26 C14        -5.5040    6.4370   80.7810 C.3       1 HZ1         0.0487
     27 C15        -5.9520    6.6510   79.3310 C.3       1 HZ1        -0.0348
     28 C16        -4.8090    6.4920   78.3220 C.3       1 HZ1        -0.0509
     29 C17        -5.3210    6.5610   76.8810 C.3       1 HZ1        -0.0529
     30 C18        -4.2270    6.1950   75.8740 C.3       1 HZ1        -0.0533
     31 C19        -4.7820    6.1770   74.4490 C.3       1 HZ1        -0.0559
     32 C20        -5.2860    7.5670   74.0560 C.3       1 HZ1        -0.0653
     33 C21        -2.5600    9.9260   80.7810 C.2       1 HZ1         0.2459
     34 C22        -2.4650   10.9100   79.6120 C.2       1 HZ1         0.0233
     35 C23        -2.4580   10.3800   78.1770 C.3       1 HZ1        -0.0325
     36 C24        -2.3880   12.2790   79.8410 C.2       1 HZ1        -0.0694
     37 C25        -2.3940   12.8340   81.2660 C.3       1 HZ1        -0.0369
     38 C26        -0.7770   10.0910   84.5790 C.3       1 HZ1        -0.0476
     39 C27        -4.9370   13.1280   88.1840 C.2       1 HZ1         0.2342
     40 C28        -4.5200   14.5970   88.0640 C.3       1 HZ1         0.0503
     41 C29        -4.6100   15.3390   89.4010 C.3       1 HZ1        -0.0265
     42 C30        -3.3150   15.2640   90.2130 C.3       1 HZ1        -0.0236
     43 C31        -5.1300   11.6480   84.4570 C.3       1 HZ1        -0.0295
     44 C32        -7.7610   10.6590   83.9280 C.2       1 HZ1         0.2313
     45 C33        -8.9860   10.1860   83.1450 C.3       1 HZ1         0.0372
     46 C34        -4.0310    9.4300   90.1690 C.3       1 HZ1        -0.0250
     47 C40         7.7210   23.2630   82.8810 C.3       1 HZ1        -0.0320
     48 C41         6.3460   22.6570   83.1720 C.3       1 HZ1         0.0905
     49 C42         5.6660   22.3010   81.8480 C.3       1 HZ1        -0.0320
     50 C43         5.5070   23.6660   83.9590 C.3       1 HZ1        -0.0320
     51 O44         6.5410   21.4730   83.9550 O.3       1 HZ1        -0.2581
     52 C45         5.3930   20.8330   84.3160 C.2       1 HZ1         0.3200
     53 O46         5.4990   19.7840   84.9400 O.2       1 HZ1        -0.3775
     54 N47         4.2100   21.3440   83.9720 N.am      1 HZ1        -0.2625
     55 C48         2.9070   20.7430   84.2930 C.3       1 HZ1         0.0328
     56 C49         2.9950   19.2720   84.7090 C.3       1 HZ1        -0.0328
     57 C50         3.0980   19.1220   86.2290 C.3       1 HZ1        -0.0511
     58 C51         2.1080   18.0710   86.7400 C.3       1 HZ1        -0.0514
     59 C52         0.6710   18.5120   86.4490 C.3       1 HZ1        -0.0449
     60 C53        -0.3710   17.4520   86.8180 C.3       1 HZ1        -0.0225
     61 C54        -0.9270   17.5210   88.2480 C.ar      1 HZ1        -0.0203
     62 C55        -1.7350   16.4500   88.6240 C.ar      1 HZ1        -0.0670
     63 C56        -2.3900   16.4270   89.8500 C.ar      1 HZ1        -0.0603
     64 C57        -2.2330   17.4900   90.7350 C.ar      1 HZ1        -0.0758
     65 C58        -1.4250   18.5580   90.3780 C.ar      1 HZ1        -0.0463
     66 C59        -0.7790   18.5720   89.1390 C.ar      1 HZ1         0.0821
     67 O60        -0.0090   19.6470   88.8180 O.3       1 HZ1        -0.3413
     68 H          -4.8795    8.3211   85.2276 H         1 HZ1         0.0463
     69 H          -4.9366    9.6633   82.6718 H         1 HZ1         0.0717
     70 H          -2.2914    8.4418   82.5581 H         1 HZ1         0.0779
     71 H          -2.6467   11.2360   86.6116 H         1 HZ1         0.0779
     72 H          -3.8671    8.0709   87.9234 H         1 HZ1         0.2105
     73 H          -5.8343   11.0634   88.3084 H         1 HZ1         0.0681
     74 H          -7.0580   11.0090   86.2934 H         1 HZ1         0.0327
     75 H          -6.3636    9.3247   86.6439 H         1 HZ1         0.0327
     76 H          -4.1950   11.9856   89.4034 H         1 HZ1         0.2079
     77 H          -6.3368    5.9754   81.3116 H         1 HZ1         0.0518
     78 H          -4.6017    5.8260   80.7535 H         1 HZ1         0.0518
     79 H          -6.3301    7.6699   79.2470 H         1 HZ1         0.0291
     80 H          -6.7053    5.8974   79.1013 H         1 HZ1         0.0291
     81 H          -4.3435    5.5187   78.4773 H         1 HZ1         0.0267
     82 H          -4.0972    7.3031   78.4752 H         1 HZ1         0.0267
     83 H          -5.6455    7.5820   76.6800 H         1 HZ1         0.0265
     84 H          -6.1398    5.8497   76.7727 H         1 HZ1         0.0265
     85 H          -3.8464    5.2024   76.1148 H         1 HZ1         0.0265
     86 H          -3.4334    6.9399   75.9320 H         1 HZ1         0.0265
     87 H          -5.6113    5.4714   74.3997 H         1 HZ1         0.0263
     88 H          -3.9892    5.8795   73.7627 H         1 HZ1         0.0263
     89 H          -6.0761    7.8729   74.7417 H         1 HZ1         0.0230
     90 H          -4.4622    8.2789   74.1080 H         1 HZ1         0.0230
     91 H          -5.6775    7.5361   73.0392 H         1 HZ1         0.0230
     92 H          -3.3106   10.7898   77.6355 H         1 HZ1         0.0347
     93 H          -1.5338   10.6817   77.6841 H         1 HZ1         0.0347
     94 H          -2.5246    9.2921   78.1925 H         1 HZ1         0.0347
     95 H          -2.3226   12.9642   78.9958 H         1 HZ1         0.0645
     96 H          -3.3181   12.5415   81.7646 H         1 HZ1         0.0404
     97 H          -1.5414   12.4333   81.8142 H         1 HZ1         0.0404
     98 H          -2.3268   13.9214   81.2313 H         1 HZ1         0.0404
     99 H          -0.7088   11.1102   84.9594 H         1 HZ1         0.0330
    100 H          -0.3571    9.4001   85.3100 H         1 HZ1         0.0330
    101 H          -0.2230   10.0131   83.6435 H         1 HZ1         0.0330
    102 H          -5.1963   15.0838   87.3613 H         1 HZ1         0.0520
    103 H          -3.4829   14.6275   87.7299 H         1 HZ1         0.0520
    104 H          -5.3990   14.8702   89.9891 H         1 HZ1         0.0310
    105 H          -4.8074   16.3892   89.1860 H         1 HZ1         0.0310
    106 H          -2.8093   14.3248   89.9889 H         1 HZ1         0.0406
    107 H          -3.5575   15.3211   91.2742 H         1 HZ1         0.0406
    108 H          -5.9446   12.3713   84.4923 H         1 HZ1         0.0262
    109 H          -4.3292   11.9679   85.1237 H         1 HZ1         0.0262
    110 H          -4.7495   11.5768   83.4381 H         1 HZ1         0.0262
    111 H          -9.8398   10.1122   83.8185 H         1 HZ1         0.0483
    112 H          -9.2074   10.9009   82.3526 H         1 HZ1         0.0483
    113 H          -8.7810    9.2088   82.7077 H         1 HZ1         0.0483
    114 H          -5.0710    9.7346   90.2860 H         1 HZ1         0.0244
    115 H          -3.9868    8.3665   89.9342 H         1 HZ1         0.0244
    116 H          -3.4886    9.6218   91.0948 H         1 HZ1         0.0244
    117 H           8.3286   22.5384   82.3389 H         1 HZ1         0.0260
    118 H           7.5999   24.1620   82.2767 H         1 HZ1         0.0260
    119 H           8.2103   23.5186   83.8209 H         1 HZ1         0.0260
    120 H           5.5504   23.2026   81.2464 H         1 HZ1         0.0260
    121 H           6.2792   21.5790   81.3087 H         1 HZ1         0.0260
    122 H           4.6858   21.8688   82.0492 H         1 HZ1         0.0260
    123 H           6.0095   23.9011   84.8972 H         1 HZ1         0.0260
    124 H           5.3890   24.5759   83.3706 H         1 HZ1         0.0260
    125 H           4.5269   23.2372   84.1678 H         1 HZ1         0.0260
    126 H           4.2091   22.2181   83.4463 H         1 HZ1         0.1867
    127 H           2.2944   20.7915   83.3927 H         1 HZ1         0.0519
    128 H           2.4910   21.2961   85.1351 H         1 HZ1         0.0519
    129 H           3.8884   18.8394   84.2587 H         1 HZ1         0.0284
    130 H           2.0909   18.7642   84.3731 H         1 HZ1         0.0284
    131 H           2.8644   20.0801   86.6934 H         1 HZ1         0.0266
    132 H           4.1095   18.8051   86.4832 H         1 HZ1         0.0266
    133 H           2.2345   17.9554   87.8164 H         1 HZ1         0.0267
    134 H           2.2999   17.1246   86.2344 H         1 HZ1         0.0267
    135 H           0.5918   18.6944   85.3773 H         1 HZ1         0.0285
    136 H           0.4688   19.3980   87.0509 H         1 HZ1         0.0285
    137 H           0.1301   16.4879   86.7313 H         1 HZ1         0.0402
    138 H          -1.2191   17.6127   86.1524 H         1 HZ1         0.0402
    139 H          -1.8565   15.6098   87.9403 H         1 HZ1         0.0467
    140 H          -2.7407   17.4825   91.6995 H         1 HZ1         0.0472
    141 H          -1.2927   19.3917   91.0676 H         1 HZ1         0.0505
    142 H           0.3689   19.5192   87.9448 H         1 HZ1         0.2433
@<TRIPOS>BOND
     1    1    3 1  
     2    1    9 1  
     3   19    1 1  
     4    3    2 1  
     5    2   25 1  
     6    3    5 1  
     7   25    4 2  
     8    5    6 1  
     9    7    5 1  
    10    6   33 1  
    11    9    7 2  
    12    7   38 1  
    13   33    8 2  
    14   11    9 1  
    15   11   10 1  
    16   23   10 1  
    17   13   11 1  
    18   13   12 1  
    19   15   13 1  
    20   13   21 1  
    21   14   15 1  
    22   39   14 1  
    23   15   17 1  
    24   39   16 2  
    25   17   19 1  
    26   19   18 1  
    27   18   44 1  
    28   19   43 1  
    29   44   20 2  
    30   21   22 1  
    31   21   23 1  
    32   21   46 1  
    33   23   24 2  
    34   25   26 1  
    35   26   27 1  
    36   27   28 1  
    37   28   29 1  
    38   29   30 1  
    39   30   31 1  
    40   31   32 1  
    41   33   34 1  
    42   34   35 1  
    43   34   36 2  
    44   36   37 1  
    45   40   39 1  
    46   41   40 1  
    47   42   41 1  
    48   63   42 1  
    49   44   45 1  
    50   48   47 1  
    51   48   49 1  
    52   48   50 1  
    53   51   48 1  
    54   52   51 1  
    55   52   53 2  
    56   54   52 am 
    57   55   54 1  
    58   56   55 1  
    59   57   56 1  
    60   58   57 1  
    61   59   58 1  
    62   60   59 1  
    63   61   60 1  
    64   62   61 ar 
    65   61   66 ar 
    66   62   63 ar 
    67   63   64 ar 
    68   64   65 ar 
    69   65   66 ar 
    70   66   67 1  
    71    1   68 1  
    72    3   69 1  
    73    5   70 1  
    74   11   71 1  
    75   12   72 1  
    76   15   73 1  
    77   17   74 1  
    78   17   75 1  
    79   22   76 1  
    80   26   77 1  
    81   26   78 1  
    82   27   79 1  
    83   27   80 1  
    84   28   81 1  
    85   28   82 1  
    86   29   83 1  
    87   29   84 1  
    88   30   85 1  
    89   30   86 1  
    90   31   87 1  
    91   31   88 1  
    92   32   89 1  
    93   32   90 1  
    94   32   91 1  
    95   35   92 1  
    96   35   93 1  
    97   35   94 1  
    98   36   95 1  
    99   37   96 1  
   100   37   97 1  
   101   37   98 1  
   102   38   99 1  
   103   38  100 1  
   104   38  101 1  
   105   40  102 1  
   106   40  103 1  
   107   41  104 1  
   108   41  105 1  
   109   42  106 1  
   110   42  107 1  
   111   43  108 1  
   112   43  109 1  
   113   43  110 1  
   114   45  111 1  
   115   45  112 1  
   116   45  113 1  
   117   46  114 1  
   118   46  115 1  
   119   46  116 1  
   120   47  117 1  
   121   47  118 1  
   122   47  119 1  
   123   49  120 1  
   124   49  121 1  
   125   49  122 1  
   126   50  123 1  
   127   50  124 1  
   128   50  125 1  
   129   54  126 1  
   130   55  127 1  
   131   55  128 1  
   132   56  129 1  
   133   56  130 1  
   134   57  131 1  
   135   57  132 1  
   136   58  133 1  
   137   58  134 1  
   138   59  135 1  
   139   59  136 1  
   140   60  137 1  
   141   60  138 1  
   142   62  139 1  
   143   64  140 1  
   144   65  141 1  
   145   67  142 1  
@<TRIPOS>SUBSTRUCTURE
     1 HZ1         1

