### 
### Created by X-TOOL on Mon Sep 10 21:13:10 2018
### 

@<TRIPOS>MOLECULE
3vb6_ligand
   66    65     1     0     0
SMALL
GAST_HUCK


@<TRIPOS>ATOM
      1 N          -1.8720  -20.3410   36.9970 N.4       1 ALA         0.2377
      2 CA         -2.0290  -18.8910   36.9940 C.3       1 ALA         0.0621
      3 C          -1.2160  -18.2740   38.1120 C.2       1 ALA         0.2264
      4 O          -1.4930  -18.4920   39.2820 O.2       1 ALA        -0.3907
      5 CB         -3.5090  -18.5310   37.1270 C.3       1 ALA        -0.0040
      6 N          -0.1830  -17.4960   37.7620 N.am      1 VAL        -0.2608
      7 CA          0.6870  -16.8500   38.7520 C.3       1 VAL         0.1334
      8 C           0.5390  -15.3480   38.8140 C.2       1 VAL         0.2042
      9 O           1.2160  -14.6380   38.0790 O.2       1 VAL        -0.3944
     10 CB          2.1190  -17.1950   38.3320 C.3       1 VAL        -0.0063
     11 CG1         3.1470  -16.4380   39.1720 C.3       1 VAL        -0.0584
     12 CG2         2.3730  -18.7030   38.3770 C.3       1 VAL        -0.0584
     13 N          -0.3440  -14.8630   39.6980 N.am      1 LEU        -0.2637
     14 CA         -0.5890  -13.4300   39.8820 C.3       1 LEU         0.1313
     15 C           0.7000  -12.6540   40.0610 C.2       1 LEU         0.2048
     16 O           1.2260  -12.5410   41.1660 O.2       1 LEU        -0.3943
     17 CB         -1.4440  -13.3380   41.1540 C.3       1 LEU        -0.0101
     18 CG         -2.9370  -13.6060   40.9210 C.3       1 LEU        -0.0425
     19 CD1        -3.7740  -12.6870   41.7990 C.3       1 LEU        -0.0625
     20 CD2        -3.3780  -13.4440   39.4640 C.3       1 LEU        -0.0625
     21 C           2.4390   -9.8780   39.2550 C.2       1 0JU         0.0208
     22 NF          3.4150   -9.4210   39.9100 N.2       1 0JU        -0.3619
     23 CA          2.4670  -11.3470   38.8960 C.3       1 0JU         0.1028
     24 N           1.2160  -12.1130   38.9580 N.am      1 0JU        -0.2623
     25 CB          2.8320  -11.4500   37.4210 C.3       1 0JU         0.0052
     26 CG          4.3290  -11.5790   37.2120 C.3       1 0JU         0.0421
     27 CD          4.4630  -12.3410   35.9250 C.2       1 0JU         0.1738
     28 OE          3.6260  -12.1720   35.0540 O.2       1 0JU        -0.3973
     29 NE          5.4970  -13.1770   35.8280 N.am      1 0JU        -0.3009
     30 H          -0.8832  -20.5749   36.9081 H         1 ALA         0.2015
     31 H          -2.2347  -20.7192   37.8721 H         1 ALA         0.2015
     32 H          -2.3887  -20.7394   36.2129 H         1 ALA         0.2015
     33 H          -1.6602  -18.4904   36.0498 H         1 ALA         0.1095
     34 H          -3.8875  -18.9013   38.0797 H         1 ALA         0.0310
     35 H          -3.6233  -17.4478   37.0855 H         1 ALA         0.0310
     36 H          -4.0676  -18.9882   36.3103 H         1 ALA         0.0310
     37 H           0.0059  -17.3471   36.7708 H         1 VAL         0.1885
     38 H           0.4197  -17.2101   39.7455 H         1 VAL         0.0802
     39 H           2.2357  -16.8735   37.2971 H         1 VAL         0.0343
     40 H           2.9987  -15.3655   39.0457 H         1 VAL         0.0234
     41 H           3.0217  -16.7022   40.2221 H         1 VAL         0.0234
     42 H           4.1512  -16.7082   38.8453 H         1 VAL         0.0234
     43 H           2.2152  -19.0666   39.3924 H         1 VAL         0.0234
     44 H           1.6846  -19.2065   37.6983 H         1 VAL         0.0234
     45 H           3.3996  -18.9065   38.0723 H         1 VAL         0.0234
     46 H          -0.8707  -15.5230   40.2701 H         1 LEU         0.1883
     47 H          -1.0791  -12.9986   39.0092 H         1 LEU         0.0800
     48 H          -1.3528  -12.3200   41.5328 H         1 LEU         0.0315
     49 H          -1.0818  -14.1003   41.8437 H         1 LEU         0.0315
     50 H          -3.0964  -14.6516   41.1846 H         1 LEU         0.0298
     51 H          -3.5352  -12.8708   42.8465 H         1 LEU         0.0232
     52 H          -3.5524  -11.6489   41.5512 H         1 LEU         0.0232
     53 H          -4.8317  -12.8854   41.6259 H         1 LEU         0.0232
     54 H          -3.1784  -12.4237   39.1366 H         1 LEU         0.0232
     55 H          -2.8232  -14.1429   38.8380 H         1 LEU         0.0232
     56 H          -4.4452  -13.6505   39.3836 H         1 LEU         0.0232
     57 H           1.6072   -9.2388   38.9590 H         1 0JU         0.1225
     58 H           4.1832  -10.0367   40.1769 H         1 0JU         0.1054
     59 H           3.1484  -11.7595   39.6401 H         1 0JU         0.0841
     60 H           0.7007  -12.2413   38.0871 H         1 0JU         0.1897
     61 H           2.4961  -10.5405   36.9230 H         1 0JU         0.0348
     62 H           2.3536  -12.3406   37.0135 H         1 0JU         0.0348
     63 H           4.8155  -12.0902   38.0427 H         1 0JU         0.0505
     64 H           4.8208  -10.6074   37.1653 H         1 0JU         0.0505
     65 H           5.6283  -13.7296   34.9808 H         1 0JU         0.1814
     66 H           6.1568  -13.2640   36.6010 H         1 0JU         0.1814
@<TRIPOS>BOND
     1    2    1 1  
     2    3    2 1  
     3    2    5 1  
     4    3    4 2  
     5    6    3 am 
     6    7    6 1  
     7    8    7 1  
     8    7   10 1  
     9    8    9 2  
    10   13    8 am 
    11   10   11 1  
    12   10   12 1  
    13   14   13 1  
    14   15   14 1  
    15   14   17 1  
    16   15   16 2  
    17   24   15 am 
    18   17   18 1  
    19   18   19 1  
    20   18   20 1  
    21   21   22 2  
    22   23   21 1  
    23   23   24 1  
    24   23   25 1  
    25   25   26 1  
    26   26   27 1  
    27   27   28 2  
    28   27   29 am 
    29    1   30 1  
    30    1   31 1  
    31    1   32 1  
    32    2   33 1  
    33    5   34 1  
    34    5   35 1  
    35    5   36 1  
    36    6   37 1  
    37    7   38 1  
    38   10   39 1  
    39   11   40 1  
    40   11   41 1  
    41   11   42 1  
    42   12   43 1  
    43   12   44 1  
    44   12   45 1  
    45   13   46 1  
    46   14   47 1  
    47   17   48 1  
    48   17   49 1  
    49   18   50 1  
    50   19   51 1  
    51   19   52 1  
    52   19   53 1  
    53   20   54 1  
    54   20   55 1  
    55   20   56 1  
    56   21   57 1  
    57   22   58 1  
    58   23   59 1  
    59   24   60 1  
    60   25   61 1  
    61   25   62 1  
    62   26   63 1  
    63   26   64 1  
    64   29   65 1  
    65   29   66 1  
@<TRIPOS>SUBSTRUCTURE
     1 ALA         1

