3vb6_ligand
  -I-interpret- 

 66 65  0  0  0  0  0  0  0  0999 V2000
   -1.8720  -20.3410   36.9970 N   0  3  0  0  0
   -2.0290  -18.8910   36.9940 C   0  0  0  0  0
   -1.2160  -18.2740   38.1120 C   0  0  0  0  0
   -1.4930  -18.4920   39.2820 O   0  0  0  0  0
   -3.5090  -18.5310   37.1270 C   0  0  0  0  0
   -0.1830  -17.4960   37.7620 N   0  0  0  0  0
    0.6870  -16.8500   38.7520 C   0  0  0  0  0
    0.5390  -15.3480   38.8140 C   0  0  0  0  0
    1.2160  -14.6380   38.0790 O   0  0  0  0  0
    2.1190  -17.1950   38.3320 C   0  0  0  0  0
    3.1470  -16.4380   39.1720 C   0  0  0  0  0
    2.3730  -18.7030   38.3770 C   0  0  0  0  0
   -0.3440  -14.8630   39.6980 N   0  0  0  0  0
   -0.5890  -13.4300   39.8820 C   0  0  0  0  0
    0.7000  -12.6540   40.0610 C   0  0  0  0  0
    1.2260  -12.5410   41.1660 O   0  0  0  0  0
   -1.4440  -13.3380   41.1540 C   0  0  0  0  0
   -2.9370  -13.6060   40.9210 C   0  0  0  0  0
   -3.7740  -12.6870   41.7990 C   0  0  0  0  0
   -3.3780  -13.4440   39.4640 C   0  0  0  0  0
    2.4390   -9.8780   39.2550 C   0  0  0  0  0
    3.4150   -9.4210   39.9100 N   0  0  0  0  0
    2.4670  -11.3470   38.8960 C   0  0  0  0  0
    1.2160  -12.1130   38.9580 N   0  0  0  0  0
    2.8320  -11.4500   37.4210 C   0  0  0  0  0
    4.3290  -11.5790   37.2120 C   0  0  0  0  0
    4.4630  -12.3410   35.9250 C   0  0  0  0  0
    3.6260  -12.1720   35.0540 O   0  0  0  0  0
    5.4970  -13.1770   35.8280 N   0  0  0  0  0
   -0.8832  -20.5749   36.9081 H   0  0  0  0  0
   -2.2347  -20.7192   37.8721 H   0  0  0  0  0
   -2.3887  -20.7394   36.2129 H   0  0  0  0  0
   -1.6602  -18.4904   36.0498 H   0  0  0  0  0
   -3.8875  -18.9013   38.0797 H   0  0  0  0  0
   -3.6233  -17.4478   37.0855 H   0  0  0  0  0
   -4.0676  -18.9882   36.3103 H   0  0  0  0  0
    0.0059  -17.3471   36.7708 H   0  0  0  0  0
    0.4197  -17.2101   39.7455 H   0  0  0  0  0
    2.2357  -16.8735   37.2971 H   0  0  0  0  0
    2.9987  -15.3655   39.0457 H   0  0  0  0  0
    3.0217  -16.7022   40.2221 H   0  0  0  0  0
    4.1512  -16.7082   38.8453 H   0  0  0  0  0
    2.2152  -19.0666   39.3924 H   0  0  0  0  0
    1.6846  -19.2065   37.6983 H   0  0  0  0  0
    3.3996  -18.9065   38.0723 H   0  0  0  0  0
   -0.8707  -15.5230   40.2701 H   0  0  0  0  0
   -1.0791  -12.9986   39.0092 H   0  0  0  0  0
   -1.3528  -12.3200   41.5328 H   0  0  0  0  0
   -1.0818  -14.1003   41.8437 H   0  0  0  0  0
   -3.0964  -14.6516   41.1846 H   0  0  0  0  0
   -3.5352  -12.8708   42.8465 H   0  0  0  0  0
   -3.5524  -11.6489   41.5512 H   0  0  0  0  0
   -4.8317  -12.8854   41.6259 H   0  0  0  0  0
   -3.1784  -12.4237   39.1366 H   0  0  0  0  0
   -2.8232  -14.1429   38.8380 H   0  0  0  0  0
   -4.4452  -13.6505   39.3836 H   0  0  0  0  0
    1.6072   -9.2388   38.9590 H   0  0  0  0  0
    4.1832  -10.0367   40.1769 H   0  0  0  0  0
    3.1484  -11.7595   39.6401 H   0  0  0  0  0
    0.7007  -12.2413   38.0871 H   0  0  0  0  0
    2.4961  -10.5405   36.9230 H   0  0  0  0  0
    2.3536  -12.3406   37.0135 H   0  0  0  0  0
    4.8155  -12.0902   38.0427 H   0  0  0  0  0
    4.8208  -10.6074   37.1653 H   0  0  0  0  0
    5.6283  -13.7296   34.9808 H   0  0  0  0  0
    6.1568  -13.2640   36.6010 H   0  0  0  0  0
  2  1  1  0  0  0
  3  2  1  0  0  0
  2  5  1  0  0  0
  3  4  2  0  0  0
  6  3  1  0  0  0
  7  6  1  0  0  0
  8  7  1  0  0  0
  7 10  1  0  0  0
  8  9  2  0  0  0
 13  8  1  0  0  0
 10 11  1  0  0  0
 10 12  1  0  0  0
 14 13  1  0  0  0
 15 14  1  0  0  0
 14 17  1  0  0  0
 15 16  2  0  0  0
 24 15  1  0  0  0
 17 18  1  0  0  0
 18 19  1  0  0  0
 18 20  1  0  0  0
 21 22  2  0  0  0
 23 21  1  0  0  0
 23 24  1  0  0  0
 23 25  1  0  0  0
 25 26  1  0  0  0
 26 27  1  0  0  0
 27 28  2  0  0  0
 27 29  1  0  0  0
  1 30  1  0  0  0
  1 31  1  0  0  0
  1 32  1  0  0  0
  2 33  1  0  0  0
  5 34  1  0  0  0
  5 35  1  0  0  0
  5 36  1  0  0  0
  6 37  1  0  0  0
  7 38  1  0  0  0
 10 39  1  0  0  0
 11 40  1  0  0  0
 11 41  1  0  0  0
 11 42  1  0  0  0
 12 43  1  0  0  0
 12 44  1  0  0  0
 12 45  1  0  0  0
 13 46  1  0  0  0
 14 47  1  0  0  0
 17 48  1  0  0  0
 17 49  1  0  0  0
 18 50  1  0  0  0
 19 51  1  0  0  0
 19 52  1  0  0  0
 19 53  1  0  0  0
 20 54  1  0  0  0
 20 55  1  0  0  0
 20 56  1  0  0  0
 21 57  1  0  0  0
 22 58  1  0  0  0
 23 59  1  0  0  0
 24 60  1  0  0  0
 25 61  1  0  0  0
 25 62  1  0  0  0
 26 63  1  0  0  0
 26 64  1  0  0  0
 29 65  1  0  0  0
 29 66  1  0  0  0
M  END
$$$$
