6nvg_ligand
  -I-interpret- 

 54 56  0  0  0  0  0  0  0  0999 V2000
   22.2320   -3.7370   -6.3970 C   0  0  0  0  0
   20.9980   -4.3840   -6.3780 C   0  0  0  0  0
   19.9290   -3.9680   -7.1740 C   0  0  0  0  0
   20.1160   -2.8430   -7.9480 C   0  0  0  0  0
   21.3360   -2.1580   -7.9560 C   0  0  0  0  0
   22.3920   -2.6140   -7.1820 C   0  0  0  0  0
   23.2220   -4.1910   -5.5750 O   0  0  0  0  0
   21.4720   -1.0680   -8.7590 O   0  0  0  0  0
   24.5540   -4.2760   -6.0710 C   0  0  0  0  0
   22.6790   -0.3150   -8.6980 C   0  0  0  0  0
   20.8090   -5.8000   -5.4010 Cl  0  0  0  0  0
   18.8380   -2.3690   -9.0220 Cl  0  0  0  0  0
   18.6280   -4.7360   -7.2150 C   0  0  0  0  0
   18.8140   -5.9590   -7.9570 O   0  0  0  0  0
   17.9860   -7.0310   -7.7170 C   0  0  0  0  0
   16.7080   -6.9610   -7.1760 C   0  0  0  0  0
   15.9650   -8.0600   -7.0200 N   0  0  0  0  0
   16.5300   -9.2360   -7.3810 C   0  0  0  0  0
   17.7600   -9.3760   -7.9110 N   0  0  0  0  0
   18.4710   -8.2620   -8.0880 C   0  0  0  0  0
   15.8490  -10.3960   -7.1650 N   0  0  0  0  0
   14.5090  -10.5310   -6.7320 C   0  0  0  0  0
   13.5290  -10.9750   -7.6360 C   0  0  0  0  0
   12.2120  -11.0670   -7.1890 C   0  0  0  0  0
   11.8920  -10.6780   -5.8970 C   0  0  0  0  0
   12.8440  -10.1880   -5.0240 C   0  0  0  0  0
   14.1620  -10.1380   -5.4430 C   0  0  0  0  0
   13.9670  -11.4170   -8.9140 N   0  0  0  0  0
   13.2810  -11.3560  -10.0790 C   0  0  0  0  0
   13.9840  -11.9360  -11.2920 C   0  0  0  0  0
   15.4810  -11.6810  -11.3700 C   0  0  0  0  0
   12.1260  -10.9600  -10.1280 O   0  0  0  0  0
   15.3700   -9.5890   -4.3250 Cl  0  0  0  0  0
   10.2370  -10.7380   -5.3500 Cl  0  0  0  0  0
   23.3459   -2.0867   -7.1937 H   0  0  0  0  0
   24.5796   -4.9518   -6.9258 H   0  0  0  0  0
   24.8896   -3.2857   -6.3789 H   0  0  0  0  0
   25.2089   -4.6553   -5.2866 H   0  0  0  0  0
   22.8154    0.0692   -7.6871 H   0  0  0  0  0
   23.5199   -0.9569   -8.9606 H   0  0  0  0  0
   22.6225    0.5171   -9.3997 H   0  0  0  0  0
   17.8635   -4.1295   -7.7005 H   0  0  0  0  0
   18.3137   -4.9723   -6.1984 H   0  0  0  0  0
   16.3055   -5.9941   -6.8742 H   0  0  0  0  0
   19.4614   -8.3295   -8.5381 H   0  0  0  0  0
   16.3612  -11.2617   -7.3339 H   0  0  0  0  0
   11.4349  -11.4441   -7.8539 H   0  0  0  0  0
   12.5632   -9.8482   -4.0271 H   0  0  0  0  0
   14.9008  -11.8249   -8.9578 H   0  0  0  0  0
   13.5427  -11.4544  -12.1646 H   0  0  0  0  0
   13.8573  -13.0171  -11.2350 H   0  0  0  0  0
   15.6645  -10.6068  -11.3938 H   0  0  0  0  0
   15.9682  -12.1149  -10.4968 H   0  0  0  0  0
   15.8796  -12.1392  -12.2751 H   0  0  0  0  0
  1  2  4  0  0  0
  1  6  4  0  0  0
  1  7  1  0  0  0
  2  3  4  0  0  0
  2 11  1  0  0  0
  3  4  4  0  0  0
  3 13  1  0  0  0
  4  5  4  0  0  0
  4 12  1  0  0  0
  5  6  4  0  0  0
  5  8  1  0  0  0
  7  9  1  0  0  0
  8 10  1  0  0  0
 13 14  1  0  0  0
 14 15  1  0  0  0
 15 16  4  0  0  0
 15 20  4  0  0  0
 16 17  4  0  0  0
 17 18  4  0  0  0
 18 19  4  0  0  0
 18 21  1  0  0  0
 19 20  4  0  0  0
 21 22  1  0  0  0
 22 23  4  0  0  0
 22 27  4  0  0  0
 23 24  4  0  0  0
 23 28  1  0  0  0
 24 25  4  0  0  0
 25 26  4  0  0  0
 25 34  1  0  0  0
 26 27  4  0  0  0
 27 33  1  0  0  0
 28 29  1  0  0  0
 29 30  1  0  0  0
 29 32  2  0  0  0
 30 31  1  0  0  0
  6 35  1  0  0  0
  9 36  1  0  0  0
  9 37  1  0  0  0
  9 38  1  0  0  0
 10 39  1  0  0  0
 10 40  1  0  0  0
 10 41  1  0  0  0
 13 42  1  0  0  0
 13 43  1  0  0  0
 16 44  1  0  0  0
 20 45  1  0  0  0
 21 46  1  0  0  0
 24 47  1  0  0  0
 26 48  1  0  0  0
 28 49  1  0  0  0
 30 50  1  0  0  0
 30 51  1  0  0  0
 31 52  1  0  0  0
 31 53  1  0  0  0
 31 54  1  0  0  0
M  END
$$$$
