4l1u_ligand
  -I-interpret- 

123124  0  0  0  0  0  0  0  0999 V2000
  216.7040  -10.9870   61.4670 N   0  3  0  0  0
  217.7260  -11.3630   62.4270 C   0  0  0  0  0
  217.1910  -11.9400   63.7330 C   0  0  0  0  0
  216.0400  -12.3740   63.8020 O   0  0  0  0  0
  218.0420  -11.9350   64.7620 N   0  0  0  0  0
  217.7260  -12.4710   66.0950 C   0  0  0  0  0
  217.4000  -11.3330   67.0640 C   0  0  0  0  0
  218.2870  -10.5830   67.4820 O   0  0  0  0  0
  218.9150  -13.2770   66.6480 C   0  0  0  0  0
  220.1140  -13.0090   65.9290 O   0  0  0  0  0
  216.1310  -11.2360   67.4440 N   0  0  0  0  0
  215.6040  -10.0420   68.0910 C   0  0  0  0  0
  216.4350   -9.5660   69.2680 C   0  0  0  0  0
  216.7810  -10.3480   70.1520 O   0  0  0  0  0
  214.1700  -10.2690   68.5560 C   0  0  0  0  0
  213.5820   -9.0450   69.2150 C   0  0  0  0  0
  212.0960   -9.1960   69.4280 C   0  0  0  0  0
  211.7460  -10.3210   70.2930 N   0  0  0  0  0
  210.5250  -10.5200   70.7890 C   0  0  0  0  0
  209.5470   -9.6600   70.5140 N   0  0  0  0  0
  210.2690  -11.5760   71.5520 N   0  0  0  0  0
  216.7510   -8.2740   69.2630 N   0  0  0  0  0
  217.5220   -7.6730   70.3230 C   0  0  0  0  0
  218.0760   -6.3210   69.8710 C   0  0  0  0  0
  218.7830   -5.6290   71.0500 C   0  0  0  0  0
  219.0360   -6.5990   68.8310 O   0  0  0  0  0
  218.5450   -6.0050   67.4240 P   0  0  0  0  0
  219.5790   -6.3190   66.4180 O   0  0  0  0  0
  217.1130   -6.6400   67.0100 O   0  0  0  0  0
  218.3870   -4.3960   67.5340 O   0  0  0  0  0
  216.5610   -7.5310   71.4990 C   0  0  0  0  0
  215.4600   -6.9670   71.3520 O   0  0  0  0  0
  216.9510   -8.0530   72.6670 N   0  0  0  0  0
  216.0860   -7.8610   73.8300 C   0  0  0  0  0
  216.2360   -6.4310   74.3700 C   0  0  0  0  0
  217.2820   -5.8220   74.1700 O   0  0  0  0  0
  216.6110   -8.9020   74.8200 C   0  0  0  0  0
  218.0710   -9.0290   74.4650 C   0  0  0  0  0
  218.1380   -8.8730   72.9750 C   0  0  0  0  0
  215.2020   -5.9010   75.0140 N   0  0  0  0  0
  215.2540   -4.5500   75.5760 C   0  0  0  0  0
  215.5980   -4.5740   77.0610 C   0  0  0  0  0
  215.1150   -5.4210   77.8030 O   0  0  0  0  0
  213.9100   -3.8430   75.3790 C   0  0  0  0  0
  213.6130   -3.4940   73.9330 C   0  0  0  0  0
  214.7640   -2.2660   73.2660 S   0  0  0  0  0
  215.6400   -3.2420   72.0540 C   0  0  0  0  0
  216.4400   -3.6420   77.4840 N   0  0  0  0  0
  216.7660   -3.4800   78.8940 C   0  0  0  0  0
  215.4830   -3.2750   79.7200 C   0  0  0  0  0
  214.5680   -2.5820   79.2780 O   0  0  0  0  0
  217.7090   -2.2900   79.0640 C   0  0  0  0  0
  218.0400   -1.9760   80.4930 C   0  0  0  0  0
  218.5040   -2.9630   81.3550 C   0  0  0  0  0
  217.8970   -0.6900   80.9840 C   0  0  0  0  0
  218.8090   -2.6720   82.6740 C   0  0  0  0  0
  218.1990   -0.3900   82.2920 C   0  0  0  0  0
  218.6570   -1.3800   83.1380 C   0  0  0  0  0
  218.9590   -1.0630   84.4520 O   0  0  0  0  0
  215.4170   -3.8900   80.9040 N   0  0  0  0  0
  214.2140   -3.8760   81.7250 C   0  0  0  0  0
  213.1080   -4.7570   81.1670 C   0  0  0  0  0
  212.7232   -4.6539   79.9716 O   0  0  0  0  0
  212.5634   -5.6102   81.9173 O   0  0  0  0  0
  217.1481  -10.6131   60.6283 H   0  0  0  0  0
  216.1502  -11.8080   61.2227 H   0  0  0  0  0
  216.0981  -10.2767   61.8779 H   0  0  0  0  0
  218.2722  -10.4547   62.6814 H   0  0  0  0  0
  218.3296  -12.1411   61.9598 H   0  0  0  0  0
  218.9685  -11.5347   64.6146 H   0  0  0  0  0
  216.8596  -13.1253   65.9981 H   0  0  0  0  0
  218.6857  -14.3380   66.5493 H   0  0  0  0  0
  219.0682  -12.9920   67.6889 H   0  0  0  0  0
  220.8314  -13.5275   66.3007 H   0  0  0  0  0
  215.5047  -12.0237   67.2773 H   0  0  0  0  0
  215.6412   -9.2609   67.3317 H   0  0  0  0  0
  214.1751  -11.0775   69.2870 H   0  0  0  0  0
  213.5642  -10.5067   67.6816 H   0  0  0  0  0
  213.7536   -8.1860   68.5663 H   0  0  0  0  0
  214.0594   -8.9110   70.1857 H   0  0  0  0  0
  211.6407   -9.3758   68.4541 H   0  0  0  0  0
  211.7388   -8.2863   69.9107 H   0  0  0  0  0
  212.4772  -10.9914   70.5304 H   0  0  0  0  0
  208.6110   -9.8153   70.8885 H   0  0  0  0  0
  209.7335   -8.8457   69.9288 H   0  0  0  0  0
  211.0102  -12.2441   71.7635 H   0  0  0  0  0
  216.4387   -7.6911   68.4864 H   0  0  0  0  0
  218.3858   -8.2761   70.6025 H   0  0  0  0  0
  217.2801   -5.6666   69.5156 H   0  0  0  0  0
  218.0700   -5.4752   71.8600 H   0  0  0  0  0
  219.6024   -6.2570   71.3999 H   0  0  0  0  0
  219.1756   -4.6664   70.7222 H   0  0  0  0  0
  216.4613   -6.4208   67.6800 H   0  0  0  0  0
  217.7156   -4.1854   68.1870 H   0  0  0  0  0
  215.0233   -7.9836   73.6207 H   0  0  0  0  0
  216.0809   -9.8514   74.7450 H   0  0  0  0  0
  216.4599   -8.6026   75.8571 H   0  0  0  0  0
  218.4769   -9.9890   74.7840 H   0  0  0  0  0
  218.6718   -8.2742   74.9723 H   0  0  0  0  0
  219.0667   -8.4092   72.6426 H   0  0  0  0  0
  218.1351   -9.8293   72.4520 H   0  0  0  0  0
  214.3489   -6.4500   75.1198 H   0  0  0  0  0
  216.0383   -4.0061   75.0495 H   0  0  0  0  0
  213.9471   -2.9089   75.9395 H   0  0  0  0  0
  213.1297   -4.5247   75.7174 H   0  0  0  0  0
  212.6086   -3.0729   73.8880 H   0  0  0  0  0
  213.7110   -4.4036   73.3405 H   0  0  0  0  0
  216.1340   -4.0773   72.5503 H   0  0  0  0  0
  214.9335   -3.6224   71.3162 H   0  0  0  0  0
  216.3853   -2.6200   71.5583 H   0  0  0  0  0
  216.8726   -3.0196   76.8015 H   0  0  0  0  0
  217.2613   -4.3815   79.2548 H   0  0  0  0  0
  217.2069   -1.4165   78.6481 H   0  0  0  0  0
  218.6434   -2.5427   78.5628 H   0  0  0  0  0
  218.6296   -3.9813   80.9871 H   0  0  0  0  0
  217.5388    0.0989   80.3226 H   0  0  0  0  0
  219.1663   -3.4566   83.3410 H   0  0  0  0  0
  218.0768    0.6286   82.6602 H   0  0  0  0  0
  218.7961   -0.1286   84.6001 H   0  0  0  0  0
  216.2392   -4.3876   81.2456 H   0  0  0  0  0
  213.8419   -2.8519   81.7536 H   0  0  0  0  0
  214.4789   -4.2579   82.7109 H   0  0  0  0  0
  213.2291   -3.9666   79.5319 H   0  0  0  0  0
  1  2  1  0  0  0
  2  3  1  0  0  0
  3  4  2  0  0  0
  3  5  1  0  0  0
  5  6  1  0  0  0
  6  7  1  0  0  0
  6  9  1  0  0  0
  7  8  2  0  0  0
  7 11  1  0  0  0
  9 10  1  0  0  0
 11 12  1  0  0  0
 12 13  1  0  0  0
 12 15  1  0  0  0
 13 14  2  0  0  0
 13 22  1  0  0  0
 15 16  1  0  0  0
 16 17  1  0  0  0
 17 18  1  0  0  0
 18 19  1  0  0  0
 19 20  1  0  0  0
 19 21  2  0  0  0
 22 23  1  0  0  0
 23 24  1  0  0  0
 23 31  1  0  0  0
 24 25  1  0  0  0
 24 26  1  0  0  0
 26 27  1  0  0  0
 27 28  2  0  0  0
 27 29  1  0  0  0
 27 30  1  0  0  0
 31 32  2  0  0  0
 31 33  1  0  0  0
 33 34  1  0  0  0
 33 39  1  0  0  0
 34 35  1  0  0  0
 34 37  1  0  0  0
 35 36  2  0  0  0
 35 40  1  0  0  0
 37 38  1  0  0  0
 38 39  1  0  0  0
 40 41  1  0  0  0
 41 42  1  0  0  0
 41 44  1  0  0  0
 42 43  2  0  0  0
 42 48  1  0  0  0
 44 45  1  0  0  0
 45 46  1  0  0  0
 46 47  1  0  0  0
 48 49  1  0  0  0
 49 50  1  0  0  0
 49 52  1  0  0  0
 50 51  2  0  0  0
 50 60  1  0  0  0
 52 53  1  0  0  0
 53 54  4  0  0  0
 53 55  4  0  0  0
 54 56  4  0  0  0
 55 57  4  0  0  0
 56 58  4  0  0  0
 57 58  4  0  0  0
 58 59  1  0  0  0
 60 61  1  0  0  0
 61 62  1  0  0  0
 62 63  1  0  0  0
 62 64  2  0  0  0
  1 65  1  0  0  0
  1 66  1  0  0  0
  1 67  1  0  0  0
  2 68  1  0  0  0
  2 69  1  0  0  0
  5 70  1  0  0  0
  6 71  1  0  0  0
  9 72  1  0  0  0
  9 73  1  0  0  0
 10 74  1  0  0  0
 11 75  1  0  0  0
 12 76  1  0  0  0
 15 77  1  0  0  0
 15 78  1  0  0  0
 16 79  1  0  0  0
 16 80  1  0  0  0
 17 81  1  0  0  0
 17 82  1  0  0  0
 18 83  1  0  0  0
 20 84  1  0  0  0
 20 85  1  0  0  0
 21 86  1  0  0  0
 22 87  1  0  0  0
 23 88  1  0  0  0
 24 89  1  0  0  0
 25 90  1  0  0  0
 25 91  1  0  0  0
 25 92  1  0  0  0
 29 93  1  0  0  0
 30 94  1  0  0  0
 34 95  1  0  0  0
 37 96  1  0  0  0
 37 97  1  0  0  0
 38 98  1  0  0  0
 38 99  1  0  0  0
 39100  1  0  0  0
 39101  1  0  0  0
 40102  1  0  0  0
 41103  1  0  0  0
 44104  1  0  0  0
 44105  1  0  0  0
 45106  1  0  0  0
 45107  1  0  0  0
 47108  1  0  0  0
 47109  1  0  0  0
 47110  1  0  0  0
 48111  1  0  0  0
 49112  1  0  0  0
 52113  1  0  0  0
 52114  1  0  0  0
 54115  1  0  0  0
 55116  1  0  0  0
 56117  1  0  0  0
 57118  1  0  0  0
 59119  1  0  0  0
 60120  1  0  0  0
 61121  1  0  0  0
 61122  1  0  0  0
 63123  1  0  0  0
M  END
$$$$
