### 
### Created by X-TOOL on Mon Sep 10 21:13:13 2018
### 

@<TRIPOS>MOLECULE
4l1u_ligand
  121   122     1     0     0
SMALL
GAST_HUCK


@<TRIPOS>ATOM
      1 N         216.7040  -10.9870   61.4670 N.4       1 GLY         0.2357
      2 CA        217.7260  -11.3630   62.4270 C.3       1 GLY         0.0545
      3 C         217.1910  -11.9400   63.7330 C.2       1 GLY         0.2237
      4 O         216.0400  -12.3740   63.8020 O.2       1 GLY        -0.3910
      5 N         218.0420  -11.9350   64.7620 N.am      1 SER        -0.2591
      6 CA        217.7260  -12.4710   66.0950 C.3       1 SER         0.1540
      7 C         217.4000  -11.3330   67.0640 C.2       1 SER         0.2062
      8 O         218.2870  -10.5830   67.4820 O.2       1 SER        -0.3943
      9 CB        218.9150  -13.2770   66.6480 C.3       1 SER         0.0843
     10 OG        220.1140  -13.0090   65.9290 O.3       1 SER        -0.3903
     11 N         216.1310  -11.2360   67.4440 N.am      1 ARG        -0.2637
     12 CA        215.6040  -10.0420   68.0910 C.3       1 ARG         0.1311
     13 C         216.4350   -9.5660   69.2680 C.2       1 ARG         0.2040
     14 O         216.7810  -10.3480   70.1520 O.2       1 ARG        -0.3944
     15 CB        214.1700  -10.2690   68.5560 C.3       1 ARG        -0.0092
     16 CG        213.5820   -9.0450   69.2150 C.3       1 ARG        -0.0156
     17 CD        212.0960   -9.1960   69.4280 C.3       1 ARG         0.0627
     18 NE        211.7460  -10.3210   70.2930 N.pl3     1 ARG        -0.2723
     19 CZ        210.5250  -10.5200   70.7890 C.cat     1 ARG         0.2882
     20 NH1       209.5470   -9.6600   70.5140 N.pl3     1 ARG        -0.2849
     21 NH2       210.2690  -11.5760   71.5520 N.pl3     1 ARG        -0.2849
     22 N         216.7510   -8.2740   69.2630 N.am      1 TPO        -0.2611
     23 CA        217.5220   -7.6730   70.3230 C.3       1 TPO         0.1614
     24 CB        218.0760   -6.3210   69.8710 C.3       1 TPO         0.1262
     25 CG2       218.7830   -5.6290   71.0500 C.3       1 TPO        -0.0298
     26 OG1       219.0360   -6.5990   68.8310 O.3       1 TPO        -0.2685
     27 P         218.5450   -6.0050   67.4240 P.3       1 TPO         0.2014
     28 O1P       219.5790   -6.3190   66.4180 O.co2     1 TPO        -0.5537
     29 O2P       217.1130   -6.6400   67.0100 O.co2     1 TPO        -0.5537
     30 O3P       218.3870   -4.3960   67.5340 O.co2     1 TPO        -0.5537
     31 C         216.5610   -7.5310   71.4990 C.2       1 TPO         0.2093
     32 O         215.4600   -6.9670   71.3520 O.2       1 TPO        -0.3941
     33 N         216.9510   -8.0530   72.6670 N.am      1 PRO        -0.2498
     34 CA        216.0860   -7.8610   73.8300 C.3       1 PRO         0.1338
     35 C         216.2360   -6.4310   74.3700 C.2       1 PRO         0.2041
     36 O         217.2820   -5.8220   74.1700 O.2       1 PRO        -0.3944
     37 CB        216.6110   -8.9020   74.8200 C.3       1 PRO        -0.0104
     38 CG        218.0710   -9.0290   74.4650 C.3       1 PRO        -0.0281
     39 CD        218.1380   -8.8730   72.9750 C.3       1 PRO         0.0369
     40 N         215.2020   -5.9010   75.0140 N.am      1 MET        -0.2637
     41 CA        215.2540   -4.5500   75.5760 C.3       1 MET         0.1317
     42 C         215.5980   -4.5740   77.0610 C.2       1 MET         0.2040
     43 O         215.1150   -5.4210   77.8030 O.2       1 MET        -0.3944
     44 CB        213.9100   -3.8430   75.3790 C.3       1 MET        -0.0034
     45 CG        213.6130   -3.4940   73.9330 C.3       1 MET        -0.0024
     46 SD        214.7640   -2.2660   73.2660 S.3       1 MET        -0.1639
     47 CE        215.6400   -3.2420   72.0540 C.3       1 MET        -0.0181
     48 N         216.4400   -3.6420   77.4840 N.am      1 TYR        -0.2621
     49 CA        216.7660   -3.4800   78.8940 C.3       1 TYR         0.1390
     50 C         215.4830   -3.2750   79.7200 C.2       1 TYR         0.2050
     51 O         214.5680   -2.5820   79.2780 O.2       1 TYR        -0.3943
     52 CB        217.7090   -2.2900   79.0640 C.3       1 TYR         0.0163
     53 CG        218.0400   -1.9760   80.4930 C.ar      1 TYR        -0.0493
     54 CD1       218.5040   -2.9630   81.3550 C.ar      1 TYR        -0.0685
     55 CD2       217.8970   -0.6900   80.9840 C.ar      1 TYR        -0.0685
     56 CE1       218.8090   -2.6720   82.6740 C.ar      1 TYR        -0.0398
     57 CE2       218.1990   -0.3900   82.2920 C.ar      1 TYR        -0.0398
     58 CZ        218.6570   -1.3800   83.1380 C.ar      1 TYR         0.0805
     59 OH        218.9590   -1.0630   84.4520 O.3       1 TYR        -0.3376
     60 N         215.4170   -3.8900   80.9040 N.am      1 GLY        -0.2720
     61 CA        214.2140   -3.8760   81.7250 C.3       1 GLY         0.0833
     62 C         213.1080   -4.7570   81.1670 C.2       1 GLY         0.0570
     63 O         212.7232   -4.6539   79.9716 O.co2     1 GLY        -0.5669
     64 O         212.5634   -5.6102   81.9173 O.co2     1 GLY        -0.5669
     65 H1        217.1418  -10.6173   60.6377 H         1 GLY         0.2012
     66 H2        216.1046  -10.2850   61.8719 H         1 GLY         0.2012
     67 H3        216.1561  -11.7976   61.2247 H         1 GLY         0.2012
     68 H4        218.3186  -10.4674   62.6653 H         1 GLY         0.1061
     69 H5        218.3747  -12.1181   61.9590 H         1 GLY         0.1061
     70 H6        218.9504  -11.5426   64.6175 H         1 SER         0.1885
     71 H7        216.8516  -13.1332   66.0118 H         1 SER         0.0823
     72 H8        218.6852  -14.3499   66.5701 H         1 SER         0.0606
     73 H9        219.0659  -13.0100   67.7044 H         1 SER         0.0606
     74 H10       220.8239  -13.5221   66.2968 H         1 SER         0.2097
     75 H11       215.5170  -12.0082   67.2805 H         1 ARG         0.1883
     76 H12       215.5992   -9.2383   67.3400 H         1 ARG         0.0800
     77 H13       214.1591  -11.0991   69.2776 H         1 ARG         0.0313
     78 H14       213.5528  -10.5326   67.6845 H         1 ARG         0.0313
     79 H15       213.7647   -8.1703   68.5735 H         1 ARG         0.0301
     80 H16       214.0698   -8.8936   70.1892 H         1 ARG         0.0301
     81 H17       211.6167   -9.3461   68.4494 H         1 ARG         0.0689
     82 H18       211.7134   -8.2718   69.8857 H         1 ARG         0.0689
     83 H19       212.4843  -10.9980   70.5327 H         1 ARG         0.2642
     84 H20       208.6033   -9.8135   70.8972 H         1 ARG         0.2615
     85 H21       209.7339   -8.8410   69.9180 H         1 ARG         0.2615
     86 H22       211.0189  -12.2473   71.7706 H         1 ARG         0.2615
     87 H23       209.3205  -11.7239   71.9253 H         1 ARG         0.2615
     88 H24       216.4448   -7.7025   68.5016 H         1 TPO         0.1884
     89 H25       218.3605   -8.3279   70.6022 H         1 TPO         0.0830
     90 H26       217.2672   -5.6802   69.4899 H         1 TPO         0.0695
     91 H27       219.1797   -4.6574   70.7204 H         1 TPO         0.0260
     92 H28       219.6102   -6.2617   71.4040 H         1 TPO         0.0260
     93 H29       218.0644   -5.4732   71.8681 H         1 TPO         0.0260
     94 H30       215.0317   -8.0515   73.5806 H         1 PRO         0.0802
     95 H31       216.0911   -9.8628   74.6913 H         1 PRO         0.0313
     96 H32       216.4882   -8.5545   75.8564 H         1 PRO         0.0313
     97 H33       218.4550  -10.0150   74.7656 H         1 PRO         0.0287
     98 H34       218.6568   -8.2407   74.9604 H         1 PRO         0.0287
     99 H35       219.0620   -8.3578   72.6738 H         1 PRO         0.0524
    100 H36       218.0829   -9.8504   72.4735 H         1 PRO         0.0524
    101 H37       214.3656   -6.4392   75.1177 H         1 MET         0.1883
    102 H38       216.0337   -3.9837   75.0455 H         1 MET         0.0800
    103 H39       213.9169   -2.9132   75.9666 H         1 MET         0.0320
    104 H40       213.1120   -4.5041   75.7480 H         1 MET         0.0320
    105 H41       212.5915   -3.0908   73.8700 H         1 MET         0.0378
    106 H42       213.6839   -4.4095   73.3274 H         1 MET         0.0378
    107 H43       216.3925   -2.6153   71.5530 H         1 MET         0.0340
    108 H44       214.9281   -3.6265   71.3088 H         1 MET         0.0340
    109 H45       216.1391   -4.0854   72.5536 H         1 MET         0.0340
    110 H46       216.8641   -3.0318   76.8149 H         1 TYR         0.1885
    111 H47       217.2728   -4.3892   79.2496 H         1 TYR         0.0821
    112 H48       217.2339   -1.4048   78.6160 H         1 TYR         0.0453
    113 H49       218.6460   -2.5119   78.5322 H         1 TYR         0.0453
    114 H50       218.6289   -3.9757   80.9891 H         1 TYR         0.0530
    115 H51       217.5408    0.0946   80.3263 H         1 TYR         0.0530
    116 H52       219.1643   -3.4523   83.3373 H         1 TYR         0.0525
    117 H53       218.0774    0.6230   82.6582 H         1 TYR         0.0525
    118 H54       219.2590   -1.8429   84.9038 H         1 TYR         0.2458
    119 H55       216.2231   -4.3779   81.2389 H         1 GLY         0.1873
    120 H56       213.8425   -2.8424   81.7861 H         1 GLY         0.0689
    121 H57       214.4724   -4.2329   82.7329 H         1 GLY         0.0689
@<TRIPOS>BOND
     1    1    2 1  
     2    2    3 1  
     3    3    4 2  
     4    3    5 am 
     5    5    6 1  
     6    6    7 1  
     7    6    9 1  
     8    7    8 2  
     9    7   11 am 
    10    9   10 1  
    11   11   12 1  
    12   12   13 1  
    13   12   15 1  
    14   13   14 2  
    15   13   22 am 
    16   15   16 1  
    17   16   17 1  
    18   17   18 1  
    19   18   19 ar 
    20   19   20 ar 
    21   19   21 ar 
    22   22   23 1  
    23   23   24 1  
    24   23   31 1  
    25   24   25 1  
    26   24   26 1  
    27   26   27 1  
    28   27   28 ar 
    29   27   29 ar 
    30   27   30 ar 
    31   31   32 2  
    32   31   33 am 
    33   33   34 1  
    34   33   39 1  
    35   34   35 1  
    36   34   37 1  
    37   35   36 2  
    38   35   40 am 
    39   37   38 1  
    40   38   39 1  
    41   40   41 1  
    42   41   42 1  
    43   41   44 1  
    44   42   43 2  
    45   42   48 am 
    46   44   45 1  
    47   45   46 1  
    48   46   47 1  
    49   48   49 1  
    50   49   50 1  
    51   49   52 1  
    52   50   51 2  
    53   50   60 am 
    54   52   53 1  
    55   53   54 ar 
    56   53   55 ar 
    57   54   56 ar 
    58   55   57 ar 
    59   56   58 ar 
    60   57   58 ar 
    61   58   59 1  
    62   60   61 1  
    63   61   62 1  
    64   62   63 ar 
    65   62   64 ar 
    66    1   65 1  
    67    1   66 1  
    68    1   67 1  
    69    2   68 1  
    70    2   69 1  
    71    5   70 1  
    72    6   71 1  
    73    9   72 1  
    74    9   73 1  
    75   10   74 1  
    76   11   75 1  
    77   12   76 1  
    78   15   77 1  
    79   15   78 1  
    80   16   79 1  
    81   16   80 1  
    82   17   81 1  
    83   17   82 1  
    84   18   83 1  
    85   20   84 1  
    86   20   85 1  
    87   21   86 1  
    88   21   87 1  
    89   22   88 1  
    90   23   89 1  
    91   24   90 1  
    92   25   91 1  
    93   25   92 1  
    94   25   93 1  
    95   34   94 1  
    96   37   95 1  
    97   37   96 1  
    98   38   97 1  
    99   38   98 1  
   100   39   99 1  
   101   39  100 1  
   102   40  101 1  
   103   41  102 1  
   104   44  103 1  
   105   44  104 1  
   106   45  105 1  
   107   45  106 1  
   108   47  107 1  
   109   47  108 1  
   110   47  109 1  
   111   48  110 1  
   112   49  111 1  
   113   52  112 1  
   114   52  113 1  
   115   54  114 1  
   116   55  115 1  
   117   56  116 1  
   118   57  117 1  
   119   59  118 1  
   120   60  119 1  
   121   61  120 1  
   122   61  121 1  
@<TRIPOS>SUBSTRUCTURE
     1 GLY         1

