5f4r_ligand
  -I-interpret- 

 60 62  0  0  0  0  0  0  0  0999 V2000
  -11.4980  -53.4620   18.1780 C   0  0  0  0  0
  -10.9710  -52.1920   17.9030 C   0  0  0  0  0
  -11.3260  -51.1360   18.6820 F   0  0  0  0  0
  -10.0740  -52.0250   16.8260 C   0  0  0  0  0
   -9.4160  -50.4990   16.4610 Cl  0  0  0  0  0
   -9.7020  -53.1120   16.0240 C   0  0  0  0  0
  -10.2320  -54.3780   16.2990 C   0  0  0  0  0
  -11.1260  -54.5500   17.3690 C   0  0  0  0  0
  -11.6520  -55.9100   17.6110 N   0  0  0  0  0
  -12.9770  -56.1820   18.0210 C   0  0  0  0  0
  -13.7700  -55.3290   18.2100 O   0  0  0  0  0
  -13.3150  -57.6210   18.2040 C   0  0  0  0  0
  -12.4440  -58.4830   17.9910 O   0  0  0  0  0
  -14.6470  -58.0540   18.6280 N   0  0  0  0  0
  -14.8490  -59.4350   18.7620 C   0  0  0  0  0
  -15.8450  -59.6820   19.8470 C   0  0  0  0  0
  -15.6900  -59.6850   21.2570 C   0  0  0  0  0
  -16.8040  -59.9450   22.0640 C   0  0  0  0  0
  -18.0610  -60.1990   21.4740 C   0  0  0  0  0
  -19.2970  -60.4870   22.3680 C   0  0  0  0  0
  -19.3590  -61.8700   22.6750 N   0  0  0  0  0
  -18.4460  -62.7830   22.1300 C   0  0  0  0  0
  -20.3360  -62.2820   23.5160 C   0  0  0  0  0
  -21.1510  -61.4320   24.0000 N   0  0  0  0  0
  -20.4360  -63.5260   23.8260 N   0  0  0  0  0
  -18.2100  -60.1930   20.0760 C   0  0  0  0  0
  -17.0940  -59.9320   19.2570 C   0  0  0  0  0
  -16.9450  -59.8680   17.7290 C   0  0  0  0  0
  -15.4750  -59.9630   17.4950 C   0  0  0  0  0
  -15.0690  -61.4000   17.2750 C   0  0  0  0  0
  -14.1960  -61.5080   16.1440 N   0  0  0  0  0
  -12.8310  -62.0210   16.2650 C   0  0  0  0  0
  -12.0890  -62.0940   15.2170 N   0  0  0  0  0
  -12.3540  -62.4070   17.4460 N   0  0  0  0  0
  -12.1882  -53.6041   19.0096 H   0  0  0  0  0
   -9.0077  -52.9733   15.1953 H   0  0  0  0  0
   -9.9507  -55.2315   15.6822 H   0  0  0  0  0
  -11.0209  -56.6995   17.4739 H   0  0  0  0  0
  -15.3923  -57.3837   18.8169 H   0  0  0  0  0
  -13.8931  -59.9136   18.9749 H   0  0  0  0  0
  -14.7166  -59.4875   21.7061 H   0  0  0  0  0
  -16.7006  -59.9513   23.1491 H   0  0  0  0  0
  -20.2020  -60.1963   21.8346 H   0  0  0  0  0
  -19.2122  -59.9169   23.2931 H   0  0  0  0  0
  -18.5219  -62.7656   21.0428 H   0  0  0  0  0
  -17.4350  -62.5065   22.4294 H   0  0  0  0  0
  -18.6735  -63.7844   22.4954 H   0  0  0  0  0
  -21.0657  -60.4459   23.7534 H   0  0  0  0  0
  -21.1707  -63.8356   24.4623 H   0  0  0  0  0
  -19.7807  -64.2032   23.4356 H   0  0  0  0  0
  -19.1842  -60.3893   19.6281 H   0  0  0  0  0
  -17.3671  -58.9525   17.3145 H   0  0  0  0  0
  -17.4914  -60.6687   17.2305 H   0  0  0  0  0
  -15.1622  -59.4047   16.6126 H   0  0  0  0  0
  -15.9628  -61.9959   17.0903 H   0  0  0  0  0
  -14.5461  -61.7596   18.1612 H   0  0  0  0  0
  -14.5363  -61.2186   15.2270 H   0  0  0  0  0
  -12.4535  -61.7958   14.3122 H   0  0  0  0  0
  -11.4001  -62.7606   17.5199 H   0  0  0  0  0
  -12.9423  -62.3492   18.2772 H   0  0  0  0  0
  1  2  4  0  0  0
  1  8  4  0  0  0
  2  3  1  0  0  0
  2  4  4  0  0  0
  4  5  1  0  0  0
  4  6  4  0  0  0
  6  7  4  0  0  0
  7  8  4  0  0  0
  8  9  1  0  0  0
  9 10  1  0  0  0
 10 11  2  0  0  0
 10 12  1  0  0  0
 12 13  2  0  0  0
 12 14  1  0  0  0
 14 15  1  0  0  0
 15 16  1  0  0  0
 15 29  1  0  0  0
 16 17  4  0  0  0
 16 27  4  0  0  0
 17 18  4  0  0  0
 18 19  4  0  0  0
 19 20  1  0  0  0
 19 26  4  0  0  0
 20 21  1  0  0  0
 21 22  1  0  0  0
 21 23  1  0  0  0
 23 24  2  0  0  0
 23 25  1  0  0  0
 26 27  4  0  0  0
 27 28  1  0  0  0
 28 29  1  0  0  0
 29 30  1  0  0  0
 30 31  1  0  0  0
 31 32  1  0  0  0
 32 33  2  0  0  0
 32 34  1  0  0  0
  1 35  1  0  0  0
  6 36  1  0  0  0
  7 37  1  0  0  0
  9 38  1  0  0  0
 14 39  1  0  0  0
 15 40  1  0  0  0
 17 41  1  0  0  0
 18 42  1  0  0  0
 20 43  1  0  0  0
 20 44  1  0  0  0
 22 45  1  0  0  0
 22 46  1  0  0  0
 22 47  1  0  0  0
 24 48  1  0  0  0
 25 49  1  0  0  0
 25 50  1  0  0  0
 26 51  1  0  0  0
 28 52  1  0  0  0
 28 53  1  0  0  0
 29 54  1  0  0  0
 30 55  1  0  0  0
 30 56  1  0  0  0
 31 57  1  0  0  0
 33 58  1  0  0  0
 34 59  1  0  0  0
 34 60  1  0  0  0
M  END
$$$$
