6f86_ligand
  -I-interpret- 

 43 45  0  0  0  0  0  0  0  0999 V2000
   60.7620   26.2070   62.3400 C   0  0  0  0  0
   60.8010   24.9390   62.7370 C   0  0  0  0  0
   60.1920   23.4340   61.7580 Br  0  0  0  0  0
   61.3300   24.8170   63.9390 C   0  0  0  0  0
   61.6440   26.0410   64.3120 N   0  0  0  0  0
   61.2780   26.9210   63.3380 N   0  0  0  0  0
   61.5140   28.2230   63.5090 C   0  0  0  0  0
   62.0830   28.9720   62.4600 C   0  0  0  0  0
   62.3940   30.3410   62.6380 C   0  0  0  0  0
   62.9180   31.2210   61.7630 N   0  0  0  0  0
   63.5490   30.9040   60.6050 C   0  0  0  0  0
   63.6950   29.7550   60.2030 O   0  0  0  0  0
   64.0520   31.9500   59.9220 N   0  0  0  0  0
   64.7980   31.8270   58.6590 C   0  0  0  0  0
   65.8850   32.9050   58.6290 C   0  0  0  0  0
   62.1440   30.8970   63.8400 N   0  0  0  0  0
   61.5900   30.1630   64.8990 C   0  0  0  0  0
   61.2820   28.8190   64.7780 C   0  0  0  0  0
   60.6820   28.1440   65.8900 C   0  0  0  0  0
   59.5950   27.6120   65.7140 O   0  0  0  0  0
   61.2730   28.2230   67.1010 N   0  0  0  0  0
   60.7640   27.6680   68.2340 C   0  0  0  0  0
   59.3950   27.5900   68.5610 C   0  0  0  0  0
   58.9500   27.0220   69.7630 C   0  0  0  0  0
   59.8690   26.5410   70.6790 C   0  0  0  0  0
   61.2470   26.6140   70.3950 N   0  0  0  0  0
   61.6810   27.1830   69.1680 C   0  0  0  0  0
   60.3842   26.5853   61.3901 H   0  0  0  0  0
   61.4766   23.8970   64.5048 H   0  0  0  0  0
   62.2856   28.4924   61.5023 H   0  0  0  0  0
   62.8329   32.2115   61.9911 H   0  0  0  0  0
   63.9072   32.8849   60.3033 H   0  0  0  0  0
   64.1221   31.9569   57.8138 H   0  0  0  0  0
   65.2525   30.8387   58.5903 H   0  0  0  0  0
   65.4208   33.8891   58.6930 H   0  0  0  0  0
   66.5583   32.7638   59.4745 H   0  0  0  0  0
   66.4469   32.8267   57.6983 H   0  0  0  0  0
   61.3961   30.6663   65.8462 H   0  0  0  0  0
   62.1554   28.7299   67.1709 H   0  0  0  0  0
   58.6604   27.9831   67.8582 H   0  0  0  0  0
   57.8828   26.9594   69.9755 H   0  0  0  0  0
   59.5274   26.1065   71.6185 H   0  0  0  0  0
   62.7478   27.2419   68.9522 H   0  0  0  0  0
  1  2  4  0  0  0
  1  6  4  0  0  0
  2  3  1  0  0  0
  2  4  4  0  0  0
  4  5  4  0  0  0
  5  6  4  0  0  0
  6  7  1  0  0  0
  7  8  4  0  0  0
  7 18  4  0  0  0
  8  9  4  0  0  0
  9 10  1  0  0  0
  9 16  4  0  0  0
 10 11  1  0  0  0
 11 12  2  0  0  0
 11 13  1  0  0  0
 13 14  1  0  0  0
 14 15  1  0  0  0
 16 17  4  0  0  0
 17 18  4  0  0  0
 18 19  1  0  0  0
 19 20  2  0  0  0
 19 21  1  0  0  0
 21 22  1  0  0  0
 22 23  4  0  0  0
 22 27  4  0  0  0
 23 24  4  0  0  0
 24 25  4  0  0  0
 25 26  4  0  0  0
 26 27  4  0  0  0
  1 28  1  0  0  0
  4 29  1  0  0  0
  8 30  1  0  0  0
 10 31  1  0  0  0
 13 32  1  0  0  0
 14 33  1  0  0  0
 14 34  1  0  0  0
 15 35  1  0  0  0
 15 36  1  0  0  0
 15 37  1  0  0  0
 17 38  1  0  0  0
 21 39  1  0  0  0
 23 40  1  0  0  0
 24 41  1  0  0  0
 25 42  1  0  0  0
 27 43  1  0  0  0
M  END
$$$$
