### 
### Created by X-TOOL on Wed Jan  1 15:39:36 2020
### 

@<TRIPOS>MOLECULE
6buu_ligand
  204   208     1     0     0
SMALL
GAST_HUCK


@<TRIPOS>ATOM
      1 N         -38.3820  -12.7340   33.8690 N.4       1 GLY         0.2357
      2 CA        -37.8270  -11.7020   32.9630 C.3       1 GLY         0.0545
      3 C         -38.7130  -10.4820   33.0460 C.2       1 GLY         0.2236
      4 O         -39.9030  -10.5420   32.7730 O.2       1 GLY        -0.3910
      5 N         -38.1380   -9.3660   33.4430 N.am      1 ARG        -0.2613
      6 CA        -38.8190   -8.0940   33.3040 C.3       1 ARG         0.1314
      7 C         -39.3410   -7.8330   31.8800 C.2       1 ARG         0.2064
      8 O         -38.7880   -8.3470   30.8630 O.2       1 ARG        -0.3942
      9 CB        -37.8880   -6.9440   33.6850 C.3       1 ARG        -0.0092
     10 CG        -36.5990   -6.8550   32.8590 C.3       1 ARG        -0.0156
     11 CD        -35.9570   -5.5670   33.2380 C.3       1 ARG         0.0627
     12 NE        -34.7760   -5.3120   32.4650 N.pl3     1 ARG        -0.2723
     13 CZ        -34.6990   -4.8390   31.2220 C.cat     1 ARG         0.2882
     14 NH1       -35.7920   -4.5830   30.5140 N.pl3     1 ARG        -0.2849
     15 NH2       -33.4890   -4.6320   30.6850 N.pl3     1 ARG        -0.2849
     16 N         -40.3830   -7.0020   31.7950 N.am      1 PRO        -0.2498
     17 CA        -40.7460   -6.5050   30.4780 C.3       1 PRO         0.1338
     18 C         -39.6080   -5.6900   29.8390 C.2       1 PRO         0.2041
     19 O         -38.7780   -5.1420   30.5740 O.2       1 PRO        -0.3944
     20 CB        -41.9650   -5.6040   30.7480 C.3       1 PRO        -0.0104
     21 CG        -42.4310   -6.0020   32.1110 C.3       1 PRO        -0.0281
     22 CD        -41.2190   -6.4260   32.8640 C.3       1 PRO         0.0369
     23 N         -39.6110   -5.5990   28.5040 N.am      1 ARG        -0.2637
     24 CA        -38.7230   -4.7080   27.7850 C.3       1 ARG         0.1311
     25 C         -39.0320   -3.2230   28.1600 C.2       1 ARG         0.2040
     26 O         -40.1690   -2.8920   28.5350 O.2       1 ARG        -0.3944
     27 CB        -38.8000   -4.9620   26.2780 C.3       1 ARG        -0.0092
     28 CG        -37.4610   -4.7590   25.5680 C.3       1 ARG        -0.0156
     29 CD        -37.3320   -5.4710   24.1920 C.3       1 ARG         0.0627
     30 NE        -36.1370   -4.9930   23.4810 N.pl3     1 ARG        -0.2723
     31 CZ        -36.0900   -3.8200   22.8850 C.cat     1 ARG         0.2882
     32 NH1       -34.9870   -3.3930   22.3220 N.pl3     1 ARG        -0.2849
     33 NH2       -37.1610   -3.0500   22.8620 N.pl3     1 ARG        -0.2849
     34 N         -37.9910   -2.4020   28.1660 N.am      1 THR        -0.2613
     35 CA        -38.0960   -0.9890   28.5810 C.3       1 THR         0.1565
     36 C         -37.8660   -0.0560   27.4020 C.2       1 THR         0.2065
     37 O         -37.4410   -0.5080   26.3630 O.2       1 THR        -0.3943
     38 CB        -37.0700   -0.6290   29.6630 C.3       1 THR         0.0924
     39 OG1       -35.7630   -0.7980   29.1320 O.3       1 THR        -0.3874
     40 CG2       -37.2170   -1.4320   30.9290 C.3       1 THR        -0.0346
     41 N         -38.1720    1.2100   27.6240 N.am      1 THR        -0.2613
     42 CA        -38.0100    2.2780   26.6180 C.3       1 THR         0.1565
     43 C         -37.2930    3.4550   27.2780 C.2       1 THR         0.2065
     44 O         -37.5040    3.6720   28.4390 O.2       1 THR        -0.3943
     45 CB        -39.3740    2.7520   26.1000 C.3       1 THR         0.0924
     46 OG1       -40.4290    1.8520   26.4300 O.3       1 THR        -0.3874
     47 CG2       -39.3700    2.9800   24.6090 C.3       1 THR        -0.0346
     48 N         -36.4580    4.1610   26.5320 N.am      1 ZXW        -0.2617
     49 CA        -35.8070    5.3480   27.0470 C.3       1 ZXW         0.1509
     50 CB        -34.4740    5.6390   26.3880 C.3       1 ZXW         0.0711
     51 O2A       -35.1680    1.7660   16.4590 O.co2     1 ZXW        -0.6127
     52 PA        -33.9440    1.4050   17.1060 P.3       1 ZXW         0.2978
     53 O1A       -32.9420    2.2570   16.5230 O.co2     1 ZXW        -0.6127
     54 O3A       -33.6800    1.9140   18.5950 O.3       1 ZXW        -0.1263
     55 PB        -34.8370    2.0300   19.6640 P.3       1 ZXW         0.3347
     56 O1B       -35.5400    0.7350   19.8370 O.co2     1 ZXW        -0.6076
     57 O2B       -34.2410    2.4300   20.9050 O.co2     1 ZXW        -0.6076
     58 O3B       -35.6060    3.3280   19.3030 O.3       1 ZXW        -0.1430
     59 PG        -36.6210    3.6420   20.4270 P.3       1 ZXW         0.2250
     60 O1G       -37.8650    4.2220   19.8510 O.co2     1 ZXW        -0.6075
     61 O3G       -37.0240    2.3680   21.0910 O.co2     1 ZXW        -0.6075
     62 S2G       -36.1060    4.5870   22.1290 S.3       1 ZXW        -0.0075
     63 C32       -34.5030    4.4360   22.8320 C.3       1 ZXW         0.1030
     64 C33       -34.5710    5.3450   24.0400 C.2       1 ZXW         0.1877
     65 O35       -34.9600    6.4790   23.9400 O.2       1 ZXW        -0.3961
     66 N34       -34.2280    4.8720   25.2000 N.am      1 ZXW        -0.2817
     67 O5'       -33.6210   -0.1160   16.8740 O.3       1 ZXW        -0.2476
     68 C5'       -34.5820   -1.1300   16.7140 C.3       1 ZXW         0.1128
     69 C4'       -33.9590   -2.5020   16.9060 C.3       1 ZXW         0.1189
     70 O4'       -32.8460   -2.7670   16.0960 O.3       1 ZXW        -0.3364
     71 C1'       -31.9160   -3.5420   16.7750 C.3       1 ZXW         0.2010
     72 C2'       -32.2310   -3.4690   18.2350 C.3       1 ZXW         0.1385
     73 O2'       -32.3160   -4.7660   18.7730 O.3       1 ZXW        -0.3836
     74 C3'       -33.5120   -2.6900   18.3170 C.3       1 ZXW         0.1149
     75 O3'       -34.5530   -3.3820   18.9640 O.3       1 ZXW        -0.3864
     76 N9        -30.5990   -2.9960   16.5110 N.pl3     1 ZXW        -0.1919
     77 C8        -30.1970   -1.7610   16.6550 C.2       1 ZXW         0.1123
     78 N7        -28.9330   -1.6200   16.2930 N.2       1 ZXW        -0.2958
     79 C5        -28.5000   -2.8000   15.9010 C.ar      1 ZXW         0.1045
     80 C6        -27.2570   -3.3820   15.3800 C.ar      1 ZXW         0.1298
     81 N6        -26.1630   -2.6740   15.2070 N.pl3     1 ZXW        -0.3152
     82 N1        -27.2460   -4.6650   15.1140 N.ar      1 ZXW        -0.2698
     83 C2        -28.3190   -5.4230   15.2630 C.ar      1 ZXW         0.0533
     84 N3        -29.4680   -4.9790   15.7110 N.ar      1 ZXW        -0.2714
     85 C4        -29.6170   -3.7030   16.0410 C.ar      1 ZXW         0.1613
     86 C         -36.7040    6.5520   26.8250 C.2       1 ZXW         0.2060
     87 O         -37.7340    6.4330   26.2510 O.2       1 ZXW        -0.3943
     88 N         -36.2720    7.7120   27.3140 N.am      1 PHE        -0.2619
     89 CA        -36.9760    9.0000   27.1620 C.3       1 PHE         0.1404
     90 C         -35.9940   10.1290   27.4620 C.2       1 PHE         0.2059
     91 O         -34.9340    9.8650   27.9950 O.2       1 PHE        -0.3942
     92 CB        -38.0830    9.0930   28.2090 C.3       1 PHE         0.0214
     93 CG        -37.5380    9.2850   29.5970 C.ar      1 PHE        -0.0386
     94 CD1       -37.1440    8.2050   30.3600 C.ar      1 PHE        -0.0601
     95 CD2       -37.3270   10.5500   30.1020 C.ar      1 PHE        -0.0601
     96 CE1       -36.6000    8.3840   31.6130 C.ar      1 PHE        -0.0686
     97 CE2       -36.7660   10.7270   31.3470 C.ar      1 PHE        -0.0686
     98 CZ        -36.4180    9.6460   32.1040 C.ar      1 PHE        -0.0687
     99 N         -36.3630   11.3530   27.0930 N.am      1 ALA        -0.2639
    100 CA        -35.5770   12.5670   27.4010 C.3       1 ALA         0.1282
    101 C         -36.5200   13.7630   27.5900 C.2       1 ALA         0.2031
    102 O         -37.4150   13.9240   26.7650 O.2       1 ALA        -0.3944
    103 CB        -34.5550   12.8240   26.3340 C.3       1 ALA        -0.0244
    104 N         -36.2730   14.5570   28.6360 N.am      1 GLU        -0.2694
    105 CA        -37.0040   15.8150   29.0600 C.3       1 GLU         0.0959
    106 C         -36.9090   16.1040   30.5850 C.2       1 GLU         0.0602
    107 O         -37.9060   16.1450   31.3540 O.co2     1 GLU        -0.5666
    108 CB        -38.4750   15.8540   28.6490 C.3       1 GLU        -0.0064
    109 CG        -38.7640   16.7770   27.4720 C.3       1 GLU         0.0038
    110 CD        -40.2570   16.8430   27.1980 C.2       1 GLU         0.0350
    111 OE1       -41.0110   17.3690   28.0620 O.co2     1 GLU        -0.5690
    112 OE2       -40.6640   16.3310   26.1300 O.co2     1 GLU        -0.5690
    113 OXT       -35.8260   16.3240   31.1910 O.co2     1 GLU        -0.5666
    114 H1        -37.8056  -13.5601   33.8304 H         1 GLY         0.2012
    115 H2        -39.3199  -12.9650   33.5807 H         1 GLY         0.2012
    116 H3        -38.3981  -12.3794   34.8124 H         1 GLY         0.2012
    117 H4        -37.8104  -12.0816   31.9307 H         1 GLY         0.1061
    118 H5        -36.8045  -11.4425   33.2748 H         1 GLY         0.1061
    119 H6        -37.2226   -9.3963   33.8443 H         1 ARG         0.1884
    120 H7        -39.6785   -8.0969   33.9905 H         1 ARG         0.0800
    121 H8        -37.6086   -7.0665   34.7418 H         1 ARG         0.0313
    122 H9        -38.4403   -6.0012   33.5587 H         1 ARG         0.0313
    123 H10       -36.8325   -6.8639   31.7841 H         1 ARG         0.0301
    124 H11       -35.9337   -7.6981   33.0967 H         1 ARG         0.0301
    125 H12       -35.6840   -5.6052   34.3029 H         1 ARG         0.0689
    126 H13       -36.6741   -4.7495   33.0724 H         1 ARG         0.0689
    127 H14       -33.8790   -5.5197   32.9268 H         1 ARG         0.2642
    128 H15       -35.7102   -4.2176   29.5545 H         1 ARG         0.2615
    129 H16       -36.7220   -4.7497   30.9241 H         1 ARG         0.2615
    130 H17       -32.6408   -4.8307   31.2346 H         1 ARG         0.2615
    131 H18       -33.4070   -4.2742   29.7226 H         1 ARG         0.2615
    132 H19       -41.0145   -7.3378   29.8114 H         1 PRO         0.0802
    133 H20       -42.7526   -5.7814   30.0008 H         1 PRO         0.0313
    134 H21       -41.6755   -4.5429   30.7307 H         1 PRO         0.0313
    135 H22       -43.1454   -6.8354   32.0402 H         1 PRO         0.0287
    136 H23       -42.9112   -5.1490   32.6128 H         1 PRO         0.0287
    137 H24       -40.7235   -5.5674   33.3407 H         1 PRO         0.0524
    138 H25       -41.4655   -7.1778   33.6282 H         1 PRO         0.0524
    139 H26       -40.2492   -6.1665   27.9837 H         1 ARG         0.1883
    140 H27       -37.6930   -4.9248   28.1044 H         1 ARG         0.0800
    141 H28       -39.5357   -4.2695   25.8431 H         1 ARG         0.0313
    142 H29       -39.1301   -5.9984   26.1137 H         1 ARG         0.0313
    143 H30       -36.6652   -5.1398   26.2251 H         1 ARG         0.0301
    144 H31       -37.3196   -3.6799   25.4083 H         1 ARG         0.0301
    145 H32       -38.2249   -5.2557   23.5867 H         1 ARG         0.0689
    146 H33       -37.2498   -6.5563   24.3511 H         1 ARG         0.0689
    147 H34       -35.3048   -5.5990   23.4480 H         1 ARG         0.2642
    148 H35       -34.9675   -2.4727   21.8599 H         1 ARG         0.2615
    149 H36       -34.1392   -3.9776   22.3414 H         1 ARG         0.2615
    150 H37       -38.0359   -3.3715   23.3003 H         1 ARG         0.2615
    151 H38       -37.1223   -2.1274   22.4058 H         1 ARG         0.2615
    152 H39       -37.1001   -2.7534   27.8783 H         1 THR         0.1884
    153 H40       -39.1074   -0.8222   28.9799 H         1 THR         0.0826
    154 H41       -37.2100    0.4309   29.9217 H         1 THR         0.0639
    155 H42       -35.6453   -1.7021   28.8651 H         1 THR         0.2101
    156 H43       -36.4505   -1.1185   31.6531 H         1 THR         0.0257
    157 H44       -37.0914   -2.5009   30.7019 H         1 THR         0.0257
    158 H45       -38.2163   -1.2629   31.3566 H         1 THR         0.0257
    159 H46       -38.5332    1.4583   28.5228 H         1 THR         0.1884
    160 H47       -37.4115    1.9007   25.7757 H         1 THR         0.0826
    161 H48       -39.5892    3.7143   26.5874 H         1 THR         0.0639
    162 H49       -41.2493    2.1886   26.0888 H         1 THR         0.2101
    163 H50       -40.3662    3.3175   24.2870 H         1 THR         0.0257
    164 H51       -39.1173    2.0408   24.0951 H         1 THR         0.0257
    165 H52       -38.6237    3.7479   24.3575 H         1 THR         0.0257
    166 H53       -36.2729    3.8689   25.5937 H         1 ZXW         0.1884
    167 H54       -35.6418    5.2096   28.1257 H         1 ZXW         0.0821
    168 H55       -33.6755    5.4200   27.1121 H         1 ZXW         0.0568
    169 H56       -34.4455    6.7060   26.1223 H         1 ZXW         0.0568
    170 H57       -33.7292    4.7736   22.1269 H         1 ZXW         0.0632
    171 H58       -34.2990    3.3972   23.1306 H         1 ZXW         0.0632
    172 H59       -33.7928    3.9740   25.2654 H         1 ZXW         0.1853
    173 H60       -35.0078   -1.0663   15.7018 H         1 ZXW         0.0648
    174 H61       -35.3807   -0.9899   17.4573 H         1 ZXW         0.0648
    175 H62       -34.7343   -3.2474   16.6751 H         1 ZXW         0.0651
    176 H63       -31.9639   -4.5864   16.4332 H         1 ZXW         0.0996
    177 H64       -31.4380   -2.9236   18.7676 H         1 ZXW         0.0676
    178 H65       -32.5162   -4.7106   19.7000 H         1 ZXW         0.2101
    179 H66       -33.3349   -1.7264   18.8170 H         1 ZXW         0.0648
    180 H67       -34.2894   -3.5893   19.8529 H         1 ZXW         0.2100
    181 H68       -30.8232   -0.9510   17.0259 H         1 ZXW         0.1349
    182 H69       -25.3121   -3.1226   14.8386 H         1 ZXW         0.1820
    183 H70       -26.1567   -1.6707   15.4398 H         1 ZXW         0.1820
    184 H71       -28.2442   -6.4718   14.9995 H         1 ZXW         0.0996
    185 H72       -35.4095    7.7107   27.8201 H         1 PHE         0.1885
    186 H73       -37.3882    9.0958   26.1467 H         1 PHE         0.0823
    187 H74       -38.6719    8.1643   28.1852 H         1 PHE         0.0474
    188 H75       -38.7328    9.9457   27.9626 H         1 PHE         0.0474
    189 H76       -37.2642    7.2015   29.9680 H         1 PHE         0.0557
    190 H77       -37.6060   11.4157   29.5122 H         1 PHE         0.0557
    191 H78       -36.3165    7.5241   32.2090 H         1 PHE         0.0599
    192 H79       -36.6002   11.7285   31.7272 H         1 PHE         0.0599
    193 H80       -35.9979    9.7884   33.0931 H         1 PHE         0.0559
    194 H81       -37.2157   11.4572   26.5811 H         1 ALA         0.1883
    195 H82       -35.0423   12.4011   28.3478 H         1 ALA         0.0797
    196 H83       -33.9837   13.7301   26.5842 H         1 ALA         0.0277
    197 H84       -35.0612   12.9649   25.3677 H         1 ALA         0.0277
    198 H85       -33.8704   11.9656   26.2676 H         1 ALA         0.0277
    199 H86       -35.5045   14.2853   29.2154 H         1 GLU         0.1875
    200 H87       -36.5036   16.6460   28.5413 H         1 GLU         0.0727
    201 H88       -39.0663   16.1968   29.5109 H         1 GLU         0.0323
    202 H89       -38.7847   14.8350   28.3739 H         1 GLU         0.0323
    203 H90       -38.2490   16.3951   26.5782 H         1 GLU         0.0432
    204 H91       -38.3943   17.7865   27.7050 H         1 GLU         0.0432
@<TRIPOS>BOND
     1    2    1 1  
     2    3    2 1  
     3    3    4 2  
     4    5    3 am 
     5    6    5 1  
     6    7    6 1  
     7    6    9 1  
     8    7    8 2  
     9   16    7 am 
    10    9   10 1  
    11   10   11 1  
    12   11   12 1  
    13   12   13 ar 
    14   13   14 ar 
    15   13   15 ar 
    16   17   16 1  
    17   16   22 1  
    18   18   17 1  
    19   17   20 1  
    20   18   19 2  
    21   23   18 am 
    22   20   21 1  
    23   21   22 1  
    24   24   23 1  
    25   25   24 1  
    26   24   27 1  
    27   25   26 2  
    28   34   25 am 
    29   27   28 1  
    30   28   29 1  
    31   29   30 1  
    32   30   31 ar 
    33   31   32 ar 
    34   31   33 ar 
    35   35   34 1  
    36   36   35 1  
    37   35   38 1  
    38   36   37 2  
    39   41   36 am 
    40   38   39 1  
    41   38   40 1  
    42   42   41 1  
    43   43   42 1  
    44   42   45 1  
    45   43   44 2  
    46   48   43 am 
    47   45   46 1  
    48   45   47 1  
    49   49   48 1  
    50   50   49 1  
    51   49   86 1  
    52   66   50 1  
    53   52   51 ar 
    54   52   53 ar 
    55   54   52 1  
    56   52   67 1  
    57   55   54 1  
    58   55   56 ar 
    59   55   57 ar 
    60   58   55 1  
    61   59   58 1  
    62   59   60 ar 
    63   59   61 ar 
    64   62   59 1  
    65   63   62 1  
    66   64   63 1  
    67   64   65 2  
    68   64   66 am 
    69   67   68 1  
    70   68   69 1  
    71   69   70 1  
    72   69   74 1  
    73   70   71 1  
    74   71   72 1  
    75   71   76 1  
    76   72   73 1  
    77   72   74 1  
    78   74   75 1  
    79   76   77 1  
    80   76   85 1  
    81   77   78 2  
    82   78   79 1  
    83   79   80 ar 
    84   79   85 ar 
    85   80   81 1  
    86   80   82 ar 
    87   82   83 ar 
    88   83   84 ar 
    89   84   85 ar 
    90   86   87 2  
    91   86   88 am 
    92   88   89 1  
    93   89   90 1  
    94   89   92 1  
    95   90   91 2  
    96   90   99 am 
    97   92   93 1  
    98   93   94 ar 
    99   93   95 ar 
   100   94   96 ar 
   101   95   97 ar 
   102   96   98 ar 
   103   97   98 ar 
   104   99  100 1  
   105  100  101 1  
   106  100  103 1  
   107  101  102 2  
   108  101  104 am 
   109  104  105 1  
   110  105  106 1  
   111  105  108 1  
   112  106  107 ar 
   113  106  113 ar 
   114  108  109 1  
   115  109  110 1  
   116  110  111 ar 
   117  110  112 ar 
   118    1  114 1  
   119    1  115 1  
   120    1  116 1  
   121    2  117 1  
   122    2  118 1  
   123    5  119 1  
   124    6  120 1  
   125    9  121 1  
   126    9  122 1  
   127   10  123 1  
   128   10  124 1  
   129   11  125 1  
   130   11  126 1  
   131   12  127 1  
   132   14  128 1  
   133   14  129 1  
   134   15  130 1  
   135   15  131 1  
   136   17  132 1  
   137   20  133 1  
   138   20  134 1  
   139   21  135 1  
   140   21  136 1  
   141   22  137 1  
   142   22  138 1  
   143   23  139 1  
   144   24  140 1  
   145   27  141 1  
   146   27  142 1  
   147   28  143 1  
   148   28  144 1  
   149   29  145 1  
   150   29  146 1  
   151   30  147 1  
   152   32  148 1  
   153   32  149 1  
   154   33  150 1  
   155   33  151 1  
   156   34  152 1  
   157   35  153 1  
   158   38  154 1  
   159   39  155 1  
   160   40  156 1  
   161   40  157 1  
   162   40  158 1  
   163   41  159 1  
   164   42  160 1  
   165   45  161 1  
   166   46  162 1  
   167   47  163 1  
   168   47  164 1  
   169   47  165 1  
   170   48  166 1  
   171   49  167 1  
   172   50  168 1  
   173   50  169 1  
   174   63  170 1  
   175   63  171 1  
   176   66  172 1  
   177   68  173 1  
   178   68  174 1  
   179   69  175 1  
   180   71  176 1  
   181   72  177 1  
   182   73  178 1  
   183   74  179 1  
   184   75  180 1  
   185   77  181 1  
   186   81  182 1  
   187   81  183 1  
   188   83  184 1  
   189   88  185 1  
   190   89  186 1  
   191   92  187 1  
   192   92  188 1  
   193   94  189 1  
   194   95  190 1  
   195   96  191 1  
   196   97  192 1  
   197   98  193 1  
   198   99  194 1  
   199  100  195 1  
   200  103  196 1  
   201  103  197 1  
   202  103  198 1  
   203  104  199 1  
   204  105  200 1  
   205  108  201 1  
   206  108  202 1  
   207  109  203 1  
   208  109  204 1  
@<TRIPOS>SUBSTRUCTURE
     1 GLY         1

