6buu_ligand
  -I-interpret- 

207211  0  0  0  0  0  0  0  0999 V2000
  -38.3820  -12.7340   33.8690 N   0  3  0  0  0
  -37.8270  -11.7020   32.9630 C   0  0  0  0  0
  -38.7130  -10.4820   33.0460 C   0  0  0  0  0
  -39.9030  -10.5420   32.7730 O   0  0  0  0  0
  -38.1380   -9.3660   33.4430 N   0  0  0  0  0
  -38.8190   -8.0940   33.3040 C   0  0  0  0  0
  -39.3410   -7.8330   31.8800 C   0  0  0  0  0
  -38.7880   -8.3470   30.8630 O   0  0  0  0  0
  -37.8880   -6.9440   33.6850 C   0  0  0  0  0
  -36.5990   -6.8550   32.8590 C   0  0  0  0  0
  -35.9570   -5.5670   33.2380 C   0  0  0  0  0
  -34.7760   -5.3120   32.4650 N   0  0  0  0  0
  -34.6990   -4.8390   31.2220 C   0  0  0  0  0
  -35.7920   -4.5830   30.5140 N   0  0  0  0  0
  -33.4890   -4.6320   30.6850 N   0  0  0  0  0
  -40.3830   -7.0020   31.7950 N   0  0  0  0  0
  -40.7460   -6.5050   30.4780 C   0  0  0  0  0
  -39.6080   -5.6900   29.8390 C   0  0  0  0  0
  -38.7780   -5.1420   30.5740 O   0  0  0  0  0
  -41.9650   -5.6040   30.7480 C   0  0  0  0  0
  -42.4310   -6.0020   32.1110 C   0  0  0  0  0
  -41.2190   -6.4260   32.8640 C   0  0  0  0  0
  -39.6110   -5.5990   28.5040 N   0  0  0  0  0
  -38.7230   -4.7080   27.7850 C   0  0  0  0  0
  -39.0320   -3.2230   28.1600 C   0  0  0  0  0
  -40.1690   -2.8920   28.5350 O   0  0  0  0  0
  -38.8000   -4.9620   26.2780 C   0  0  0  0  0
  -37.4610   -4.7590   25.5680 C   0  0  0  0  0
  -37.3320   -5.4710   24.1920 C   0  0  0  0  0
  -36.1370   -4.9930   23.4810 N   0  0  0  0  0
  -36.0900   -3.8200   22.8850 C   0  0  0  0  0
  -34.9870   -3.3930   22.3220 N   0  0  0  0  0
  -37.1610   -3.0500   22.8620 N   0  0  0  0  0
  -37.9910   -2.4020   28.1660 N   0  0  0  0  0
  -38.0960   -0.9890   28.5810 C   0  0  0  0  0
  -37.8660   -0.0560   27.4020 C   0  0  0  0  0
  -37.4410   -0.5080   26.3630 O   0  0  0  0  0
  -37.0700   -0.6290   29.6630 C   0  0  0  0  0
  -35.7630   -0.7980   29.1320 O   0  0  0  0  0
  -37.2170   -1.4320   30.9290 C   0  0  0  0  0
  -38.1720    1.2100   27.6240 N   0  0  0  0  0
  -38.0100    2.2780   26.6180 C   0  0  0  0  0
  -37.2930    3.4550   27.2780 C   0  0  0  0  0
  -37.5040    3.6720   28.4390 O   0  0  0  0  0
  -39.3740    2.7520   26.1000 C   0  0  0  0  0
  -40.4290    1.8520   26.4300 O   0  0  0  0  0
  -39.3700    2.9800   24.6090 C   0  0  0  0  0
  -36.4580    4.1610   26.5320 N   0  0  0  0  0
  -35.8070    5.3480   27.0470 C   0  0  0  0  0
  -34.4740    5.6390   26.3880 C   0  0  0  0  0
  -35.1680    1.7660   16.4590 O   0  0  0  0  0
  -33.9440    1.4050   17.1060 P   0  0  0  0  0
  -32.9420    2.2570   16.5230 O   0  0  0  0  0
  -33.6800    1.9140   18.5950 O   0  0  0  0  0
  -34.8370    2.0300   19.6640 P   0  0  0  0  0
  -35.5400    0.7350   19.8370 O   0  0  0  0  0
  -34.2410    2.4300   20.9050 O   0  0  0  0  0
  -35.6060    3.3280   19.3030 O   0  0  0  0  0
  -36.6210    3.6420   20.4270 P   0  0  0  0  0
  -37.8650    4.2220   19.8510 O   0  0  0  0  0
  -37.0240    2.3680   21.0910 O   0  0  0  0  0
  -36.1060    4.5870   22.1290 S   0  0  0  0  0
  -34.5030    4.4360   22.8320 C   0  0  0  0  0
  -34.5710    5.3450   24.0400 C   0  0  0  0  0
  -34.9600    6.4790   23.9400 O   0  0  0  0  0
  -34.2280    4.8720   25.2000 N   0  0  0  0  0
  -33.6210   -0.1160   16.8740 O   0  0  0  0  0
  -34.5820   -1.1300   16.7140 C   0  0  0  0  0
  -33.9590   -2.5020   16.9060 C   0  0  0  0  0
  -32.8460   -2.7670   16.0960 O   0  0  0  0  0
  -31.9160   -3.5420   16.7750 C   0  0  0  0  0
  -32.2310   -3.4690   18.2350 C   0  0  0  0  0
  -32.3160   -4.7660   18.7730 O   0  0  0  0  0
  -33.5120   -2.6900   18.3170 C   0  0  0  0  0
  -34.5530   -3.3820   18.9640 O   0  0  0  0  0
  -30.5990   -2.9960   16.5110 N   0  0  0  0  0
  -30.1970   -1.7610   16.6550 C   0  0  0  0  0
  -28.9330   -1.6200   16.2930 N   0  0  0  0  0
  -28.5000   -2.8000   15.9010 C   0  0  0  0  0
  -27.2570   -3.3820   15.3800 C   0  0  0  0  0
  -26.1630   -2.6740   15.2070 N   0  0  0  0  0
  -27.2460   -4.6650   15.1140 N   0  0  0  0  0
  -28.3190   -5.4230   15.2630 C   0  0  0  0  0
  -29.4680   -4.9790   15.7110 N   0  0  0  0  0
  -29.6170   -3.7030   16.0410 C   0  0  0  0  0
  -36.7040    6.5520   26.8250 C   0  0  0  0  0
  -37.7340    6.4330   26.2510 O   0  0  0  0  0
  -36.2720    7.7120   27.3140 N   0  0  0  0  0
  -36.9760    9.0000   27.1620 C   0  0  0  0  0
  -35.9940   10.1290   27.4620 C   0  0  0  0  0
  -34.9340    9.8650   27.9950 O   0  0  0  0  0
  -38.0830    9.0930   28.2090 C   0  0  0  0  0
  -37.5380    9.2850   29.5970 C   0  0  0  0  0
  -37.1440    8.2050   30.3600 C   0  0  0  0  0
  -37.3270   10.5500   30.1020 C   0  0  0  0  0
  -36.6000    8.3840   31.6130 C   0  0  0  0  0
  -36.7660   10.7270   31.3470 C   0  0  0  0  0
  -36.4180    9.6460   32.1040 C   0  0  0  0  0
  -36.3630   11.3530   27.0930 N   0  0  0  0  0
  -35.5770   12.5670   27.4010 C   0  0  0  0  0
  -36.5200   13.7630   27.5900 C   0  0  0  0  0
  -37.4150   13.9240   26.7650 O   0  0  0  0  0
  -34.5550   12.8240   26.3340 C   0  0  0  0  0
  -36.2730   14.5570   28.6360 N   0  0  0  0  0
  -37.0040   15.8150   29.0600 C   0  0  0  0  0
  -36.9090   16.1040   30.5850 C   0  0  0  0  0
  -37.9060   16.1450   31.3540 O   0  0  0  0  0
  -38.4750   15.8540   28.6490 C   0  0  0  0  0
  -38.7640   16.7770   27.4720 C   0  0  0  0  0
  -40.2570   16.8430   27.1980 C   0  0  0  0  0
  -41.0110   17.3690   28.0620 O   0  0  0  0  0
  -40.6640   16.3310   26.1300 O   0  0  0  0  0
  -35.8260   16.3240   31.1910 O   0  0  0  0  0
  -37.7980  -13.5693   33.8291 H   0  0  0  0  0
  -38.3979  -12.3740   34.8232 H   0  0  0  0  0
  -39.3310  -12.9668   33.5764 H   0  0  0  0  0
  -37.7969  -12.0764   31.9397 H   0  0  0  0  0
  -36.8091  -11.4488   33.2596 H   0  0  0  0  0
  -37.2043   -9.3969   33.8523 H   0  0  0  0  0
  -39.6759   -8.1458   33.9757 H   0  0  0  0  0
  -37.5885   -7.1104   34.7197 H   0  0  0  0  0
  -38.4395   -6.0204   33.5092 H   0  0  0  0  0
  -36.8116   -6.8908   31.7905 H   0  0  0  0  0
  -35.9405   -7.6993   33.0628 H   0  0  0  0  0
  -35.6730   -5.6222   34.2889 H   0  0  0  0  0
  -36.6682   -4.7622   33.0521 H   0  0  0  0  0
  -33.8877   -5.5177   32.9223 H   0  0  0  0  0
  -36.7130   -4.7481   30.9201 H   0  0  0  0  0
  -33.4078   -4.2776   29.7320 H   0  0  0  0  0
  -32.6491   -4.8288   31.2292 H   0  0  0  0  0
  -40.9532   -7.3157   29.7795 H   0  0  0  0  0
  -42.7434   -5.7343   29.9962 H   0  0  0  0  0
  -41.7096   -4.5456   30.6968 H   0  0  0  0  0
  -43.1586   -6.8116   32.0541 H   0  0  0  0  0
  -42.9308   -5.1722   32.6107 H   0  0  0  0  0
  -40.7346   -5.6094   33.3994 H   0  0  0  0  0
  -41.4340   -7.1272   33.6704 H   0  0  0  0  0
  -40.2620   -6.1778   27.9733 H   0  0  0  0  0
  -37.6940   -4.9106   28.0821 H   0  0  0  0  0
  -39.5099   -4.2499   25.8573 H   0  0  0  0  0
  -39.0994   -5.9998   26.1313 H   0  0  0  0  0
  -36.6940   -5.1842   26.2153 H   0  0  0  0  0
  -37.3639   -3.6899   25.3793 H   0  0  0  0  0
  -38.2152   -5.2502   23.5926 H   0  0  0  0  0
  -37.2442   -6.5454   24.3538 H   0  0  0  0  0
  -35.3129   -5.5932   23.4483 H   0  0  0  0  0
  -34.1474   -3.9719   22.3412 H   0  0  0  0  0
  -37.1226   -2.1363   22.4102 H   0  0  0  0  0
  -38.0274   -3.3683   23.2960 H   0  0  0  0  0
  -37.0823   -2.7605   27.8725 H   0  0  0  0  0
  -39.1037   -0.8658   28.9777 H   0  0  0  0  0
  -37.2496    0.4091   29.9424 H   0  0  0  0  0
  -35.1146   -0.5745   29.8037 H   0  0  0  0  0
  -38.2075   -1.2636   31.3516 H   0  0  0  0  0
  -37.0924   -2.4909   30.7026 H   0  0  0  0  0
  -36.4570   -1.1205   31.6456 H   0  0  0  0  0
  -38.5404    1.4633   28.5408 H   0  0  0  0  0
  -37.4352    1.8920   25.7761 H   0  0  0  0  0
  -39.5564    3.7010   26.6043 H   0  0  0  0  0
  -41.2579    2.1921   26.0852 H   0  0  0  0  0
  -38.6301    3.7411   24.3611 H   0  0  0  0  0
  -39.1194    2.0487   24.1010 H   0  0  0  0  0
  -40.3576    3.3144   24.2912 H   0  0  0  0  0
  -36.2692    3.8630   25.5749 H   0  0  0  0  0
  -35.6254    5.1606   28.1053 H   0  0  0  0  0
  -33.6959    5.3801   27.1060 H   0  0  0  0  0
  -34.4800    6.6897   26.0981 H   0  0  0  0  0
  -32.0890    2.0628   16.9183 H   0  0  0  0  0
  -35.9364    0.4734   19.0027 H   0  0  0  0  0
  -36.2509    1.9531   21.4806 H   0  0  0  0  0
  -33.7104    4.7159   22.1380 H   0  0  0  0  0
  -34.2521    3.4076   23.0920 H   0  0  0  0  0
  -33.7841    3.9561   25.2667 H   0  0  0  0  0
  -34.9916   -1.0689   15.7058 H   0  0  0  0  0
  -35.3643   -0.9926   17.4604 H   0  0  0  0  0
  -34.7570   -3.1888   16.6240 H   0  0  0  0  0
  -31.9452   -4.5827   16.4523 H   0  0  0  0  0
  -31.4607   -2.9736   18.8260 H   0  0  0  0  0
  -32.5183   -4.7100   19.7098 H   0  0  0  0  0
  -33.3194   -1.7746   18.8766 H   0  0  0  0  0
  -34.3151   -3.5301   19.8822 H   0  0  0  0  0
  -30.8238   -0.9502   17.0263 H   0  0  0  0  0
  -26.1567   -1.6804   15.4376 H   0  0  0  0  0
  -25.3204   -3.1182   14.8422 H   0  0  0  0  0
  -28.2438   -6.4776   14.9981 H   0  0  0  0  0
  -35.3923    7.7106   27.8302 H   0  0  0  0  0
  -37.3809    9.0738   26.1527 H   0  0  0  0  0
  -38.6451    8.1593   28.1918 H   0  0  0  0  0
  -38.7064    9.9539   27.9676 H   0  0  0  0  0
  -37.2649    7.1960   29.9658 H   0  0  0  0  0
  -37.6075   11.4204   29.5089 H   0  0  0  0  0
  -36.3149    7.5193   32.2123 H   0  0  0  0  0
  -36.5993   11.7340   31.7293 H   0  0  0  0  0
  -35.9956    9.7892   33.0986 H   0  0  0  0  0
  -37.2327   11.4593   26.5708 H   0  0  0  0  0
  -35.0333   12.4152   28.3334 H   0  0  0  0  0
  -33.8773   11.9727   26.2692 H   0  0  0  0  0
  -35.0579   12.9634   25.3770 H   0  0  0  0  0
  -33.9896   13.7220   26.5830 H   0  0  0  0  0
  -35.4892   14.2799   29.2269 H   0  0  0  0  0
  -36.4745   16.5962   28.5147 H   0  0  0  0  0
  -39.0396   16.2305   29.5020 H   0  0  0  0  0
  -38.7531   14.8449   28.3450 H   0  0  0  0  0
  -38.2594   16.3893   26.5870 H   0  0  0  0  0
  -38.4043   17.7777   27.7114 H   0  0  0  0  0
  -40.4803   17.6935   28.7932 H   0  0  0  0  0
  -35.0975   16.2827   30.5672 H   0  0  0  0  0
  2  1  1  0  0  0
  3  2  1  0  0  0
  3  4  2  0  0  0
  5  3  1  0  0  0
  6  5  1  0  0  0
  7  6  1  0  0  0
  6  9  1  0  0  0
  7  8  2  0  0  0
 16  7  1  0  0  0
  9 10  1  0  0  0
 10 11  1  0  0  0
 11 12  1  0  0  0
 12 13  1  0  0  0
 13 14  2  0  0  0
 13 15  1  0  0  0
 17 16  1  0  0  0
 16 22  1  0  0  0
 18 17  1  0  0  0
 17 20  1  0  0  0
 18 19  2  0  0  0
 23 18  1  0  0  0
 20 21  1  0  0  0
 21 22  1  0  0  0
 24 23  1  0  0  0
 25 24  1  0  0  0
 24 27  1  0  0  0
 25 26  2  0  0  0
 34 25  1  0  0  0
 27 28  1  0  0  0
 28 29  1  0  0  0
 29 30  1  0  0  0
 30 31  1  0  0  0
 31 32  2  0  0  0
 31 33  1  0  0  0
 35 34  1  0  0  0
 36 35  1  0  0  0
 35 38  1  0  0  0
 36 37  2  0  0  0
 41 36  1  0  0  0
 38 39  1  0  0  0
 38 40  1  0  0  0
 42 41  1  0  0  0
 43 42  1  0  0  0
 42 45  1  0  0  0
 43 44  2  0  0  0
 48 43  1  0  0  0
 45 46  1  0  0  0
 45 47  1  0  0  0
 49 48  1  0  0  0
 50 49  1  0  0  0
 49 86  1  0  0  0
 66 50  1  0  0  0
 52 51  2  0  0  0
 52 53  1  0  0  0
 54 52  1  0  0  0
 52 67  1  0  0  0
 55 54  1  0  0  0
 55 56  1  0  0  0
 55 57  2  0  0  0
 58 55  1  0  0  0
 59 58  1  0  0  0
 59 60  2  0  0  0
 59 61  1  0  0  0
 62 59  1  0  0  0
 63 62  1  0  0  0
 64 63  1  0  0  0
 64 65  2  0  0  0
 64 66  1  0  0  0
 67 68  1  0  0  0
 68 69  1  0  0  0
 69 70  1  0  0  0
 69 74  1  0  0  0
 70 71  1  0  0  0
 71 72  1  0  0  0
 71 76  1  0  0  0
 72 73  1  0  0  0
 72 74  1  0  0  0
 74 75  1  0  0  0
 76 77  4  0  0  0
 76 85  4  0  0  0
 77 78  4  0  0  0
 78 79  4  0  0  0
 79 80  4  0  0  0
 79 85  4  0  0  0
 80 81  1  0  0  0
 80 82  4  0  0  0
 82 83  4  0  0  0
 83 84  4  0  0  0
 84 85  4  0  0  0
 86 87  2  0  0  0
 86 88  1  0  0  0
 88 89  1  0  0  0
 89 90  1  0  0  0
 89 92  1  0  0  0
 90 91  2  0  0  0
 90 99  1  0  0  0
 92 93  1  0  0  0
 93 94  4  0  0  0
 93 95  4  0  0  0
 94 96  4  0  0  0
 95 97  4  0  0  0
 96 98  4  0  0  0
 97 98  4  0  0  0
 99100  1  0  0  0
100101  1  0  0  0
100103  1  0  0  0
101102  2  0  0  0
101104  1  0  0  0
104105  1  0  0  0
105106  1  0  0  0
105108  1  0  0  0
106107  2  0  0  0
106113  1  0  0  0
108109  1  0  0  0
109110  1  0  0  0
110111  1  0  0  0
110112  2  0  0  0
  1114  1  0  0  0
  1115  1  0  0  0
  1116  1  0  0  0
  2117  1  0  0  0
  2118  1  0  0  0
  5119  1  0  0  0
  6120  1  0  0  0
  9121  1  0  0  0
  9122  1  0  0  0
 10123  1  0  0  0
 10124  1  0  0  0
 11125  1  0  0  0
 11126  1  0  0  0
 12127  1  0  0  0
 14128  1  0  0  0
 15129  1  0  0  0
 15130  1  0  0  0
 17131  1  0  0  0
 20132  1  0  0  0
 20133  1  0  0  0
 21134  1  0  0  0
 21135  1  0  0  0
 22136  1  0  0  0
 22137  1  0  0  0
 23138  1  0  0  0
 24139  1  0  0  0
 27140  1  0  0  0
 27141  1  0  0  0
 28142  1  0  0  0
 28143  1  0  0  0
 29144  1  0  0  0
 29145  1  0  0  0
 30146  1  0  0  0
 32147  1  0  0  0
 33148  1  0  0  0
 33149  1  0  0  0
 34150  1  0  0  0
 35151  1  0  0  0
 38152  1  0  0  0
 39153  1  0  0  0
 40154  1  0  0  0
 40155  1  0  0  0
 40156  1  0  0  0
 41157  1  0  0  0
 42158  1  0  0  0
 45159  1  0  0  0
 46160  1  0  0  0
 47161  1  0  0  0
 47162  1  0  0  0
 47163  1  0  0  0
 48164  1  0  0  0
 49165  1  0  0  0
 50166  1  0  0  0
 50167  1  0  0  0
 53168  1  0  0  0
 56169  1  0  0  0
 61170  1  0  0  0
 63171  1  0  0  0
 63172  1  0  0  0
 66173  1  0  0  0
 68174  1  0  0  0
 68175  1  0  0  0
 69176  1  0  0  0
 71177  1  0  0  0
 72178  1  0  0  0
 73179  1  0  0  0
 74180  1  0  0  0
 75181  1  0  0  0
 77182  1  0  0  0
 81183  1  0  0  0
 81184  1  0  0  0
 83185  1  0  0  0
 88186  1  0  0  0
 89187  1  0  0  0
 92188  1  0  0  0
 92189  1  0  0  0
 94190  1  0  0  0
 95191  1  0  0  0
 96192  1  0  0  0
 97193  1  0  0  0
 98194  1  0  0  0
 99195  1  0  0  0
100196  1  0  0  0
103197  1  0  0  0
103198  1  0  0  0
103199  1  0  0  0
104200  1  0  0  0
105201  1  0  0  0
108202  1  0  0  0
108203  1  0  0  0
109204  1  0  0  0
109205  1  0  0  0
111206  1  0  0  0
113207  1  0  0  0
M  END
$$$$
