2uz6_ligand
  -I-interpret- 

226230  0  0  0  0  0  0  0  0999 V2000
   51.7130   35.3510   94.6530 N   0  3  0  0  0
   52.4800   36.0140   93.5590 C   0  0  0  0  0
   53.9710   35.7750   93.6820 C   0  0  0  0  0
   54.4520   35.3510   94.7340 O   0  0  0  0  0
   54.7000   36.0370   92.5980 N   0  0  0  0  0
   56.1530   35.8700   92.5800 C   0  0  0  0  0
   56.8100   36.5740   93.7600 C   0  0  0  0  0
   57.5820   35.9730   94.5080 O   0  0  0  0  0
   56.7420   36.4140   91.2780 C   0  0  0  0  0
   58.5530   36.4790   91.2710 S   0  0  0  0  0
   56.4730   37.8500   93.9210 N   0  0  0  0  0
   57.0340   38.6910   94.9730 C   0  0  0  0  0
   56.5790   38.3000   96.3790 C   0  0  0  0  0
   56.9930   38.9190   97.3620 O   0  0  0  0  0
   56.7230   40.1620   94.6890 C   0  0  0  0  0
   57.2320   40.7120   93.0410 S   0  0  0  0  0
   55.7300   37.2780   96.4720 N   0  0  0  0  0
   55.2820   36.7940   97.7720 C   0  0  0  0  0
   56.0470   35.5370   98.1910 C   0  0  0  0  0
   55.6980   34.8930   99.1840 O   0  0  0  0  0
   53.7600   36.5740   97.8170 C   0  0  0  0  0
   53.3660   35.4070   97.1180 O   0  0  0  0  0
   57.0860   35.1860   97.4330 N   0  0  0  0  0
   57.9090   34.0300   97.7850 C   0  0  0  0  0
   59.4060   34.2330   97.5370 C   0  0  0  0  0
   59.8120   34.6690   96.4590 O   0  0  0  0  0
   57.3920   32.7220   97.1650 C   0  0  0  0  0
   57.4780   32.6030   95.6600 C   0  0  0  0  0
   56.9950   31.2330   95.1970 C   0  0  0  0  0
   55.5500   31.0550   95.3590 N   0  0  0  0  0
   54.9580   30.4530   96.3890 C   0  0  0  0  0
   55.6740   29.9410   97.3800 N   0  0  0  0  0
   53.6360   30.3560   96.4230 N   0  0  0  0  0
   60.2240   33.9040   98.5530 N   0  0  0  0  0
   61.6800   34.0450   98.5730 C   0  0  0  0  0
   62.4420   33.5630   97.3220 C   0  0  0  0  0
   63.2620   34.3260   96.8070 O   0  0  0  0  0
   62.0900   33.2490   99.8160 C   0  0  0  0  0
   60.9190   33.3440  100.6970 C   0  0  0  0  0
   59.7210   33.3390   99.8200 C   0  0  0  0  0
   62.1860   32.3270   96.8290 N   0  0  0  0  0
   62.9740   31.9330   95.6570 C   0  0  0  0  0
   62.6720   32.7390   94.3910 C   0  0  0  0  0
   63.5480   32.8740   93.5360 O   0  0  0  0  0
   62.6050   30.4590   95.4600 C   0  0  0  0  0
   61.2730   30.3170   96.0750 C   0  0  0  0  0
   61.2590   31.2540   97.2410 C   0  0  0  0  0
   61.4560   33.2720   94.2750 N   0  0  0  0  0
   61.0900   34.0490   93.0940 C   0  0  0  0  0
   61.6800   35.4530   93.1560 C   0  0  0  0  0
   62.0340   36.0280   92.1230 O   0  0  0  0  0
   59.5750   34.1100   92.9070 C   0  0  0  0  0
   59.0960   34.5280   91.2120 S   0  0  0  0  0
   61.7790   35.9960   94.3700 N   0  0  0  0  0
   62.3580   37.3190   94.5910 C   0  0  0  0  0
   63.8630   37.2780   94.2600 C   0  0  0  0  0
   64.3890   38.2240   93.6700 O   0  0  0  0  0
   62.0580   37.8600   96.0230 C   0  0  0  0  0
   60.5450   37.8300   96.2930 C   0  0  0  0  0
   62.5900   39.2910   96.1910 C   0  0  0  0  0
   60.1460   38.1830   97.7150 C   0  0  0  0  0
   64.5390   36.1790   94.6130 N   0  0  0  0  0
   65.9610   36.0010   94.2700 C   0  0  0  0  0
   66.2100   35.9510   92.7710 C   0  0  0  0  0
   67.2590   36.3920   92.2980 O   0  0  0  0  0
   66.5640   34.7260   94.8690 C   0  0  0  0  0
   67.2390   34.6960   96.2380 C   0  0  0  0  0
   68.0690   33.4340   96.3140 C   0  0  0  0  0
   68.1430   35.9090   96.4450 C   0  0  0  0  0
   65.2540   35.3830   92.0410 N   0  0  0  0  0
   65.3430   35.2420   90.5910 C   0  0  0  0  0
   64.8400   36.4470   89.8090 C   0  0  0  0  0
   65.1790   36.6200   88.6360 O   0  0  0  0  0
   64.5980   33.9840   90.1410 C   0  0  0  0  0
   65.3620   32.7140   90.4570 C   0  0  0  0  0
   66.5880   32.6770   90.3630 O   0  0  0  0  0
   64.6390   31.6580   90.8100 N   0  0  0  0  0
   64.0350   37.2760   90.4660 N   0  0  0  0  0
   63.4540   38.4510   89.8290 C   0  0  0  0  0
   63.4810   39.6850   90.7400 C   0  0  0  0  0
   62.4280   40.1710   91.1610 O   0  0  0  0  0
   62.0320   38.1190   89.3680 C   0  0  0  0  0
   62.0030   36.9890   88.3510 C   0  0  0  0  0
   62.5950   37.0850   87.2770 O   0  0  0  0  0
   61.3050   35.9110   88.6880 N   0  0  0  0  0
   64.6950   40.1950   91.0430 N   0  0  0  0  0
   64.9070   41.3580   91.9190 C   0  0  0  0  0
   64.2050   42.6220   91.4320 C   0  0  0  0  0
   63.3030   43.1360   92.1000 O   0  0  0  0  0
   66.4250   41.5690   91.8610 C   0  0  0  0  0
   66.8850   40.8340   90.6350 C   0  0  0  0  0
   65.9740   39.6640   90.5320 C   0  0  0  0  0
   64.6470   43.1120   90.2790 N   0  0  0  0  0
   64.0850   44.2910   89.6390 C   0  0  0  0  0
   62.7160   43.9810   89.0460 C   0  0  0  0  0
   61.8240   44.8340   89.0330 O   0  0  0  0  0
   65.0570   44.8240   88.5770 C   0  0  0  0  0
   65.7470   43.7100   87.7870 C   0  0  0  0  0
   65.2190   42.5750   87.7240 O   0  0  0  0  0
   66.8260   43.9780   87.2210 O   0  0  0  0  0
   62.5520   42.7410   88.5860 N   0  0  0  0  0
   61.2950   42.2810   87.9930 C   0  0  0  0  0
   60.1700   42.1490   89.0410 C   0  0  0  0  0
   59.0690   41.6830   88.7290 O   0  0  0  0  0
   61.5110   40.9760   87.2060 C   0  0  0  0  0
   62.6550   40.9320   86.1720 C   0  0  0  0  0
   62.7060   39.5790   85.4760 C   0  0  0  0  0
   62.5520   42.0530   85.1290 C   0  0  0  0  0
   60.4670   42.5580   90.2770 N   0  0  0  0  0
   59.4920   42.5900   91.3750 C   0  0  0  0  0
   59.0730   44.0090   91.7360 C   0  0  0  0  0
   57.8710   44.1840   91.4930 O   0  0  0  0  0
   59.9890   41.8490   92.6250 C   0  0  0  0  0
   59.2100   40.2350   92.9090 S   0  0  0  0  0
   59.5680   44.8260   92.6100 N   0  0  0  0  0
   50.7178   35.5380   94.5305 H   0  0  0  0  0
   51.8777   34.3449   94.6206 H   0  0  0  0  0
   52.0209   35.7183   95.5534 H   0  0  0  0  0
   52.3016   37.0875   93.6212 H   0  0  0  0  0
   52.1462   35.5970   92.6089 H   0  0  0  0  0
   54.2300   36.3644   91.7540 H   0  0  0  0  0
   56.3557   34.8016   92.6538 H   0  0  0  0  0
   56.3782   37.4343   91.1563 H   0  0  0  0  0
   56.4363   35.7424   90.4757 H   0  0  0  0  0
   55.7923   38.2590   93.2809 H   0  0  0  0  0
   58.1125   38.5337   94.9570 H   0  0  0  0  0
   57.2763   40.7572   95.4154 H   0  0  0  0  0
   55.6417   40.2836   94.7525 H   0  0  0  0  0
   55.3888   36.8281   95.6225 H   0  0  0  0  0
   55.5066   37.5748   98.4986 H   0  0  0  0  0
   53.2799   37.4305   97.3438 H   0  0  0  0  0
   53.4650   36.4598   98.8601 H   0  0  0  0  0
   52.4125   35.3096   97.1721 H   0  0  0  0  0
   57.3090   35.7294   96.5991 H   0  0  0  0  0
   57.8037   33.9331   98.8656 H   0  0  0  0  0
   56.3310   32.6726   97.4098 H   0  0  0  0  0
   58.0244   31.9296   97.5653 H   0  0  0  0  0
   58.5169   32.7307   95.3560 H   0  0  0  0  0
   56.8464   33.3690   95.2101 H   0  0  0  0  0
   57.4942   30.4798   95.8066 H   0  0  0  0  0
   57.2257   31.1392   94.1358 H   0  0  0  0  0
   54.9477   31.4223   94.6223 H   0  0  0  0  0
   56.6918   30.0053   97.3600 H   0  0  0  0  0
   53.1788   29.8905   97.2070 H   0  0  0  0  0
   53.0763   30.7468   95.6651 H   0  0  0  0  0
   61.9458   35.1020   98.5884 H   0  0  0  0  0
   62.9924   33.6444  100.2822 H   0  0  0  0  0
   62.3485   32.2167   99.5803 H   0  0  0  0  0
   60.9572   34.2540  101.2957 H   0  0  0  0  0
   60.8911   32.5082  101.3961 H   0  0  0  0  0
   59.2968   32.3427   99.6955 H   0  0  0  0  0
   58.8942   33.9143  100.2365 H   0  0  0  0  0
   64.0353   32.1145   95.8269 H   0  0  0  0  0
   63.3362   29.7935   95.9190 H   0  0  0  0  0
   62.5964   30.1809   94.4061 H   0  0  0  0  0
   61.0898   29.2898   96.3902 H   0  0  0  0  0
   60.4814   30.5565   95.3650 H   0  0  0  0  0
   60.2600   31.6274   97.4661 H   0  0  0  0  0
   61.5635   30.7713   98.1697 H   0  0  0  0  0
   60.7728   33.1356   95.0200 H   0  0  0  0  0
   61.5115   33.5382   92.2283 H   0  0  0  0  0
   59.1877   34.8875   93.5655 H   0  0  0  0  0
   59.1698   33.1243   93.1357 H   0  0  0  0  0
   61.4380   35.4684   95.1736 H   0  0  0  0  0
   61.8849   38.0334   93.9173 H   0  0  0  0  0
   62.5647   37.2171   96.7428 H   0  0  0  0  0
   60.2115   36.8077   96.1148 H   0  0  0  0  0
   60.0920   38.5777   95.6419 H   0  0  0  0  0
   63.6684   39.2973   96.0322 H   0  0  0  0  0
   62.1102   39.9436   95.4616 H   0  0  0  0  0
   62.3677   39.6440   97.1980 H   0  0  0  0  0
   60.6037   37.4749   98.4058 H   0  0  0  0  0
   60.4878   39.1917   97.9471 H   0  0  0  0  0
   59.0611   38.1349   97.8092 H   0  0  0  0  0
   64.0577   35.4453   95.1330 H   0  0  0  0  0
   66.4427   36.8802   94.6980 H   0  0  0  0  0
   67.3775   34.4880   94.1836 H   0  0  0  0  0
   65.6975   34.0784   95.0030 H   0  0  0  0  0
   66.4751   34.7183   97.0152 H   0  0  0  0  0
   67.4207   32.5664   96.1913 H   0  0  0  0  0
   68.8176   33.4448   95.5218 H   0  0  0  0  0
   68.5648   33.3845   97.2835 H   0  0  0  0  0
   68.9179   35.9180   95.6785 H   0  0  0  0  0
   67.5487   36.8199   96.3734 H   0  0  0  0  0
   68.6055   35.8519   97.4304 H   0  0  0  0  0
   64.4225   35.0306   92.5152 H   0  0  0  0  0
   66.4066   35.1622   90.3664 H   0  0  0  0  0
   64.4678   34.0384   89.0602 H   0  0  0  0  0
   63.6479   33.9467   90.6739 H   0  0  0  0  0
   65.0986   30.7710   91.0158 H   0  0  0  0  0
   63.6239   31.7337   90.8754 H   0  0  0  0  0
   63.8177   37.0843   91.4440 H   0  0  0  0  0
   64.0623   38.7106   88.9625 H   0  0  0  0  0
   61.6134   39.0083   88.8969 H   0  0  0  0  0
   61.4592   37.8034   90.2400 H   0  0  0  0  0
   61.2448   35.1210   88.0456 H   0  0  0  0  0
   60.8289   35.8729   89.5893 H   0  0  0  0  0
   64.5038   41.1743   92.9149 H   0  0  0  0  0
   66.9152   41.1938   92.7593 H   0  0  0  0  0
   66.6797   42.6277   91.8114 H   0  0  0  0  0
   67.9292   40.5307   90.7107 H   0  0  0  0  0
   66.8427   41.4617   89.7449 H   0  0  0  0  0
   65.8956   39.2771   89.5160 H   0  0  0  0  0
   66.3288   38.8008   91.0951 H   0  0  0  0  0
   65.4222   42.6358   89.8178 H   0  0  0  0  0
   63.9435   45.0702   90.3879 H   0  0  0  0  0
   65.8302   45.3953   89.0907 H   0  0  0  0  0
   64.4824   45.4248   87.8720 H   0  0  0  0  0
   64.3992   42.5765   88.2235 H   0  0  0  0  0
   63.3324   42.0872   88.6495 H   0  0  0  0  0
   60.9628   43.0430   87.2880 H   0  0  0  0  0
   60.5966   40.8316   86.6306 H   0  0  0  0  0
   61.7701   40.2273   87.9547 H   0  0  0  0  0
   63.5794   41.0867   86.7284 H   0  0  0  0  0
   62.8720   38.7968   86.2168 H   0  0  0  0  0
   61.7614   39.4002   84.9624 H   0  0  0  0  0
   63.5211   39.5746   84.7523 H   0  0  0  0  0
   61.6092   41.9604   84.5898 H   0  0  0  0  0
   62.5913   43.0196   85.6313 H   0  0  0  0  0
   63.3826   41.9725   84.4277 H   0  0  0  0  0
   61.4209   42.8642   90.4686 H   0  0  0  0  0
   58.6141   42.0632   91.0011 H   0  0  0  0  0
   59.7444   42.4749   93.4832 H   0  0  0  0  0
   61.0543   41.6667   92.4834 H   0  0  0  0  0
   58.9749   45.5386   93.0353 H   0  0  0  0  0
   60.5510   44.7570   92.8733 H   0  0  0  0  0
  1  2  1  0  0  0
  2  3  1  0  0  0
  3  4  2  0  0  0
  3  5  1  0  0  0
  5  6  1  0  0  0
  6  7  1  0  0  0
  6  9  1  0  0  0
  7  8  2  0  0  0
  7 11  1  0  0  0
  9 10  1  0  0  0
 10 53  1  0  0  0
 11 12  1  0  0  0
 12 13  1  0  0  0
 12 15  1  0  0  0
 13 14  2  0  0  0
 13 17  1  0  0  0
 15 16  1  0  0  0
 16114  1  0  0  0
 17 18  1  0  0  0
 18 19  1  0  0  0
 18 21  1  0  0  0
 19 20  2  0  0  0
 19 23  1  0  0  0
 21 22  1  0  0  0
 23 24  1  0  0  0
 24 25  1  0  0  0
 24 27  1  0  0  0
 25 26  2  0  0  0
 25 34  1  0  0  0
 27 28  1  0  0  0
 28 29  1  0  0  0
 29 30  1  0  0  0
 30 31  1  0  0  0
 31 32  2  0  0  0
 31 33  1  0  0  0
 34 35  1  0  0  0
 34 40  1  0  0  0
 35 36  1  0  0  0
 35 38  1  0  0  0
 36 37  2  0  0  0
 36 41  1  0  0  0
 38 39  1  0  0  0
 39 40  1  0  0  0
 41 42  1  0  0  0
 41 47  1  0  0  0
 42 43  1  0  0  0
 42 45  1  0  0  0
 43 44  2  0  0  0
 43 48  1  0  0  0
 45 46  1  0  0  0
 46 47  1  0  0  0
 48 49  1  0  0  0
 49 50  1  0  0  0
 49 52  1  0  0  0
 50 51  2  0  0  0
 50 54  1  0  0  0
 52 53  1  0  0  0
 54 55  1  0  0  0
 55 56  1  0  0  0
 55 58  1  0  0  0
 56 57  2  0  0  0
 56 62  1  0  0  0
 58 59  1  0  0  0
 58 60  1  0  0  0
 59 61  1  0  0  0
 62 63  1  0  0  0
 63 64  1  0  0  0
 63 66  1  0  0  0
 64 65  2  0  0  0
 64 70  1  0  0  0
 66 67  1  0  0  0
 67 68  1  0  0  0
 67 69  1  0  0  0
 70 71  1  0  0  0
 71 72  1  0  0  0
 71 74  1  0  0  0
 72 73  2  0  0  0
 72 78  1  0  0  0
 74 75  1  0  0  0
 75 76  2  0  0  0
 75 77  1  0  0  0
 78 79  1  0  0  0
 79 80  1  0  0  0
 79 82  1  0  0  0
 80 81  2  0  0  0
 80 86  1  0  0  0
 82 83  1  0  0  0
 83 84  2  0  0  0
 83 85  1  0  0  0
 86 87  1  0  0  0
 86 92  1  0  0  0
 87 88  1  0  0  0
 87 90  1  0  0  0
 88 89  2  0  0  0
 88 93  1  0  0  0
 90 91  1  0  0  0
 91 92  1  0  0  0
 93 94  1  0  0  0
 94 95  1  0  0  0
 94 97  1  0  0  0
 95 96  2  0  0  0
 95101  1  0  0  0
 97 98  1  0  0  0
 98 99  1  0  0  0
 98100  2  0  0  0
101102  1  0  0  0
102103  1  0  0  0
102105  1  0  0  0
103104  2  0  0  0
103109  1  0  0  0
105106  1  0  0  0
106107  1  0  0  0
106108  1  0  0  0
109110  1  0  0  0
110111  1  0  0  0
110113  1  0  0  0
111112  2  0  0  0
111115  1  0  0  0
113114  1  0  0  0
  1116  1  0  0  0
  1117  1  0  0  0
  1118  1  0  0  0
  2119  1  0  0  0
  2120  1  0  0  0
  5121  1  0  0  0
  6122  1  0  0  0
  9123  1  0  0  0
  9124  1  0  0  0
 11125  1  0  0  0
 12126  1  0  0  0
 15127  1  0  0  0
 15128  1  0  0  0
 17129  1  0  0  0
 18130  1  0  0  0
 21131  1  0  0  0
 21132  1  0  0  0
 22133  1  0  0  0
 23134  1  0  0  0
 24135  1  0  0  0
 27136  1  0  0  0
 27137  1  0  0  0
 28138  1  0  0  0
 28139  1  0  0  0
 29140  1  0  0  0
 29141  1  0  0  0
 30142  1  0  0  0
 32143  1  0  0  0
 33144  1  0  0  0
 33145  1  0  0  0
 35146  1  0  0  0
 38147  1  0  0  0
 38148  1  0  0  0
 39149  1  0  0  0
 39150  1  0  0  0
 40151  1  0  0  0
 40152  1  0  0  0
 42153  1  0  0  0
 45154  1  0  0  0
 45155  1  0  0  0
 46156  1  0  0  0
 46157  1  0  0  0
 47158  1  0  0  0
 47159  1  0  0  0
 48160  1  0  0  0
 49161  1  0  0  0
 52162  1  0  0  0
 52163  1  0  0  0
 54164  1  0  0  0
 55165  1  0  0  0
 58166  1  0  0  0
 59167  1  0  0  0
 59168  1  0  0  0
 60169  1  0  0  0
 60170  1  0  0  0
 60171  1  0  0  0
 61172  1  0  0  0
 61173  1  0  0  0
 61174  1  0  0  0
 62175  1  0  0  0
 63176  1  0  0  0
 66177  1  0  0  0
 66178  1  0  0  0
 67179  1  0  0  0
 68180  1  0  0  0
 68181  1  0  0  0
 68182  1  0  0  0
 69183  1  0  0  0
 69184  1  0  0  0
 69185  1  0  0  0
 70186  1  0  0  0
 71187  1  0  0  0
 74188  1  0  0  0
 74189  1  0  0  0
 77190  1  0  0  0
 77191  1  0  0  0
 78192  1  0  0  0
 79193  1  0  0  0
 82194  1  0  0  0
 82195  1  0  0  0
 85196  1  0  0  0
 85197  1  0  0  0
 87198  1  0  0  0
 90199  1  0  0  0
 90200  1  0  0  0
 91201  1  0  0  0
 91202  1  0  0  0
 92203  1  0  0  0
 92204  1  0  0  0
 93205  1  0  0  0
 94206  1  0  0  0
 97207  1  0  0  0
 97208  1  0  0  0
 99209  1  0  0  0
101210  1  0  0  0
102211  1  0  0  0
105212  1  0  0  0
105213  1  0  0  0
106214  1  0  0  0
107215  1  0  0  0
107216  1  0  0  0
107217  1  0  0  0
108218  1  0  0  0
108219  1  0  0  0
108220  1  0  0  0
109221  1  0  0  0
110222  1  0  0  0
113223  1  0  0  0
113224  1  0  0  0
115225  1  0  0  0
115226  1  0  0  0
M  END
$$$$
