### 
### Created by X-TOOL on Mon Sep 10 21:12:56 2018
### 

@<TRIPOS>MOLECULE
2uz6_ligand
  226   230     1     0     0
SMALL
GAST_HUCK


@<TRIPOS>ATOM
      1 N          51.7130   35.3510   94.6530 N.4       1 GLY         0.2357
      2 CA         52.4800   36.0140   93.5590 C.3       1 GLY         0.0545
      3 C          53.9710   35.7750   93.6820 C.2       1 GLY         0.2237
      4 O          54.4520   35.3510   94.7340 O.2       1 GLY        -0.3910
      5 N          54.7000   36.0370   92.5980 N.am      1 CYS        -0.2604
      6 CA         56.1530   35.8700   92.5800 C.3       1 CYS         0.1407
      7 C          56.8100   36.5740   93.7600 C.2       1 CYS         0.2048
      8 O          57.5820   35.9730   94.5080 O.2       1 CYS        -0.3944
      9 CB         56.7420   36.4140   91.2780 C.3       1 CYS         0.0443
     10 SG         58.5530   36.4790   91.2710 S.3       1 CYS        -0.0882
     11 N          56.4730   37.8500   93.9210 N.am      1 CYS        -0.2629
     12 CA         57.0340   38.6910   94.9730 C.3       1 CYS         0.1406
     13 C          56.5790   38.3000   96.3790 C.2       1 CYS         0.2048
     14 O          56.9930   38.9190   97.3620 O.2       1 CYS        -0.3944
     15 CB         56.7230   40.1620   94.6890 C.3       1 CYS         0.0443
     16 SG         57.2320   40.7120   93.0410 S.3       1 CYS        -0.0882
     17 N          55.7300   37.2780   96.4720 N.am      1 SER        -0.2615
     18 CA         55.2820   36.7940   97.7720 C.3       1 SER         0.1539
     19 C          56.0470   35.5370   98.1910 C.2       1 SER         0.2062
     20 O          55.6980   34.8930   99.1840 O.2       1 SER        -0.3943
     21 CB         53.7600   36.5740   97.8170 C.3       1 SER         0.0843
     22 OG         53.3660   35.4070   97.1180 O.3       1 SER        -0.3903
     23 N          57.0860   35.1860   97.4330 N.am      1 ARG        -0.2637
     24 CA         57.9090   34.0300   97.7850 C.3       1 ARG         0.1313
     25 C          59.4060   34.2330   97.5370 C.2       1 ARG         0.2064
     26 O          59.8120   34.6690   96.4590 O.2       1 ARG        -0.3942
     27 CB         57.3920   32.7220   97.1650 C.3       1 ARG        -0.0092
     28 CG         57.4780   32.6030   95.6600 C.3       1 ARG        -0.0156
     29 CD         56.9950   31.2330   95.1970 C.3       1 ARG         0.0627
     30 NE         55.5500   31.0550   95.3590 N.pl3     1 ARG        -0.2723
     31 CZ         54.9580   30.4530   96.3890 C.cat     1 ARG         0.2882
     32 NH1        55.6740   29.9410   97.3800 N.pl3     1 ARG        -0.2849
     33 NH2        53.6360   30.3560   96.4230 N.pl3     1 ARG        -0.2849
     34 N          60.2240   33.9040   98.5530 N.am      1 PRO        -0.2498
     35 CA         61.6800   34.0450   98.5730 C.3       1 PRO         0.1340
     36 C          62.4420   33.5630   97.3220 C.2       1 PRO         0.2066
     37 O          63.2620   34.3260   96.8070 O.2       1 PRO        -0.3942
     38 CB         62.0900   33.2490   99.8160 C.3       1 PRO        -0.0104
     39 CG         60.9190   33.3440  100.6970 C.3       1 PRO        -0.0281
     40 CD         59.7210   33.3390   99.8200 C.3       1 PRO         0.0369
     41 N          62.1860   32.3270   96.8290 N.am      1 PRO        -0.2498
     42 CA         62.9740   31.9330   95.6570 C.3       1 PRO         0.1338
     43 C          62.6720   32.7390   94.3910 C.2       1 PRO         0.2041
     44 O          63.5480   32.8740   93.5360 O.2       1 PRO        -0.3944
     45 CB         62.6050   30.4590   95.4600 C.3       1 PRO        -0.0104
     46 CG         61.2730   30.3170   96.0750 C.3       1 PRO        -0.0281
     47 CD         61.2590   31.2540   97.2410 C.3       1 PRO         0.0369
     48 N          61.4560   33.2720   94.2750 N.am      1 CYS        -0.2629
     49 CA         61.0900   34.0490   93.0940 C.3       1 CYS         0.1406
     50 C          61.6800   35.4530   93.1560 C.2       1 CYS         0.2047
     51 O          62.0340   36.0280   92.1230 O.2       1 CYS        -0.3944
     52 CB         59.5750   34.1100   92.9070 C.3       1 CYS         0.0443
     53 SG         59.0960   34.5280   91.2120 S.3       1 CYS        -0.0882
     54 N          61.7790   35.9960   94.3700 N.am      1 ILE        -0.2634
     55 CA         62.3580   37.3190   94.5910 C.3       1 ILE         0.1335
     56 C          63.8630   37.2780   94.2600 C.2       1 ILE         0.2042
     57 O          64.3890   38.2240   93.6700 O.2       1 ILE        -0.3944
     58 CB         62.0580   37.8600   96.0230 C.3       1 ILE        -0.0037
     59 CG1        60.5450   37.8300   96.2930 C.3       1 ILE        -0.0491
     60 CG2        62.5900   39.2910   96.1910 C.3       1 ILE        -0.0582
     61 CD1        60.1460   38.1830   97.7150 C.3       1 ILE        -0.0648
     62 N          64.5390   36.1790   94.6130 N.am      1 LEU        -0.2637
     63 CA         65.9610   36.0010   94.2700 C.3       1 LEU         0.1312
     64 C          66.2100   35.9510   92.7710 C.2       1 LEU         0.2040
     65 O          67.2590   36.3920   92.2980 O.2       1 LEU        -0.3944
     66 CB         66.5640   34.7260   94.8690 C.3       1 LEU        -0.0101
     67 CG         67.2390   34.6960   96.2380 C.3       1 LEU        -0.0425
     68 CD1        68.0690   33.4340   96.3140 C.3       1 LEU        -0.0625
     69 CD2        68.1430   35.9090   96.4450 C.3       1 LEU        -0.0625
     70 N          65.2540   35.3830   92.0410 N.am      1 ASN        -0.2616
     71 CA         65.3430   35.2420   90.5910 C.3       1 ASN         0.1476
     72 C          64.8400   36.4470   89.8090 C.2       1 ASN         0.2064
     73 O          65.1790   36.6200   88.6360 O.2       1 ASN        -0.3942
     74 CB         64.5980   33.9840   90.1410 C.3       1 ASN         0.0773
     75 CG         65.3620   32.7140   90.4570 C.2       1 ASN         0.1780
     76 OD1        66.5880   32.6770   90.3630 O.2       1 ASN        -0.3970
     77 ND2        64.6390   31.6580   90.8100 N.am      1 ASN        -0.3007
     78 N          64.0350   37.2760   90.4660 N.am      1 ASN        -0.2615
     79 CA         63.4540   38.4510   89.8290 C.3       1 ASN         0.1478
     80 C          63.4810   39.6850   90.7400 C.2       1 ASN         0.2088
     81 O          62.4280   40.1710   91.1610 O.2       1 ASN        -0.3940
     82 CB         62.0320   38.1190   89.3680 C.3       1 ASN         0.0773
     83 CG         62.0030   36.9890   88.3510 C.2       1 ASN         0.1780
     84 OD1        62.5950   37.0850   87.2770 O.2       1 ASN        -0.3970
     85 ND2        61.3050   35.9110   88.6880 N.am      1 ASN        -0.3007
     86 N          64.6950   40.1950   91.0430 N.am      1 PRO        -0.2497
     87 CA         64.9070   41.3580   91.9190 C.3       1 PRO         0.1338
     88 C          64.2050   42.6220   91.4320 C.2       1 PRO         0.2042
     89 O          63.3030   43.1360   92.1000 O.2       1 PRO        -0.3944
     90 CB         66.4250   41.5690   91.8610 C.3       1 PRO        -0.0104
     91 CG         66.8850   40.8340   90.6350 C.3       1 PRO        -0.0281
     92 CD         65.9740   39.6640   90.5320 C.3       1 PRO         0.0369
     93 N          64.6470   43.1120   90.2790 N.am      1 ASP        -0.2622
     94 CA         64.0850   44.2910   89.6390 C.3       1 ASP         0.1423
     95 C          62.7160   43.9810   89.0460 C.2       1 ASP         0.2056
     96 O          61.8240   44.8340   89.0330 O.2       1 ASP        -0.3943
     97 CB         65.0570   44.8240   88.5770 C.3       1 ASP         0.0406
     98 CG         65.7470   43.7100   87.7870 C.2       1 ASP         0.0393
     99 OD1        65.2190   42.5750   87.7240 O.co2     1 ASP        -0.5688
    100 OD2        66.8260   43.9780   87.2210 O.co2     1 ASP        -0.5688
    101 N          62.5520   42.7410   88.5860 N.am      1 LEU        -0.2636
    102 CA         61.2950   42.2810   87.9930 C.3       1 LEU         0.1312
    103 C          60.1700   42.1490   89.0410 C.2       1 LEU         0.2039
    104 O          59.0690   41.6830   88.7290 O.2       1 LEU        -0.3944
    105 CB         61.5110   40.9760   87.2060 C.3       1 LEU        -0.0101
    106 CG         62.6550   40.9320   86.1720 C.3       1 LEU        -0.0425
    107 CD1        62.7060   39.5790   85.4760 C.3       1 LEU        -0.0625
    108 CD2        62.5520   42.0530   85.1290 C.3       1 LEU        -0.0625
    109 N          60.4670   42.5580   90.2770 N.am      1 CYS        -0.2629
    110 CA         59.4920   42.5900   91.3750 C.3       1 CYS         0.1403
    111 C          59.0730   44.0090   91.7360 C.2       1 CYS         0.2000
    112 O          57.8710   44.1840   91.4930 O.2       1 CYS        -0.3947
    113 CB         59.9890   41.8490   92.6250 C.3       1 CYS         0.0443
    114 SG         59.2100   40.2350   92.9090 S.3       1 CYS        -0.0882
    115 N          59.5680   44.8260   92.6100 N.am      1 NH2        -0.2989
    116 H1         50.7293   35.5351   94.5329 H         1 GLY         0.2012
    117 H2         52.0164   35.7133   95.5434 H         1 GLY         0.2012
    118 H3         51.8749   34.3566   94.6220 H         1 GLY         0.2012
    119 H4         52.2900   37.0967   93.5985 H         1 GLY         0.1061
    120 H5         52.1356   35.6162   92.5930 H         1 GLY         0.1061
    121 H6         54.2392   36.3580   91.7706 H         1 CYS         0.1885
    122 H7         56.3768   34.7950   92.6459 H         1 CYS         0.0808
    123 H8         56.3571   37.4325   91.1212 H         1 CYS         0.0432
    124 H9         56.4143   35.7668   90.4511 H         1 CYS         0.0432
    125 H10        55.8056   38.2510   93.2934 H         1 CYS         0.1884
    126 H11        58.1265   38.5667   94.9413 H         1 CYS         0.0808
    127 H12        57.2451   40.7774   95.4365 H         1 CYS         0.0432
    128 H13        55.6374   40.3116   94.7845 H         1 CYS         0.0432
    129 H14        55.3955   36.8369   95.6392 H         1 SER         0.1884
    130 H15        55.5162   37.5778   98.5074 H         1 SER         0.0823
    131 H16        53.2630   37.4436   97.3624 H         1 SER         0.0606
    132 H17        53.4468   36.4802   98.8673 H         1 SER         0.0606
    133 H18        53.6267   35.4814   96.2075 H         1 SER         0.2097
    134 H19        57.3046   35.7187   96.6154 H         1 ARG         0.1883
    135 H20        57.8013   33.9114   98.8733 H         1 ARG         0.0800
    136 H21        56.3345   32.6143   97.4479 H         1 ARG         0.0313
    137 H22        57.9736   31.8950   97.5984 H         1 ARG         0.0313
    138 H23        58.5231   32.7419   95.3463 H         1 ARG         0.0301
    139 H24        56.8507   33.3809   95.2002 H         1 ARG         0.0301
    140 H25        57.5122   30.4608   95.7855 H         1 ARG         0.0689
    141 H26        57.2466   31.1130   94.1329 H         1 ARG         0.0689
    142 H27        54.9418   31.4259   94.6151 H         1 ARG         0.2642
    143 H28        55.2026   29.4782   98.1703 H         1 ARG         0.2615
    144 H29        56.7018   30.0059   97.3598 H         1 ARG         0.2615
    145 H30        53.0708   30.7507   95.6577 H         1 ARG         0.2615
    146 H31        53.1743   29.8860   97.2147 H         1 ARG         0.2615
    147 H32        61.9282   35.1074   98.7130 H         1 PRO         0.0802
    148 H33        62.9755   33.6952  100.2923 H         1 PRO         0.0313
    149 H34        62.3016   32.2009   99.5576 H         1 PRO         0.0313
    150 H35        60.9580   34.2763  101.2795 H         1 PRO         0.0287
    151 H36        60.8900   32.4842  101.3825 H         1 PRO         0.0287
    152 H37        59.3448   32.3158   99.6731 H         1 PRO         0.0524
    153 H38        58.9219   33.9666  100.2413 H         1 PRO         0.0524
    154 H39        64.0461   32.0336   95.8816 H         1 PRO         0.0802
    155 H40        63.3347   29.8067   95.9620 H         1 PRO         0.0313
    156 H41        62.5657   30.2094   94.3894 H         1 PRO         0.0313
    157 H42        61.1160   29.2823   96.4136 H         1 PRO         0.0287
    158 H43        60.4877   30.5903   95.3549 H         1 PRO         0.0287
    159 H44        60.2482   31.6520   97.4139 H         1 PRO         0.0524
    160 H45        61.6169   30.7532   98.1526 H         1 PRO         0.0524
    161 H46        60.7862   33.1382   95.0054 H         1 CYS         0.1884
    162 H47        61.5163   33.5422   92.2157 H         1 CYS         0.0808
    163 H48        59.1671   34.8731   93.5862 H         1 CYS         0.0432
    164 H49        59.1493   33.1280   93.1608 H         1 CYS         0.0432
    165 H50        61.4447   35.4787   95.1578 H         1 ILE         0.1883
    166 H51        61.8836   38.0132   93.8817 H         1 ILE         0.0803
    167 H52        62.5608   37.2107   96.7548 H         1 ILE         0.0345
    168 H53        60.1785   36.8157   96.0763 H         1 ILE         0.0267
    169 H54        60.0616   38.5475   95.6136 H         1 ILE         0.0267
    170 H55        63.6726   39.3049   95.9964 H         1 ILE         0.0235
    171 H56        62.3976   39.6356   97.2178 H         1 ILE         0.0235
    172 H57        62.0810   39.9574   95.4791 H         1 ILE         0.0235
    173 H58        59.0513   38.1348   97.8113 H         1 ILE         0.0230
    174 H59        60.4903   39.2008   97.9505 H         1 ILE         0.0230
    175 H60        60.6072   37.4691   98.4132 H         1 ILE         0.0230
    176 H61        64.0672   35.4596   95.1228 H         1 LEU         0.1883
    177 H62        66.5037   36.8652   94.6807 H         1 LEU         0.0800
    178 H63        67.3203   34.3798   94.1492 H         1 LEU         0.0315
    179 H64        65.7433   33.9953   94.9184 H         1 LEU         0.0315
    180 H65        66.4694   34.6839   97.0238 H         1 LEU         0.0298
    181 H66        68.5699   33.3829   97.2920 H         1 LEU         0.0232
    182 H67        68.8250   33.4436   95.5150 H         1 LEU         0.0232
    183 H68        67.4159   32.5576   96.1904 H         1 LEU         0.0232
    184 H69        67.5414   36.8283   96.3901 H         1 LEU         0.0232
    185 H70        68.9151   35.9288   95.6618 H         1 LEU         0.0232
    186 H71        68.6237   35.8439   97.4322 H         1 LEU         0.0232
    187 H72        64.4388   35.0376   92.5059 H         1 ASN         0.1885
    188 H73        66.4070   35.1150   90.3426 H         1 ASN         0.0826
    189 H74        64.4380   34.0384   89.0541 H         1 ASN         0.0551
    190 H75        63.6254   33.9475   90.6535 H         1 ASN         0.0551
    191 H76        65.0909   30.7934   91.0297 H         1 ASN         0.1814
    192 H77        63.6425   31.7272   90.8562 H         1 ASN         0.1814
    193 H78        63.8220   37.0880   91.4248 H         1 ASN         0.1885
    194 H79        64.0555   38.6858   88.9385 H         1 ASN         0.0826
    195 H80        61.5896   39.0168   88.9116 H         1 ASN         0.0551
    196 H81        61.4367   37.8216   90.2439 H         1 ASN         0.0551
    197 H82        61.2491   35.1350   88.0598 H         1 ASN         0.1814
    198 H83        60.8352   35.8751   89.5700 H         1 ASN         0.1814
    199 H84        64.5749   41.1315   92.9429 H         1 PRO         0.0802
    200 H85        66.9054   41.1555   92.7600 H         1 PRO         0.0313
    201 H86        66.6615   42.6401   91.7785 H         1 PRO         0.0313
    202 H87        67.9282   40.5043   90.7490 H         1 PRO         0.0287
    203 H88        66.7977   41.4731   89.7440 H         1 PRO         0.0287
    204 H89        65.8752   39.3303   89.4885 H         1 PRO         0.0524
    205 H90        66.3314   38.8286   91.1519 H         1 PRO         0.0524
    206 H91        65.4070   42.6451   89.8268 H         1 ASP         0.1884
    207 H92        63.9543   45.0703   90.4043 H         1 ASP         0.0819
    208 H93        65.8279   45.4276   89.0784 H         1 ASP         0.0478
    209 H94        64.4957   45.4567   87.8738 H         1 ASP         0.0478
    210 H95        63.3171   42.1000   88.6483 H         1 LEU         0.1883
    211 H96        60.9742   43.0476   87.2723 H         1 LEU         0.0800
    212 H97        60.5761   40.7604   86.6680 H         1 LEU         0.0315
    213 H98        61.7036   40.1798   87.9402 H         1 LEU         0.0315
    214 H99        63.5998   41.0697   86.7182 H         1 LEU         0.0298
    215 H100       63.5282   39.5733   84.7453 H         1 LEU         0.0232
    216 H101       61.7532   39.3974   84.9572 H         1 LEU         0.0232
    217 H102       62.8735   38.7887   86.2225 H         1 LEU         0.0232
    218 H103       62.5157   43.0266   85.6396 H         1 LEU         0.0232
    219 H104       61.6372   41.9169   84.5335 H         1 LEU         0.0232
    220 H105       63.4293   42.0191   84.4663 H         1 LEU         0.0232
    221 H106       61.4022   42.8582   90.4649 H         1 CYS         0.1884
    222 H107       58.5937   42.0641   91.0193 H         1 CYS         0.0808
    223 H108       59.7911   42.4839   93.5012 H         1 CYS         0.0432
    224 H109       61.0730   41.6930   92.5226 H         1 CYS         0.0432
    225 H110       59.1703   45.7363   92.7250 H         1 NH2         0.1815
    226 H111       60.3480   44.5467   93.1700 H         1 NH2         0.1815
@<TRIPOS>BOND
     1    1    2 1  
     2    2    3 1  
     3    3    4 2  
     4    3    5 am 
     5    5    6 1  
     6    6    7 1  
     7    6    9 1  
     8    7    8 2  
     9    7   11 am 
    10    9   10 1  
    11   10   53 1  
    12   11   12 1  
    13   12   13 1  
    14   12   15 1  
    15   13   14 2  
    16   13   17 am 
    17   15   16 1  
    18   16  114 1  
    19   17   18 1  
    20   18   19 1  
    21   18   21 1  
    22   19   20 2  
    23   19   23 am 
    24   21   22 1  
    25   23   24 1  
    26   24   25 1  
    27   24   27 1  
    28   25   26 2  
    29   25   34 am 
    30   27   28 1  
    31   28   29 1  
    32   29   30 1  
    33   30   31 ar 
    34   31   32 ar 
    35   31   33 ar 
    36   34   35 1  
    37   34   40 1  
    38   35   36 1  
    39   35   38 1  
    40   36   37 2  
    41   36   41 am 
    42   38   39 1  
    43   39   40 1  
    44   41   42 1  
    45   41   47 1  
    46   42   43 1  
    47   42   45 1  
    48   43   44 2  
    49   43   48 am 
    50   45   46 1  
    51   46   47 1  
    52   48   49 1  
    53   49   50 1  
    54   49   52 1  
    55   50   51 2  
    56   50   54 am 
    57   52   53 1  
    58   54   55 1  
    59   55   56 1  
    60   55   58 1  
    61   56   57 2  
    62   56   62 am 
    63   58   59 1  
    64   58   60 1  
    65   59   61 1  
    66   62   63 1  
    67   63   64 1  
    68   63   66 1  
    69   64   65 2  
    70   64   70 am 
    71   66   67 1  
    72   67   68 1  
    73   67   69 1  
    74   70   71 1  
    75   71   72 1  
    76   71   74 1  
    77   72   73 2  
    78   72   78 am 
    79   74   75 1  
    80   75   76 2  
    81   75   77 am 
    82   78   79 1  
    83   79   80 1  
    84   79   82 1  
    85   80   81 2  
    86   80   86 am 
    87   82   83 1  
    88   83   84 2  
    89   83   85 am 
    90   86   87 1  
    91   86   92 1  
    92   87   88 1  
    93   87   90 1  
    94   88   89 2  
    95   88   93 am 
    96   90   91 1  
    97   91   92 1  
    98   93   94 1  
    99   94   95 1  
   100   94   97 1  
   101   95   96 2  
   102   95  101 am 
   103   97   98 1  
   104   98   99 ar 
   105   98  100 ar 
   106  101  102 1  
   107  102  103 1  
   108  102  105 1  
   109  103  104 2  
   110  103  109 am 
   111  105  106 1  
   112  106  107 1  
   113  106  108 1  
   114  109  110 1  
   115  110  111 1  
   116  110  113 1  
   117  111  112 2  
   118  111  115 am 
   119  113  114 1  
   120    1  116 1  
   121    1  117 1  
   122    1  118 1  
   123    2  119 1  
   124    2  120 1  
   125    5  121 1  
   126    6  122 1  
   127    9  123 1  
   128    9  124 1  
   129   11  125 1  
   130   12  126 1  
   131   15  127 1  
   132   15  128 1  
   133   17  129 1  
   134   18  130 1  
   135   21  131 1  
   136   21  132 1  
   137   22  133 1  
   138   23  134 1  
   139   24  135 1  
   140   27  136 1  
   141   27  137 1  
   142   28  138 1  
   143   28  139 1  
   144   29  140 1  
   145   29  141 1  
   146   30  142 1  
   147   32  143 1  
   148   32  144 1  
   149   33  145 1  
   150   33  146 1  
   151   35  147 1  
   152   38  148 1  
   153   38  149 1  
   154   39  150 1  
   155   39  151 1  
   156   40  152 1  
   157   40  153 1  
   158   42  154 1  
   159   45  155 1  
   160   45  156 1  
   161   46  157 1  
   162   46  158 1  
   163   47  159 1  
   164   47  160 1  
   165   48  161 1  
   166   49  162 1  
   167   52  163 1  
   168   52  164 1  
   169   54  165 1  
   170   55  166 1  
   171   58  167 1  
   172   59  168 1  
   173   59  169 1  
   174   60  170 1  
   175   60  171 1  
   176   60  172 1  
   177   61  173 1  
   178   61  174 1  
   179   61  175 1  
   180   62  176 1  
   181   63  177 1  
   182   66  178 1  
   183   66  179 1  
   184   67  180 1  
   185   68  181 1  
   186   68  182 1  
   187   68  183 1  
   188   69  184 1  
   189   69  185 1  
   190   69  186 1  
   191   70  187 1  
   192   71  188 1  
   193   74  189 1  
   194   74  190 1  
   195   77  191 1  
   196   77  192 1  
   197   78  193 1  
   198   79  194 1  
   199   82  195 1  
   200   82  196 1  
   201   85  197 1  
   202   85  198 1  
   203   87  199 1  
   204   90  200 1  
   205   90  201 1  
   206   91  202 1  
   207   91  203 1  
   208   92  204 1  
   209   92  205 1  
   210   93  206 1  
   211   94  207 1  
   212   97  208 1  
   213   97  209 1  
   214  101  210 1  
   215  102  211 1  
   216  105  212 1  
   217  105  213 1  
   218  106  214 1  
   219  107  215 1  
   220  107  216 1  
   221  107  217 1  
   222  108  218 1  
   223  108  219 1  
   224  108  220 1  
   225  109  221 1  
   226  110  222 1  
   227  113  223 1  
   228  113  224 1  
   229  115  225 1  
   230  115  226 1  
@<TRIPOS>SUBSTRUCTURE
     1 GLY         1

