5tig_ligand
  -I-interpret- 

 16 15  0  0  0  0  0  0  0  0999 V2000
   63.0650   13.8170   40.7460 C   0  0  0  0  0
   62.6370   14.9050   39.7700 C   0  0  0  0  0
   63.2310   16.1220   39.7440 C   0  0  0  0  0
   63.3550   16.9870   40.9930 C   0  0  0  0  0
   63.3410   18.4880   40.8430 C   0  0  0  0  0
   62.4500   19.0190   40.1240 O   0  0  0  0  0
   64.2240   19.1790   41.4320 O   0  0  0  0  0
   63.4860   16.5130   42.1100 O   0  0  0  0  0
   64.1139   13.5724   40.5783 H   0  0  0  0  0
   62.9327   14.1743   41.7673 H   0  0  0  0  0
   62.4537   12.9284   40.5885 H   0  0  0  0  0
   61.6123   15.1270   40.0679 H   0  0  0  0  0
   62.8774   14.4823   38.7945 H   0  0  0  0  0
   62.5859   16.7081   39.0894 H   0  0  0  0  0
   64.2654   15.8968   39.4845 H   0  0  0  0  0
   64.8068   18.5977   41.9260 H   0  0  0  0  0
  1  2  1  0  0  0
  2  3  1  0  0  0
  3  4  1  0  0  0
  4  5  1  0  0  0
  4  8  2  0  0  0
  5  6  2  0  0  0
  5  7  1  0  0  0
  1  9  1  0  0  0
  1 10  1  0  0  0
  1 11  1  0  0  0
  2 12  1  0  0  0
  2 13  1  0  0  0
  3 14  1  0  0  0
  3 15  1  0  0  0
  7 16  1  0  0  0
M  END
$$$$
