3wk4_ligand
  -I-interpret- 

 31 32  0  0  0  0  0  0  0  0999 V2000
  -18.1070  -12.3080   68.8770 C   0  0  0  0  0
  -19.2770  -11.6000   68.7810 C   0  0  0  0  0
  -16.9930  -11.8760   68.1840 C   0  0  0  0  0
  -19.3140  -10.4780   67.9910 C   0  0  0  0  0
  -17.0250  -10.7490   67.3850 C   0  0  0  0  0
  -18.2070  -10.0430   67.2900 C   0  0  0  0  0
  -17.7200   -8.8660   65.2730 C   0  0  0  0  0
  -18.0830   -5.8910   61.3600 C   0  0  0  0  0
  -18.7510   -5.3370   62.6120 C   0  0  0  0  0
  -18.6090   -6.8200   62.4420 C   0  0  0  0  0
  -16.1820   -7.0150   63.1200 C   0  0  0  0  0
  -17.6170   -7.6050   63.2150 C   0  0  0  0  0
  -18.3090   -8.8810   66.4930 N   0  0  0  0  0
  -18.0310   -7.7160   64.6020 N   0  0  0  0  0
  -17.0280   -9.8000   64.8650 O   0  0  0  0  0
  -18.0563  -13.2044   69.4951 H   0  0  0  0  0
  -20.1650  -11.9233   69.3241 H   0  0  0  0  0
  -16.0637  -12.4392   68.2697 H   0  0  0  0  0
  -20.2439   -9.9144   67.9150 H   0  0  0  0  0
  -16.1370  -10.4251   66.8422 H   0  0  0  0  0
  -17.1787   -5.7387   60.7708 H   0  0  0  0  0
  -18.1321   -5.7735   60.2775 H   0  0  0  0  0
  -19.5281   -4.6175   62.8700 H   0  0  0  0  0
  -18.5551   -4.5821   63.3734 H   0  0  0  0  0
  -19.3185   -7.6453   62.5014 H   0  0  0  0  0
  -15.8629   -7.0051   62.0778 H   0  0  0  0  0
  -16.1823   -5.9975   63.5109 H   0  0  0  0  0
  -15.4982   -7.6301   63.7049 H   0  0  0  0  0
  -17.5798   -8.5992   62.7697 H   0  0  0  0  0
  -18.8189   -8.0649   66.8313 H   0  0  0  0  0
  -18.5381   -6.9597   65.0616 H   0  0  0  0  0
  2  1  4  0  0  0
  3  1  4  0  0  0
  4  2  4  0  0  0
  5  3  4  0  0  0
  6  4  4  0  0  0
  6  5  4  0  0  0
 13  6  1  0  0  0
  7 13  1  0  0  0
 14  7  1  0  0  0
  7 15  2  0  0  0
  9  8  1  0  0  0
 10  8  1  0  0  0
 10  9  1  0  0  0
 12 10  1  0  0  0
 12 11  1  0  0  0
 12 14  1  0  0  0
  1 16  1  0  0  0
  2 17  1  0  0  0
  3 18  1  0  0  0
  4 19  1  0  0  0
  5 20  1  0  0  0
  8 21  1  0  0  0
  8 22  1  0  0  0
  9 23  1  0  0  0
  9 24  1  0  0  0
 10 25  1  0  0  0
 11 26  1  0  0  0
 11 27  1  0  0  0
 11 28  1  0  0  0
 12 29  1  0  0  0
 13 30  1  0  0  0
 14 31  1  0  0  0
M  END
$$$$
