1li6_ligand
  -I-interpret- 

 12 12  0  0  0  0  0  0  0  0999 V2000
   26.7300    5.9470    4.3230 C   0  0  0  0  0
   27.1480    7.0620    5.1970 C   0  0  0  0  0
   27.3380    6.1470    3.1460 C   0  0  0  0  0
   25.8010    4.8230    4.6960 C   0  0  0  0  0
   27.9620    7.8210    4.4460 C   0  0  0  0  0
   28.0940    7.2770    3.2070 N   0  0  0  0  0
   26.8569    7.2327    6.2335 H   0  0  0  0  0
   27.2418    5.5025    2.2722 H   0  0  0  0  0
   26.2197    4.2714    5.5377 H   0  0  0  0  0
   24.8305    5.2330    4.9754 H   0  0  0  0  0
   25.6824    4.1535    3.8441 H   0  0  0  0  0
   28.4460    8.7386    4.7805 H   0  0  0  0  0
  1  2  4  0  0  0
  1  3  4  0  0  0
  1  4  1  0  0  0
  2  5  4  0  0  0
  3  6  4  0  0  0
  5  6  4  0  0  0
  2  7  1  0  0  0
  3  8  1  0  0  0
  4  9  1  0  0  0
  4 10  1  0  0  0
  4 11  1  0  0  0
  5 12  1  0  0  0
M  END
$$$$
