3d1y_ligand
  -I-interpret- 

100104  0  0  0  0  0  0  0  0999 V2000
   20.9780   27.7280   18.5490 O   0  0  0  0  0
   21.4510   26.5820   18.5500 C   0  0  0  0  0
   23.3190   25.0380   18.9740 N   0  0  0  0  0
   22.5800   26.0860   19.4010 C   0  0  0  0  0
   22.8410   26.7100   20.5980 C   0  0  0  0  0
   23.8870   26.2590   21.4010 C   0  0  0  0  0
   24.7050   25.1450   20.9910 C   0  0  0  0  0
   25.7750   24.6100   21.7090 C   0  0  0  0  0
   26.5080   23.5160   21.2100 C   0  0  0  0  0
   26.1660   22.9370   19.9640 C   0  0  0  0  0
   25.1030   23.4670   19.2490 C   0  0  0  0  0
   24.3550   24.5560   19.7190 C   0  0  0  0  0
   20.9600   25.6170   17.7350 N   0  0  0  0  0
   19.7360   25.8000   16.8940 C   0  0  0  0  0
   18.7930   24.6560   17.1780 C   0  0  0  0  0
   18.8770   23.5740   16.5900 O   0  0  0  0  0
   19.9720   25.9060   15.4060 C   0  0  0  0  0
   20.7940   27.1650   15.2220 C   0  0  0  0  0
   20.2770   28.2680   15.3590 O   0  0  0  0  0
   22.1000   27.0390   14.9070 N   0  0  0  0  0
   15.4800   24.4660   18.1380 C   0  0  0  0  0
   15.0650   25.5680   18.9330 O   0  0  0  0  0
   16.8890   23.9230   18.5020 C   0  0  0  0  0
   17.8680   24.9160   18.1120 N   0  0  0  0  0
   16.9550   23.5890   19.9870 C   0  0  0  0  0
   18.3750   23.3540   20.4740 C   0  0  0  0  0
   19.0200   22.1380   20.2780 C   0  0  0  0  0
   19.0540   24.3870   21.0700 C   0  0  0  0  0
   20.3910   21.9980   20.7070 C   0  0  0  0  0
   20.3800   24.2830   21.4960 C   0  0  0  0  0
   21.0440   23.0460   21.3000 C   0  0  0  0  0
   14.3620   22.6350   16.9190 N   0  3  0  0  0
   14.3890   23.4290   18.1290 C   0  0  0  0  0
   13.6350   21.3700   17.1140 C   0  0  0  0  0
   14.4370   20.5410   18.1190 C   0  0  0  0  0
   15.6530   20.4530   18.1610 O   0  0  0  0  0
   13.6960   20.5470   15.8120 C   0  0  0  0  0
   12.9910   21.3130   14.6730 C   0  0  0  0  0
   13.1190   20.5600   13.3080 C   0  0  0  0  0
   14.6020   20.4430   12.8700 C   0  0  0  0  0
   15.0970   21.8770   12.6480 C   0  0  0  0  0
   15.0830   22.5920   14.0160 C   0  0  0  0  0
   13.6490   22.6920   14.5870 C   0  0  0  0  0
   13.5980   23.4180   15.8900 C   0  0  0  0  0
   13.6090   19.8900   18.9900 N   0  0  0  0  0
   14.0820   18.9460   20.0300 C   0  0  0  0  0
   14.9210   17.8230   19.4070 C   0  0  0  0  0
   12.7820   18.4370   20.7020 C   0  0  0  0  0
   14.9810   19.7140   21.0550 C   0  0  0  0  0
   22.2315   27.5551   20.9181 H   0  0  0  0  0
   24.0890   26.7546   22.3506 H   0  0  0  0  0
   26.0476   25.0453   22.6704 H   0  0  0  0  0
   27.3418   23.1134   21.7852 H   0  0  0  0  0
   26.7288   22.0891   19.5736 H   0  0  0  0  0
   24.8399   23.0223   18.2893 H   0  0  0  0  0
   21.4485   24.7226   17.6928 H   0  0  0  0  0
   19.3186   26.7670   17.1746 H   0  0  0  0  0
   19.0340   25.9542   14.8529 H   0  0  0  0  0
   20.4888   25.0284   15.0176 H   0  0  0  0  0
   22.6762   27.8708   14.7784 H   0  0  0  0  0
   22.5111   26.1119   14.7975 H   0  0  0  0  0
   15.6228   24.8080   17.1129 H   0  0  0  0  0
   14.1906   25.8505   18.6549 H   0  0  0  0  0
   17.1019   22.9971   17.9677 H   0  0  0  0  0
   17.8532   25.8333   18.5579 H   0  0  0  0  0
   16.3901   22.6709   20.1485 H   0  0  0  0  0
   16.5485   24.4367   20.5386 H   0  0  0  0  0
   18.4988   21.3040   19.8080 H   0  0  0  0  0
   18.5338   25.3334   21.2179 H   0  0  0  0  0
   20.9105   21.0514   20.5580 H   0  0  0  0  0
   20.8881   25.1261   21.9642 H   0  0  0  0  0
   22.0785   22.9283   21.6225 H   0  0  0  0  0
   15.3221   22.4296   16.6426 H   0  0  0  0  0
   13.4361   23.9534   18.1996 H   0  0  0  0  0
   14.5722   22.7515   18.9630 H   0  0  0  0  0
   12.6112   21.5795   17.4239 H   0  0  0  0  0
   13.1947   19.5916   15.9668 H   0  0  0  0  0
   14.7384   20.3794   15.5411 H   0  0  0  0  0
   11.9247   21.3974   14.8829 H   0  0  0  0  0
   12.5748   21.1212   12.5484 H   0  0  0  0  0
   12.7100   19.5563   13.4243 H   0  0  0  0  0
   14.6975   19.8492   11.9609 H   0  0  0  0  0
   15.1970   19.9351   13.6290 H   0  0  0  0  0
   14.4514   22.3970   11.9403 H   0  0  0  0  0
   16.1044   21.8716   12.2319 H   0  0  0  0  0
   15.4733   23.6010   13.8828 H   0  0  0  0  0
   15.6933   22.0174   14.7127 H   0  0  0  0  0
   13.0693   23.2922   13.8857 H   0  0  0  0  0
   14.0430   24.4066   15.7766 H   0  0  0  0  0
   12.5613   23.5279   16.2082 H   0  0  0  0  0
   12.6064   20.0641   18.9201 H   0  0  0  0  0
   14.3146   17.2759   18.6852 H   0  0  0  0  0
   15.7864   18.2542   18.9038 H   0  0  0  0  0
   15.2560   17.1438   20.1909 H   0  0  0  0  0
   12.2416   19.2810   21.1306 H   0  0  0  0  0
   12.1576   17.9451   19.9562 H   0  0  0  0  0
   13.0355   17.7281   21.4902 H   0  0  0  0  0
   15.8370   20.1438   20.5349 H   0  0  0  0  0
   14.4001   20.5100   21.5208 H   0  0  0  0  0
   15.3299   19.0212   21.8208 H   0  0  0  0  0
  2  1  2  0  0  0
  2  4  1  0  0  0
 13  2  1  0  0  0
  4  3  4  0  0  0
  3 12  4  0  0  0
  4  5  4  0  0  0
  5  6  4  0  0  0
  6  7  4  0  0  0
  7  8  4  0  0  0
 12  7  4  0  0  0
  8  9  4  0  0  0
 10  9  4  0  0  0
 11 10  4  0  0  0
 12 11  4  0  0  0
 14 13  1  0  0  0
 15 14  1  0  0  0
 14 17  1  0  0  0
 15 16  2  0  0  0
 24 15  1  0  0  0
 17 18  1  0  0  0
 18 19  2  0  0  0
 18 20  1  0  0  0
 21 22  1  0  0  0
 23 21  1  0  0  0
 21 33  1  0  0  0
 23 24  1  0  0  0
 23 25  1  0  0  0
 25 26  1  0  0  0
 26 27  4  0  0  0
 26 28  4  0  0  0
 27 29  4  0  0  0
 28 30  4  0  0  0
 29 31  4  0  0  0
 30 31  4  0  0  0
 33 32  1  0  0  0
 32 34  1  0  0  0
 32 44  1  0  0  0
 34 35  1  0  0  0
 34 37  1  0  0  0
 35 36  2  0  0  0
 35 45  1  0  0  0
 37 38  1  0  0  0
 38 39  1  0  0  0
 38 43  1  0  0  0
 39 40  1  0  0  0
 40 41  1  0  0  0
 41 42  1  0  0  0
 42 43  1  0  0  0
 43 44  1  0  0  0
 45 46  1  0  0  0
 46 47  1  0  0  0
 46 48  1  0  0  0
 46 49  1  0  0  0
  5 50  1  0  0  0
  6 51  1  0  0  0
  8 52  1  0  0  0
  9 53  1  0  0  0
 10 54  1  0  0  0
 11 55  1  0  0  0
 13 56  1  0  0  0
 14 57  1  0  0  0
 17 58  1  0  0  0
 17 59  1  0  0  0
 20 60  1  0  0  0
 20 61  1  0  0  0
 21 62  1  0  0  0
 22 63  1  0  0  0
 23 64  1  0  0  0
 24 65  1  0  0  0
 25 66  1  0  0  0
 25 67  1  0  0  0
 27 68  1  0  0  0
 28 69  1  0  0  0
 29 70  1  0  0  0
 30 71  1  0  0  0
 31 72  1  0  0  0
 32 73  1  0  0  0
 33 74  1  0  0  0
 33 75  1  0  0  0
 34 76  1  0  0  0
 37 77  1  0  0  0
 37 78  1  0  0  0
 38 79  1  0  0  0
 39 80  1  0  0  0
 39 81  1  0  0  0
 40 82  1  0  0  0
 40 83  1  0  0  0
 41 84  1  0  0  0
 41 85  1  0  0  0
 42 86  1  0  0  0
 42 87  1  0  0  0
 43 88  1  0  0  0
 44 89  1  0  0  0
 44 90  1  0  0  0
 45 91  1  0  0  0
 47 92  1  0  0  0
 47 93  1  0  0  0
 47 94  1  0  0  0
 48 95  1  0  0  0
 48 96  1  0  0  0
 48 97  1  0  0  0
 49 98  1  0  0  0
 49 99  1  0  0  0
 49100  1  0  0  0
M  END
$$$$
