1nvr_ligand
  -I-interpret- 

 62 69  0  0  0  0  0  0  0  0999 V2000
    4.1090    3.8420   16.8980 O   0  0  0  0  0
    2.8780    4.4680   17.0890 C   0  0  0  0  0
    2.1340    4.5600   15.7110 C   0  0  0  0  0
    2.9710    3.9240   14.5620 C   0  0  0  0  0
    4.3910    4.5500   14.5100 C   0  0  0  0  0
    5.0460    4.0680   15.8630 C   0  0  0  0  0
    5.6760    2.6840   15.6240 C   0  0  0  0  0
    6.0370    5.1320   16.2960 N   0  0  0  0  0
    5.5620    6.2030   17.1420 C   0  0  0  0  0
    4.3440    6.4920   17.6880 C   0  0  0  0  0
    4.1150    7.6680   18.5110 C   0  0  0  0  0
    5.3020    8.5120   18.7060 C   0  0  0  0  0
    6.4950    8.2250   18.1650 C   0  0  0  0  0
    6.7090    7.0610   17.3510 C   0  0  0  0  0
    7.8090    6.5300   16.6450 C   0  0  0  0  0
    7.4000    5.3150   15.9840 C   0  0  0  0  0
    8.3350    4.6050   15.2010 C   0  0  0  0  0
    9.6440    5.0670   15.0540 C   0  0  0  0  0
   10.0920    6.2950   15.6990 C   0  0  0  0  0
    9.1290    6.9900   16.4930 C   0  0  0  0  0
    7.5090    9.2890   18.5160 C   0  0  0  0  0
    6.6460   10.1510   19.3150 N   0  0  0  0  0
    5.3800    9.7830   19.4780 C   0  0  0  0  0
    4.4950   10.3560   20.1050 O   0  0  0  0  0
    2.7840    7.6920   18.8930 C   0  0  0  0  0
    2.1730    6.5290   18.2940 C   0  0  0  0  0
    0.7880    6.2280   18.4640 C   0  0  0  0  0
    0.0180    7.1080   19.2520 C   0  0  0  0  0
    0.6160    8.2760   19.8560 C   0  0  0  0  0
    1.9710    8.5510   19.6730 C   0  0  0  0  0
    3.1040    5.8480   17.6020 N   0  0  0  0  0
    4.2020    5.9960   14.5360 O   0  0  0  0  0
    5.1750    6.6630   13.7510 C   0  0  0  0  0
    2.1760    4.1590   13.2070 N   0  3  0  0  0
    2.9260    3.5080   12.0710 C   0  0  0  0  0
    2.2824    3.8982   17.8022 H   0  0  0  0  0
    1.9727    5.6123   15.4770 H   0  0  0  0  0
    1.1925    4.0168   15.7917 H   0  0  0  0  0
    3.1084    2.8555   14.7276 H   0  0  0  0  0
    4.9922    4.2797   13.6419 H   0  0  0  0  0
    6.4298    2.7598   14.8403 H   0  0  0  0  0
    6.1418    2.3342   16.5453 H   0  0  0  0  0
    4.9010    1.9814   15.3177 H   0  0  0  0  0
    8.0310    3.6836   14.7044 H   0  0  0  0  0
   10.3456    4.4977   14.4443 H   0  0  0  0  0
   11.1107    6.6645   15.5814 H   0  0  0  0  0
    9.4278    7.9084   16.9983 H   0  0  0  0  0
    7.9900    9.7720   17.6654 H   0  0  0  0  0
    8.4046    8.9291   19.0225 H   0  0  0  0  0
    7.0030   11.0091   19.7353 H   0  0  0  0  0
    0.3411    5.3484   18.0007 H   0  0  0  0  0
   -1.0415    6.9044   19.4073 H   0  0  0  0  0
    0.0041    8.9470   20.4589 H   0  0  0  0  0
    2.4090    9.4359   20.1348 H   0  0  0  0  0
    6.1688    6.4381   14.1382 H   0  0  0  0  0
    5.1009    6.3241   12.7177 H   0  0  0  0  0
    5.0011    7.7381   13.7954 H   0  0  0  0  0
    2.0896    5.1599   13.0305 H   0  0  0  0  0
    1.2450    3.7491   13.2814 H   0  0  0  0  0
    3.9198    3.9490   11.9935 H   0  0  0  0  0
    3.0156    2.4386   12.2620 H   0  0  0  0  0
    2.3825    3.6678   11.1397 H   0  0  0  0  0
  2  1  1  0  0  0
  1  6  1  0  0  0
  2  3  1  0  0  0
  2 31  1  0  0  0
  3  4  1  0  0  0
  4  5  1  0  0  0
  4 34  1  0  0  0
  5  6  1  0  0  0
  5 32  1  0  0  0
  6  7  1  0  0  0
  6  8  1  0  0  0
  8  9  4  0  0  0
  8 16  4  0  0  0
  9 10  4  0  0  0
  9 14  4  0  0  0
 10 11  4  0  0  0
 31 10  4  0  0  0
 11 12  4  0  0  0
 11 25  4  0  0  0
 12 13  4  0  0  0
 12 23  1  0  0  0
 14 13  4  0  0  0
 13 21  1  0  0  0
 14 15  4  0  0  0
 16 15  4  0  0  0
 15 20  4  0  0  0
 16 17  4  0  0  0
 17 18  4  0  0  0
 18 19  4  0  0  0
 20 19  4  0  0  0
 21 22  1  0  0  0
 23 22  1  0  0  0
 23 24  2  0  0  0
 25 26  4  0  0  0
 25 30  4  0  0  0
 26 27  4  0  0  0
 31 26  4  0  0  0
 27 28  4  0  0  0
 28 29  4  0  0  0
 30 29  4  0  0  0
 32 33  1  0  0  0
 34 35  1  0  0  0
  2 36  1  0  0  0
  3 37  1  0  0  0
  3 38  1  0  0  0
  4 39  1  0  0  0
  5 40  1  0  0  0
  7 41  1  0  0  0
  7 42  1  0  0  0
  7 43  1  0  0  0
 17 44  1  0  0  0
 18 45  1  0  0  0
 19 46  1  0  0  0
 20 47  1  0  0  0
 21 48  1  0  0  0
 21 49  1  0  0  0
 22 50  1  0  0  0
 27 51  1  0  0  0
 28 52  1  0  0  0
 29 53  1  0  0  0
 30 54  1  0  0  0
 33 55  1  0  0  0
 33 56  1  0  0  0
 33 57  1  0  0  0
 34 58  1  0  0  0
 34 59  1  0  0  0
 35 60  1  0  0  0
 35 61  1  0  0  0
 35 62  1  0  0  0
M  END
$$$$
