6cis_ligand
  -I-interpret- 

 98104  0  0  0  0  0  0  0  0999 V2000
   10.2310    6.1140   -2.2700 O   0  0  0  0  0
    9.2360    6.8250   -2.4630 C   0  0  0  0  0
    8.4160    6.5290   -3.4680 N   0  0  0  0  0
    8.6100    5.2910   -4.2110 C   0  0  0  0  0
    7.3700    7.3680   -3.9060 C   0  0  0  0  0
    7.1520    7.5630   -5.2800 C   0  0  0  0  0
    6.1300    8.3420   -5.7010 N   0  0  0  0  0
    9.0180    7.9950   -1.5600 C   0  0  0  0  0
   10.1520    8.6530   -1.0350 C   0  0  0  0  0
   10.0130    9.7330   -0.1610 C   0  0  0  0  0
    8.7440   10.1980    0.1700 C   0  0  0  0  0
    7.6100    9.5800   -0.3370 C   0  0  0  0  0
    7.6800    8.4690   -1.1670 C   0  0  0  0  0
    6.4570    7.9630   -1.6410 N   0  0  0  0  0
    5.2660    7.8860   -0.7720 C   0  0  0  0  0
    6.3750    7.9850   -3.0170 C   0  0  0  0  0
    5.3780    8.7480   -3.5100 N   0  0  0  0  0
    5.2500    8.9090   -4.8410 C   0  0  0  0  0
    4.2660    9.6980   -5.3500 N   0  0  0  0  0
    3.0300    9.9550   -4.7980 C   0  0  0  0  0
    1.9890   10.3170   -5.7450 C   0  0  0  0  0
    0.6900   10.5660   -5.3150 C   0  0  0  0  0
    2.7250    9.9560   -3.4430 C   0  0  0  0  0
    1.4150   10.2190   -3.0330 C   0  0  0  0  0
    0.3970   10.5230   -3.9470 C   0  0  0  0  0
   -3.4180   10.2690   -3.6300 C   0  0  0  0  0
   -4.0500    8.9710   -3.1130 C   0  0  0  0  0
   -1.8100    8.9590   -4.9750 C   0  0  0  0  0
   -2.4560    7.6670   -4.4610 C   0  0  0  0  0
   -3.9430    7.8070   -4.1040 C   0  0  0  0  0
    4.1960    6.9730   -1.3370 C   0  0  0  0  0
    2.3910   10.3410   -7.0730 O   0  0  0  0  0
    1.4470   10.1800   -8.1440 C   0  0  0  0  0
   -1.0000   10.7640   -3.4400 C   0  0  0  0  0
   -1.1910   11.5490   -2.5210 O   0  0  0  0  0
   -2.0080   10.0360   -3.9820 N   0  0  0  0  0
   -4.4580    6.5600   -3.5090 N   0  3  0  0  0
   -5.9280    6.6330   -3.3090 C   0  0  0  0  0
   -6.4540    5.3360   -2.6970 C   0  0  0  0  0
   -6.1530    4.1880   -3.5820 N   0  3  0  0  0
   -4.6890    4.1140   -3.7530 C   0  0  0  0  0
   -4.1990    5.4130   -4.4050 C   0  0  0  0  0
   -6.6630    2.9550   -2.9690 C   0  0  0  0  0
    5.5960    7.3680    0.6350 C   0  0  0  0  0
    4.3130    6.6540    1.0830 C   0  0  0  0  0
    0.8010    8.7910   -8.1680 C   0  0  0  0  0
    2.2060   10.4450   -9.4310 C   0  0  0  0  0
    3.3340    6.6880   -0.0940 C   0  0  0  0  0
    7.7023    4.6900   -4.1565 H   0  0  0  0  0
    8.8307    5.5246   -5.2526 H   0  0  0  0  0
    9.4417    4.7353   -3.7779 H   0  0  0  0  0
    7.8078    7.0855   -6.0080 H   0  0  0  0  0
   11.1489    8.3133   -1.3158 H   0  0  0  0  0
   10.8970   10.2110    0.2612 H   0  0  0  0  0
    8.6398   11.0561    0.8340 H   0  0  0  0  0
    6.6306    9.9803   -0.0748 H   0  0  0  0  0
    4.9010    8.9118   -0.7201 H   0  0  0  0  0
    4.4658   10.1510   -6.2418 H   0  0  0  0  0
   -0.0938   10.7929   -6.0377 H   0  0  0  0  0
    3.5012    9.7533   -2.7051 H   0  0  0  0  0
    1.1778   10.1867   -1.9696 H   0  0  0  0  0
   -3.4725   11.0297   -2.8513 H   0  0  0  0  0
   -3.9584   10.6034   -4.5155 H   0  0  0  0  0
   -5.1096    9.1646   -2.9459 H   0  0  0  0  0
   -3.5158    8.6827   -2.2077 H   0  0  0  0  0
   -2.2717    9.2458   -5.9198 H   0  0  0  0  0
   -0.7431    8.7966   -5.1278 H   0  0  0  0  0
   -1.9308    7.3853   -3.5483 H   0  0  0  0  0
   -2.3850    6.9308   -5.2617 H   0  0  0  0  0
   -4.5411    8.0001   -4.9945 H   0  0  0  0  0
    4.5969    6.0721   -1.8016 H   0  0  0  0  0
    3.6361    7.4192   -2.1589 H   0  0  0  0  0
    0.6198   10.8772   -8.0109 H   0  0  0  0  0
   -3.9826    6.4384   -2.6148 H   0  0  0  0  0
   -6.4081    6.7870   -4.2754 H   0  0  0  0  0
   -6.1513    7.4580   -2.6326 H   0  0  0  0  0
   -7.5340    5.4147   -2.5728 H   0  0  0  0  0
   -5.9709    5.1771   -1.7329 H   0  0  0  0  0
   -6.5995    4.3037   -4.4918 H   0  0  0  0  0
   -4.4344    3.2646   -4.3869 H   0  0  0  0  0
   -4.2105    3.9856   -2.7821 H   0  0  0  0  0
   -3.1274    5.3384   -4.5901 H   0  0  0  0  0
   -4.7314    5.5651   -5.3439 H   0  0  0  0  0
   -6.1831    2.8062   -2.0017 H   0  0  0  0  0
   -7.7412    3.0378   -2.8321 H   0  0  0  0  0
   -6.4420    2.1089   -3.6197 H   0  0  0  0  0
    5.8779    8.1726    1.3142 H   0  0  0  0  0
    6.4594    6.7026    0.6367 H   0  0  0  0  0
    3.8826    7.1519    1.9519 H   0  0  0  0  0
    4.5292    5.6249    1.3700 H   0  0  0  0  0
    1.5752    8.0337   -8.2913 H   0  0  0  0  0
    0.2714    8.6218   -7.2305 H   0  0  0  0  0
    0.0984    8.7328   -8.9993 H   0  0  0  0  0
    2.6064   11.4586   -9.4130 H   0  0  0  0  0
    3.0247    9.7312   -9.5221 H   0  0  0  0  0
    1.5302   10.3349  -10.2791 H   0  0  0  0  0
    2.7923    5.7471   -0.1905 H   0  0  0  0  0
    2.5684    7.4513    0.0449 H   0  0  0  0  0
  2  1  2  0  0  0
  3  2  1  0  0  0
  8  2  1  0  0  0
  3  4  1  0  0  0
  5  3  1  0  0  0
  6  5  4  0  0  0
 16  5  4  0  0  0
  7  6  4  0  0  0
 18  7  4  0  0  0
  8  9  4  0  0  0
 13  8  4  0  0  0
  9 10  4  0  0  0
 11 10  4  0  0  0
 12 11  4  0  0  0
 13 12  4  0  0  0
 14 13  1  0  0  0
 14 15  1  0  0  0
 16 14  1  0  0  0
 15 31  1  0  0  0
 15 44  1  0  0  0
 17 16  4  0  0  0
 18 17  4  0  0  0
 19 18  1  0  0  0
 20 19  1  0  0  0
 21 20  4  0  0  0
 23 20  4  0  0  0
 22 21  4  0  0  0
 21 32  1  0  0  0
 25 22  4  0  0  0
 24 23  4  0  0  0
 25 24  4  0  0  0
 34 25  1  0  0  0
 26 27  1  0  0  0
 36 26  1  0  0  0
 27 30  1  0  0  0
 28 29  1  0  0  0
 36 28  1  0  0  0
 29 30  1  0  0  0
 30 37  1  0  0  0
 31 48  1  0  0  0
 32 33  1  0  0  0
 33 46  1  0  0  0
 33 47  1  0  0  0
 34 35  2  0  0  0
 34 36  1  0  0  0
 37 38  1  0  0  0
 37 42  1  0  0  0
 38 39  1  0  0  0
 39 40  1  0  0  0
 40 41  1  0  0  0
 40 43  1  0  0  0
 41 42  1  0  0  0
 44 45  1  0  0  0
 45 48  1  0  0  0
  4 49  1  0  0  0
  4 50  1  0  0  0
  4 51  1  0  0  0
  6 52  1  0  0  0
  9 53  1  0  0  0
 10 54  1  0  0  0
 11 55  1  0  0  0
 12 56  1  0  0  0
 15 57  1  0  0  0
 19 58  1  0  0  0
 22 59  1  0  0  0
 23 60  1  0  0  0
 24 61  1  0  0  0
 26 62  1  0  0  0
 26 63  1  0  0  0
 27 64  1  0  0  0
 27 65  1  0  0  0
 28 66  1  0  0  0
 28 67  1  0  0  0
 29 68  1  0  0  0
 29 69  1  0  0  0
 30 70  1  0  0  0
 31 71  1  0  0  0
 31 72  1  0  0  0
 33 73  1  0  0  0
 37 74  1  0  0  0
 38 75  1  0  0  0
 38 76  1  0  0  0
 39 77  1  0  0  0
 39 78  1  0  0  0
 40 79  1  0  0  0
 41 80  1  0  0  0
 41 81  1  0  0  0
 42 82  1  0  0  0
 42 83  1  0  0  0
 43 84  1  0  0  0
 43 85  1  0  0  0
 43 86  1  0  0  0
 44 87  1  0  0  0
 44 88  1  0  0  0
 45 89  1  0  0  0
 45 90  1  0  0  0
 46 91  1  0  0  0
 46 92  1  0  0  0
 46 93  1  0  0  0
 47 94  1  0  0  0
 47 95  1  0  0  0
 47 96  1  0  0  0
 48 97  1  0  0  0
 48 98  1  0  0  0
M  END
$$$$
