2wzy_ligand
  -I-interpret- 

113119  0  0  0  0  0  0  0  0999 V2000
  -35.4230    6.1550   44.4510 O   0  0  0  0  0
  -34.2720    5.9160   44.1320 C   0  0  0  0  0
  -33.9120    4.6890   43.4650 O   0  0  0  0  0
  -32.4900    4.6640   43.3580 C   0  0  0  0  0
  -31.9570    5.8360   44.1870 C   0  0  0  0  0
  -33.1150    6.8160   44.3510 C   0  0  0  0  0
  -33.1970    7.5490   45.6840 C   0  0  0  0  0
  -32.0610    3.3120   43.8620 C   0  0  0  0  0
  -31.4840    2.4130   43.0290 C   0  0  0  0  0
  -31.0390    2.8320   41.6540 C   0  0  0  0  0
  -31.2590    0.9690   43.4230 C   0  0  0  0  0
  -32.0660    0.5360   44.6650 C   0  0  0  0  0
  -31.9850    1.6010   45.7510 C   0  0  0  0  0
  -32.3460    3.0150   45.3230 C   0  0  0  0  0
  -31.5910    0.0750   42.2390 C   0  0  0  0  0
  -30.7280   -0.6100   41.4680 C   0  0  0  0  0
  -29.2300   -0.5690   41.6400 C   0  0  0  0  0
  -31.3520   -1.4040   40.3650 C   0  0  0  0  0
  -30.5690   -1.2320   39.1870 O   0  0  0  0  0
  -31.4530   -2.8760   40.7260 C   0  0  0  0  0
  -32.1510   -3.6620   39.6230 C   0  0  0  0  0
  -31.8890   -5.0550   39.8080 O   0  0  0  0  0
  -33.6710   -3.4880   39.6540 C   0  0  0  0  0
  -34.2330   -4.8900   39.4560 C   0  0  0  0  0
  -33.1070   -5.7940   39.9430 C   0  0  0  0  0
  -33.3180   -6.0990   41.3090 O   0  0  0  0  0
  -32.9880   -7.1610   39.2860 C   0  0  0  0  0
  -32.5950   -8.1150   40.4140 C   0  0  0  0  0
  -32.6630   -7.2920   41.7080 C   0  0  0  0  0
  -33.4380   -7.9840   42.8460 C   0  0  0  0  0
  -32.8820   -9.3690   43.1660 C   0  0  0  0  0
  -34.7870   -8.1600   42.4110 O   0  0  0  0  0
  -33.4420   -7.1110   44.1070 C   0  0  0  0  0
  -32.0830   -6.4750   44.4290 C   0  0  0  0  0
  -31.3510   -6.8740   42.1100 O   0  0  0  0  0
  -31.2930   -5.9590   43.2150 C   0  0  0  0  0
  -29.8070   -5.8250   43.5680 C   0  0  0  0  0
  -29.5570   -4.7790   44.6290 C   0  0  0  0  0
  -28.9150   -5.1220   45.7380 C   0  0  0  0  0
  -30.0540   -3.3750   44.3980 C   0  0  0  0  0
  -29.4740   -2.3930   45.3960 C   0  0  0  0  0
  -29.9120   -0.9700   45.0710 C   0  0  0  0  0
  -31.3860   -0.6640   45.3050 C   0  0  0  0  0
  -32.0450   -1.4200   46.0920 N   0  0  0  0  0
  -33.4550   -1.3900   46.5270 C   0  0  0  0  0
  -34.3190   -1.8920   45.3710 C   0  0  0  0  0
  -34.2510   -3.4170   45.2960 C   0  0  0  0  0
  -33.9390   -1.1940   44.0620 C   0  0  0  0  0
  -35.0570   -1.2520   43.0350 C   0  0  0  0  0
  -33.5390    0.2690   44.2920 C   0  0  0  0  0
  -32.1029    4.7866   42.3464 H   0  0  0  0  0
  -31.1116    6.3118   43.6900 H   0  0  0  0  0
  -31.5957    5.4943   45.1570 H   0  0  0  0  0
  -33.0318    7.6619   43.6687 H   0  0  0  0  0
  -33.3018    6.8232   46.4904 H   0  0  0  0  0
  -32.2878    8.1313   45.8335 H   0  0  0  0  0
  -34.0598    8.2150   45.6785 H   0  0  0  0  0
  -31.8980    3.1972   41.0911 H   0  0  0  0  0
  -30.2956    3.6245   41.7399 H   0  0  0  0  0
  -30.6022    1.9767   41.1385 H   0  0  0  0  0
  -30.2094    0.8683   43.6993 H   0  0  0  0  0
  -30.9438    1.6338   46.0717 H   0  0  0  0  0
  -32.7095    1.3169   46.5142 H   0  0  0  0  0
  -33.4192    3.1332   45.4728 H   0  0  0  0  0
  -31.7362    3.6969   45.9156 H   0  0  0  0  0
  -32.6470   -0.0216   41.9867 H   0  0  0  0  0
  -28.8790    0.4553   41.5144 H   0  0  0  0  0
  -28.9702   -0.9237   42.6374 H   0  0  0  0  0
  -28.7620   -1.2091   40.8921 H   0  0  0  0  0
  -32.3678   -1.0459   40.1975 H   0  0  0  0  0
  -30.9580   -1.7368   38.4690 H   0  0  0  0  0
  -32.0325   -2.9719   41.6442 H   0  0  0  0  0
  -30.4466   -3.2741   40.8559 H   0  0  0  0  0
  -31.7685   -3.2871   38.6736 H   0  0  0  0  0
  -34.0148   -2.8021   38.8797 H   0  0  0  0  0
  -34.0078   -3.0468   40.5921 H   0  0  0  0  0
  -34.5103   -5.0875   38.4205 H   0  0  0  0  0
  -35.1632   -5.0491   40.0015 H   0  0  0  0  0
  -32.2487   -7.1592   38.4850 H   0  0  0  0  0
  -33.9222   -7.4620   38.8120 H   0  0  0  0  0
  -31.5959   -8.5214   40.2569 H   0  0  0  0  0
  -33.2656   -8.9732   40.4565 H   0  0  0  0  0
  -32.9482   -9.9995   42.2793 H   0  0  0  0  0
  -31.8398   -9.2789   43.4723 H   0  0  0  0  0
  -33.4623   -9.8143   43.9741 H   0  0  0  0  0
  -35.2921   -8.5905   43.1046 H   0  0  0  0  0
  -33.7047   -7.7554   44.9460 H   0  0  0  0  0
  -34.1474   -6.2979   43.9355 H   0  0  0  0  0
  -31.4750   -7.2547   44.8878 H   0  0  0  0  0
  -32.2858   -5.6093   45.0596 H   0  0  0  0  0
  -31.7412   -5.0028   42.9448 H   0  0  0  0  0
  -29.2728   -5.5244   42.6667 H   0  0  0  0  0
  -29.4651   -6.7850   43.9548 H   0  0  0  0  0
  -28.5747   -6.1483   45.8755 H   0  0  0  0  0
  -28.7278   -4.3775   46.5118 H   0  0  0  0  0
  -31.1380   -3.3752   44.5121 H   0  0  0  0  0
  -29.7466   -3.0657   43.3990 H   0  0  0  0  0
  -28.3863   -2.4455   45.3496 H   0  0  0  0  0
  -29.8313   -2.6520   46.3927 H   0  0  0  0  0
  -29.7320   -0.8269   44.0055 H   0  0  0  0  0
  -29.3507   -0.3142   45.7366 H   0  0  0  0  0
  -33.7431   -0.3743   46.7979 H   0  0  0  0  0
  -33.5919   -2.0255   47.4020 H   0  0  0  0  0
  -35.3624   -1.6324   45.5501 H   0  0  0  0  0
  -33.2182   -3.7259   45.1347 H   0  0  0  0  0
  -34.6169   -3.8421   46.2306 H   0  0  0  0  0
  -34.8695   -3.7668   44.4695 H   0  0  0  0  0
  -33.0801   -1.7399   43.6717 H   0  0  0  0  0
  -35.2879   -2.2931   42.8096 H   0  0  0  0  0
  -35.9433   -0.7607   43.4365 H   0  0  0  0  0
  -34.7391   -0.7437   42.1247 H   0  0  0  0  0
  -33.7045    0.7777   43.3423 H   0  0  0  0  0
  -34.1300    0.6112   45.1416 H   0  0  0  0  0
  1  2  2  0  0  0
  2  3  1  0  0  0
  2  6  1  0  0  0
  3  4  1  0  0  0
  4  5  1  0  0  0
  4  8  1  0  0  0
  5  6  1  0  0  0
  6  7  1  0  0  0
  8  9  2  0  0  0
  8 14  1  0  0  0
  9 10  1  0  0  0
  9 11  1  0  0  0
 11 12  1  0  0  0
 11 15  1  0  0  0
 12 13  1  0  0  0
 12 43  1  0  0  0
 12 50  1  0  0  0
 13 14  1  0  0  0
 15 16  2  0  0  0
 16 17  1  0  0  0
 16 18  1  0  0  0
 18 19  1  0  0  0
 18 20  1  0  0  0
 20 21  1  0  0  0
 21 22  1  0  0  0
 21 23  1  0  0  0
 22 25  1  0  0  0
 23 24  1  0  0  0
 24 25  1  0  0  0
 25 26  1  0  0  0
 25 27  1  0  0  0
 26 29  1  0  0  0
 27 28  1  0  0  0
 28 29  1  0  0  0
 29 30  1  0  0  0
 29 35  1  0  0  0
 30 31  1  0  0  0
 30 32  1  0  0  0
 30 33  1  0  0  0
 33 34  1  0  0  0
 34 36  1  0  0  0
 35 36  1  0  0  0
 36 37  1  0  0  0
 37 38  1  0  0  0
 38 39  2  0  0  0
 38 40  1  0  0  0
 40 41  1  0  0  0
 41 42  1  0  0  0
 42 43  1  0  0  0
 43 44  2  0  0  0
 44 45  1  0  0  0
 45 46  1  0  0  0
 46 47  1  0  0  0
 46 48  1  0  0  0
 48 49  1  0  0  0
 48 50  1  0  0  0
  4 51  1  0  0  0
  5 52  1  0  0  0
  5 53  1  0  0  0
  6 54  1  0  0  0
  7 55  1  0  0  0
  7 56  1  0  0  0
  7 57  1  0  0  0
 10 58  1  0  0  0
 10 59  1  0  0  0
 10 60  1  0  0  0
 11 61  1  0  0  0
 13 62  1  0  0  0
 13 63  1  0  0  0
 14 64  1  0  0  0
 14 65  1  0  0  0
 15 66  1  0  0  0
 17 67  1  0  0  0
 17 68  1  0  0  0
 17 69  1  0  0  0
 18 70  1  0  0  0
 19 71  1  0  0  0
 20 72  1  0  0  0
 20 73  1  0  0  0
 21 74  1  0  0  0
 23 75  1  0  0  0
 23 76  1  0  0  0
 24 77  1  0  0  0
 24 78  1  0  0  0
 27 79  1  0  0  0
 27 80  1  0  0  0
 28 81  1  0  0  0
 28 82  1  0  0  0
 31 83  1  0  0  0
 31 84  1  0  0  0
 31 85  1  0  0  0
 32 86  1  0  0  0
 33 87  1  0  0  0
 33 88  1  0  0  0
 34 89  1  0  0  0
 34 90  1  0  0  0
 36 91  1  0  0  0
 37 92  1  0  0  0
 37 93  1  0  0  0
 39 94  1  0  0  0
 39 95  1  0  0  0
 40 96  1  0  0  0
 40 97  1  0  0  0
 41 98  1  0  0  0
 41 99  1  0  0  0
 42100  1  0  0  0
 42101  1  0  0  0
 45102  1  0  0  0
 45103  1  0  0  0
 46104  1  0  0  0
 47105  1  0  0  0
 47106  1  0  0  0
 47107  1  0  0  0
 48108  1  0  0  0
 49109  1  0  0  0
 49110  1  0  0  0
 49111  1  0  0  0
 50112  1  0  0  0
 50113  1  0  0  0
M  END
$$$$
