4g8v_ligand
  -I-interpret- 

 40 42  0  0  0  0  0  0  0  0999 V2000
   34.6030   -4.4220   12.3230 C   0  0  0  0  0
   35.5870   -4.2550   13.2680 C   0  0  0  0  0
   36.2630   -3.0500   13.2830 C   0  0  0  0  0
   36.7840   -0.9060   12.5220 C   0  0  0  0  0
   36.4320    0.5440   12.5310 C   0  0  0  0  0
   36.4520    1.3550   13.6940 C   0  0  0  0  0
   35.9330   -2.1000   12.4320 N   0  0  0  0  0
   34.3220   -3.4380   11.4420 N   0  0  0  0  0
   34.6700   -1.3430   10.6220 O   0  0  0  0  0
   34.9690   -2.2900   11.4680 C   0  0  0  0  0
   33.9270   -5.5920   12.2890 O   0  0  0  0  0
   36.1760    1.4080   11.4760 N   0  0  0  0  0
   36.0090    2.6160   11.9600 N   0  0  0  0  0
   36.1190    2.6260   13.2560 N   0  0  0  0  0
   36.0810    3.7010   14.1990 C   0  0  0  0  0
   35.9610    4.9830   13.6730 O   0  0  0  0  0
   37.2350    5.3490   13.0770 C   0  0  0  0  0
   37.4370    6.8390   13.1620 C   0  0  0  0  0
   38.6590    7.2200   12.5470 O   0  0  0  0  0
   38.2860    4.4850   13.7830 C   0  0  0  0  0
   39.0840    3.7420   12.8760 O   0  0  0  0  0
   37.4880    3.6090   14.7660 C   0  0  0  0  0
   37.4960    4.1740   16.0690 O   0  0  0  0  0
   35.8256   -5.0449   13.9802 H   0  0  0  0  0
   37.2883   -3.3090   13.0187 H   0  0  0  0  0
   36.0440   -2.6264   14.2632 H   0  0  0  0  0
   37.1567   -1.0161   13.5403 H   0  0  0  0  0
   37.2998   -0.9691   11.5639 H   0  0  0  0  0
   36.6804    1.0448   14.7137 H   0  0  0  0  0
   33.5946   -3.5861   10.7425 H   0  0  0  0  0
   33.2765   -5.5640   11.5836 H   0  0  0  0  0
   35.2204    3.5920   14.8590 H   0  0  0  0  0
   37.3005    5.1485   12.0076 H   0  0  0  0  0
   37.4673    7.1295   14.2121 H   0  0  0  0  0
   36.6149    7.3344   12.6454 H   0  0  0  0  0
   38.7662    8.1717   12.6132 H   0  0  0  0  0
   39.0210    5.0915   14.3121 H   0  0  0  0  0
   39.7231    3.2203   13.3670 H   0  0  0  0  0
   37.8837    2.5976   14.8587 H   0  0  0  0  0
   38.3820    4.1198   16.4346 H   0  0  0  0  0
  2  1  2  0  0  0
  1  8  1  0  0  0
  1 11  1  0  0  0
  3  2  1  0  0  0
  7  3  1  0  0  0
  4  5  1  0  0  0
  4  7  1  0  0  0
  5  6  4  0  0  0
  5 12  4  0  0  0
  6 14  4  0  0  0
  7 10  1  0  0  0
  8 10  1  0  0  0
 10  9  2  0  0  0
 12 13  4  0  0  0
 13 14  4  0  0  0
 14 15  1  0  0  0
 15 16  1  0  0  0
 15 22  1  0  0  0
 16 17  1  0  0  0
 17 18  1  0  0  0
 17 20  1  0  0  0
 18 19  1  0  0  0
 20 21  1  0  0  0
 20 22  1  0  0  0
 22 23  1  0  0  0
  2 24  1  0  0  0
  3 25  1  0  0  0
  3 26  1  0  0  0
  4 27  1  0  0  0
  4 28  1  0  0  0
  6 29  1  0  0  0
  8 30  1  0  0  0
 11 31  1  0  0  0
 15 32  1  0  0  0
 17 33  1  0  0  0
 18 34  1  0  0  0
 18 35  1  0  0  0
 19 36  1  0  0  0
 20 37  1  0  0  0
 21 38  1  0  0  0
 22 39  1  0  0  0
 23 40  1  0  0  0
M  END
$$$$
