2ybt_ligand
  -I-interpret- 

 49 52  0  0  0  0  0  0  0  0999 V2000
   26.7730  -31.7400  -41.8440 N   0  0  0  0  0
   27.6310  -30.8100  -41.3050 C   0  0  0  0  0
   28.8550  -30.7840  -41.6500 O   0  0  0  0  0
   27.0880  -29.9170  -40.3830 N   0  0  0  0  0
   25.6880  -30.0210  -39.9980 C   0  0  0  0  0
   24.8200  -30.9870  -40.5760 C   0  0  0  0  0
   25.3860  -31.8430  -41.5260 C   0  0  0  0  0
   24.7130  -32.7090  -42.1260 O   0  0  0  0  0
   23.5880  -30.8060  -40.0070 N   0  0  0  0  0
   23.6740  -29.7920  -39.1320 C   0  0  0  0  0
   24.9300  -29.2990  -39.1340 N   0  0  0  0  0
   28.5050  -36.1870  -43.2990 N   0  0  0  0  0
   28.1620  -34.7680  -43.5540 C   0  0  0  0  0
   22.2500  -31.5370  -40.2420 C   0  0  0  0  0
   25.6560  -39.8500  -42.8900 C   0  0  0  0  0
   28.0360  -28.9120  -39.7870 C   0  0  0  0  0
   31.6400  -38.2890  -42.8160 C   0  0  0  0  0
   26.2600  -36.7080  -43.3690 O   0  0  0  0  0
   30.8060  -35.8350  -43.2340 O   0  0  0  0  0
   27.9900  -40.6500  -42.6220 C   0  0  0  0  0
   27.3460  -32.6410  -42.8600 C   0  0  0  0  0
   27.5600  -34.0520  -42.3350 C   0  0  0  0  0
   29.2470  -40.1200  -42.6340 N   0  0  0  0  0
   27.4330  -37.1360  -43.2180 C   0  0  0  0  0
   29.8580  -36.6100  -43.1840 C   0  0  0  0  0
   29.1550  -38.8260  -42.8430 C   0  0  0  0  0
   27.7920  -38.4750  -42.9730 C   0  0  0  0  0
   27.1230  -39.6350  -42.8190 N   0  0  0  0  0
   30.1830  -37.9070  -42.9540 N   0  0  0  0  0
   22.8549  -29.4233  -38.5145 H   0  0  0  0  0
   27.4135  -34.7500  -44.3462 H   0  0  0  0  0
   29.0853  -34.2503  -43.8141 H   0  0  0  0  0
   21.9536  -31.4234  -41.2848 H   0  0  0  0  0
   22.3701  -32.5953  -40.0103 H   0  0  0  0  0
   21.4842  -31.1070  -39.5964 H   0  0  0  0  0
   25.4286  -40.5259  -43.7144 H   0  0  0  0  0
   25.3084  -40.2869  -41.9538 H   0  0  0  0  0
   25.1576  -38.8946  -43.0537 H   0  0  0  0  0
   27.6670  -27.9054  -39.9835 H   0  0  0  0  0
   28.1037  -29.0719  -38.7109 H   0  0  0  0  0
   29.0217  -29.0332  -40.2363 H   0  0  0  0  0
   32.1696  -38.0343  -43.7340 H   0  0  0  0  0
   32.0790  -37.7458  -41.9791 H   0  0  0  0  0
   31.7177  -39.3612  -42.6357 H   0  0  0  0  0
   27.7334  -41.6997  -42.4796 H   0  0  0  0  0
   28.3165  -32.2414  -43.1541 H   0  0  0  0  0
   26.6458  -32.6955  -43.6936 H   0  0  0  0  0
   28.2028  -34.0891  -41.4555 H   0  0  0  0  0
   26.6435  -34.5183  -41.9734 H   0  0  0  0  0
  1  2  1  0  0  0
  1  7  1  0  0  0
 21  1  1  0  0  0
  2  3  2  0  0  0
  2  4  1  0  0  0
  4  5  1  0  0  0
  4 16  1  0  0  0
  6  5  4  0  0  0
  5 11  4  0  0  0
  7  6  1  0  0  0
  6  9  4  0  0  0
  7  8  2  0  0  0
  9 10  4  0  0  0
  9 14  1  0  0  0
 10 11  4  0  0  0
 12 13  1  0  0  0
 24 12  1  0  0  0
 12 25  1  0  0  0
 13 22  1  0  0  0
 28 15  1  0  0  0
 29 17  1  0  0  0
 24 18  2  0  0  0
 25 19  2  0  0  0
 23 20  4  0  0  0
 20 28  4  0  0  0
 22 21  1  0  0  0
 26 23  4  0  0  0
 27 24  1  0  0  0
 25 29  1  0  0  0
 26 27  4  0  0  0
 26 29  1  0  0  0
 27 28  4  0  0  0
 10 30  1  0  0  0
 13 31  1  0  0  0
 13 32  1  0  0  0
 14 33  1  0  0  0
 14 34  1  0  0  0
 14 35  1  0  0  0
 15 36  1  0  0  0
 15 37  1  0  0  0
 15 38  1  0  0  0
 16 39  1  0  0  0
 16 40  1  0  0  0
 16 41  1  0  0  0
 17 42  1  0  0  0
 17 43  1  0  0  0
 17 44  1  0  0  0
 20 45  1  0  0  0
 21 46  1  0  0  0
 21 47  1  0  0  0
 22 48  1  0  0  0
 22 49  1  0  0  0
M  END
$$$$
