### 
### Created by X-TOOL on Mon Sep 10 21:12:54 2018
### 

@<TRIPOS>MOLECULE
2clv_ligand
  138   140     1     0     0
SMALL
GAST_HUCK


@<TRIPOS>ATOM
      1 N          14.9870   41.7670    7.2370 N.4       1 SER         0.2396
      2 CA         16.3960   42.2300    7.2200 C.3       1 SER         0.0885
      3 C          16.4620   43.6850    7.6760 C.2       1 SER         0.2290
      4 O          15.8460   44.5790    7.0680 O.2       1 SER        -0.3906
      5 CB         16.9830   42.0840    5.8120 C.3       1 SER         0.1041
      6 OG         18.3710   42.3670    5.8010 O.3       1 SER        -0.3870
      7 N          17.2020   43.9240    8.7520 N.am      1 GLN        -0.2608
      8 CA         17.2950   45.2740    9.2980 C.3       1 GLN         0.1331
      9 C          18.0340   46.2300    8.3610 C.2       1 GLN         0.2042
     10 O          19.0560   45.8730    7.7670 O.2       1 GLN        -0.3944
     11 CB         17.9670   45.2550   10.6710 C.3       1 GLN         0.0045
     12 CG         17.9420   46.6170   11.3900 C.3       1 GLN         0.0412
     13 CD         19.0520   46.7940   12.4390 C.2       1 GLN         0.1737
     14 OE1        19.7680   47.8030   12.4330 O.2       1 GLN        -0.3973
     15 NE2        19.1890   45.8260   13.3390 N.am      1 GLN        -0.3009
     16 N          17.5220   47.4490    8.2410 N.am      1 TYR        -0.2621
     17 CA         18.2670   48.5470    7.6270 C.3       1 TYR         0.1390
     18 C          19.4230   48.9720    8.5300 C.2       1 TYR         0.2058
     19 O          19.2500   49.0970    9.7460 O.2       1 TYR        -0.3942
     20 CB         17.3520   49.7490    7.4060 C.3       1 TYR         0.0163
     21 CG         17.9690   50.8700    6.6090 C.ar      1 TYR        -0.0493
     22 CD1        18.0990   52.1580    7.1500 C.ar      1 TYR        -0.0685
     23 CD2        18.4080   50.6540    5.3000 C.ar      1 TYR        -0.0685
     24 CE1        18.6490   53.1800    6.4060 C.ar      1 TYR        -0.0398
     25 CE2        18.9610   51.6650    4.5560 C.ar      1 TYR        -0.0398
     26 CZ         19.0800   52.9210    5.1030 C.ar      1 TYR         0.0805
     27 OH         19.6290   53.9170    4.3400 O.3       1 TYR        -0.3376
     28 N          20.6060   49.1840    7.9490 N.am      1 TYR        -0.2620
     29 CA         21.6730   49.7840    8.7340 C.3       1 TYR         0.1390
     30 C          21.5310   51.3020    8.7450 C.2       1 TYR         0.2058
     31 O          21.8340   51.9650    7.7550 O.2       1 TYR        -0.3942
     32 CB         23.0850   49.3700    8.2990 C.3       1 TYR         0.0163
     33 CG         24.0620   49.7510    9.3780 C.ar      1 TYR        -0.0493
     34 CD1        24.1860   48.9660   10.5320 C.ar      1 TYR        -0.0685
     35 CD2        24.7990   50.9340    9.2980 C.ar      1 TYR        -0.0685
     36 CE1        25.0610   49.3250   11.5640 C.ar      1 TYR        -0.0398
     37 CE2        25.6840   51.3110   10.3270 C.ar      1 TYR        -0.0398
     38 CZ         25.8080   50.4910   11.4550 C.ar      1 TYR         0.0805
     39 OH         26.6580   50.8550   12.4810 O.3       1 TYR        -0.3376
     40 N          21.0860   51.8340    9.8830 N.am      1 TYR        -0.2620
     41 CA         20.7140   53.2520   10.0130 C.3       1 TYR         0.1390
     42 C          21.8980   54.2130    9.9410 C.2       1 TYR         0.2059
     43 O          22.9990   53.8960   10.4160 O.2       1 TYR        -0.3942
     44 CB         19.8990   53.4960   11.3020 C.3       1 TYR         0.0163
     45 CG         18.5880   52.7430   11.3330 C.ar      1 TYR        -0.0493
     46 CD1        17.4500   53.2690   10.7330 C.ar      1 TYR        -0.0685
     47 CD2        18.4950   51.4860   11.9380 C.ar      1 TYR        -0.0685
     48 CE1        16.2380   52.5730   10.7460 C.ar      1 TYR        -0.0398
     49 CE2        17.2840   50.7760   11.9530 C.ar      1 TYR        -0.0398
     50 CZ         16.1660   51.3280   11.3490 C.ar      1 TYR         0.0805
     51 OH         14.9780   50.6390   11.3420 O.3       1 TYR        -0.3376
     52 N          21.6510   55.3830    9.3410 N.am      1 ASN        -0.2615
     53 CA         22.6190   56.4780    9.3060 C.3       1 ASN         0.1476
     54 C          22.5940   57.1900   10.6590 C.2       1 ASN         0.2063
     55 O          21.8000   56.8370   11.5430 O.2       1 ASN        -0.3942
     56 CB         22.2820   57.4710    8.1740 C.3       1 ASN         0.0773
     57 CG         23.5290   58.1120    7.5300 C.2       1 ASN         0.1780
     58 OD1        23.6340   58.1830    6.3020 O.2       1 ASN        -0.3970
     59 ND2        24.4600   58.5860    8.3490 N.am      1 ASN        -0.3007
     60 N          23.4540   58.1930   10.8090 N.am      1 SER        -0.2614
     61 CA         23.5450   58.9650   12.0360 C.3       1 SER         0.1539
     62 C          22.7500   60.2540   11.9130 C.2       1 SER         0.2056
     63 O          22.5740   60.7870   10.8150 O.2       1 SER        -0.3943
     64 CB         25.0090   59.2780   12.3650 C.3       1 SER         0.0843
     65 OG         25.7140   58.0830   12.6470 O.3       1 SER        -0.3903
     66 N          22.2760   60.7430   13.0560 N.am      1 LEU        -0.2694
     67 CA         21.5220   61.9790   13.1150 C.3       1 LEU         0.0946
     68 C          22.4670   63.1740   13.1860 C.2       1 LEU         0.0601
     69 O          23.6220   63.0360   13.6140 O.co2     1 LEU        -0.5666
     70 CB         20.5650   61.9530   14.3240 C.3       1 LEU        -0.0156
     71 CG         19.4930   60.8510   14.3150 C.3       1 LEU        -0.0431
     72 CD1        18.5610   60.9820   15.5160 C.3       1 LEU        -0.0625
     73 CD2        18.6810   60.8420   13.0250 C.3       1 LEU        -0.0625
     74 OXT        22.0960   64.2930   12.8120 O.co2     1 LEU        -0.5666
     75 H1         14.9455   40.8060    6.9356 H         1 SER         0.2016
     76 H2         14.4380   42.3385    6.6141 H         1 SER         0.2016
     77 H3         14.6200   41.8417    8.1728 H         1 SER         0.2016
     78 H4         16.9836   41.6118    7.9146 H         1 SER         0.1122
     79 H5         16.4695   42.7830    5.1355 H         1 SER         0.0640
     80 H6         16.8248   41.0529    5.4630 H         1 SER         0.0640
     81 H7         18.7061   42.2686    4.9175 H         1 SER         0.2099
     82 H8         17.6983   43.1748    9.1907 H         1 GLN         0.1885
     83 H9         16.2705   45.6540    9.4247 H         1 GLN         0.0801
     84 H10        19.0158   44.9502   10.5404 H         1 GLN         0.0337
     85 H11        17.4472   44.5193   11.3022 H         1 GLN         0.0337
     86 H12        16.9702   46.7236   11.8942 H         1 GLN         0.0504
     87 H13        18.0518   47.4086   10.6342 H         1 GLN         0.0504
     88 H14        19.8964   45.8939   14.0425 H         1 GLN         0.1814
     89 H15        18.5847   45.0297   13.3128 H         1 GLN         0.1814
     90 H16        16.5977   47.6216    8.5813 H         1 TYR         0.1885
     91 H17        18.6664   48.2112    6.6587 H         1 TYR         0.0821
     92 H18        17.0639   50.1463    8.3904 H         1 TYR         0.0453
     93 H19        16.4541   49.4031    6.8730 H         1 TYR         0.0453
     94 H20        17.7638   52.3513    8.1626 H         1 TYR         0.0530
     95 H21        18.3094   49.6667    4.8634 H         1 TYR         0.0530
     96 H22        18.7459   54.1739    6.8277 H         1 TYR         0.0525
     97 H23        19.3016   51.4753    3.5445 H         1 TYR         0.0525
     98 H24        19.6486   54.7239    4.8410 H         1 TYR         0.2458
     99 H25        20.7556   48.9349    6.9921 H         1 TYR         0.1885
    100 H26        21.5445   49.4320    9.7682 H         1 TYR         0.0821
    101 H27        23.3488   49.8857    7.3639 H         1 TYR         0.0453
    102 H28        23.1176   48.2821    8.1395 H         1 TYR         0.0453
    103 H29        23.5931   48.0636   10.6274 H         1 TYR         0.0530
    104 H30        24.6883   51.5731    8.4295 H         1 TYR         0.0530
    105 H31        25.1550   48.6971   12.4426 H         1 TYR         0.0525
    106 H32        26.2618   52.2246   10.2465 H         1 TYR         0.0525
    107 H33        26.3855   51.6938   12.8340 H         1 TYR         0.2458
    108 H34        21.0010   51.2428   10.6850 H         1 TYR         0.1885
    109 H35        20.0601   53.4873    9.1603 H         1 TYR         0.0821
    110 H36        19.6853   54.5721   11.3814 H         1 TYR         0.0453
    111 H37        20.5046   53.1778   12.1634 H         1 TYR         0.0453
    112 H38        17.5034   54.2362   10.2463 H         1 TYR         0.0530
    113 H39        19.3728   51.0523   12.4033 H         1 TYR         0.0530
    114 H40        15.3573   53.0060   10.2857 H         1 TYR         0.0525
    115 H41        17.2243   49.8056   12.4324 H         1 TYR         0.0525
    116 H42        14.3179   51.1528   10.8918 H         1 TYR         0.2458
    117 H43        20.7648   55.5144    8.8967 H         1 ASN         0.1885
    118 H44        23.6239   56.0667    9.1301 H         1 ASN         0.0826
    119 H45        21.6529   58.2723    8.5889 H         1 ASN         0.0551
    120 H46        21.7237   56.9335    7.3933 H         1 ASN         0.0551
    121 H47        25.2852   59.0100    7.9759 H         1 ASN         0.1814
    122 H48        24.3361   58.5191    9.3390 H         1 ASN         0.1814
    123 H49        24.0608   58.4245   10.0486 H         1 SER         0.1884
    124 H50        23.1208   58.3681   12.8569 H         1 SER         0.0823
    125 H51        25.0505   59.9398   13.2426 H         1 SER         0.0606
    126 H52        25.4752   59.7802   11.5046 H         1 SER         0.0606
    127 H53        25.3138   57.6486   13.3911 H         1 SER         0.2097
    128 H54        22.4459   60.2402   13.9036 H         1 LEU         0.1875
    129 H55        20.9210   62.0672   12.1979 H         1 LEU         0.0726
    130 H56        20.0488   62.9235   14.3649 H         1 LEU         0.0308
    131 H57        21.1732   61.8226   15.2312 H         1 LEU         0.0308
    132 H58        20.0116   59.8839   14.3912 H         1 LEU         0.0297
    133 H59        17.8063   60.1824   15.4833 H         1 LEU         0.0232
    134 H60        18.0598   61.9607   15.4862 H         1 LEU         0.0232
    135 H61        19.1450   60.8972   16.4443 H         1 LEU         0.0232
    136 H62        19.3602   60.7473   12.1649 H         1 LEU         0.0232
    137 H63        18.1134   61.7806   12.9424 H         1 LEU         0.0232
    138 H64        17.9835   59.9915   13.0367 H         1 LEU         0.0232
@<TRIPOS>BOND
     1    1    2 1  
     2    2    3 1  
     3    2    5 1  
     4    3    4 2  
     5    3    7 am 
     6    5    6 1  
     7    7    8 1  
     8    8    9 1  
     9    8   11 1  
    10    9   10 2  
    11    9   16 am 
    12   11   12 1  
    13   12   13 1  
    14   13   14 2  
    15   13   15 am 
    16   16   17 1  
    17   17   18 1  
    18   17   20 1  
    19   18   19 2  
    20   18   28 am 
    21   20   21 1  
    22   21   22 ar 
    23   21   23 ar 
    24   22   24 ar 
    25   23   25 ar 
    26   24   26 ar 
    27   25   26 ar 
    28   26   27 1  
    29   28   29 1  
    30   29   30 1  
    31   29   32 1  
    32   30   31 2  
    33   30   40 am 
    34   32   33 1  
    35   33   34 ar 
    36   33   35 ar 
    37   34   36 ar 
    38   35   37 ar 
    39   36   38 ar 
    40   37   38 ar 
    41   38   39 1  
    42   40   41 1  
    43   41   42 1  
    44   41   44 1  
    45   42   43 2  
    46   42   52 am 
    47   44   45 1  
    48   45   46 ar 
    49   45   47 ar 
    50   46   48 ar 
    51   47   49 ar 
    52   48   50 ar 
    53   49   50 ar 
    54   50   51 1  
    55   52   53 1  
    56   53   54 1  
    57   53   56 1  
    58   54   55 2  
    59   54   60 am 
    60   56   57 1  
    61   57   58 2  
    62   57   59 am 
    63   60   61 1  
    64   61   62 1  
    65   61   64 1  
    66   62   63 2  
    67   62   66 am 
    68   64   65 1  
    69   66   67 1  
    70   67   68 1  
    71   67   70 1  
    72   68   69 ar 
    73   68   74 ar 
    74   70   71 1  
    75   71   72 1  
    76   71   73 1  
    77    1   75 1  
    78    1   76 1  
    79    1   77 1  
    80    2   78 1  
    81    5   79 1  
    82    5   80 1  
    83    6   81 1  
    84    7   82 1  
    85    8   83 1  
    86   11   84 1  
    87   11   85 1  
    88   12   86 1  
    89   12   87 1  
    90   15   88 1  
    91   15   89 1  
    92   16   90 1  
    93   17   91 1  
    94   20   92 1  
    95   20   93 1  
    96   22   94 1  
    97   23   95 1  
    98   24   96 1  
    99   25   97 1  
   100   27   98 1  
   101   28   99 1  
   102   29  100 1  
   103   32  101 1  
   104   32  102 1  
   105   34  103 1  
   106   35  104 1  
   107   36  105 1  
   108   37  106 1  
   109   39  107 1  
   110   40  108 1  
   111   41  109 1  
   112   44  110 1  
   113   44  111 1  
   114   46  112 1  
   115   47  113 1  
   116   48  114 1  
   117   49  115 1  
   118   51  116 1  
   119   52  117 1  
   120   53  118 1  
   121   56  119 1  
   122   56  120 1  
   123   59  121 1  
   124   59  122 1  
   125   60  123 1  
   126   61  124 1  
   127   64  125 1  
   128   64  126 1  
   129   65  127 1  
   130   66  128 1  
   131   67  129 1  
   132   70  130 1  
   133   70  131 1  
   134   71  132 1  
   135   72  133 1  
   136   72  134 1  
   137   72  135 1  
   138   73  136 1  
   139   73  137 1  
   140   73  138 1  
@<TRIPOS>SUBSTRUCTURE
     1 SER         1

