2clv_ligand
  -I-interpret- 

139141  0  0  0  0  0  0  0  0999 V2000
   14.9870   41.7670    7.2370 N   0  3  0  0  0
   16.3960   42.2300    7.2200 C   0  0  0  0  0
   16.4620   43.6850    7.6760 C   0  0  0  0  0
   15.8460   44.5790    7.0680 O   0  0  0  0  0
   16.9830   42.0840    5.8120 C   0  0  0  0  0
   18.3710   42.3670    5.8010 O   0  0  0  0  0
   17.2020   43.9240    8.7520 N   0  0  0  0  0
   17.2950   45.2740    9.2980 C   0  0  0  0  0
   18.0340   46.2300    8.3610 C   0  0  0  0  0
   19.0560   45.8730    7.7670 O   0  0  0  0  0
   17.9670   45.2550   10.6710 C   0  0  0  0  0
   17.9420   46.6170   11.3900 C   0  0  0  0  0
   19.0520   46.7940   12.4390 C   0  0  0  0  0
   19.7680   47.8030   12.4330 O   0  0  0  0  0
   19.1890   45.8260   13.3390 N   0  0  0  0  0
   17.5220   47.4490    8.2410 N   0  0  0  0  0
   18.2670   48.5470    7.6270 C   0  0  0  0  0
   19.4230   48.9720    8.5300 C   0  0  0  0  0
   19.2500   49.0970    9.7460 O   0  0  0  0  0
   17.3520   49.7490    7.4060 C   0  0  0  0  0
   17.9690   50.8700    6.6090 C   0  0  0  0  0
   18.0990   52.1580    7.1500 C   0  0  0  0  0
   18.4080   50.6540    5.3000 C   0  0  0  0  0
   18.6490   53.1800    6.4060 C   0  0  0  0  0
   18.9610   51.6650    4.5560 C   0  0  0  0  0
   19.0800   52.9210    5.1030 C   0  0  0  0  0
   19.6290   53.9170    4.3400 O   0  0  0  0  0
   20.6060   49.1840    7.9490 N   0  0  0  0  0
   21.6730   49.7840    8.7340 C   0  0  0  0  0
   21.5310   51.3020    8.7450 C   0  0  0  0  0
   21.8340   51.9650    7.7550 O   0  0  0  0  0
   23.0850   49.3700    8.2990 C   0  0  0  0  0
   24.0620   49.7510    9.3780 C   0  0  0  0  0
   24.1860   48.9660   10.5320 C   0  0  0  0  0
   24.7990   50.9340    9.2980 C   0  0  0  0  0
   25.0610   49.3250   11.5640 C   0  0  0  0  0
   25.6840   51.3110   10.3270 C   0  0  0  0  0
   25.8080   50.4910   11.4550 C   0  0  0  0  0
   26.6580   50.8550   12.4810 O   0  0  0  0  0
   21.0860   51.8340    9.8830 N   0  0  0  0  0
   20.7140   53.2520   10.0130 C   0  0  0  0  0
   21.8980   54.2130    9.9410 C   0  0  0  0  0
   22.9990   53.8960   10.4160 O   0  0  0  0  0
   19.8990   53.4960   11.3020 C   0  0  0  0  0
   18.5880   52.7430   11.3330 C   0  0  0  0  0
   17.4500   53.2690   10.7330 C   0  0  0  0  0
   18.4950   51.4860   11.9380 C   0  0  0  0  0
   16.2380   52.5730   10.7460 C   0  0  0  0  0
   17.2840   50.7760   11.9530 C   0  0  0  0  0
   16.1660   51.3280   11.3490 C   0  0  0  0  0
   14.9780   50.6390   11.3420 O   0  0  0  0  0
   21.6510   55.3830    9.3410 N   0  0  0  0  0
   22.6190   56.4780    9.3060 C   0  0  0  0  0
   22.5940   57.1900   10.6590 C   0  0  0  0  0
   21.8000   56.8370   11.5430 O   0  0  0  0  0
   22.2820   57.4710    8.1740 C   0  0  0  0  0
   23.5290   58.1120    7.5300 C   0  0  0  0  0
   23.6340   58.1830    6.3020 O   0  0  0  0  0
   24.4600   58.5860    8.3490 N   0  0  0  0  0
   23.4540   58.1930   10.8090 N   0  0  0  0  0
   23.5450   58.9650   12.0360 C   0  0  0  0  0
   22.7500   60.2540   11.9130 C   0  0  0  0  0
   22.5740   60.7870   10.8150 O   0  0  0  0  0
   25.0090   59.2780   12.3650 C   0  0  0  0  0
   25.7140   58.0830   12.6470 O   0  0  0  0  0
   22.2760   60.7430   13.0560 N   0  0  0  0  0
   21.5220   61.9790   13.1150 C   0  0  0  0  0
   22.4670   63.1740   13.1860 C   0  0  0  0  0
   23.6220   63.0360   13.6140 O   0  0  0  0  0
   20.5650   61.9530   14.3240 C   0  0  0  0  0
   19.4930   60.8510   14.3150 C   0  0  0  0  0
   18.5610   60.9820   15.5160 C   0  0  0  0  0
   18.6810   60.8420   13.0250 C   0  0  0  0  0
   22.0960   64.2930   12.8120 O   0  0  0  0  0
   14.6081   41.8692    8.1785 H   0  0  0  0  0
   14.4381   42.3281    6.5856 H   0  0  0  0  0
   14.9492   40.7865    6.9585 H   0  0  0  0  0
   16.9839   41.6171    7.9032 H   0  0  0  0  0
   16.4797   42.7900    5.1514 H   0  0  0  0  0
   16.8358   41.0564    5.4796 H   0  0  0  0  0
   18.7096   42.2675    4.9082 H   0  0  0  0  0
   17.7083   43.1599    9.1994 H   0  0  0  0  0
   16.2754   45.6447    9.4034 H   0  0  0  0  0
   19.0121   44.9852   10.5192 H   0  0  0  0  0
   17.4187   44.5475   11.2930 H   0  0  0  0  0
   16.9889   46.6873   11.9142 H   0  0  0  0  0
   18.0905   47.3850   10.6309 H   0  0  0  0  0
   19.9060   45.8985   14.0609 H   0  0  0  0  0
   18.5772   45.0104   13.3080 H   0  0  0  0  0
   16.5792   47.6251    8.5881 H   0  0  0  0  0
   18.6558   48.1995    6.6698 H   0  0  0  0  0
   17.1137   50.1524    8.3902 H   0  0  0  0  0
   16.4909   49.3933    6.8403 H   0  0  0  0  0
   17.7619   52.3524    8.1682 H   0  0  0  0  0
   18.3089   49.6613    4.8610 H   0  0  0  0  0
   18.7464   54.1794    6.8301 H   0  0  0  0  0
   19.3035   51.4743    3.5389 H   0  0  0  0  0
   19.8669   53.5649    3.4792 H   0  0  0  0  0
   20.7586   48.9300    6.9730 H   0  0  0  0  0
   21.5572   49.3956    9.7459 H   0  0  0  0  0
   23.3469   49.8773    7.3704 H   0  0  0  0  0
   23.1184   48.2926    8.1369 H   0  0  0  0  0
   23.5898   48.0586   10.6280 H   0  0  0  0  0
   24.6877   51.5767    8.4247 H   0  0  0  0  0
   25.1555   48.6936   12.4475 H   0  0  0  0  0
   26.2650   52.2297   10.2461 H   0  0  0  0  0
   27.0977   51.6776   12.2541 H   0  0  0  0  0
   20.9993   51.2310   10.7011 H   0  0  0  0  0
   20.0923   53.4706    9.1448 H   0  0  0  0  0
   19.6685   54.5603   11.3493 H   0  0  0  0  0
   20.4992   53.1467   12.1421 H   0  0  0  0  0
   17.5037   54.2415   10.2437 H   0  0  0  0  0
   19.3776   51.0499   12.4059 H   0  0  0  0  0
   15.3524   53.0084   10.2832 H   0  0  0  0  0
   17.2239   49.8002   12.4350 H   0  0  0  0  0
   15.0927   49.8011   11.7962 H   0  0  0  0  0
   20.7471   55.5170    8.8878 H   0  0  0  0  0
   23.6143   56.0783    9.1116 H   0  0  0  0  0
   21.6866   58.2743    8.6080 H   0  0  0  0  0
   21.7584   56.9163    7.3954 H   0  0  0  0  0
   25.2973   59.0271    7.9685 H   0  0  0  0  0
   24.3381   58.5091    9.3588 H   0  0  0  0  0
   24.0730   58.4291   10.0334 H   0  0  0  0  0
   23.1239   58.3708   12.8469 H   0  0  0  0  0
   25.0467   59.9287   13.2386 H   0  0  0  0  0
   25.4696   59.7698   11.5082 H   0  0  0  0  0
   26.6283   58.2928   12.8512 H   0  0  0  0  0
   22.4493   60.2302   13.9205 H   0  0  0  0  0
   20.9256   62.0781   12.2081 H   0  0  0  0  0
   23.7621   62.1197   13.8639 H   0  0  0  0  0
   20.0278   62.9013   14.3084 H   0  0  0  0  0
   21.1858   61.7676   15.2006 H   0  0  0  0  0
   20.0247   59.9016   14.3785 H   0  0  0  0  0
   19.1408   60.8979   16.4351 H   0  0  0  0  0
   18.0650   61.9521   15.4853 H   0  0  0  0  0
   17.8137   60.1892   15.4825 H   0  0  0  0  0
   18.1790   61.8022   12.9065 H   0  0  0  0  0
   19.3471   60.6719   12.1791 H   0  0  0  0  0
   17.9383   60.0454   13.0702 H   0  0  0  0  0
  1  2  1  0  0  0
  2  3  1  0  0  0
  2  5  1  0  0  0
  3  4  2  0  0  0
  3  7  1  0  0  0
  5  6  1  0  0  0
  7  8  1  0  0  0
  8  9  1  0  0  0
  8 11  1  0  0  0
  9 10  2  0  0  0
  9 16  1  0  0  0
 11 12  1  0  0  0
 12 13  1  0  0  0
 13 14  2  0  0  0
 13 15  1  0  0  0
 16 17  1  0  0  0
 17 18  1  0  0  0
 17 20  1  0  0  0
 18 19  2  0  0  0
 18 28  1  0  0  0
 20 21  1  0  0  0
 21 22  4  0  0  0
 21 23  4  0  0  0
 22 24  4  0  0  0
 23 25  4  0  0  0
 24 26  4  0  0  0
 25 26  4  0  0  0
 26 27  1  0  0  0
 28 29  1  0  0  0
 29 30  1  0  0  0
 29 32  1  0  0  0
 30 31  2  0  0  0
 30 40  1  0  0  0
 32 33  1  0  0  0
 33 34  4  0  0  0
 33 35  4  0  0  0
 34 36  4  0  0  0
 35 37  4  0  0  0
 36 38  4  0  0  0
 37 38  4  0  0  0
 38 39  1  0  0  0
 40 41  1  0  0  0
 41 42  1  0  0  0
 41 44  1  0  0  0
 42 43  2  0  0  0
 42 52  1  0  0  0
 44 45  1  0  0  0
 45 46  4  0  0  0
 45 47  4  0  0  0
 46 48  4  0  0  0
 47 49  4  0  0  0
 48 50  4  0  0  0
 49 50  4  0  0  0
 50 51  1  0  0  0
 52 53  1  0  0  0
 53 54  1  0  0  0
 53 56  1  0  0  0
 54 55  2  0  0  0
 54 60  1  0  0  0
 56 57  1  0  0  0
 57 58  2  0  0  0
 57 59  1  0  0  0
 60 61  1  0  0  0
 61 62  1  0  0  0
 61 64  1  0  0  0
 62 63  2  0  0  0
 62 66  1  0  0  0
 64 65  1  0  0  0
 66 67  1  0  0  0
 67 68  1  0  0  0
 67 70  1  0  0  0
 68 69  1  0  0  0
 68 74  2  0  0  0
 70 71  1  0  0  0
 71 72  1  0  0  0
 71 73  1  0  0  0
  1 75  1  0  0  0
  1 76  1  0  0  0
  1 77  1  0  0  0
  2 78  1  0  0  0
  5 79  1  0  0  0
  5 80  1  0  0  0
  6 81  1  0  0  0
  7 82  1  0  0  0
  8 83  1  0  0  0
 11 84  1  0  0  0
 11 85  1  0  0  0
 12 86  1  0  0  0
 12 87  1  0  0  0
 15 88  1  0  0  0
 15 89  1  0  0  0
 16 90  1  0  0  0
 17 91  1  0  0  0
 20 92  1  0  0  0
 20 93  1  0  0  0
 22 94  1  0  0  0
 23 95  1  0  0  0
 24 96  1  0  0  0
 25 97  1  0  0  0
 27 98  1  0  0  0
 28 99  1  0  0  0
 29100  1  0  0  0
 32101  1  0  0  0
 32102  1  0  0  0
 34103  1  0  0  0
 35104  1  0  0  0
 36105  1  0  0  0
 37106  1  0  0  0
 39107  1  0  0  0
 40108  1  0  0  0
 41109  1  0  0  0
 44110  1  0  0  0
 44111  1  0  0  0
 46112  1  0  0  0
 47113  1  0  0  0
 48114  1  0  0  0
 49115  1  0  0  0
 51116  1  0  0  0
 52117  1  0  0  0
 53118  1  0  0  0
 56119  1  0  0  0
 56120  1  0  0  0
 59121  1  0  0  0
 59122  1  0  0  0
 60123  1  0  0  0
 61124  1  0  0  0
 64125  1  0  0  0
 64126  1  0  0  0
 65127  1  0  0  0
 66128  1  0  0  0
 67129  1  0  0  0
 69130  1  0  0  0
 70131  1  0  0  0
 70132  1  0  0  0
 71133  1  0  0  0
 72134  1  0  0  0
 72135  1  0  0  0
 72136  1  0  0  0
 73137  1  0  0  0
 73138  1  0  0  0
 73139  1  0  0  0
M  END
$$$$
