5wxp_ligand
  -I-interpret- 

 86 86  0  0  0  0  0  0  0  0999 V2000
  -28.6920   -9.2540    3.2620 N   0  3  0  0  0
  -28.7570   -9.2360    1.8050 C   0  0  0  0  0
  -29.5360  -10.4340    1.2740 C   0  0  0  0  0
  -29.3610  -11.5590    1.7430 O   0  0  0  0  0
  -27.3490   -9.2170    1.2060 C   0  0  0  0  0
  -26.3750   -7.7450    1.5680 S   0  0  0  0  0
  -30.4050  -10.2000    0.2990 N   0  0  0  0  0
  -31.1980  -11.2370   -0.2870 C   0  0  0  0  0
  -30.5680  -11.6950   -1.5910 C   0  0  0  0  0
  -30.9040  -12.7150   -2.0840 O   0  0  0  0  0
  -32.5990  -10.7340   -0.5410 C   0  0  0  0  0
  -32.5950   -9.5950   -1.3400 O   0  0  0  0  0
  -29.6470  -10.9190   -2.1150 N   0  0  0  0  0
  -29.0410  -11.1250   -3.4360 C   0  0  0  0  0
  -28.1410  -12.3320   -3.4780 C   0  0  0  0  0
  -27.4080  -12.6230   -2.5370 O   0  0  0  0  0
  -28.2320   -9.9040   -3.8430 C   0  0  0  0  0
  -29.0400  -16.6970   -2.8920 C   0  0  0  0  0
  -33.1600  -19.4820   -2.8780 N   0  0  0  0  0
  -29.3880  -16.4720   -4.2240 C   0  0  0  0  0
  -28.3550  -15.9800   -5.2250 C   0  0  0  0  0
  -27.8610  -14.5620   -4.9620 C   0  0  0  0  0
  -26.4340  -14.2910   -5.4150 C   0  0  0  0  0
  -33.0540  -18.9080   -1.6740 C   0  0  0  0  0
  -25.6270  -15.2250   -5.6420 O   0  0  0  0  0
  -28.3200  -13.8070   -3.8470 N   0  0  0  0  0
  -30.6870  -16.7350   -4.6260 C   0  0  0  0  0
  -31.6300  -17.2210   -3.7250 C   0  0  0  0  0
  -31.2750  -17.4300   -2.3900 C   0  0  0  0  0
  -29.9790  -17.1640   -1.9860 C   0  0  0  0  0
  -32.1840  -17.9210   -1.4320 N   0  0  0  0  0
  -33.8640  -19.3100   -0.7000 N   0  0  0  0  0
  -26.0070  -13.1230   -5.5800 O   0  0  0  0  0
  -26.2250   -7.2640   -4.5360 N   0  3  0  0  0
  -26.7150   -6.1650   -3.7260 C   0  0  0  0  0
  -27.3250   -6.5440   -2.3570 C   0  0  0  0  0
  -27.4640   -7.6940   -2.0010 O   0  0  0  0  0
  -27.6610   -5.2960   -4.5370 C   0  0  0  0  0
  -27.6170   -5.5210   -1.5870 N   0  0  0  0  0
  -28.2870   -5.5350   -0.2920 C   0  0  0  0  0
  -29.6740   -4.9050   -0.3810 C   0  0  0  0  0
  -30.1340   -4.6760   -1.5510 O   0  0  0  0  0
  -27.4450   -4.8050    0.7560 C   0  0  0  0  0
  -26.9070   -5.8430    2.1360 S   0  0  0  0  0
  -30.2690   -4.6520    0.7190 O   0  0  0  0  0
  -29.6380   -9.2665    3.6432 H   0  0  0  0  0
  -28.1896  -10.0871    3.5685 H   0  0  0  0  0
  -28.2031   -8.4209    3.5896 H   0  0  0  0  0
  -29.2811   -8.3283    1.5056 H   0  0  0  0  0
  -27.4708   -9.2511    0.1234 H   0  0  0  0  0
  -26.8135  -10.0598    1.6430 H   0  0  0  0  0
  -30.5117   -9.2459   -0.0455 H   0  0  0  0  0
  -31.2439  -12.0807    0.4016 H   0  0  0  0  0
  -33.0543  -10.4822    0.4168 H   0  0  0  0  0
  -33.1581  -11.5151   -1.0562 H   0  0  0  0  0
  -33.4981   -9.3019   -1.4819 H   0  0  0  0  0
  -29.3314  -10.1188   -1.5668 H   0  0  0  0  0
  -29.8650  -11.2884   -4.1306 H   0  0  0  0  0
  -28.8863   -9.0332   -3.8834 H   0  0  0  0  0
  -27.4420   -9.7329   -3.1117 H   0  0  0  0  0
  -27.7896  -10.0735   -4.8247 H   0  0  0  0  0
  -28.0198  -16.5037   -2.5606 H   0  0  0  0  0
  -33.8531  -20.2137   -3.0349 H   0  0  0  0  0
  -32.5477  -19.1878   -3.6389 H   0  0  0  0  0
  -28.8305  -15.9795   -6.2058 H   0  0  0  0  0
  -27.4920  -16.6416   -5.1500 H   0  0  0  0  0
  -28.5199  -14.0611   -5.6713 H   0  0  0  0  0
  -26.0607  -16.0667   -5.4837 H   0  0  0  0  0
  -28.8657  -14.3442   -3.1732 H   0  0  0  0  0
  -30.9749  -16.5589   -5.6625 H   0  0  0  0  0
  -32.6441  -17.4382   -4.0605 H   0  0  0  0  0
  -29.6939  -17.3231   -0.9461 H   0  0  0  0  0
  -32.1784  -17.5007   -0.5026 H   0  0  0  0  0
  -34.5503  -20.0433   -0.8775 H   0  0  0  0  0
  -25.8475   -6.8985   -5.4102 H   0  0  0  0  0
  -25.4917   -7.7586   -4.0280 H   0  0  0  0  0
  -26.9925   -7.9050   -4.7373 H   0  0  0  0  0
  -25.8234   -5.5997   -3.4547 H   0  0  0  0  0
  -27.1324   -4.8946   -5.4016 H   0  0  0  0  0
  -28.5062   -5.8967   -4.8730 H   0  0  0  0  0
  -28.0207   -4.4754   -3.9163 H   0  0  0  0  0
  -27.3412   -4.6039   -1.9380 H   0  0  0  0  0
  -28.4038   -6.5757    0.0104 H   0  0  0  0  0
  -29.4920   -4.9578   -2.2068 H   0  0  0  0  0
  -28.0687   -4.0148    1.1739 H   0  0  0  0  0
  -26.5456   -4.4495    0.2531 H   0  0  0  0  0
  2  1  1  0  0  0
  2  3  1  0  0  0
  5  2  1  0  0  0
  3  4  2  0  0  0
  3  7  1  0  0  0
  6  5  1  0  0  0
 44  6  1  0  0  0
  7  8  1  0  0  0
  8  9  1  0  0  0
  8 11  1  0  0  0
  9 10  2  0  0  0
  9 13  1  0  0  0
 11 12  1  0  0  0
 13 14  1  0  0  0
 14 15  1  0  0  0
 14 17  1  0  0  0
 15 16  2  0  0  0
 15 26  1  0  0  0
 20 18  4  0  0  0
 18 30  4  0  0  0
 24 19  1  0  0  0
 21 20  1  0  0  0
 20 27  4  0  0  0
 22 21  1  0  0  0
 22 23  1  0  0  0
 26 22  1  0  0  0
 23 25  1  0  0  0
 23 33  2  0  0  0
 31 24  1  0  0  0
 24 32  2  0  0  0
 27 28  4  0  0  0
 28 29  4  0  0  0
 30 29  4  0  0  0
 29 31  1  0  0  0
 35 34  1  0  0  0
 36 35  1  0  0  0
 35 38  1  0  0  0
 36 37  2  0  0  0
 39 36  1  0  0  0
 40 39  1  0  0  0
 40 41  1  0  0  0
 43 40  1  0  0  0
 41 42  1  0  0  0
 41 45  2  0  0  0
 43 44  1  0  0  0
  1 46  1  0  0  0
  1 47  1  0  0  0
  1 48  1  0  0  0
  2 49  1  0  0  0
  5 50  1  0  0  0
  5 51  1  0  0  0
  7 52  1  0  0  0
  8 53  1  0  0  0
 11 54  1  0  0  0
 11 55  1  0  0  0
 12 56  1  0  0  0
 13 57  1  0  0  0
 14 58  1  0  0  0
 17 59  1  0  0  0
 17 60  1  0  0  0
 17 61  1  0  0  0
 18 62  1  0  0  0
 19 63  1  0  0  0
 19 64  1  0  0  0
 21 65  1  0  0  0
 21 66  1  0  0  0
 22 67  1  0  0  0
 25 68  1  0  0  0
 26 69  1  0  0  0
 27 70  1  0  0  0
 28 71  1  0  0  0
 30 72  1  0  0  0
 31 73  1  0  0  0
 32 74  1  0  0  0
 34 75  1  0  0  0
 34 76  1  0  0  0
 34 77  1  0  0  0
 35 78  1  0  0  0
 38 79  1  0  0  0
 38 80  1  0  0  0
 38 81  1  0  0  0
 39 82  1  0  0  0
 40 83  1  0  0  0
 42 84  1  0  0  0
 43 85  1  0  0  0
 43 86  1  0  0  0
M  END
$$$$
