4nak_ligand
  -I-interpret- 

 20 21  0  0  0  0  0  0  0  0999 V2000
    4.1540   24.8440  -22.7010 C   0  0  0  0  0
    4.6760   23.8350  -20.5670 C   0  0  0  0  0
    5.0560   22.7150  -19.6720 C   0  0  0  0  0
    4.5690   25.1040  -19.9820 C   0  0  0  0  0
    4.2360   26.2170  -20.7540 C   0  0  0  0  0
    4.4840   23.7010  -21.9550 C   0  0  0  0  0
    4.6030   22.4720  -22.6150 O   0  0  0  0  0
    4.0310   26.0940  -22.1150 C   0  0  0  0  0
    6.1550   20.9500  -18.9440 C   0  0  0  0  0
    5.2550   21.3000  -17.9350 C   0  0  0  0  0
    4.5660   22.4260  -18.3930 C   0  0  0  0  0
    6.0140   21.8170  -19.9600 N   0  0  0  0  0
    4.0730   27.8870  -20.0050 Br  0  0  0  0  0
    3.8530   24.7760  -24.5220 Br  0  0  0  0  0
    3.2230   23.3480  -17.5010 Br  0  0  0  0  0
    5.0490   20.4360  -16.3050 Br  0  0  0  0  0
    7.3340   19.5270  -18.8990 Br  0  0  0  0  0
    4.7477   25.2224  -18.9133 H   0  0  0  0  0
    4.8307   21.7895  -21.9795 H   0  0  0  0  0
    3.7767   26.9658  -22.7179 H   0  0  0  0  0
  6  1  4  0  0  0
  1  8  4  0  0  0
  1 14  1  0  0  0
  3  2  1  0  0  0
  2  4  4  0  0  0
  2  6  4  0  0  0
  3 11  4  0  0  0
 12  3  4  0  0  0
  4  5  4  0  0  0
  5  8  4  0  0  0
  5 13  1  0  0  0
  6  7  1  0  0  0
  9 10  4  0  0  0
  9 12  4  0  0  0
  9 17  1  0  0  0
 10 11  4  0  0  0
 10 16  1  0  0  0
 11 15  1  0  0  0
  4 18  1  0  0  0
  7 19  1  0  0  0
  8 20  1  0  0  0
M  END
$$$$
