5ngf_ligand
  -I-interpret- 

 69 73  0  0  0  0  0  0  0  0999 V2000
   13.6250  -32.7480   18.0150 O   0  0  0  0  0
   13.9280  -31.7770   18.7240 C   0  0  0  0  0
   15.0010  -31.7930   19.5250 C   0  0  0  0  0
   15.9360  -32.7340   19.7840 C   0  0  0  0  0
   16.7830  -32.2310   20.6670 N   0  0  0  0  0
   16.3780  -31.0270   20.9910 N   0  0  0  0  0
   16.9750  -30.1030   21.9440 C   0  0  0  0  0
   15.2820  -30.7310   20.2880 C   0  0  0  0  0
   14.5000  -29.6240   20.2750 N   0  0  0  0  0
   13.3770  -29.6120   19.4830 C   0  0  0  0  0
   13.1340  -30.6850   18.6890 N   0  0  0  0  0
   11.9690  -30.6310   17.7800 C   0  0  0  0  0
   12.3770  -29.8790   16.5030 C   0  0  0  0  0
   11.1160  -29.8340   15.6780 C   0  0  0  0  0
   11.2730  -29.1290   14.3720 C   0  0  0  0  0
   12.8340  -28.5050   16.7880 O   0  0  0  0  0
   13.5250  -30.5700   15.7630 C   0  0  0  0  0
   13.7310  -29.8440   14.3170 C   0  0  0  0  0
   12.4150  -29.7490   13.6000 N   0  0  0  0  0
   12.1370  -30.2400   12.3600 C   0  0  0  0  0
   10.9920  -30.1140   11.9200 O   0  0  0  0  0
   13.0810  -30.6980   11.4060 C   0  0  0  0  0
   12.9300  -31.8900   10.6720 C   0  0  0  0  0
   13.9060  -32.2210    9.7010 C   0  0  0  0  0
   14.1510  -29.8670   11.0800 C   0  0  0  0  0
   15.1270  -30.2020   10.1170 C   0  0  0  0  0
   14.9880  -31.3820    9.4220 C   0  0  0  0  0
   15.9120  -31.6470    8.4180 C   0  0  0  0  0
   17.2780  -31.6330    8.7040 C   0  0  0  0  0
   18.1880  -31.8630    7.6760 C   0  0  0  0  0
   17.7630  -32.0770    6.3600 C   0  0  0  0  0
   16.3910  -32.0350    6.0560 C   0  0  0  0  0
   15.4760  -31.7980    7.0620 C   0  0  0  0  0
   14.1550  -31.7900    6.7570 N   0  0  0  0  0
   13.3600  -30.3570    5.9920 S   0  0  0  0  0
   14.3540  -29.4410    5.3190 O   0  0  0  0  0
   12.2780  -30.9570    5.1020 O   0  0  0  0  0
   12.4950  -29.3640    7.2080 C   0  0  0  0  0
   13.2680  -28.0370    7.3070 C   0  0  0  0  0
   15.9837  -33.7300   19.3437 H   0  0  0  0  0
   16.9879  -30.5611   22.9330 H   0  0  0  0  0
   17.9948  -29.8732   21.6353 H   0  0  0  0  0
   16.3878  -29.1852   21.9749 H   0  0  0  0  0
   12.6971  -28.7601   19.4925 H   0  0  0  0  0
   11.1423  -30.1137   18.2669 H   0  0  0  0  0
   11.6476  -31.6417   17.5286 H   0  0  0  0  0
   10.3706  -29.2863   16.2546 H   0  0  0  0  0
   10.8350  -30.8641   15.4587 H   0  0  0  0  0
   11.4849  -28.0749   14.5509 H   0  0  0  0  0
   10.3522  -29.2211   13.7960 H   0  0  0  0  0
   13.0780  -28.0732   15.9661 H   0  0  0  0  0
   13.2887  -31.6240   15.6167 H   0  0  0  0  0
   14.4411  -30.4932   16.3486 H   0  0  0  0  0
   14.4260  -30.4307   13.7162 H   0  0  0  0  0
   14.1289  -28.8411   14.4719 H   0  0  0  0  0
   12.0774  -32.5459   10.8480 H   0  0  0  0  0
   13.8103  -33.1591    9.1544 H   0  0  0  0  0
   14.2387  -28.9101   11.5946 H   0  0  0  0  0
   15.9725  -29.5406    9.9278 H   0  0  0  0  0
   17.6277  -31.4444    9.7190 H   0  0  0  0  0
   19.2545  -31.8767    7.9009 H   0  0  0  0  0
   18.4922  -32.2753    5.5744 H   0  0  0  0  0
   16.0517  -32.1887    5.0316 H   0  0  0  0  0
   13.5935  -32.6158    6.9649 H   0  0  0  0  0
   12.4569  -29.8695    8.1729 H   0  0  0  0  0
   11.4596  -29.1946    6.9124 H   0  0  0  0  0
   14.2925  -28.2373    7.6206 H   0  0  0  0  0
   13.2739  -27.5479    6.3329 H   0  0  0  0  0
   12.7832  -27.3892    8.0374 H   0  0  0  0  0
  1  2  2  0  0  0
  2  3  1  0  0  0
  2 11  1  0  0  0
  3  4  4  0  0  0
  3  8  4  0  0  0
  4  5  4  0  0  0
  5  6  4  0  0  0
  6  7  1  0  0  0
  6  8  4  0  0  0
  8  9  1  0  0  0
  9 10  2  0  0  0
 10 11  1  0  0  0
 11 12  1  0  0  0
 12 13  1  0  0  0
 13 14  1  0  0  0
 13 16  1  0  0  0
 13 17  1  0  0  0
 14 15  1  0  0  0
 15 19  1  0  0  0
 17 18  1  0  0  0
 18 19  1  0  0  0
 19 20  1  0  0  0
 20 21  2  0  0  0
 20 22  1  0  0  0
 22 23  4  0  0  0
 22 25  4  0  0  0
 23 24  4  0  0  0
 24 27  4  0  0  0
 25 26  4  0  0  0
 26 27  4  0  0  0
 27 28  1  0  0  0
 28 29  4  0  0  0
 28 33  4  0  0  0
 29 30  4  0  0  0
 30 31  4  0  0  0
 31 32  4  0  0  0
 32 33  4  0  0  0
 33 34  1  0  0  0
 34 35  1  0  0  0
 35 36  2  0  0  0
 35 37  2  0  0  0
 35 38  1  0  0  0
 38 39  1  0  0  0
  4 40  1  0  0  0
  7 41  1  0  0  0
  7 42  1  0  0  0
  7 43  1  0  0  0
 10 44  1  0  0  0
 12 45  1  0  0  0
 12 46  1  0  0  0
 14 47  1  0  0  0
 14 48  1  0  0  0
 15 49  1  0  0  0
 15 50  1  0  0  0
 16 51  1  0  0  0
 17 52  1  0  0  0
 17 53  1  0  0  0
 18 54  1  0  0  0
 18 55  1  0  0  0
 23 56  1  0  0  0
 24 57  1  0  0  0
 25 58  1  0  0  0
 26 59  1  0  0  0
 29 60  1  0  0  0
 30 61  1  0  0  0
 31 62  1  0  0  0
 32 63  1  0  0  0
 34 64  1  0  0  0
 38 65  1  0  0  0
 38 66  1  0  0  0
 39 67  1  0  0  0
 39 68  1  0  0  0
 39 69  1  0  0  0
M  END
$$$$
