6g2s_ligand
  -I-interpret- 

 44 46  0  0  0  0  0  0  0  0999 V2000
   53.5210   -5.1500   -6.0170 O   0  0  0  0  0
   53.3410   -3.4440   -4.3080 C   0  0  0  0  0
   54.1470   -2.4200   -3.5130 C   0  0  0  0  0
   52.2900   -2.7770   -4.9960 O   0  0  0  0  0
   53.3510   -1.7720   -2.4030 C   0  0  0  0  0
   55.2780   -3.0580   -2.8950 O   0  0  0  0  0
   52.8050   -2.7380   -1.5150 O   0  0  0  0  0
   56.1640   -3.6820   -3.8100 C   0  0  0  0  0
   55.4310   -4.7720   -4.5800 C   0  0  0  0  0
   54.2450   -4.1560   -5.3040 C   0  0  0  0  0
   57.1060   -1.5360   -4.3360 C   0  0  0  0  0
   57.3720   -1.2760   -3.0020 C   0  0  0  0  0
   57.8250   -0.0260   -2.6240 C   0  0  0  0  0
   58.0280    0.9830   -3.5620 C   0  0  0  0  0
   57.7600    0.6980   -4.8990 C   0  0  0  0  0
   57.3040   -0.5490   -5.2870 C   0  0  0  0  0
   58.5220    2.3270   -3.1420 C   0  0  0  0  0
   59.6850    2.4750   -2.4030 C   0  0  0  0  0
   60.1070    3.6960   -1.9270 C   0  0  0  0  0
   59.3640    4.8200   -2.1960 C   0  0  0  0  0
   58.2150    4.7220   -2.9430 C   0  0  0  0  0
   57.8120    3.4890   -3.4080 C   0  0  0  0  0
   60.4480    1.3970   -2.1470 F   0  0  0  0  0
   61.2340    3.7800   -1.2020 F   0  0  0  0  0
   59.7570    6.0180   -1.7190 F   0  0  0  0  0
   57.4850    5.8170   -3.2120 F   0  0  0  0  0
   56.6900    3.4270   -4.1490 F   0  0  0  0  0
   56.6170   -2.7500   -4.7680 O   0  0  0  0  0
   54.9890   -5.7880   -3.6870 O   0  0  0  0  0
   52.7774   -4.7419   -6.4666 H   0  0  0  0  0
   52.9191   -4.1841   -3.6280 H   0  0  0  0  0
   54.4459   -1.6554   -4.2300 H   0  0  0  0  0
   51.7254   -2.3311   -4.3604 H   0  0  0  0  0
   52.5290   -1.2135   -2.8507 H   0  0  0  0  0
   54.0179   -1.1224   -1.8361 H   0  0  0  0  0
   52.3078   -2.2922   -0.8254 H   0  0  0  0  0
   56.9971   -4.0900   -3.2376 H   0  0  0  0  0
   56.1059   -5.2229   -5.3075 H   0  0  0  0  0
   54.6150   -3.4267   -6.0247 H   0  0  0  0  0
   57.2247   -2.0541   -2.2530 H   0  0  0  0  0
   58.0272    0.1737   -1.5717 H   0  0  0  0  0
   57.9122    1.4709   -5.6524 H   0  0  0  0  0
   57.1011   -0.7541   -6.3381 H   0  0  0  0  0
   54.5286   -6.4695   -4.1821 H   0  0  0  0  0
 10  1  1  0  0  0
  3  2  1  0  0  0
  2  4  1  0  0  0
 10  2  1  0  0  0
  3  5  1  0  0  0
  6  3  1  0  0  0
  5  7  1  0  0  0
  8  6  1  0  0  0
  8  9  1  0  0  0
 28  8  1  0  0  0
  9 10  1  0  0  0
  9 29  1  0  0  0
 11 12  4  0  0  0
 11 16  4  0  0  0
 11 28  1  0  0  0
 12 13  4  0  0  0
 13 14  4  0  0  0
 14 15  4  0  0  0
 14 17  1  0  0  0
 15 16  4  0  0  0
 17 18  4  0  0  0
 17 22  4  0  0  0
 18 19  4  0  0  0
 18 23  1  0  0  0
 19 20  4  0  0  0
 19 24  1  0  0  0
 20 21  4  0  0  0
 20 25  1  0  0  0
 21 22  4  0  0  0
 21 26  1  0  0  0
 22 27  1  0  0  0
  1 30  1  0  0  0
  2 31  1  0  0  0
  3 32  1  0  0  0
  4 33  1  0  0  0
  5 34  1  0  0  0
  5 35  1  0  0  0
  7 36  1  0  0  0
  8 37  1  0  0  0
  9 38  1  0  0  0
 10 39  1  0  0  0
 12 40  1  0  0  0
 13 41  1  0  0  0
 15 42  1  0  0  0
 16 43  1  0  0  0
 29 44  1  0  0  0
M  END
$$$$
