2cgw_ligand
  -I-interpret- 

 31 33  0  0  0  0  0  0  0  0999 V2000
    6.5310   -2.4460   19.0170 N   0  0  0  0  0
    5.3330   -2.8320   19.4920 C   0  0  0  0  0
    4.6110   -2.1360   20.3730 N   0  0  0  0  0
    3.4240   -2.8870   20.6130 O   0  0  0  0  0
    3.4930   -4.0720   19.8000 N   0  0  0  0  0
    4.6640   -4.0160   19.1500 C   0  0  0  0  0
    5.1980   -4.8920   18.2190 C   0  0  0  0  0
    6.4380   -4.8340   17.7390 N   0  0  0  0  0
    4.5970   -5.9070   17.5840 N   0  0  0  0  0
    3.1820   -6.3240   17.7910 C   0  0  0  0  0
    2.9410   -7.7260   17.2180 C   0  0  0  0  0
    1.4580   -7.9650   16.8980 C   0  0  0  0  0
    5.3820   -6.4670   16.7980 N   0  0  0  0  0
    6.5500   -5.8200   16.8530 C   0  0  0  0  0
    7.7140   -6.1070   16.1520 C   0  0  0  0  0
    8.8150   -5.3470   16.0940 N   0  0  0  0  0
    9.7570   -6.0430   15.2880 O   0  0  0  0  0
    9.1500   -7.2510   14.8760 N   0  0  0  0  0
    7.9300   -7.2700   15.4030 C   0  0  0  0  0
    7.0720   -8.2780   15.2160 N   0  0  0  0  0
    6.9448   -1.5678   19.3299 H   0  0  0  0  0
    7.0255   -3.0315   18.3439 H   0  0  0  0  0
    2.5280   -5.6173   17.2803 H   0  0  0  0  0
    2.9719   -6.3394   18.8605 H   0  0  0  0  0
    3.2529   -8.4584   17.9626 H   0  0  0  0  0
    3.5103   -7.8204   16.2933 H   0  0  0  0  0
    0.8697   -7.8618   17.8098 H   0  0  0  0  0
    1.1235   -7.2325   16.1634 H   0  0  0  0  0
    1.3320   -8.9697   16.4946 H   0  0  0  0  0
    6.1464   -8.2458   15.6434 H   0  0  0  0  0
    7.3430   -9.0793   14.6460 H   0  0  0  0  0
  1  2  1  0  0  0
  2  3  4  0  0  0
  2  6  4  0  0  0
  3  4  4  0  0  0
  4  5  4  0  0  0
  5  6  4  0  0  0
  6  7  1  0  0  0
  7  8  4  0  0  0
  7  9  4  0  0  0
  8 14  4  0  0  0
  9 10  1  0  0  0
  9 13  4  0  0  0
 10 11  1  0  0  0
 11 12  1  0  0  0
 13 14  4  0  0  0
 14 15  1  0  0  0
 15 16  4  0  0  0
 15 19  4  0  0  0
 16 17  4  0  0  0
 17 18  4  0  0  0
 18 19  4  0  0  0
 19 20  1  0  0  0
  1 21  1  0  0  0
  1 22  1  0  0  0
 10 23  1  0  0  0
 10 24  1  0  0  0
 11 25  1  0  0  0
 11 26  1  0  0  0
 12 27  1  0  0  0
 12 28  1  0  0  0
 12 29  1  0  0  0
 20 30  1  0  0  0
 20 31  1  0  0  0
M  END
$$$$
