1hwr_ligand
  -I-interpret- 

 60 62  0  0  0  0  0  0  0  0999 V2000
   -8.0280   14.2810   27.7780 O   0  0  0  0  0
  -10.1210   19.3420   26.7660 O   0  0  0  0  0
  -11.7890   18.3830   28.8790 O   0  0  0  0  0
   -8.6520   16.0650   26.7760 N   0  0  0  0  0
   -9.4270   15.5680   28.9380 N   0  0  0  0  0
   -8.7000   15.2840   27.8370 C   0  0  0  0  0
   -8.8280   17.5220   26.8240 C   0  0  0  0  0
  -10.2040   18.0170   27.1390 C   0  0  0  0  0
  -10.5430   17.8310   28.5730 C   0  0  0  0  0
  -10.6770   16.3590   28.9200 C   0  0  0  0  0
   -8.2430   15.4760   25.4990 C   0  0  0  0  0
   -9.1850   15.8620   24.3840 C   0  0  0  0  0
   -8.7490   16.3800   23.2310 C   0  0  0  0  0
   -7.6840   18.1830   27.6090 C   0  0  0  0  0
   -6.3600   17.9800   26.9280 C   0  0  0  0  0
   -5.5520   16.8720   27.2700 C   0  0  0  0  0
   -4.3000   16.6710   26.6470 C   0  0  0  0  0
   -3.8480   17.5700   25.6680 C   0  0  0  0  0
   -4.6680   18.6860   25.3170 C   0  0  0  0  0
   -5.9270   18.8980   25.9450 C   0  0  0  0  0
  -11.7870   15.5540   28.1750 C   0  0  0  0  0
  -12.3910   14.3920   28.9530 C   0  0  0  0  0
  -13.2790   14.6880   30.0160 C   0  0  0  0  0
  -13.9120   13.6630   30.7380 C   0  0  0  0  0
  -13.6380   12.3260   30.3710 C   0  0  0  0  0
  -12.7500   12.0180   29.3060 C   0  0  0  0  0
  -12.1100   13.0510   28.5850 C   0  0  0  0  0
   -9.1190   15.0180   30.2720 C   0  0  0  0  0
   -9.0070   16.0630   31.3700 C   0  0  0  0  0
   -9.4480   15.8760   32.6200 C   0  0  0  0  0
   -9.9003   19.3975   25.8334 H   0  0  0  0  0
  -11.7784   19.3227   28.6827 H   0  0  0  0  0
   -8.7448   17.8679   25.7937 H   0  0  0  0  0
  -11.0020   17.4813   26.6248 H   0  0  0  0  0
   -9.7374   18.3120   29.1277 H   0  0  0  0  0
  -11.0070   16.4795   29.9518 H   0  0  0  0  0
   -8.2544   14.3908   25.6002 H   0  0  0  0  0
   -7.2472   15.8442   25.2524 H   0  0  0  0  0
  -10.2558   15.7135   24.5236 H   0  0  0  0  0
   -7.6819   16.5361   23.0726 H   0  0  0  0  0
   -9.4607   16.6462   22.4495 H   0  0  0  0  0
   -7.6366   17.7287   28.5987 H   0  0  0  0  0
   -7.8804   19.2534   27.6701 H   0  0  0  0  0
   -5.8988   16.1644   28.0231 H   0  0  0  0  0
   -3.6839   15.8165   26.9269 H   0  0  0  0  0
   -2.8841   17.4185   25.1821 H   0  0  0  0  0
   -4.3236   19.3862   24.5560 H   0  0  0  0  0
   -6.5461   19.7528   25.6728 H   0  0  0  0  0
  -11.3168   15.1236   27.2908 H   0  0  0  0  0
  -12.6003   16.2536   27.9821 H   0  0  0  0  0
  -13.4742   15.7279   30.2779 H   0  0  0  0  0
  -14.5941   13.8918   31.5568 H   0  0  0  0  0
  -14.1183   11.5139   30.9168 H   0  0  0  0  0
  -12.5609   10.9772   29.0430 H   0  0  0  0  0
  -11.4214   12.8245   27.7709 H   0  0  0  0  0
   -8.1497   14.5248   30.1991 H   0  0  0  0  0
   -9.9411   14.3555   30.5430 H   0  0  0  0  0
   -8.5416   17.0180   31.1260 H   0  0  0  0  0
   -9.9182   14.9323   32.8966 H   0  0  0  0  0
   -9.3369   16.6674   33.3612 H   0  0  0  0  0
  1  6  2  0  0  0
  6  4  1  0  0  0
  6  5  1  0  0  0
  5 10  1  0  0  0
  5 28  1  0  0  0
 28 29  1  0  0  0
 29 30  2  0  0  0
 10 21  1  0  0  0
 10  9  1  0  0  0
  9  3  1  0  0  0
  9  8  1  0  0  0
  8  2  1  0  0  0
  8  7  1  0  0  0
  7  4  1  0  0  0
  7 14  1  0  0  0
 14 15  1  0  0  0
 15 20  4  0  0  0
 15 16  4  0  0  0
 16 17  4  0  0  0
 17 18  4  0  0  0
 18 19  4  0  0  0
 19 20  4  0  0  0
  4 11  1  0  0  0
 11 12  1  0  0  0
 12 13  2  0  0  0
 21 22  1  0  0  0
 22 27  4  0  0  0
 22 23  4  0  0  0
 23 24  4  0  0  0
 24 25  4  0  0  0
 25 26  4  0  0  0
 26 27  4  0  0  0
  2 31  1  0  0  0
  3 32  1  0  0  0
  7 33  1  0  0  0
  8 34  1  0  0  0
  9 35  1  0  0  0
 10 36  1  0  0  0
 11 37  1  0  0  0
 11 38  1  0  0  0
 12 39  1  0  0  0
 13 40  1  0  0  0
 13 41  1  0  0  0
 14 42  1  0  0  0
 14 43  1  0  0  0
 16 44  1  0  0  0
 17 45  1  0  0  0
 18 46  1  0  0  0
 19 47  1  0  0  0
 20 48  1  0  0  0
 21 49  1  0  0  0
 21 50  1  0  0  0
 23 51  1  0  0  0
 24 52  1  0  0  0
 25 53  1  0  0  0
 26 54  1  0  0  0
 27 55  1  0  0  0
 28 56  1  0  0  0
 28 57  1  0  0  0
 29 58  1  0  0  0
 30 59  1  0  0  0
 30 60  1  0  0  0
M  END
$$$$
