5b6g_ligand
  -I-interpret- 

123125  0  0  0  0  0  0  0  0999 V2000
    6.9390   10.5750   96.1880 C   0  0  0  0  0
    6.4580   11.2290   95.2740 O   0  0  0  0  0
    7.9870    9.7000   95.7170 O   0  0  0  0  0
    9.1340    9.4390   96.4950 C   0  0  0  0  0
    9.4010    7.9700   96.5660 C   0  0  0  0  0
    8.9660    7.2860   97.7010 C   0  0  0  0  0
    9.1980    5.9230   97.7870 C   0  0  0  0  0
    9.8640    5.2430   96.7640 C   0  0  0  0  0
   10.3080    5.9360   95.6370 C   0  0  0  0  0
   10.0750    7.3140   95.5320 C   0  0  0  0  0
    6.4880   10.5890   97.4810 N   0  0  0  0  0
    5.2010   11.1010   97.7190 C   0  0  0  0  0
    5.7800   12.4430   97.9340 C   0  0  0  0  0
    4.9730   13.3560   97.7410 O   0  0  0  0  0
    4.5980   10.5320   98.9980 C   0  0  0  0  0
    6.9400   12.6770   98.5860 N   0  0  0  0  0
    7.3620   14.0570   98.8870 C   0  0  0  0  0
    6.6880   14.6090  100.1500 C   0  0  0  0  0
    6.1890   13.8410  100.9740 O   0  0  0  0  0
    6.6650   15.9410  100.2680 N   0  0  0  0  0
    6.2600   16.6960  101.5050 C   0  0  0  0  0
    5.4250   17.9090  101.0530 C   0  0  0  0  0
    5.4830   18.1870   99.8420 O   0  0  0  0  0
    7.5140   17.1460  102.2580 C   0  0  0  0  0
    8.5240   17.8700  101.3540 C   0  0  0  0  0
    9.7160   18.4200  102.0950 C   0  0  0  0  0
   10.4990   19.1660  101.4450 O   0  0  0  0  0
    9.8690   18.0840  103.3060 O   0  0  0  0  0
    4.6410   18.6460  101.8860 N   0  0  0  0  0
    3.8410   19.6080  101.4020 C   0  0  0  0  0
    3.6610   20.1330  102.8140 C   0  0  0  0  0
    3.7420   19.7920  104.0010 O   0  0  0  0  0
    2.5430   19.0200  100.8520 C   0  0  0  0  0
    0.6710   20.9300  103.3100 O   0  0  0  0  0
    1.2120   21.7600  104.0140 C   0  0  0  0  0
    2.5870   22.2770  103.6270 C   0  0  0  0  0
    3.2110   21.4110  102.6080 N   0  0  0  0  0
    2.3540   23.6950  103.1080 C   0  0  0  0  0
    3.6340   24.4770  102.7950 C   0  0  0  0  0
    3.2900   25.8210  102.1410 C   0  0  0  0  0
    3.2990   26.8680  103.2420 C   0  0  0  0  0
    3.7350   26.1350  104.5120 C   0  0  0  0  0
    4.3850   24.8360  104.0730 C   0  0  0  0  0
    0.6430   22.2240  105.1320 N   0  0  0  0  0
   -0.6590   21.7220  105.5500 C   0  0  0  0  0
   -1.7630   22.1820  104.5790 C   0  0  0  0  0
   -1.7920   23.3200  104.1810 O   0  0  0  0  0
   -1.0060   22.1400  106.9920 C   0  0  0  0  0
   -2.3640   21.5870  107.3460 C   0  0  0  0  0
   -2.5160   20.2250  107.6230 C   0  0  0  0  0
   -3.5130   22.3840  107.2610 C   0  0  0  0  0
   -3.7640   19.6850  107.8770 C   0  0  0  0  0
   -4.7730   21.8530  107.5130 C   0  0  0  0  0
   -4.8880   20.5070  107.8290 C   0  0  0  0  0
   -6.1150   19.9980  108.1010 O   0  0  0  0  0
   -2.6730   21.2840  104.2220 N   0  0  0  0  0
   -3.7350   21.5970  103.2500 C   0  0  0  0  0
   -5.0570   20.8970  103.5740 C   0  0  0  0  0
   -5.1540   20.1490  104.5450 O   0  0  0  0  0
   -3.2720   21.2410  101.8300 C   0  0  0  0  0
   -2.7890   19.7960  101.6580 C   0  0  0  0  0
   -1.6030   19.6310  100.7080 C   0  0  0  0  0
   -1.4680   18.5220  100.1390 O   0  0  0  0  0
   -0.7990   20.5820  100.5360 O   0  0  0  0  0
   -6.1520   21.1460  102.6970 N   0  0  0  0  0
    8.9687    9.8163   97.5042 H   0  0  0  0  0
    9.9911    9.9312   96.0354 H   0  0  0  0  0
    8.4532    7.8139   98.5051 H   0  0  0  0  0
    8.8565    5.3737   98.6643 H   0  0  0  0  0
   10.0369    4.1700   96.8463 H   0  0  0  0  0
   10.8338    5.4077   94.8417 H   0  0  0  0  0
   10.4147    7.8666   94.6560 H   0  0  0  0  0
    7.0664   10.2398   98.2452 H   0  0  0  0  0
    4.3962   10.9503   96.9995 H   0  0  0  0  0
    4.5272    9.4476   98.9137 H   0  0  0  0  0
    5.2339   10.7911   99.8445 H   0  0  0  0  0
    3.6032   10.9518   99.1472 H   0  0  0  0  0
    7.5275   11.8937   98.8718 H   0  0  0  0  0
    7.0755   14.6894   98.0467 H   0  0  0  0  0
    8.4393   14.0529   99.0526 H   0  0  0  0  0
    6.9444   16.4890   99.4543 H   0  0  0  0  0
    5.6712   16.0714  102.1767 H   0  0  0  0  0
    8.0011   16.2562  102.6569 H   0  0  0  0  0
    7.2037   17.8428  103.0367 H   0  0  0  0  0
    8.0063   18.7138  100.8979 H   0  0  0  0  0
    8.8962   17.1420  100.6331 H   0  0  0  0  0
    9.1441   17.5140  103.5728 H   0  0  0  0  0
    4.6618   18.4650  102.8896 H   0  0  0  0  0
    4.1639   20.2641  100.5937 H   0  0  0  0  0
    2.7742   18.3212  100.0480 H   0  0  0  0  0
    2.0160   18.4966  101.6498 H   0  0  0  0  0
    1.9158   19.8241  100.4671 H   0  0  0  0  0
    3.2774   22.2760  104.4704 H   0  0  0  0  0
    3.3165   21.7968  101.6697 H   0  0  0  0  0
    1.8320   24.2402  103.8944 H   0  0  0  0  0
    1.7993   23.6052  102.1740 H   0  0  0  0  0
    4.2338   23.8411  102.1438 H   0  0  0  0  0
    2.3128   25.7763  101.6602 H   0  0  0  0  0
    4.0163   26.0697  101.3672 H   0  0  0  0  0
    2.3159   27.3224  103.3646 H   0  0  0  0  0
    3.9779   27.6870  103.0044 H   0  0  0  0  0
    2.8789   25.9391  105.1576 H   0  0  0  0  0
    4.4349   26.7417  105.0866 H   0  0  0  0  0
    5.4582   24.9390  103.9123 H   0  0  0  0  0
    4.3155   24.0565  104.8317 H   0  0  0  0  0
    1.1210   22.9297  105.6922 H   0  0  0  0  0
   -0.6019   20.6337  105.5279 H   0  0  0  0  0
   -1.0190   23.2273  107.0680 H   0  0  0  0  0
   -0.2571   21.7480  107.6802 H   0  0  0  0  0
   -1.6381   19.5791  107.6390 H   0  0  0  0  0
   -3.4177   23.4363  106.9933 H   0  0  0  0  0
   -3.8671   18.6258  108.1126 H   0  0  0  0  0
   -5.6590   22.4860  107.4629 H   0  0  0  0  0
   -6.7728   20.6929  108.0236 H   0  0  0  0  0
   -2.6360   20.3509  104.6322 H   0  0  0  0  0
   -3.9236   22.6687  103.3135 H   0  0  0  0  0
   -2.4256   21.8883  101.6003 H   0  0  0  0  0
   -4.1331   21.3683  101.1739 H   0  0  0  0  0
   -3.6187   19.2315  101.2324 H   0  0  0  0  0
   -2.4617   19.4509  102.6387 H   0  0  0  0  0
   -1.0805   21.3361  101.0591 H   0  0  0  0  0
   -7.0525   20.6975  102.8654 H   0  0  0  0  0
   -6.0354   21.7727  101.9008 H   0  0  0  0  0
  1  2  2  0  0  0
  1  3  1  0  0  0
 11  1  1  0  0  0
  3  4  1  0  0  0
  4  5  1  0  0  0
  5  6  4  0  0  0
  5 10  4  0  0  0
  6  7  4  0  0  0
  7  8  4  0  0  0
  9  8  4  0  0  0
 10  9  4  0  0  0
 12 11  1  0  0  0
 13 12  1  0  0  0
 12 15  1  0  0  0
 13 14  2  0  0  0
 16 13  1  0  0  0
 17 16  1  0  0  0
 18 17  1  0  0  0
 18 19  2  0  0  0
 20 18  1  0  0  0
 21 20  1  0  0  0
 22 21  1  0  0  0
 21 24  1  0  0  0
 22 23  2  0  0  0
 29 22  1  0  0  0
 24 25  1  0  0  0
 25 26  1  0  0  0
 26 27  2  0  0  0
 26 28  1  0  0  0
 30 29  1  0  0  0
 31 30  1  0  0  0
 30 33  1  0  0  0
 31 32  2  0  0  0
 37 31  1  0  0  0
 35 34  2  0  0  0
 36 35  1  0  0  0
 35 44  1  0  0  0
 36 37  1  0  0  0
 36 38  1  0  0  0
 38 39  1  0  0  0
 39 40  1  0  0  0
 39 43  1  0  0  0
 40 41  1  0  0  0
 41 42  1  0  0  0
 42 43  1  0  0  0
 44 45  1  0  0  0
 45 46  1  0  0  0
 45 48  1  0  0  0
 46 47  2  0  0  0
 46 56  1  0  0  0
 48 49  1  0  0  0
 49 50  4  0  0  0
 49 51  4  0  0  0
 50 52  4  0  0  0
 51 53  4  0  0  0
 52 54  4  0  0  0
 53 54  4  0  0  0
 54 55  1  0  0  0
 56 57  1  0  0  0
 57 58  1  0  0  0
 57 60  1  0  0  0
 58 59  2  0  0  0
 58 65  1  0  0  0
 60 61  1  0  0  0
 61 62  1  0  0  0
 62 63  2  0  0  0
 62 64  1  0  0  0
  4 66  1  0  0  0
  4 67  1  0  0  0
  6 68  1  0  0  0
  7 69  1  0  0  0
  8 70  1  0  0  0
  9 71  1  0  0  0
 10 72  1  0  0  0
 11 73  1  0  0  0
 12 74  1  0  0  0
 15 75  1  0  0  0
 15 76  1  0  0  0
 15 77  1  0  0  0
 16 78  1  0  0  0
 17 79  1  0  0  0
 17 80  1  0  0  0
 20 81  1  0  0  0
 21 82  1  0  0  0
 24 83  1  0  0  0
 24 84  1  0  0  0
 25 85  1  0  0  0
 25 86  1  0  0  0
 28 87  1  0  0  0
 29 88  1  0  0  0
 30 89  1  0  0  0
 33 90  1  0  0  0
 33 91  1  0  0  0
 33 92  1  0  0  0
 36 93  1  0  0  0
 37 94  1  0  0  0
 38 95  1  0  0  0
 38 96  1  0  0  0
 39 97  1  0  0  0
 40 98  1  0  0  0
 40 99  1  0  0  0
 41100  1  0  0  0
 41101  1  0  0  0
 42102  1  0  0  0
 42103  1  0  0  0
 43104  1  0  0  0
 43105  1  0  0  0
 44106  1  0  0  0
 45107  1  0  0  0
 48108  1  0  0  0
 48109  1  0  0  0
 50110  1  0  0  0
 51111  1  0  0  0
 52112  1  0  0  0
 53113  1  0  0  0
 55114  1  0  0  0
 56115  1  0  0  0
 57116  1  0  0  0
 60117  1  0  0  0
 60118  1  0  0  0
 61119  1  0  0  0
 61120  1  0  0  0
 64121  1  0  0  0
 65122  1  0  0  0
 65123  1  0  0  0
M  END
$$$$
