### 
### Created by X-TOOL on Fri Nov  2 10:42:20 2018
### 

@<TRIPOS>MOLECULE
5b6g_ligand
  121   123     1     0     0
SMALL
GAST_HUCK


@<TRIPOS>ATOM
      1 C1          6.9390   10.5750   96.1880 C.2       1 PHQ         0.3239
      2 O1          6.4580   11.2290   95.2740 O.2       1 PHQ        -0.3773
      3 O2          7.9870    9.7000   95.7170 O.3       1 PHQ        -0.2506
      4 C2          9.1340    9.4390   96.4950 C.3       1 PHQ         0.1113
      5 C3          9.4010    7.9700   96.5660 C.ar      1 PHQ        -0.0130
      6 C4          8.9660    7.2860   97.7010 C.ar      1 PHQ        -0.0578
      7 C5          9.1980    5.9230   97.7870 C.ar      1 PHQ        -0.0685
      8 C6          9.8640    5.2430   96.7640 C.ar      1 PHQ        -0.0687
      9 C7         10.3080    5.9360   95.6370 C.ar      1 PHQ        -0.0685
     10 C8         10.0750    7.3140   95.5320 C.ar      1 PHQ        -0.0578
     11 N           6.4880   10.5890   97.4810 N.am      1 PHQ        -0.2413
     12 CA          5.2010   11.1010   97.7190 C.3       1 PHQ         0.1300
     13 C           5.7800   12.4430   97.9340 C.2       1 PHQ         0.2034
     14 O           4.9730   13.3560   97.7410 O.2       1 PHQ        -0.3944
     15 CB          4.5980   10.5320   98.9980 C.3       1 PHQ        -0.0244
     16 N           6.9400   12.6770   98.5860 N.am      1 PHQ        -0.2664
     17 CA          7.3620   14.0570   98.8870 C.3       1 PHQ         0.1201
     18 C           6.6880   14.6090  100.1500 C.2       1 PHQ         0.2007
     19 O           6.1890   13.8410  100.9740 O.2       1 PHQ        -0.3947
     20 N           6.6650   15.9410  100.2680 N.am      1 PHQ        -0.2639
     21 CA          6.2600   16.6960  101.5050 C.3       1 PHQ         0.1324
     22 C           5.4250   17.9090  101.0530 C.2       1 PHQ         0.2040
     23 O           5.4830   18.1870   99.8420 O.2       1 PHQ        -0.3944
     24 CB          7.5140   17.1460  102.2580 C.3       1 PHQ        -0.0008
     25 CG          8.5240   17.8700  101.3540 C.3       1 PHQ         0.0044
     26 CD          9.7160   18.4200  102.0950 C.2       1 PHQ         0.0350
     27 OE1        10.4990   19.1660  101.4450 O.co2     1 PHQ        -0.5690
     28 OE2         9.8690   18.0840  103.3060 O.co2     1 PHQ        -0.5690
     29 N           4.6410   18.6460  101.8860 N.am      1 PHQ        -0.2640
     30 CA          3.8410   19.6080  101.4020 C.3       1 PHQ         0.1282
     31 C           3.6610   20.1330  102.8140 C.2       1 PHQ         0.2036
     32 O           3.7420   19.7920  104.0010 O.2       1 PHQ        -0.3944
     33 CB          2.5430   19.0200  100.8520 C.3       1 PHQ        -0.0244
     34 O           0.6710   20.9300  103.3100 O.2       1 PHQ        -0.3944
     35 C           1.2120   21.7600  104.0140 C.2       1 PHQ         0.2040
     36 CA          2.5870   22.2770  103.6270 C.3       1 PHQ         0.1312
     37 N           3.2110   21.4110  102.6080 N.am      1 PHQ        -0.2637
     38 CB          2.3540   23.6950  103.1080 C.3       1 PHQ        -0.0096
     39 C04         3.6340   24.4770  102.7950 C.3       1 PHQ        -0.0368
     40 C08         3.2900   25.8210  102.1410 C.3       1 PHQ        -0.0500
     41 C07         3.2990   26.8680  103.2420 C.3       1 PHQ        -0.0528
     42 C06         3.7350   26.1350  104.5120 C.3       1 PHQ        -0.0528
     43 C05         4.3850   24.8360  104.0730 C.3       1 PHQ        -0.0500
     44 N           0.6430   22.2240  105.1320 N.am      1 PHQ        -0.2621
     45 CA         -0.6590   21.7220  105.5500 C.3       1 PHQ         0.1390
     46 C          -1.7630   22.1820  104.5790 C.2       1 PHQ         0.2057
     47 O          -1.7920   23.3200  104.1810 O.2       1 PHQ        -0.3942
     48 CB         -1.0060   22.1400  106.9920 C.3       1 PHQ         0.0163
     49 CG         -2.3640   21.5870  107.3460 C.ar      1 PHQ        -0.0493
     50 CD1        -2.5160   20.2250  107.6230 C.ar      1 PHQ        -0.0685
     51 CD2        -3.5130   22.3840  107.2610 C.ar      1 PHQ        -0.0685
     52 CE1        -3.7640   19.6850  107.8770 C.ar      1 PHQ        -0.0398
     53 CE2        -4.7730   21.8530  107.5130 C.ar      1 PHQ        -0.0398
     54 CZ         -4.8880   20.5070  107.8290 C.ar      1 PHQ         0.0805
     55 OH         -6.1150   19.9980  108.1010 O.3       1 PHQ        -0.3376
     56 N          -2.6730   21.2840  104.2220 N.am      1 PHQ        -0.2635
     57 CA         -3.7350   21.5970  103.2500 C.3       1 PHQ         0.1321
     58 C          -5.0570   20.8970  103.5740 C.2       1 PHQ         0.1993
     59 O          -5.1540   20.1490  104.5450 O.2       1 PHQ        -0.3947
     60 CB         -3.2720   21.2410  101.8300 C.3       1 PHQ        -0.0008
     61 CG         -2.7890   19.7960  101.6580 C.3       1 PHQ         0.0044
     62 CD         -1.6030   19.6310  100.7080 C.2       1 PHQ         0.0350
     63 OE1        -1.4680   18.5220  100.1390 O.co2     1 PHQ        -0.5690
     64 OE2        -0.7990   20.5820  100.5360 O.co2     1 PHQ        -0.5690
     65 N          -6.1520   21.1460  102.6970 N.am      1 PHQ        -0.2990
     66 H1          8.9764    9.8269   97.5122 H         1 PHQ         0.0776
     67 H2         10.0005    9.9419   96.0409 H         1 PHQ         0.0776
     68 H3          8.4561    7.8110   98.5006 H         1 PHQ         0.0557
     69 H4          8.8584    5.3767   98.6595 H         1 PHQ         0.0599
     70 H5         10.0360    4.1759   96.8459 H         1 PHQ         0.0559
     71 H6         10.8309    5.4106   94.8461 H         1 PHQ         0.0599
     72 H7         10.4129    7.8636   94.6608 H         1 PHQ         0.0557
     73 H8          7.0550   10.2466   98.2302 H         1 PHQ         0.1899
     74 H9          4.4968   11.0200   96.8779 H         1 PHQ         0.0796
     75 H10         3.5940   10.9550   99.1497 H         1 PHQ         0.0277
     76 H11         5.2388   10.7929   99.8532 H         1 PHQ         0.0277
     77 H12         4.5260    9.4376   98.9142 H         1 PHQ         0.0277
     78 H13         7.5160   11.9091   98.8662 H         1 PHQ         0.1881
     79 H14         7.0988   14.7013   98.0352 H         1 PHQ         0.0763
     80 H15         8.4521   14.0697   99.0334 H         1 PHQ         0.0763
     81 H16         6.9389   16.4782   99.4703 H         1 PHQ         0.1883
     82 H17         5.6543   16.0512  102.1587 H         1 PHQ         0.0801
     83 H18         8.0015   16.2596  102.6901 H         1 PHQ         0.0330
     84 H19         7.2127   17.8291  103.0658 H         1 PHQ         0.0330
     85 H20         8.0087   18.7051  100.8570 H         1 PHQ         0.0433
     86 H21         8.8843   17.1584  100.5965 H         1 PHQ         0.0433
     87 H22         4.6614   18.4685  102.8699 H         1 PHQ         0.1883
     88 H23         4.3036   20.3041  100.6869 H         1 PHQ         0.0797
     89 H24         1.9091   19.8306  100.4632 H         1 PHQ         0.0277
     90 H25         2.0101   18.4915  101.6562 H         1 PHQ         0.0277
     91 H26         2.7749   18.3146  100.0405 H         1 PHQ         0.0277
     92 H27         3.2402   22.3069  104.5116 H         1 PHQ         0.0800
     93 H28         3.3144   21.7892  101.6881 H         1 PHQ         0.1883
     94 H29         1.7897   24.2514  103.8709 H         1 PHQ         0.0315
     95 H30         1.7577   23.6295  102.1860 H         1 PHQ         0.0315
     96 H31         4.2739   23.8775  102.1308 H         1 PHQ         0.0303
     97 H32         2.2943   25.7707  101.6761 H         1 PHQ         0.0268
     98 H33         4.0397   26.0714  101.3760 H         1 PHQ         0.0268
     99 H34         2.2937   27.2951  103.3725 H         1 PHQ         0.0265
    100 H35         4.0103   27.6715  103.0004 H         1 PHQ         0.0265
    101 H36         2.8609   25.9247  105.1459 H         1 PHQ         0.0265
    102 H37         4.4561   26.7475  105.0731 H         1 PHQ         0.0265
    103 H38         5.4567   24.9809  103.8719 H         1 PHQ         0.0268
    104 H39         4.2575   24.0547  104.8368 H         1 PHQ         0.0268
    105 H40         1.1117   22.9159  105.6812 H         1 PHQ         0.1885
    106 H41        -0.6174   20.6232  105.5206 H         1 PHQ         0.0821
    107 H42        -1.0236   23.2375  107.0645 H         1 PHQ         0.0453
    108 H43        -0.2516   21.7388  107.6847 H         1 PHQ         0.0453
    109 H44        -1.6429   19.5827  107.6390 H         1 PHQ         0.0530
    110 H45        -3.4183   23.4305  106.9947 H         1 PHQ         0.0530
    111 H46        -3.8666   18.6316  108.1113 H         1 PHQ         0.0525
    112 H47        -5.6541   22.4825  107.4632 H         1 PHQ         0.0525
    113 H48        -6.0359   19.0721  108.2980 H         1 PHQ         0.2458
    114 H49        -2.6367   20.3692  104.6242 H         1 PHQ         0.1883
    115 H50        -3.9146   22.6815  103.2892 H         1 PHQ         0.0801
    116 H51        -2.4442   21.9135  101.5606 H         1 PHQ         0.0330
    117 H52        -4.1156   21.4045  101.1433 H         1 PHQ         0.0330
    118 H53        -3.6263   19.1983  101.2686 H         1 PHQ         0.0433
    119 H54        -2.4933   19.4131  102.6459 H         1 PHQ         0.0433
    120 H55        -7.0368   20.7119  102.8662 H         1 PHQ         0.1815
    121 H56        -6.0357   21.7548  101.9123 H         1 PHQ         0.1815
@<TRIPOS>BOND
     1    1    2 2  
     2    1    3 1  
     3   11    1 am 
     4    3    4 1  
     5    4    5 1  
     6    5    6 ar 
     7    5   10 ar 
     8    6    7 ar 
     9    7    8 ar 
    10    9    8 ar 
    11   10    9 ar 
    12   12   11 1  
    13   13   12 1  
    14   12   15 1  
    15   13   14 2  
    16   16   13 am 
    17   17   16 1  
    18   18   17 1  
    19   18   19 2  
    20   20   18 am 
    21   21   20 1  
    22   22   21 1  
    23   21   24 1  
    24   22   23 2  
    25   29   22 am 
    26   24   25 1  
    27   25   26 1  
    28   26   27 ar 
    29   26   28 ar 
    30   30   29 1  
    31   31   30 1  
    32   30   33 1  
    33   31   32 2  
    34   37   31 am 
    35   35   34 2  
    36   36   35 1  
    37   35   44 am 
    38   36   37 1  
    39   36   38 1  
    40   38   39 1  
    41   39   40 1  
    42   39   43 1  
    43   40   41 1  
    44   41   42 1  
    45   42   43 1  
    46   44   45 1  
    47   45   46 1  
    48   45   48 1  
    49   46   47 2  
    50   46   56 am 
    51   48   49 1  
    52   49   50 ar 
    53   49   51 ar 
    54   50   52 ar 
    55   51   53 ar 
    56   52   54 ar 
    57   53   54 ar 
    58   54   55 1  
    59   56   57 1  
    60   57   58 1  
    61   57   60 1  
    62   58   59 2  
    63   58   65 am 
    64   60   61 1  
    65   61   62 1  
    66   62   63 ar 
    67   62   64 ar 
    68    4   66 1  
    69    4   67 1  
    70    6   68 1  
    71    7   69 1  
    72    8   70 1  
    73    9   71 1  
    74   10   72 1  
    75   11   73 1  
    76   12   74 1  
    77   15   75 1  
    78   15   76 1  
    79   15   77 1  
    80   16   78 1  
    81   17   79 1  
    82   17   80 1  
    83   20   81 1  
    84   21   82 1  
    85   24   83 1  
    86   24   84 1  
    87   25   85 1  
    88   25   86 1  
    89   29   87 1  
    90   30   88 1  
    91   33   89 1  
    92   33   90 1  
    93   33   91 1  
    94   36   92 1  
    95   37   93 1  
    96   38   94 1  
    97   38   95 1  
    98   39   96 1  
    99   40   97 1  
   100   40   98 1  
   101   41   99 1  
   102   41  100 1  
   103   42  101 1  
   104   42  102 1  
   105   43  103 1  
   106   43  104 1  
   107   44  105 1  
   108   45  106 1  
   109   48  107 1  
   110   48  108 1  
   111   50  109 1  
   112   51  110 1  
   113   52  111 1  
   114   53  112 1  
   115   55  113 1  
   116   56  114 1  
   117   57  115 1  
   118   60  116 1  
   119   60  117 1  
   120   61  118 1  
   121   61  119 1  
   122   65  120 1  
   123   65  121 1  
@<TRIPOS>SUBSTRUCTURE
     1 PHQ         1

