3cfs_ligand
  -I-interpret- 

254254  0  0  0  0  0  0  0  0999 V2000
   13.1190  -24.4560   37.9330 N   0  3  0  0  0
   14.2020  -23.4890   37.5960 C   0  0  0  0  0
   13.6230  -22.0870   37.4160 C   0  0  0  0  0
   13.4610  -21.3460   38.3860 O   0  0  0  0  0
   14.9420  -23.9370   36.3340 C   0  0  0  0  0
   16.3770  -23.4420   36.2440 C   0  0  0  0  0
   17.2440  -24.3280   35.3680 C   0  0  0  0  0
   16.8190  -24.7770   34.3030 O   0  0  0  0  0
   18.4680  -24.5850   35.8160 N   0  0  0  0  0
   13.3080  -21.7300   36.1750 N   0  0  0  0  0
   12.6260  -20.4720   35.8950 C   0  0  0  0  0
   11.1230  -20.6620   35.9380 C   0  0  0  0  0
   10.4040  -20.2280   35.0380 O   0  0  0  0  0
   10.6510  -21.3130   36.9970 N   0  0  0  0  0
    9.2510  -21.7100   37.1090 C   0  0  0  0  0
    8.4420  -20.7610   37.9950 C   0  0  0  0  0
    7.2200  -20.6700   37.8680 O   0  0  0  0  0
    9.1300  -23.1730   37.6010 C   0  0  0  0  0
    9.2570  -24.1370   36.4150 C   0  0  0  0  0
    7.8130  -23.4010   38.3330 C   0  0  0  0  0
    9.4340  -25.5840   36.8230 C   0  0  0  0  0
    9.1310  -20.0430   38.8770 N   0  0  0  0  0
    8.4880  -19.0380   39.7210 C   0  0  0  0  0
    7.9640  -17.8640   38.8870 C   0  0  0  0  0
    8.4840  -17.5790   37.8070 O   0  0  0  0  0
    9.4470  -18.5300   40.8230 C   0  0  0  0  0
    8.9120  -17.3450   41.4240 O   0  0  0  0  0
   10.8190  -18.2240   40.2430 C   0  0  0  0  0
    6.9600  -17.1830   39.3640 N   0  0  0  0  0
    6.3610  -16.1070   38.6100 C   0  0  0  0  0
    7.2430  -14.9260   38.3000 C   0  0  0  0  0
    7.1920  -14.4190   37.2390 O   0  0  0  0  0
    5.0790  -15.6140   39.2490 C   0  0  0  0  0
    4.2450  -16.6560   39.7860 C   0  0  0  0  0
    3.0240  -16.7420   39.0220 C   0  0  0  0  0
    1.9270  -16.1050   39.7740 C   0  0  0  0  0
    1.5420  -14.8460   39.1330 N   0  3  0  0  0
    8.0100  -14.4510   39.2560 N   0  0  0  0  0
    9.0000  -13.4120   38.9640 C   0  0  0  0  0
    9.9970  -13.8100   37.8740 C   0  0  0  0  0
   10.4210  -12.9610   37.0900 O   0  0  0  0  0
    9.7240  -13.2350   40.3020 C   0  0  0  0  0
    8.7290  -13.6500   41.3210 C   0  0  0  0  0
    7.9680  -14.7770   40.6930 C   0  0  0  0  0
   10.3710  -15.0850   37.8260 N   0  0  0  0  0
   11.3070  -15.5590   36.8110 C   0  0  0  0  0
   10.6520  -15.6170   35.4330 C   0  0  0  0  0
   11.2840  -15.3110   34.4220 O   0  0  0  0  0
   11.8690  -16.9160   37.1920 C   0  0  0  0  0
    9.3830  -16.0140   35.4020 N   0  0  0  0  0
    8.6280  -16.0840   34.1560 C   0  0  0  0  0
    8.3730  -14.6830   33.6050 C   0  0  0  0  0
    8.4520  -14.4570   32.3970 O   0  0  0  0  0
    7.2940  -16.8370   34.3480 C   0  0  0  0  0
    7.5610  -18.3240   34.6020 C   0  0  0  0  0
    6.3860  -16.6550   33.1380 C   0  0  0  0  0
    6.3180  -19.1270   34.9300 C   0  0  0  0  0
    8.1270  -13.7550   34.4990 N   0  0  0  0  0
    7.9380  -12.4090   34.1590 C   0  0  0  0  0
    9.1670  -11.7780   33.5870 C   0  0  0  0  0
    9.0890  -10.9320   32.7560 O   0  0  0  0  0
    7.3960  -11.6610   35.3260 C   0  0  0  0  0
    5.9880  -11.6680   35.2630 C   0  0  0  0  0
    5.3550  -10.9200   36.3160 C   0  0  0  0  0
    4.8690  -11.8550   37.2940 N   0  0  0  0  0
    3.6520  -11.8820   37.7860 C   0  0  0  0  0
    2.7640  -11.0030   37.4240 N   0  0  0  0  0
    3.3420  -12.7960   38.6750 N   0  0  0  0  0
   10.3070  -12.2510   34.0200 N   0  0  0  0  0
   11.6070  -11.8130   33.5740 C   0  0  0  0  0
   11.9660  -12.4600   32.2600 C   0  0  0  0  0
   12.6120  -11.8640   31.4660 O   0  0  0  0  0
   12.6040  -12.1750   34.6460 C   0  0  0  0  0
   13.9380  -11.6040   34.6020 C   0  0  0  0  0
   14.8270  -12.5330   35.4350 C   0  0  0  0  0
   15.8840  -11.9350   36.2200 N   0  0  0  0  0
   15.8170  -11.7100   37.5360 C   0  0  0  0  0
   15.1280  -10.6680   38.0090 N   0  0  0  0  0
   16.4370  -12.5200   38.3830 N   0  0  0  0  0
   11.5210  -13.6840   32.0560 N   0  0  0  0  0
   11.6570  -14.3580   30.7720 C   0  0  0  0  0
   10.8430  -13.6110   29.7200 C   0  0  0  0  0
   11.2980  -13.4090   28.5950 O   0  0  0  0  0
   11.1650  -15.8050   30.8750 C   0  0  0  0  0
   11.9650  -16.9180   30.1860 C   0  0  0  0  0
   11.0430  -18.0710   29.8150 C   0  0  0  0  0
   12.7140  -16.4210   28.9600 C   0  0  0  0  0
    9.6400  -13.1920   30.1010 N   0  0  0  0  0
    8.7470  -12.4760   29.1940 C   0  0  0  0  0
    9.3830  -11.2000   28.6540 C   0  0  0  0  0
    9.2690  -10.8970   27.4650 O   0  0  0  0  0
    7.4350  -12.1600   29.8890 C   0  0  0  0  0
   10.0520  -10.4560   29.5320 N   0  0  0  0  0
   10.6750   -9.1910   29.1560 C   0  0  0  0  0
   11.9190   -9.4160   28.3040 C   0  0  0  0  0
   12.3110   -8.5520   27.5210 O   0  0  0  0  0
   11.0210   -8.3710   30.4010 C   0  0  0  0  0
    9.8510   -8.1960   31.3530 C   0  0  0  0  0
   10.2730   -7.5680   32.6700 C   0  0  0  0  0
   10.2330   -6.1110   32.6130 N   0  0  0  0  0
   11.3070   -5.3320   32.5790 C   0  0  0  0  0
   12.5190   -5.8650   32.6080 N   0  0  0  0  0
   11.1680   -4.0160   32.5230 N   0  0  0  0  0
   12.5350  -10.5820   28.4630 N   0  0  0  0  0
   13.6860  -10.9610   27.6520 C   0  0  0  0  0
   13.2450  -11.5810   26.3280 C   0  0  0  0  0
   14.0450  -11.7290   25.4050 O   0  0  0  0  0
   14.5860  -11.9300   28.4220 C   0  0  0  0  0
   15.5480  -11.2410   29.3750 C   0  0  0  0  0
   16.0600  -12.1890   30.4470 C   0  0  0  0  0
   17.2050  -11.6280   31.1590 N   0  0  0  0  0
   17.6300  -12.0480   32.3470 C   0  0  0  0  0
   17.0000  -13.0350   32.9710 N   0  0  0  0  0
   18.6840  -11.4770   32.9150 N   0  0  0  0  0
   11.9680  -11.9390   26.2450 N   0  0  0  0  0
   11.4100  -12.5280   25.0340 C   0  0  0  0  0
   11.7290  -14.0040   24.8940 C   0  0  0  0  0
   11.6330  -14.5660   23.8030 O   0  0  0  0  0
   12.1163  -14.6980   25.9604 O   0  0  0  0  0
   13.5200  -25.3865   38.0501 H   0  0  0  0  0
   12.6657  -24.1683   38.8002 H   0  0  0  0  0
   12.4328  -24.4726   37.1785 H   0  0  0  0  0
   14.9163  -23.4617   38.4189 H   0  0  0  0  0
   14.4045  -23.5217   35.4815 H   0  0  0  0  0
   14.9781  -25.0263   36.3519 H   0  0  0  0  0
   16.7983  -23.4478   37.2493 H   0  0  0  0  0
   16.3618  -22.4452   35.8033 H   0  0  0  0  0
   19.0968  -25.1754   35.2716 H   0  0  0  0  0
   18.7789  -24.1919   36.7044 H   0  0  0  0  0
   13.5487  -22.3498   35.4015 H   0  0  0  0  0
   12.9112  -20.1283   34.9007 H   0  0  0  0  0
   12.9120  -19.7387   36.6491 H   0  0  0  0  0
   11.2900  -21.5431   37.7580 H   0  0  0  0  0
    8.8216  -21.6459   36.1092 H   0  0  0  0  0
    9.9401  -23.3651   38.3045 H   0  0  0  0  0
   10.1441  -23.8462   35.8523 H   0  0  0  0  0
    8.3327  -24.0710   35.8410 H   0  0  0  0  0
    7.7590  -22.7376   39.1962 H   0  0  0  0  0
    6.9829  -23.1904   37.6588 H   0  0  0  0  0
    7.7585  -24.4375   38.6658 H   0  0  0  0  0
   10.3398  -25.6833   37.4211 H   0  0  0  0  0
    8.5727  -25.9026   37.4101 H   0  0  0  0  0
    9.5165  -26.2043   35.9305 H   0  0  0  0  0
   10.1352  -20.1978   38.9669 H   0  0  0  0  0
    7.6384  -19.5194   40.2052 H   0  0  0  0  0
    9.5490  -19.3116   41.5759 H   0  0  0  0  0
    9.5116  -17.0351   42.1066 H   0  0  0  0  0
   11.2360  -19.1296   39.8025 H   0  0  0  0  0
   10.7246  -17.4555   39.4758 H   0  0  0  0  0
   11.4764  -17.8684   41.0364 H   0  0  0  0  0
    6.5909  -17.4143   40.2863 H   0  0  0  0  0
    6.1604  -16.5812   37.6493 H   0  0  0  0  0
    4.5044  -15.1136   38.4695 H   0  0  0  0  0
    5.3630  -14.9702   40.0814 H   0  0  0  0  0
    4.0064  -16.4291   40.8251 H   0  0  0  0  0
    4.7741  -17.6074   39.7309 H   0  0  0  0  0
    2.7810  -17.7893   38.8425 H   0  0  0  0  0
    3.1555  -16.2305   38.0685 H   0  0  0  0  0
    2.2619  -15.9008   40.7910 H   0  0  0  0  0
    1.0678  -16.7756   39.7900 H   0  0  0  0  0
    0.7834  -14.4150   39.6613 H   0  0  0  0  0
    2.3445  -14.2167   39.1131 H   0  0  0  0  0
    1.2309  -15.0325   38.1797 H   0  0  0  0  0
    8.5253  -12.5080   38.5824 H   0  0  0  0  0
   10.0589  -12.2087   40.4525 H   0  0  0  0  0
   10.6355  -13.8304   40.3550 H   0  0  0  0  0
    9.2098  -13.9583   42.2494 H   0  0  0  0  0
    8.0709  -12.8265   41.5983 H   0  0  0  0  0
    8.4002  -15.7525   40.9160 H   0  0  0  0  0
    6.9509  -14.8627   41.0755 H   0  0  0  0  0
    9.9976  -15.7431   38.5100 H   0  0  0  0  0
   12.1291  -14.8452   36.7594 H   0  0  0  0  0
   12.3921  -16.8366   38.1450 H   0  0  0  0  0
   11.0533  -17.6333   37.2824 H   0  0  0  0  0
   12.5639  -17.2494   36.4213 H   0  0  0  0  0
    8.9247  -16.2770   36.2745 H   0  0  0  0  0
    9.2268  -16.6412   33.4356 H   0  0  0  0  0
    6.7840  -16.4181   35.2155 H   0  0  0  0  0
    8.2253  -18.3904   35.4637 H   0  0  0  0  0
    7.9806  -18.7381   33.6852 H   0  0  0  0  0
    6.1734  -15.5947   33.0011 H   0  0  0  0  0
    6.8837  -17.0447   32.2500 H   0  0  0  0  0
    5.4537  -17.1959   33.3003 H   0  0  0  0  0
    5.8542  -18.7246   35.8306 H   0  0  0  0  0
    5.6159  -19.0632   34.0987 H   0  0  0  0  0
    6.5931  -20.1686   35.0958 H   0  0  0  0  0
    8.0711  -14.0242   35.4812 H   0  0  0  0  0
    7.2006  -12.3641   33.3575 H   0  0  0  0  0
    7.7594  -10.6336   35.3046 H   0  0  0  0  0
    7.7245  -12.1352   36.2508 H   0  0  0  0  0
    5.6638  -12.7041   35.3606 H   0  0  0  0  0
    5.7030  -11.2042   34.3187 H   0  0  0  0  0
    4.5302  -10.3302   35.9160 H   0  0  0  0  0
    6.0686  -10.2340   36.7725 H   0  0  0  0  0
    5.5256  -12.5573   37.6347 H   0  0  0  0  0
    3.0089  -10.2790   36.7485 H   0  0  0  0  0
    2.4064  -12.8162   39.0807 H   0  0  0  0  0
    4.0367  -13.4862   38.9604 H   0  0  0  0  0
   10.2743  -12.9856   34.7269 H   0  0  0  0  0
   11.6093  -10.7355   33.4093 H   0  0  0  0  0
   12.7579  -13.2479   34.5304 H   0  0  0  0  0
   12.1692  -11.7925   35.5694 H   0  0  0  0  0
   13.9452  -10.5900   35.0017 H   0  0  0  0  0
   14.2999  -11.5284   33.5766 H   0  0  0  0  0
   15.3306  -13.1760   34.7132 H   0  0  0  0  0
   14.1591  -13.0017   36.1578 H   0  0  0  0  0
   16.7405  -11.6661   35.7358 H   0  0  0  0  0
   15.0821  -10.5009   39.0142 H   0  0  0  0  0
   14.6478  -10.0394   37.3650 H   0  0  0  0  0
   16.9669  -13.3173   38.0310 H   0  0  0  0  0
   11.0654  -14.1764   32.8244 H   0  0  0  0  0
   12.7084  -14.3666   30.4846 H   0  0  0  0  0
   10.1964  -15.8069   30.3751 H   0  0  0  0  0
   11.2151  -16.0420   31.9377 H   0  0  0  0  0
   12.7148  -17.2666   30.8963 H   0  0  0  0  0
   10.5794  -18.4688   30.7178 H   0  0  0  0  0
   10.2697  -17.7121   29.1358 H   0  0  0  0  0
   11.6220  -18.8549   29.3267 H   0  0  0  0  0
   12.0019  -16.0216   28.2379 H   0  0  0  0  0
   13.4121  -15.6377   29.2551 H   0  0  0  0  0
   13.2632  -17.2486   28.5110 H   0  0  0  0  0
    9.3315  -13.3762   31.0556 H   0  0  0  0  0
    8.5539  -13.1281   28.3422 H   0  0  0  0  0
    6.9574  -13.0889   30.2006 H   0  0  0  0  0
    7.6289  -11.5386   30.7633 H   0  0  0  0  0
    6.7799  -11.6263   29.2004 H   0  0  0  0  0
   10.1315  -10.7796   30.4960 H   0  0  0  0  0
    9.9561   -8.6317   28.5573 H   0  0  0  0  0
   11.3237   -7.3786   30.0669 H   0  0  0  0  0
   11.8046   -8.9050   30.9385 H   0  0  0  0  0
    9.4352   -9.1811   31.5645 H   0  0  0  0  0
    9.1241   -7.5359   30.8797 H   0  0  0  0  0
   11.2971   -7.8745   32.8830 H   0  0  0  0  0
    9.5816   -7.8996   33.4447 H   0  0  0  0  0
    9.3180   -5.6605   32.5983 H   0  0  0  0  0
   12.6297   -6.8778   32.6566 H   0  0  0  0  0
   11.9929   -3.4165   32.5023 H   0  0  0  0  0
   10.2360   -3.6021   32.5005 H   0  0  0  0  0
   12.1933  -11.2305   29.1723 H   0  0  0  0  0
   14.2540  -10.0578   27.4291 H   0  0  0  0  0
   15.1841  -12.4722   27.6896 H   0  0  0  0  0
   13.9388  -12.5723   29.0191 H   0  0  0  0  0
   15.0174  -10.4249   29.8655 H   0  0  0  0  0
   16.4016  -10.8829   28.7994 H   0  0  0  0  0
   16.3740  -13.1153   29.9659 H   0  0  0  0  0
   15.2586  -12.3613   31.1655 H   0  0  0  0  0
   17.7128  -10.8627   30.7153 H   0  0  0  0  0
   17.3266  -13.3519   33.8839 H   0  0  0  0  0
   16.1891  -13.4769   32.5378 H   0  0  0  0  0
   19.1689  -10.7154   32.4405 H   0  0  0  0  0
   11.3606  -11.7975   27.0521 H   0  0  0  0  0
   11.8475  -12.0106   24.1802 H   0  0  0  0  0
   10.3260  -12.4250   25.0829 H   0  0  0  0  0
   12.1402  -14.1193   26.7260 H   0  0  0  0  0
  2  1  1  0  0  0
  2  5  1  0  0  0
  3  2  1  0  0  0
  3  4  2  0  0  0
  5  6  1  0  0  0
  6  7  1  0  0  0
  7  9  1  0  0  0
  7  8  2  0  0  0
 11 10  1  0  0  0
 12 11  1  0  0  0
 12 13  2  0  0  0
 10  3  1  0  0  0
 15 14  1  0  0  0
 15 18  1  0  0  0
 16 15  1  0  0  0
 16 17  2  0  0  0
 18 20  1  0  0  0
 18 19  1  0  0  0
 19 21  1  0  0  0
 14 12  1  0  0  0
 23 22  1  0  0  0
 23 26  1  0  0  0
 24 23  1  0  0  0
 24 25  2  0  0  0
 26 28  1  0  0  0
 26 27  1  0  0  0
 22 16  1  0  0  0
 30 29  1  0  0  0
 30 33  1  0  0  0
 31 30  1  0  0  0
 31 32  2  0  0  0
 33 34  1  0  0  0
 34 35  1  0  0  0
 35 36  1  0  0  0
 36 37  1  0  0  0
 29 24  1  0  0  0
 40 39  1  0  0  0
 39 42  1  0  0  0
 39 38  1  0  0  0
 38 44  1  0  0  0
 44 43  1  0  0  0
 42 43  1  0  0  0
 40 41  2  0  0  0
 38 31  1  0  0  0
 46 45  1  0  0  0
 46 49  1  0  0  0
 47 46  1  0  0  0
 47 48  2  0  0  0
 45 40  1  0  0  0
 51 50  1  0  0  0
 51 54  1  0  0  0
 52 51  1  0  0  0
 52 53  2  0  0  0
 54 56  1  0  0  0
 54 55  1  0  0  0
 55 57  1  0  0  0
 50 47  1  0  0  0
 59 58  1  0  0  0
 59 62  1  0  0  0
 60 59  1  0  0  0
 60 61  2  0  0  0
 62 63  1  0  0  0
 63 64  1  0  0  0
 64 65  1  0  0  0
 65 66  1  0  0  0
 66 68  1  0  0  0
 66 67  2  0  0  0
 58 52  1  0  0  0
 70 69  1  0  0  0
 70 73  1  0  0  0
 71 70  1  0  0  0
 71 72  2  0  0  0
 73 74  1  0  0  0
 74 75  1  0  0  0
 75 76  1  0  0  0
 76 77  1  0  0  0
 77 79  2  0  0  0
 77 78  1  0  0  0
 69 60  1  0  0  0
 81 80  1  0  0  0
 81 84  1  0  0  0
 82 81  1  0  0  0
 82 83  2  0  0  0
 84 85  1  0  0  0
 85 86  1  0  0  0
 85 87  1  0  0  0
 80 71  1  0  0  0
 89 88  1  0  0  0
 89 92  1  0  0  0
 90 89  1  0  0  0
 90 91  2  0  0  0
 88 82  1  0  0  0
 94 93  1  0  0  0
 94 97  1  0  0  0
 95 94  1  0  0  0
 95 96  2  0  0  0
 97 98  1  0  0  0
 98 99  1  0  0  0
 99100  1  0  0  0
100101  1  0  0  0
101103  1  0  0  0
101102  2  0  0  0
 93 90  1  0  0  0
105104  1  0  0  0
105108  1  0  0  0
106105  1  0  0  0
106107  2  0  0  0
108109  1  0  0  0
109110  1  0  0  0
110111  1  0  0  0
111112  1  0  0  0
112114  2  0  0  0
112113  1  0  0  0
104 95  1  0  0  0
115116  1  0  0  0
116117  1  0  0  0
117118  2  0  0  0
106115  1  0  0  0
117119  1  0  0  0
  1120  1  0  0  0
  1121  1  0  0  0
  1122  1  0  0  0
  2123  1  0  0  0
  5124  1  0  0  0
  5125  1  0  0  0
  6126  1  0  0  0
  6127  1  0  0  0
  9128  1  0  0  0
  9129  1  0  0  0
 10130  1  0  0  0
 11131  1  0  0  0
 11132  1  0  0  0
 14133  1  0  0  0
 15134  1  0  0  0
 18135  1  0  0  0
 19136  1  0  0  0
 19137  1  0  0  0
 20138  1  0  0  0
 20139  1  0  0  0
 20140  1  0  0  0
 21141  1  0  0  0
 21142  1  0  0  0
 21143  1  0  0  0
 22144  1  0  0  0
 23145  1  0  0  0
 26146  1  0  0  0
 27147  1  0  0  0
 28148  1  0  0  0
 28149  1  0  0  0
 28150  1  0  0  0
 29151  1  0  0  0
 30152  1  0  0  0
 33153  1  0  0  0
 33154  1  0  0  0
 34155  1  0  0  0
 34156  1  0  0  0
 35157  1  0  0  0
 35158  1  0  0  0
 36159  1  0  0  0
 36160  1  0  0  0
 37161  1  0  0  0
 37162  1  0  0  0
 37163  1  0  0  0
 39164  1  0  0  0
 42165  1  0  0  0
 42166  1  0  0  0
 43167  1  0  0  0
 43168  1  0  0  0
 44169  1  0  0  0
 44170  1  0  0  0
 45171  1  0  0  0
 46172  1  0  0  0
 49173  1  0  0  0
 49174  1  0  0  0
 49175  1  0  0  0
 50176  1  0  0  0
 51177  1  0  0  0
 54178  1  0  0  0
 55179  1  0  0  0
 55180  1  0  0  0
 56181  1  0  0  0
 56182  1  0  0  0
 56183  1  0  0  0
 57184  1  0  0  0
 57185  1  0  0  0
 57186  1  0  0  0
 58187  1  0  0  0
 59188  1  0  0  0
 62189  1  0  0  0
 62190  1  0  0  0
 63191  1  0  0  0
 63192  1  0  0  0
 64193  1  0  0  0
 64194  1  0  0  0
 65195  1  0  0  0
 67196  1  0  0  0
 68197  1  0  0  0
 68198  1  0  0  0
 69199  1  0  0  0
 70200  1  0  0  0
 73201  1  0  0  0
 73202  1  0  0  0
 74203  1  0  0  0
 74204  1  0  0  0
 75205  1  0  0  0
 75206  1  0  0  0
 76207  1  0  0  0
 78208  1  0  0  0
 78209  1  0  0  0
 79210  1  0  0  0
 80211  1  0  0  0
 81212  1  0  0  0
 84213  1  0  0  0
 84214  1  0  0  0
 85215  1  0  0  0
 86216  1  0  0  0
 86217  1  0  0  0
 86218  1  0  0  0
 87219  1  0  0  0
 87220  1  0  0  0
 87221  1  0  0  0
 88222  1  0  0  0
 89223  1  0  0  0
 92224  1  0  0  0
 92225  1  0  0  0
 92226  1  0  0  0
 93227  1  0  0  0
 94228  1  0  0  0
 97229  1  0  0  0
 97230  1  0  0  0
 98231  1  0  0  0
 98232  1  0  0  0
 99233  1  0  0  0
 99234  1  0  0  0
100235  1  0  0  0
102236  1  0  0  0
103237  1  0  0  0
103238  1  0  0  0
104239  1  0  0  0
105240  1  0  0  0
108241  1  0  0  0
108242  1  0  0  0
109243  1  0  0  0
109244  1  0  0  0
110245  1  0  0  0
110246  1  0  0  0
111247  1  0  0  0
113248  1  0  0  0
113249  1  0  0  0
114250  1  0  0  0
115251  1  0  0  0
116252  1  0  0  0
116253  1  0  0  0
119254  1  0  0  0
M  END
$$$$
