### 
### Created by X-TOOL on Mon Sep 10 21:12:57 2018
### 

@<TRIPOS>MOLECULE
3cfs_ligand
  258   258     1     0     0
SMALL
GAST_HUCK


@<TRIPOS>ATOM
      1 N          13.1190  -24.4560   37.9330 N.4       1 GLN         0.2380
      2 CA         14.2020  -23.4890   37.5960 C.3       1 GLN         0.0671
      3 C          13.6230  -22.0870   37.4160 C.2       1 GLN         0.2267
      4 O          13.4610  -21.3460   38.3860 O.2       1 GLN        -0.3907
      5 CB         14.9420  -23.9370   36.3340 C.3       1 GLN         0.0247
      6 CG         16.3770  -23.4420   36.2440 C.3       1 GLN         0.0443
      7 CD         17.2440  -24.3280   35.3680 C.2       1 GLN         0.1738
      8 OE1        16.8190  -24.7770   34.3030 O.2       1 GLN        -0.3973
      9 NE2        18.4680  -24.5850   35.8160 N.am      1 GLN        -0.3009
     10 N          13.3080  -21.7300   36.1750 N.am      1 GLY        -0.2637
     11 CA         12.6260  -20.4720   35.8950 C.3       1 GLY         0.1202
     12 C          11.1230  -20.6620   35.9380 C.2       1 GLY         0.2008
     13 O          10.4040  -20.2280   35.0380 O.2       1 GLY        -0.3947
     14 N          10.6510  -21.3130   36.9970 N.am      1 ILE        -0.2637
     15 CA          9.2510  -21.7100   37.1090 C.3       1 ILE         0.1335
     16 C           8.4420  -20.7610   37.9950 C.2       1 ILE         0.2042
     17 O           7.2200  -20.6700   37.8680 O.2       1 ILE        -0.3944
     18 CB          9.1300  -23.1730   37.6010 C.3       1 ILE        -0.0037
     19 CG1         9.2570  -24.1370   36.4150 C.3       1 ILE        -0.0491
     20 CG2         7.8130  -23.4010   38.3330 C.3       1 ILE        -0.0582
     21 CD1         9.4340  -25.5840   36.8230 C.3       1 ILE        -0.0648
     22 N           9.1310  -20.0430   38.8770 N.am      1 THR        -0.2613
     23 CA          8.4880  -19.0380   39.7210 C.3       1 THR         0.1565
     24 C           7.9640  -17.8640   38.8870 C.2       1 THR         0.2065
     25 O           8.4840  -17.5790   37.8070 O.2       1 THR        -0.3943
     26 CB          9.4470  -18.5300   40.8230 C.3       1 THR         0.0924
     27 OG1         8.9120  -17.3450   41.4240 O.3       1 THR        -0.3874
     28 CG2        10.8190  -18.2240   40.2430 C.3       1 THR        -0.0346
     29 N           6.9600  -17.1830   39.3640 N.am      1 LYS        -0.2636
     30 CA          6.3610  -16.1070   38.6100 C.3       1 LYS         0.1312
     31 C           7.2430  -14.9260   38.3000 C.2       1 LYS         0.2064
     32 O           7.1920  -14.4190   37.2390 O.2       1 LYS        -0.3942
     33 CB          5.0790  -15.6140   39.2490 C.3       1 LYS        -0.0122
     34 CG          4.2450  -16.6560   39.7860 C.3       1 LYS        -0.0440
     35 CD          3.0240  -16.7420   39.0220 C.3       1 LYS        -0.0124
     36 CE          1.9270  -16.1050   39.7740 C.3       1 LYS        -0.0354
     37 NZ          1.5420  -14.8460   39.1330 N.4       1 LYS         0.2185
     38 N           8.0100  -14.4510   39.2560 N.am      1 PRO        -0.2498
     39 CA          9.0000  -13.4120   38.9640 C.3       1 PRO         0.1338
     40 C           9.9970  -13.8100   37.8740 C.2       1 PRO         0.2041
     41 O          10.4210  -12.9610   37.0900 O.2       1 PRO        -0.3944
     42 CB          9.7240  -13.2350   40.3020 C.3       1 PRO        -0.0104
     43 CG          8.7290  -13.6500   41.3210 C.3       1 PRO        -0.0281
     44 CD          7.9680  -14.7770   40.6930 C.3       1 PRO         0.0369
     45 N          10.3710  -15.0850   37.8260 N.am      1 ALA        -0.2640
     46 CA         11.3070  -15.5590   36.8110 C.3       1 ALA         0.1282
     47 C          10.6520  -15.6170   35.4330 C.2       1 ALA         0.2036
     48 O          11.2840  -15.3110   34.4220 O.2       1 ALA        -0.3944
     49 CB         11.8690  -16.9160   37.1920 C.3       1 ALA        -0.0244
     50 N           9.3830  -16.0140   35.4020 N.am      1 ILE        -0.2635
     51 CA          8.6280  -16.0840   34.1560 C.3       1 ILE         0.1335
     52 C           8.3730  -14.6830   33.6050 C.2       1 ILE         0.2042
     53 O           8.4520  -14.4570   32.3970 O.2       1 ILE        -0.3944
     54 CB          7.2940  -16.8370   34.3480 C.3       1 ILE        -0.0037
     55 CG1         7.5610  -18.3240   34.6020 C.3       1 ILE        -0.0491
     56 CG2         6.3860  -16.6550   33.1380 C.3       1 ILE        -0.0582
     57 CD1         6.3180  -19.1270   34.9300 C.3       1 ILE        -0.0648
     58 N           8.1270  -13.7550   34.4990 N.am      1 ARG        -0.2637
     59 CA          7.9380  -12.4090   34.1590 C.3       1 ARG         0.1311
     60 C           9.1670  -11.7780   33.5870 C.2       1 ARG         0.2039
     61 O           9.0890  -10.9320   32.7560 O.2       1 ARG        -0.3944
     62 CB          7.3960  -11.6610   35.3260 C.3       1 ARG        -0.0092
     63 CG          5.9880  -11.6680   35.2630 C.3       1 ARG        -0.0156
     64 CD          5.3550  -10.9200   36.3160 C.3       1 ARG         0.0627
     65 NE          4.8690  -11.8550   37.2940 N.pl3     1 ARG        -0.2723
     66 CZ          3.6520  -11.8820   37.7860 C.cat     1 ARG         0.2882
     67 NH1         2.7640  -11.0030   37.4240 N.pl3     1 ARG        -0.2849
     68 NH2         3.3420  -12.7960   38.6750 N.pl3     1 ARG        -0.2849
     69 N          10.3070  -12.2510   34.0200 N.am      1 ARG        -0.2637
     70 CA         11.6070  -11.8130   33.5740 C.3       1 ARG         0.1311
     71 C          11.9660  -12.4600   32.2600 C.2       1 ARG         0.2039
     72 O          12.6120  -11.8640   31.4660 O.2       1 ARG        -0.3944
     73 CB         12.6040  -12.1750   34.6460 C.3       1 ARG        -0.0092
     74 CG         13.9380  -11.6040   34.6020 C.3       1 ARG        -0.0156
     75 CD         14.8270  -12.5330   35.4350 C.3       1 ARG         0.0627
     76 NE         15.8840  -11.9350   36.2200 N.pl3     1 ARG        -0.2723
     77 CZ         15.8170  -11.7100   37.5360 C.cat     1 ARG         0.2882
     78 NH1        15.1280  -10.6680   38.0090 N.pl3     1 ARG        -0.2849
     79 NH2        16.4370  -12.5200   38.3830 N.pl3     1 ARG        -0.2849
     80 N          11.5210  -13.6840   32.0560 N.am      1 LEU        -0.2637
     81 CA         11.6570  -14.3580   30.7720 C.3       1 LEU         0.1312
     82 C          10.8430  -13.6110   29.7200 C.2       1 LEU         0.2039
     83 O          11.2980  -13.4090   28.5950 O.2       1 LEU        -0.3944
     84 CB         11.1650  -15.8050   30.8750 C.3       1 LEU        -0.0101
     85 CG         11.9650  -16.9180   30.1860 C.3       1 LEU        -0.0425
     86 CD1        11.0430  -18.0710   29.8150 C.3       1 LEU        -0.0625
     87 CD2        12.7140  -16.4210   28.9600 C.3       1 LEU        -0.0625
     88 N           9.6400  -13.1920   30.1010 N.am      1 ALA        -0.2640
     89 CA          8.7470  -12.4760   29.1940 C.3       1 ALA         0.1282
     90 C           9.3830  -11.2000   28.6540 C.2       1 ALA         0.2036
     91 O           9.2690  -10.8970   27.4650 O.2       1 ALA        -0.3944
     92 CB          7.4350  -12.1600   29.8890 C.3       1 ALA        -0.0244
     93 N          10.0520  -10.4560   29.5320 N.am      1 ARG        -0.2637
     94 CA         10.6750   -9.1910   29.1560 C.3       1 ARG         0.1311
     95 C          11.9190   -9.4160   28.3040 C.2       1 ARG         0.2039
     96 O          12.3110   -8.5520   27.5210 O.2       1 ARG        -0.3944
     97 CB         11.0210   -8.3710   30.4010 C.3       1 ARG        -0.0092
     98 CG          9.8510   -8.1960   31.3530 C.3       1 ARG        -0.0156
     99 CD         10.2730   -7.5680   32.6700 C.3       1 ARG         0.0627
    100 NE         10.2330   -6.1110   32.6130 N.pl3     1 ARG        -0.2723
    101 CZ         11.3070   -5.3320   32.5790 C.cat     1 ARG         0.2882
    102 NH1        12.5190   -5.8650   32.6080 N.pl3     1 ARG        -0.2849
    103 NH2        11.1680   -4.0160   32.5230 N.pl3     1 ARG        -0.2849
    104 N          12.5350  -10.5820   28.4630 N.am      1 ARG        -0.2637
    105 CA         13.6860  -10.9610   27.6520 C.3       1 ARG         0.1311
    106 C          13.2450  -11.5810   26.3280 C.2       1 ARG         0.2038
    107 O          14.0450  -11.7290   25.4050 O.2       1 ARG        -0.3944
    108 CB         14.5860  -11.9300   28.4220 C.3       1 ARG        -0.0092
    109 CG         15.5480  -11.2410   29.3750 C.3       1 ARG        -0.0156
    110 CD         16.0600  -12.1890   30.4470 C.3       1 ARG         0.0627
    111 NE         17.2050  -11.6280   31.1590 N.pl3     1 ARG        -0.2723
    112 CZ         17.6300  -12.0480   32.3470 C.cat     1 ARG         0.2882
    113 NH1        17.0000  -13.0350   32.9710 N.pl3     1 ARG        -0.2849
    114 NH2        18.6840  -11.4770   32.9150 N.pl3     1 ARG        -0.2849
    115 N          11.9680  -11.9390   26.2450 N.am      1 GLY        -0.2650
    116 CA         11.4100  -12.5280   25.0340 C.3       1 GLY         0.1312
    117 C          11.7290  -14.0040   24.8940 C.2       1 GLY         0.2539
    118 O          11.6330  -14.5660   23.8030 O.2       1 GLY        -0.3683
    119 O1         12.1163  -14.6980   25.9604 O.3       1 GLY        -0.2912
    120 H1         13.5142  -25.3760   38.0489 H         1 GLN         0.2015
    121 H2         12.4402  -24.4734   37.1880 H         1 GLN         0.2015
    122 H3         12.6702  -24.1727   38.7900 H         1 GLN         0.2015
    123 H4         14.9197  -23.4643   38.4292 H         1 GLN         0.1100
    124 H5         14.3917  -23.5602   35.4593 H         1 GLN         0.0370
    125 H6         14.9546  -25.0367   36.3135 H         1 GLN         0.0370
    126 H7         16.8063  -23.4188   37.2565 H         1 GLN         0.0506
    127 H8         16.3738  -22.4255   35.8237 H         1 GLN         0.0506
    128 H9         19.0849  -25.1629   35.2817 H         1 GLN         0.1814
    129 H10        18.7724  -24.2005   36.6875 H         1 GLN         0.1814
    130 H11        13.5440  -22.3376   35.4166 H         1 GLY         0.1882
    131 H12        12.9175  -20.1168   34.8956 H         1 GLY         0.0763
    132 H13        12.9182  -19.7262   36.6489 H         1 GLY         0.0763
    133 H14        11.2774  -21.5386   37.7431 H         1 ILE         0.1883
    134 H15         8.8164  -21.6627   36.0996 H         1 ILE         0.0803
    135 H16         9.9535  -23.3719   38.3026 H         1 ILE         0.0345
    136 H17        10.1285  -23.8364   35.8149 H         1 ILE         0.0267
    137 H18         8.3459  -24.0576   35.8038 H         1 ILE         0.0267
    138 H19         7.7383  -22.7024   39.1794 H         1 ILE         0.0235
    139 H20         7.7753  -24.4349   38.7065 H         1 ILE         0.0235
    140 H21         6.9748  -23.2301   37.6415 H         1 ILE         0.0235
    141 H22         9.5174  -26.2111   35.9231 H         1 ILE         0.0230
    142 H23         8.5653  -25.9068   37.4156 H         1 ILE         0.0230
    143 H24        10.3479  -25.6856   37.4267 H         1 ILE         0.0230
    144 H25        10.1155  -20.1948   38.9651 H         1 THR         0.1884
    145 H26         7.6277  -19.5144   40.2138 H         1 THR         0.0826
    146 H27         9.5498  -19.3097   41.5921 H         1 THR         0.0639
    147 H28         8.0547  -17.5346   41.7869 H         1 THR         0.2101
    148 H29        11.4834  -17.8650   41.0428 H         1 THR         0.0257
    149 H30        10.7251  -17.4484   39.4686 H         1 THR         0.0257
    150 H31        11.2410  -19.1372   39.7981 H         1 THR         0.0257
    151 H32         6.5982  -17.4098   40.2682 H         1 LYS         0.1883
    152 H33         6.0879  -16.5453   37.6388 H         1 LYS         0.0800
    153 H34         4.5019  -15.0694   38.4872 H         1 LYS         0.0312
    154 H35         5.3438  -14.9288   40.0677 H         1 LYS         0.0312
    155 H36         4.0049  -16.4284   40.8351 H         1 LYS         0.0269
    156 H37         4.7788  -17.6163   39.7320 H         1 LYS         0.0269
    157 H38         2.7787  -17.7988   38.8407 H         1 LYS         0.0317
    158 H39         3.1566  -16.2260   38.0596 H         1 LYS         0.0317
    159 H40         2.2606  -15.9024   40.8024 H         1 LYS         0.0813
    160 H41         1.0602  -16.7818   39.7962 H         1 LYS         0.0813
    161 H42         0.7923  -14.4191   39.6543 H         1 LYS         0.1994
    162 H43         1.2343  -15.0290   38.1907 H         1 LYS         0.1994
    163 H44         2.3343  -14.2232   39.1128 H         1 LYS         0.1994
    164 H45         8.4970  -12.4811   38.6634 H         1 PRO         0.0802
    165 H46        10.0168  -12.1850   40.4497 H         1 PRO         0.0313
    166 H47        10.6176  -13.8748   40.3481 H         1 PRO         0.0313
    167 H48         9.2343  -13.9894   42.2372 H         1 PRO         0.0287
    168 H49         8.0536  -12.8160   41.5622 H         1 PRO         0.0287
    169 H50         8.4559  -15.7423   40.8931 H         1 PRO         0.0524
    170 H51         6.9318  -14.8066   41.0608 H         1 PRO         0.0524
    171 H52        10.0049  -15.7302   38.4966 H         1 ALA         0.1883
    172 H53        12.1422  -14.8450   36.7600 H         1 ALA         0.0797
    173 H54        12.5705  -17.2536   36.4149 H         1 ALA         0.0277
    174 H55        11.0467  -17.6409   37.2835 H         1 ALA         0.0277
    175 H56        12.3972  -16.8373   38.1536 H         1 ALA         0.0277
    176 H57         8.9337  -16.2719   36.2574 H         1 ILE         0.1883
    177 H58         9.2311  -16.6387   33.4222 H         1 ILE         0.0803
    178 H59         6.7836  -16.4195   35.2284 H         1 ILE         0.0345
    179 H60         8.2611  -18.4104   35.4460 H         1 ILE         0.0267
    180 H61         8.0207  -18.7520   33.6990 H         1 ILE         0.0267
    181 H62         6.2065  -15.5825   32.9724 H         1 ILE         0.0235
    182 H63         5.4275  -17.1635   33.3190 H         1 ILE         0.0235
    183 H64         6.8685  -17.0875   32.2491 H         1 ILE         0.0235
    184 H65         6.5944  -20.1784   35.0976 H         1 ILE         0.0230
    185 H66         5.6086  -19.0635   34.0917 H         1 ILE         0.0230
    186 H67         5.8490  -18.7219   35.8388 H         1 ILE         0.0230
    187 H68         8.0722  -14.0189   35.4620 H         1 ARG         0.1883
    188 H69         7.1724  -12.3781   33.3698 H         1 ARG         0.0800
    189 H70         7.7609  -10.6236   35.3007 H         1 ARG         0.0313
    190 H71         7.7256  -12.1430   36.2582 H         1 ARG         0.0313
    191 H72         5.6435  -12.7109   35.3234 H         1 ARG         0.0301
    192 H73         5.6820  -11.2360   34.2988 H         1 ARG         0.0301
    193 H74         4.5163  -10.3370   35.9078 H         1 ARG         0.0689
    194 H75         6.0834  -10.2390   36.7802 H         1 ARG         0.0689
    195 H76         5.5321  -12.5641   37.6380 H         1 ARG         0.2642
    196 H77         1.8136  -11.0381   37.8195 H         1 ARG         0.2615
    197 H78         3.0113  -10.2719   36.7419 H         1 ARG         0.2615
    198 H79         4.0435  -13.4930   38.9632 H         1 ARG         0.2615
    199 H80         2.3972  -12.8164   39.0847 H         1 ARG         0.2615
    200 H81        10.2749  -12.9712   34.7131 H         1 ARG         0.1883
    201 H82        11.5981  -10.7214   33.4390 H         1 ARG         0.0800
    202 H83        12.7226  -13.2682   34.6171 H         1 ARG         0.0313
    203 H84        12.1608  -11.8795   35.6084 H         1 ARG         0.0313
    204 H85        13.9343  -10.5920   35.0330 H         1 ARG         0.0301
    205 H86        14.2998  -11.5592   33.5642 H         1 ARG         0.0301
    206 H87        15.2974  -13.2450   34.7410 H         1 ARG         0.0689
    207 H88        14.1710  -13.0774   36.1301 H         1 ARG         0.0689
    208 H89        16.7489  -11.6635   35.7310 H         1 ARG         0.2642
    209 H90        15.0803  -10.5002   39.0241 H         1 ARG         0.2615
    210 H91        14.6444  -10.0323   37.3586 H         1 ARG         0.2615
    211 H92        16.9707  -13.3261   38.0276 H         1 ARG         0.2615
    212 H93        16.3849  -12.3432   39.3964 H         1 ARG         0.2615
    213 H94        11.0743  -14.1667   32.8093 H         1 LEU         0.1883
    214 H95        12.7166  -14.3595   30.4765 H         1 LEU         0.0800
    215 H96        10.1497  -15.8302   30.4524 H         1 LEU         0.0315
    216 H97        11.1230  -16.0548   31.9454 H         1 LEU         0.0315
    217 H98        12.7095  -17.2912   30.9046 H         1 LEU         0.0298
    218 H99        11.6262  -18.8628   29.3221 H         1 LEU         0.0232
    219 H100       10.2621  -17.7101   29.1295 H         1 LEU         0.0232
    220 H101       10.5745  -18.4734   30.7253 H         1 LEU         0.0232
    221 H102       13.3745  -15.5892   29.2461 H         1 LEU         0.0232
    222 H103       11.9928  -16.0737   28.2055 H         1 LEU         0.0232
    223 H104       13.3167  -17.2404   28.5413 H         1 LEU         0.0232
    224 H105        9.3376  -13.3726   31.0369 H         1 ALA         0.1883
    225 H106        8.5338  -13.1348   28.3393 H         1 ALA         0.0797
    226 H107        6.7729  -11.6214   29.1951 H         1 ALA         0.0277
    227 H108        7.6293  -11.5329   30.7716 H         1 ALA         0.0277
    228 H109        6.9519  -13.0967   30.2039 H         1 ALA         0.0277
    229 H110       10.1300  -10.7733   30.4771 H         1 ARG         0.1883
    230 H111        9.9506   -8.6190   28.5576 H         1 ARG         0.0800
    231 H112       11.3605   -7.3754   30.0794 H         1 ARG         0.0313
    232 H113       11.8346   -8.8799   30.9386 H         1 ARG         0.0313
    233 H114        9.4089   -9.1825   31.5564 H         1 ARG         0.0301
    234 H115        9.1000   -7.5488   30.8764 H         1 ARG         0.0301
    235 H116       11.2994   -7.8870   32.9039 H         1 ARG         0.0689
    236 H117        9.5924   -7.9120   33.4627 H         1 ARG         0.0689
    237 H118        9.3090   -5.6561   32.5981 H         1 ARG         0.2642
    238 H119       13.3498   -5.2568   32.5814 H         1 ARG         0.2615
    239 H120       12.6308   -6.8877   32.6571 H         1 ARG         0.2615
    240 H121       10.2269   -3.5980   32.5003 H         1 ARG         0.2615
    241 H122       12.0010   -3.4106   32.5021 H         1 ARG         0.2615
    242 H123       12.2000  -11.2178   29.1584 H         1 ARG         0.1883
    243 H124       14.2649  -10.0523   27.4304 H         1 ARG         0.0800
    244 H125       15.1730  -12.5111   27.6955 H         1 ARG         0.0313
    245 H126       13.9468  -12.6097   29.0046 H         1 ARG         0.0313
    246 H127       15.0277  -10.4024   29.8609 H         1 ARG         0.0301
    247 H128       16.4043  -10.8579   28.8006 H         1 ARG         0.0301
    248 H129       16.3629  -13.1341   29.9726 H         1 ARG         0.0689
    249 H130       15.2518  -12.3829   31.1676 H         1 ARG         0.0689
    250 H131       17.7178  -10.8552   30.7110 H         1 ARG         0.2642
    251 H132       17.3321  -13.3576   33.8911 H         1 ARG         0.2615
    252 H133       16.1788  -13.4786   32.5353 H         1 ARG         0.2615
    253 H134       19.1760  -10.7105   32.4341 H         1 ARG         0.2615
    254 H135       19.0104  -11.8001   33.8369 H         1 ARG         0.2615
    255 H136       11.3725  -11.8003   27.0363 H         1 GLY         0.1882
    256 H137       11.8212  -11.9961   24.1634 H         1 GLY         0.0780
    257 H138       10.3170  -12.4058   25.0558 H         1 GLY         0.0780
    258 H139       12.1399  -14.1254   26.7180 H         1 GLY         0.2540
@<TRIPOS>BOND
     1    2    1 1  
     2    2    5 1  
     3    3    2 1  
     4    3    4 2  
     5    5    6 1  
     6    6    7 1  
     7    7    9 am 
     8    7    8 2  
     9   11   10 1  
    10   12   11 1  
    11   12   13 2  
    12   10    3 am 
    13   15   14 1  
    14   15   18 1  
    15   16   15 1  
    16   16   17 2  
    17   18   20 1  
    18   18   19 1  
    19   19   21 1  
    20   14   12 am 
    21   23   22 1  
    22   23   26 1  
    23   24   23 1  
    24   24   25 2  
    25   26   28 1  
    26   26   27 1  
    27   22   16 am 
    28   30   29 1  
    29   30   33 1  
    30   31   30 1  
    31   31   32 2  
    32   33   34 1  
    33   34   35 1  
    34   35   36 1  
    35   36   37 1  
    36   29   24 am 
    37   40   39 1  
    38   39   42 1  
    39   39   38 1  
    40   38   44 1  
    41   44   43 1  
    42   42   43 1  
    43   40   41 2  
    44   38   31 am 
    45   46   45 1  
    46   46   49 1  
    47   47   46 1  
    48   47   48 2  
    49   45   40 am 
    50   51   50 1  
    51   51   54 1  
    52   52   51 1  
    53   52   53 2  
    54   54   56 1  
    55   54   55 1  
    56   55   57 1  
    57   50   47 am 
    58   59   58 1  
    59   59   62 1  
    60   60   59 1  
    61   60   61 2  
    62   62   63 1  
    63   63   64 1  
    64   64   65 1  
    65   65   66 ar 
    66   66   68 ar 
    67   66   67 ar 
    68   58   52 am 
    69   70   69 1  
    70   70   73 1  
    71   71   70 1  
    72   71   72 2  
    73   73   74 1  
    74   74   75 1  
    75   75   76 1  
    76   76   77 ar 
    77   77   79 ar 
    78   77   78 ar 
    79   69   60 am 
    80   81   80 1  
    81   81   84 1  
    82   82   81 1  
    83   82   83 2  
    84   84   85 1  
    85   85   86 1  
    86   85   87 1  
    87   80   71 am 
    88   89   88 1  
    89   89   92 1  
    90   90   89 1  
    91   90   91 2  
    92   88   82 am 
    93   94   93 1  
    94   94   97 1  
    95   95   94 1  
    96   95   96 2  
    97   97   98 1  
    98   98   99 1  
    99   99  100 1  
   100  100  101 ar 
   101  101  103 ar 
   102  101  102 ar 
   103   93   90 am 
   104  105  104 1  
   105  105  108 1  
   106  106  105 1  
   107  106  107 2  
   108  108  109 1  
   109  109  110 1  
   110  110  111 1  
   111  111  112 ar 
   112  112  114 ar 
   113  112  113 ar 
   114  104   95 am 
   115  115  116 1  
   116  116  117 1  
   117  117  118 2  
   118  106  115 am 
   119  117  119 1  
   120    1  120 1  
   121    1  121 1  
   122    1  122 1  
   123    2  123 1  
   124    5  124 1  
   125    5  125 1  
   126    6  126 1  
   127    6  127 1  
   128    9  128 1  
   129    9  129 1  
   130   10  130 1  
   131   11  131 1  
   132   11  132 1  
   133   14  133 1  
   134   15  134 1  
   135   18  135 1  
   136   19  136 1  
   137   19  137 1  
   138   20  138 1  
   139   20  139 1  
   140   20  140 1  
   141   21  141 1  
   142   21  142 1  
   143   21  143 1  
   144   22  144 1  
   145   23  145 1  
   146   26  146 1  
   147   27  147 1  
   148   28  148 1  
   149   28  149 1  
   150   28  150 1  
   151   29  151 1  
   152   30  152 1  
   153   33  153 1  
   154   33  154 1  
   155   34  155 1  
   156   34  156 1  
   157   35  157 1  
   158   35  158 1  
   159   36  159 1  
   160   36  160 1  
   161   37  161 1  
   162   37  162 1  
   163   37  163 1  
   164   39  164 1  
   165   42  165 1  
   166   42  166 1  
   167   43  167 1  
   168   43  168 1  
   169   44  169 1  
   170   44  170 1  
   171   45  171 1  
   172   46  172 1  
   173   49  173 1  
   174   49  174 1  
   175   49  175 1  
   176   50  176 1  
   177   51  177 1  
   178   54  178 1  
   179   55  179 1  
   180   55  180 1  
   181   56  181 1  
   182   56  182 1  
   183   56  183 1  
   184   57  184 1  
   185   57  185 1  
   186   57  186 1  
   187   58  187 1  
   188   59  188 1  
   189   62  189 1  
   190   62  190 1  
   191   63  191 1  
   192   63  192 1  
   193   64  193 1  
   194   64  194 1  
   195   65  195 1  
   196   67  196 1  
   197   67  197 1  
   198   68  198 1  
   199   68  199 1  
   200   69  200 1  
   201   70  201 1  
   202   73  202 1  
   203   73  203 1  
   204   74  204 1  
   205   74  205 1  
   206   75  206 1  
   207   75  207 1  
   208   76  208 1  
   209   78  209 1  
   210   78  210 1  
   211   79  211 1  
   212   79  212 1  
   213   80  213 1  
   214   81  214 1  
   215   84  215 1  
   216   84  216 1  
   217   85  217 1  
   218   86  218 1  
   219   86  219 1  
   220   86  220 1  
   221   87  221 1  
   222   87  222 1  
   223   87  223 1  
   224   88  224 1  
   225   89  225 1  
   226   92  226 1  
   227   92  227 1  
   228   92  228 1  
   229   93  229 1  
   230   94  230 1  
   231   97  231 1  
   232   97  232 1  
   233   98  233 1  
   234   98  234 1  
   235   99  235 1  
   236   99  236 1  
   237  100  237 1  
   238  102  238 1  
   239  102  239 1  
   240  103  240 1  
   241  103  241 1  
   242  104  242 1  
   243  105  243 1  
   244  108  244 1  
   245  108  245 1  
   246  109  246 1  
   247  109  247 1  
   248  110  248 1  
   249  110  249 1  
   250  111  250 1  
   251  113  251 1  
   252  113  252 1  
   253  114  253 1  
   254  114  254 1  
   255  115  255 1  
   256  116  256 1  
   257  116  257 1  
   258  119  258 1  
@<TRIPOS>SUBSTRUCTURE
     1 GLN         1

