3rvg_ligand
  -I-interpret- 

 74 78  0  0  0  0  0  0  0  0999 V2000
  -24.4330  -35.3630    6.0770 C   0  0  0  0  0
  -23.5170  -36.3400    5.3240 C   0  0  0  0  0
  -24.4230  -37.1670    4.4920 N   0  3  0  0  0
  -25.8320  -36.9830    4.8940 C   0  0  0  0  0
  -25.8510  -35.9380    5.9920 C   0  0  0  0  0
  -27.0070  -37.9130    4.6810 C   0  0  0  0  0
  -28.3410  -37.3360    5.0990 C   0  0  0  0  0
  -28.4080  -36.0320    5.7660 N   0  3  0  0  0
  -27.2180  -35.4650    6.4420 C   0  0  0  0  0
  -23.7340  -34.3200    6.9430 C   0  0  0  0  0
  -22.2430  -34.5230    7.1550 C   0  0  0  0  0
  -21.3900  -35.0230    5.9880 C   0  0  0  0  0
  -22.0060  -36.1640    5.1840 C   0  0  0  0  0
  -26.8500  -39.0210    3.6830 C   0  0  0  0  0
  -27.3790  -34.1900    7.1680 N   0  3  0  0  0
  -28.7240  -33.8040    7.6270 C   0  0  0  0  0
  -28.6390  -33.1410    9.0100 C   0  0  0  0  0
  -29.9740  -32.5320    9.4230 C   0  0  0  0  0
  -30.5370  -31.6160    8.3250 C   0  0  0  0  0
  -30.7310  -32.4080    7.0390 C   0  0  0  0  0
  -29.3840  -32.9410    6.5560 C   0  0  0  0  0
  -28.1240  -39.5700    3.1560 N   0  0  0  0  0
  -25.6040  -39.7080    3.7240 O   0  0  0  0  0
  -19.8690  -34.9520    6.1170 C   0  0  0  0  0
  -19.1570  -35.0700    7.4540 C   0  0  0  0  0
  -17.7280  -35.3710    7.1850 N   0  3  0  0  0
  -17.4370  -35.3820    5.7760 N   0  3  0  0  0
  -18.7470  -35.1400    5.1170 C   0  0  0  0  0
  -16.6080  -35.2690    8.1940 C   0  0  0  0  0
  -24.8324  -34.3511    6.0083 H   0  0  0  0  0
  -22.8043  -36.9705    5.8556 H   0  0  0  0  0
  -24.1742  -38.1484    4.6159 H   0  0  0  0  0
  -24.3221  -36.8818    3.5179 H   0  0  0  0  0
  -26.3381  -36.8309    3.9407 H   0  0  0  0  0
  -25.9544  -35.9324    7.0771 H   0  0  0  0  0
  -27.0038  -38.6967    5.4386 H   0  0  0  0  0
  -28.7176  -38.0387    5.8423 H   0  0  0  0  0
  -28.8760  -37.1869    4.1611 H   0  0  0  0  0
  -29.0801  -36.1721    6.5204 H   0  0  0  0  0
  -28.6019  -35.3751    5.0102 H   0  0  0  0  0
  -27.1830  -36.0559    7.3573 H   0  0  0  0  0
  -24.1950  -34.3813    7.9288 H   0  0  0  0  0
  -23.8430  -33.3677    6.4240 H   0  0  0  0  0
  -22.1706  -35.3047    7.9112 H   0  0  0  0  0
  -21.8538  -33.5306    7.3825 H   0  0  0  0  0
  -21.4648  -34.1967    5.2810 H   0  0  0  0  0
  -21.8198  -35.9353    4.1347 H   0  0  0  0  0
  -21.5542  -37.0823    5.5590 H   0  0  0  0  0
  -27.1091  -33.4681    6.4999 H   0  0  0  0  0
  -26.8286  -34.2982    8.0199 H   0  0  0  0  0
  -29.3612  -34.6780    7.7618 H   0  0  0  0  0
  -27.8962  -32.3445    8.9651 H   0  0  0  0  0
  -28.3669  -33.9025    9.7409 H   0  0  0  0  0
  -29.8192  -31.9377   10.3235 H   0  0  0  0  0
  -30.6841  -33.3406    9.5966 H   0  0  0  0  0
  -29.8370  -30.8005    8.1430 H   0  0  0  0  0
  -31.4974  -31.2149    8.6487 H   0  0  0  0  0
  -31.1579  -31.7583    6.2750 H   0  0  0  0  0
  -31.4044  -33.2442    7.2272 H   0  0  0  0  0
  -29.5465  -33.5497    5.6665 H   0  0  0  0  0
  -28.7315  -32.0962    6.3355 H   0  0  0  0  0
  -28.1544  -40.5181    2.7810 H   0  0  0  0  0
  -28.9693  -38.9993    3.1688 H   0  0  0  0  0
  -20.5269  -34.1890    5.7010 H   0  0  0  0  0
  -19.6043  -35.8647    8.0511 H   0  0  0  0  0
  -19.2479  -34.1390    8.0136 H   0  0  0  0  0
  -17.6627  -36.2827    7.6376 H   0  0  0  0  0
  -17.0204  -36.2650    5.4808 H   0  0  0  0  0
  -16.7483  -34.6729    5.5246 H   0  0  0  0  0
  -18.6645  -34.2275    4.5265 H   0  0  0  0  0
  -18.9828  -36.0103    4.5046 H   0  0  0  0  0
  -16.5414  -34.2439    8.5586 H   0  0  0  0  0
  -16.8102  -35.9404    9.0285 H   0  0  0  0  0
  -15.6672  -35.5493    7.7202 H   0  0  0  0  0
  1  2  1  0  0  0
  1  5  1  0  0  0
  1 10  1  0  0  0
  2  3  1  0  0  0
  2 13  1  0  0  0
  3  4  1  0  0  0
  4  5  1  0  0  0
  4  6  1  0  0  0
  5  9  1  0  0  0
  6  7  1  0  0  0
  6 14  1  0  0  0
  7  8  1  0  0  0
  8  9  1  0  0  0
  9 15  1  0  0  0
 10 11  1  0  0  0
 11 12  1  0  0  0
 12 13  1  0  0  0
 12 24  1  0  0  0
 14 22  1  0  0  0
 14 23  2  0  0  0
 15 16  1  0  0  0
 16 17  1  0  0  0
 16 21  1  0  0  0
 17 18  1  0  0  0
 18 19  1  0  0  0
 19 20  1  0  0  0
 20 21  1  0  0  0
 24 25  1  0  0  0
 24 28  1  0  0  0
 25 26  1  0  0  0
 26 27  1  0  0  0
 26 29  1  0  0  0
 27 28  1  0  0  0
  1 30  1  0  0  0
  2 31  1  0  0  0
  3 32  1  0  0  0
  3 33  1  0  0  0
  4 34  1  0  0  0
  5 35  1  0  0  0
  6 36  1  0  0  0
  7 37  1  0  0  0
  7 38  1  0  0  0
  8 39  1  0  0  0
  8 40  1  0  0  0
  9 41  1  0  0  0
 10 42  1  0  0  0
 10 43  1  0  0  0
 11 44  1  0  0  0
 11 45  1  0  0  0
 12 46  1  0  0  0
 13 47  1  0  0  0
 13 48  1  0  0  0
 15 49  1  0  0  0
 15 50  1  0  0  0
 16 51  1  0  0  0
 17 52  1  0  0  0
 17 53  1  0  0  0
 18 54  1  0  0  0
 18 55  1  0  0  0
 19 56  1  0  0  0
 19 57  1  0  0  0
 20 58  1  0  0  0
 20 59  1  0  0  0
 21 60  1  0  0  0
 21 61  1  0  0  0
 22 62  1  0  0  0
 22 63  1  0  0  0
 24 64  1  0  0  0
 25 65  1  0  0  0
 25 66  1  0  0  0
 26 67  1  0  0  0
 27 68  1  0  0  0
 27 69  1  0  0  0
 28 70  1  0  0  0
 28 71  1  0  0  0
 29 72  1  0  0  0
 29 73  1  0  0  0
 29 74  1  0  0  0
M  END
$$$$
