### 
### Created by X-TOOL on Mon Sep 10 21:13:11 2018
### 

@<TRIPOS>MOLECULE
3rvg_ligand
   73    77     1     0     0
SMALL
GAST_HUCK


@<TRIPOS>ATOM
      1 C         -24.4330  -35.3630    6.0770 C.3       1 17P         0.0210
      2 C1        -23.5170  -36.3400    5.3240 C.3       1 17P        -0.0182
      3 N         -24.4230  -37.1670    4.4920 N.4       1 17P         0.2341
      4 C2        -25.8320  -36.9830    4.8940 C.3       1 17P         0.0168
      5 C3        -25.8510  -35.9380    5.9920 C.3       1 17P         0.0993
      6 C4        -27.0070  -37.9130    4.6810 C.3       1 17P         0.1311
      7 C5        -28.3410  -37.3360    5.0990 C.3       1 17P        -0.0031
      8 N6        -28.4080  -36.0320    5.7660 N.4       1 17P         0.2650
      9 C7        -27.2180  -35.4650    6.4420 C.3       1 17P         0.0030
     10 C8        -23.7340  -34.3200    6.9430 C.3       1 17P        -0.0440
     11 C9        -22.2430  -34.5230    7.1550 C.3       1 17P        -0.0492
     12 C10       -21.3900  -35.0230    5.9880 C.3       1 17P        -0.0298
     13 C11       -22.0060  -36.1640    5.1840 C.3       1 17P        -0.0062
     14 C12       -26.8500  -39.0210    3.6830 C.2       1 17P         0.1873
     15 N13       -27.3790  -34.1900    7.1680 N.4       1 17P         0.2652
     16 C14       -28.7240  -33.8040    7.6270 C.3       1 17P        -0.0173
     17 C15       -28.6390  -33.1410    9.0100 C.3       1 17P        -0.0095
     18 C16       -29.9740  -32.5320    9.4230 C.3       1 17P        -0.0480
     19 C17       -30.5370  -31.6160    8.3250 C.3       1 17P        -0.0527
     20 C18       -30.7310  -32.4080    7.0390 C.3       1 17P        -0.0480
     21 C19       -29.3840  -32.9410    6.5560 C.3       1 17P        -0.0095
     22 N20       -28.1240  -39.5700    3.1560 N.am      1 17P        -0.3003
     23 O         -25.6040  -39.7080    3.7240 O.2       1 17P        -0.3965
     24 C21       -19.8690  -34.9520    6.1170 C.3       1 17P        -0.0065
     25 C22       -19.1570  -35.0700    7.4540 C.3       1 17P        -0.0429
     26 N23       -17.7280  -35.3710    7.1850 N.4       1 17P         0.3147
     27 N24       -17.4370  -35.3820    5.7760 N.4       1 17P         0.1784
     28 C25       -18.7470  -35.1400    5.1170 C.3       1 17P        -0.0338
     29 C26       -16.6080  -35.2690    8.1940 C.3       1 17P        -0.0628
     30 H         -24.8324  -34.3511    6.0083 H         1 17P         0.0364
     31 H         -22.8043  -36.9705    5.8556 H         1 17P         0.0854
     32 H         -24.1742  -38.1484    4.6159 H         1 17P         0.2021
     33 H         -24.3221  -36.8818    3.5179 H         1 17P         0.2021
     34 H         -26.3381  -36.8309    3.9407 H         1 17P         0.0888
     35 H         -25.9544  -35.9324    7.0771 H         1 17P         0.0479
     36 H         -27.0038  -38.6967    5.4386 H         1 17P         0.0649
     37 H         -28.7176  -38.0387    5.8423 H         1 17P         0.0846
     38 H         -28.8760  -37.1869    4.1611 H         1 17P         0.0846
     39 H         -29.0801  -36.1721    6.5204 H         1 17P         0.2074
     40 H         -28.6019  -35.3751    5.0102 H         1 17P         0.2074
     41 H         -27.1830  -36.0559    7.3573 H         1 17P         0.1475
     42 H         -24.1950  -34.3813    7.9288 H         1 17P         0.0270
     43 H         -23.8430  -33.3677    6.4240 H         1 17P         0.0270
     44 H         -22.1706  -35.3047    7.9112 H         1 17P         0.0268
     45 H         -21.8538  -33.5306    7.3825 H         1 17P         0.0268
     46 H         -21.4648  -34.1967    5.2810 H         1 17P         0.0307
     47 H         -21.8198  -35.9353    4.1347 H         1 17P         0.0323
     48 H         -21.5542  -37.0823    5.5590 H         1 17P         0.0323
     49 H         -27.1091  -33.4681    6.4999 H         1 17P         0.2075
     50 H         -26.8286  -34.2982    8.0199 H         1 17P         0.2075
     51 H         -29.3612  -34.6780    7.7618 H         1 17P         0.0852
     52 H         -27.8962  -32.3445    8.9651 H         1 17P         0.0320
     53 H         -28.3669  -33.9025    9.7409 H         1 17P         0.0320
     54 H         -29.8192  -31.9377   10.3235 H         1 17P         0.0267
     55 H         -30.6841  -33.3406    9.5966 H         1 17P         0.0267
     56 H         -29.8370  -30.8005    8.1430 H         1 17P         0.0265
     57 H         -31.4974  -31.2149    8.6487 H         1 17P         0.0265
     58 H         -31.1579  -31.7583    6.2750 H         1 17P         0.0267
     59 H         -31.4044  -33.2442    7.2272 H         1 17P         0.0267
     60 H         -29.5465  -33.5497    5.6665 H         1 17P         0.0320
     61 H         -28.7315  -32.0962    6.3355 H         1 17P         0.0320
     62 H         -28.1544  -40.5181    2.7810 H         1 17P         0.1814
     63 H         -28.9693  -38.9993    3.1688 H         1 17P         0.1814
     64 H         -20.5269  -34.1890    5.7010 H         1 17P         0.0339
     65 H         -19.6043  -35.8647    8.0511 H         1 17P         0.0126
     66 H         -19.2479  -34.1390    8.0136 H         1 17P         0.0126
     67 H         -17.0204  -36.2650    5.4808 H         1 17P         0.2004
     68 H         -16.7483  -34.6729    5.5246 H         1 17P         0.2004
     69 H         -18.6645  -34.2275    4.5265 H         1 17P         0.0819
     70 H         -18.9828  -36.0103    4.5046 H         1 17P         0.0819
     71 H         -16.5414  -34.2439    8.5586 H         1 17P         0.0086
     72 H         -16.8102  -35.9404    9.0285 H         1 17P         0.0086
     73 H         -15.6672  -35.5493    7.7202 H         1 17P         0.0086
@<TRIPOS>BOND
     1    1    2 1  
     2    1    5 1  
     3    1   10 1  
     4    2    3 1  
     5    2   13 1  
     6    3    4 1  
     7    4    5 1  
     8    4    6 1  
     9    5    9 1  
    10    6    7 1  
    11    6   14 1  
    12    7    8 1  
    13    8    9 1  
    14    9   15 1  
    15   10   11 1  
    16   11   12 1  
    17   12   13 1  
    18   12   24 1  
    19   14   22 am 
    20   14   23 2  
    21   15   16 1  
    22   16   17 1  
    23   16   21 1  
    24   17   18 1  
    25   18   19 1  
    26   19   20 1  
    27   20   21 1  
    28   24   25 1  
    29   24   28 1  
    30   25   26 1  
    31   26   27 1  
    32   26   29 1  
    33   27   28 1  
    34    1   30 1  
    35    2   31 1  
    36    3   32 1  
    37    3   33 1  
    38    4   34 1  
    39    5   35 1  
    40    6   36 1  
    41    7   37 1  
    42    7   38 1  
    43    8   39 1  
    44    8   40 1  
    45    9   41 1  
    46   10   42 1  
    47   10   43 1  
    48   11   44 1  
    49   11   45 1  
    50   12   46 1  
    51   13   47 1  
    52   13   48 1  
    53   15   49 1  
    54   15   50 1  
    55   16   51 1  
    56   17   52 1  
    57   17   53 1  
    58   18   54 1  
    59   18   55 1  
    60   19   56 1  
    61   19   57 1  
    62   20   58 1  
    63   20   59 1  
    64   21   60 1  
    65   21   61 1  
    66   22   62 1  
    67   22   63 1  
    68   24   64 1  
    69   25   65 1  
    70   25   66 1  
    71   27   67 1  
    72   27   68 1  
    73   28   69 1  
    74   28   70 1  
    75   29   71 1  
    76   29   72 1  
    77   29   73 1  
@<TRIPOS>SUBSTRUCTURE
     1 17P         1

