4dcy_ligand
  -I-interpret- 

 55 61  0  0  0  0  0  0  0  0999 V2000
   -1.9630   -2.1130  -34.4620 N   0  0  0  0  0
   -0.8160   -1.2310  -34.1780 C   0  0  0  0  0
   -5.1130   -6.0280  -36.0780 O   0  0  0  0  0
   -3.1330   -5.0570  -36.0260 O   0  0  0  0  0
    1.0390   -2.1200  -38.2670 C   0  0  0  0  0
   -0.2520   -8.0800  -32.9490 C   0  0  0  0  0
    0.1720   -1.0450  -38.4070 C   0  0  0  0  0
   -0.7500   -7.9380  -31.6610 C   0  0  0  0  0
    0.7460   -3.1130  -37.3370 C   0  0  0  0  0
   -0.5730   -7.1240  -33.9090 C   0  0  0  0  0
   -0.9650   -0.9870  -37.6180 C   0  0  0  0  0
   -1.5590   -6.8530  -31.3660 C   0  0  0  0  0
   -4.7440   -0.4410  -32.6250 C   0  0  0  0  0
   -5.7520   -1.5460  -32.6820 C   0  0  0  0  0
   -3.6750   -0.6340  -33.6860 C   0  0  0  0  0
   -5.0740   -2.8920  -32.4480 C   0  0  0  0  0
   -4.1170   -5.5280  -33.9240 C   0  0  0  0  0
   -2.4460   -1.9460  -35.8370 C   0  0  0  0  0
   -2.7220   -4.6980  -32.0920 C   0  0  0  0  0
   -0.3460   -3.0370  -36.5930 N   0  0  0  0  0
   -1.3430   -6.0940  -33.5980 N   0  0  0  0  0
   -4.1390   -5.5110  -35.4690 C   0  0  0  0  0
   -1.2070   -2.0130  -36.7180 C   0  0  0  0  0
   -1.8520   -5.9330  -32.3660 C   0  0  0  0  0
   -2.9890   -1.9670  -33.4320 C   0  0  0  0  0
   -4.0240   -3.0910  -33.5380 C   0  0  0  0  0
   -3.3450   -4.3820  -33.3640 N   0  0  0  0  0
   -1.5610   -4.0540  -34.7650 Fe  0  0  0  0  0
   -0.3120   -1.5723  -33.2738 H   0  0  0  0  0
   -0.1202   -1.2605  -35.0165 H   0  0  0  0  0
   -1.1709   -0.2104  -34.0345 H   0  0  0  0  0
    1.9390   -2.1856  -38.8785 H   0  0  0  0  0
    0.3820   -8.9288  -33.2054 H   0  0  0  0  0
    0.3833   -0.2562  -39.1290 H   0  0  0  0  0
   -0.5075   -8.6710  -30.8916 H   0  0  0  0  0
    1.4215   -3.9605  -37.2203 H   0  0  0  0  0
   -0.1874   -7.2248  -34.9235 H   0  0  0  0  0
   -1.6572   -0.1493  -37.7034 H   0  0  0  0  0
   -1.9612   -6.7221  -30.3614 H   0  0  0  0  0
   -4.2708   -0.4462  -31.6431 H   0  0  0  0  0
   -5.2505    0.5074  -32.8038 H   0  0  0  0  0
   -6.2213   -1.5497  -33.6658 H   0  0  0  0  0
   -6.5013   -1.3850  -31.9069 H   0  0  0  0  0
   -2.9481    0.1768  -33.6375 H   0  0  0  0  0
   -4.1263   -0.6278  -34.6782 H   0  0  0  0  0
   -5.8104   -3.6947  -32.4852 H   0  0  0  0  0
   -4.6028   -2.9091  -31.4653 H   0  0  0  0  0
   -3.6385   -6.4522  -33.6000 H   0  0  0  0  0
   -5.1444   -5.4536  -33.5676 H   0  0  0  0  0
   -2.9725   -0.9998  -35.9618 H   0  0  0  0  0
   -3.1658   -2.7201  -36.1029 H   0  0  0  0  0
   -2.1294   -3.8639  -31.7162 H   0  0  0  0  0
   -3.4643   -4.8926  -31.3179 H   0  0  0  0  0
   -2.5410   -2.0122  -32.4393 H   0  0  0  0  0
   -4.5108   -3.0752  -34.5131 H   0  0  0  0  0
  1  2  1  0  0  0
  1 18  1  0  0  0
 25  1  1  0  0  0
 22  3  2  0  0  0
 22  4  1  0  0  0
  7  5  4  0  0  0
  9  5  4  0  0  0
  8  6  4  0  0  0
 10  6  4  0  0  0
 11  7  4  0  0  0
 12  8  4  0  0  0
 20  9  4  0  0  0
 21 10  4  0  0  0
 23 11  4  0  0  0
 24 12  4  0  0  0
 14 13  1  0  0  0
 15 13  1  0  0  0
 16 14  1  0  0  0
 25 15  1  0  0  0
 26 16  1  0  0  0
 17 22  1  0  0  0
 27 17  1  0  0  0
 18 23  1  0  0  0
 19 24  1  0  0  0
 27 19  1  0  0  0
 23 20  4  0  0  0
 24 21  4  0  0  0
 26 25  1  0  0  0
 26 27  1  0  0  0
  1 28  1  0  0  0
 28  4  1  0  0  0
 28 20  1  0  0  0
 28 21  1  0  0  0
 28 27  1  0  0  0
  2 29  1  0  0  0
  2 30  1  0  0  0
  2 31  1  0  0  0
  5 32  1  0  0  0
  6 33  1  0  0  0
  7 34  1  0  0  0
  8 35  1  0  0  0
  9 36  1  0  0  0
 10 37  1  0  0  0
 11 38  1  0  0  0
 12 39  1  0  0  0
 13 40  1  0  0  0
 13 41  1  0  0  0
 14 42  1  0  0  0
 14 43  1  0  0  0
 15 44  1  0  0  0
 15 45  1  0  0  0
 16 46  1  0  0  0
 16 47  1  0  0  0
 17 48  1  0  0  0
 17 49  1  0  0  0
 18 50  1  0  0  0
 18 51  1  0  0  0
 19 52  1  0  0  0
 19 53  1  0  0  0
 25 54  1  0  0  0
 26 55  1  0  0  0
M  END
$$$$
