### 
### Created by X-TOOL on Mon Sep 10 21:13:08 2018
### 

@<TRIPOS>MOLECULE
4dcy_ligand
   55    61     1     0     0
SMALL
GAST_HUCK


@<TRIPOS>ATOM
      1 N1         -1.9630   -2.1130  -34.4620 N.3       1 L2M        -0.1264
      2 C1         -0.8160   -1.2310  -34.1780 C.3       1 L2M         0.1218
      3 O1         -5.1130   -6.0280  -36.0780 O.2       1 L2M        -0.3601
      4 O2         -3.1330   -5.0570  -36.0260 O.3       1 L2M        -0.0845
      5 C2          1.0390   -2.1200  -38.2670 C.ar      1 L2M         0.0567
      6 C3         -0.2520   -8.0800  -32.9490 C.ar      1 L2M         0.0567
      7 C4          0.1720   -1.0450  -38.4070 C.ar      1 L2M         0.0441
      8 C5         -0.7500   -7.9380  -31.6610 C.ar      1 L2M         0.0441
      9 C6          0.7460   -3.1130  -37.3370 C.ar      1 L2M         0.1038
     10 C7         -0.5730   -7.1240  -33.9090 C.ar      1 L2M         0.1038
     11 C8         -0.9650   -0.9870  -37.6180 C.ar      1 L2M         0.0754
     12 C9         -1.5590   -6.8530  -31.3660 C.ar      1 L2M         0.0754
     13 C10        -4.7440   -0.4410  -32.6250 C.3       1 L2M        -0.0470
     14 C11        -5.7520   -1.5460  -32.6820 C.3       1 L2M        -0.0470
     15 C12        -3.6750   -0.6340  -33.6860 C.3       1 L2M         0.0110
     16 C13        -5.0740   -2.8920  -32.4480 C.3       1 L2M         0.0112
     17 C14        -4.1170   -5.5280  -33.9240 C.3       1 L2M         0.2337
     18 C15        -2.4460   -1.9460  -35.8370 C.3       1 L2M         0.2255
     19 C16        -2.7220   -4.6980  -32.0920 C.3       1 L2M         0.2279
     20 N2         -0.3460   -3.0370  -36.5930 N.ar      1 L2M        -0.1805
     21 N3         -1.3430   -6.0940  -33.5980 N.ar      1 L2M        -0.1805
     22 C17        -4.1390   -5.5110  -35.4690 C.2       1 L2M         0.3354
     23 C18        -1.2070   -2.0130  -36.7180 C.ar      1 L2M         0.2040
     24 C19        -1.8520   -5.9330  -32.3660 C.ar      1 L2M         0.2041
     25 C20        -2.9890   -1.9670  -33.4320 C.3       1 L2M         0.1980
     26 C21        -4.0240   -3.0910  -33.5380 C.3       1 L2M         0.2003
     27 N4         -3.3450   -4.3820  -33.3640 N.3       1 L2M        -0.1037
     28 FE1        -1.5610   -4.0540  -34.7650 Fe        1 L2M         2.0000
     29 H          -0.3120   -1.5723  -33.2738 H         1 L2M         0.0933
     30 H          -0.1202   -1.2605  -35.0165 H         1 L2M         0.0933
     31 H          -1.1709   -0.2104  -34.0345 H         1 L2M         0.0933
     32 H           1.9390   -2.1856  -38.8785 H         1 L2M         0.1439
     33 H           0.3820   -8.9288  -33.2054 H         1 L2M         0.1439
     34 H           0.3833   -0.2562  -39.1290 H         1 L2M         0.0965
     35 H          -0.5075   -8.6710  -30.8916 H         1 L2M         0.0965
     36 H           1.4215   -3.9605  -37.2203 H         1 L2M         0.1360
     37 H          -0.1874   -7.2248  -34.9235 H         1 L2M         0.1360
     38 H          -1.6572   -0.1493  -37.7034 H         1 L2M         0.1279
     39 H          -1.9612   -6.7221  -30.3614 H         1 L2M         0.1279
     40 H          -4.2708   -0.4462  -31.6431 H         1 L2M         0.0267
     41 H          -5.2505    0.5074  -32.8038 H         1 L2M         0.0267
     42 H          -6.2213   -1.5497  -33.6658 H         1 L2M         0.0267
     43 H          -6.5013   -1.3850  -31.9069 H         1 L2M         0.0267
     44 H          -2.9481    0.1768  -33.6375 H         1 L2M         0.0327
     45 H          -4.1263   -0.6278  -34.6782 H         1 L2M         0.0327
     46 H          -5.8104   -3.6947  -32.4852 H         1 L2M         0.0327
     47 H          -4.6028   -2.9091  -31.4653 H         1 L2M         0.0327
     48 H          -3.6385   -6.4522  -33.6000 H         1 L2M         0.1242
     49 H          -5.1444   -5.4536  -33.5676 H         1 L2M         0.1242
     50 H          -2.9725   -0.9998  -35.9618 H         1 L2M         0.1519
     51 H          -3.1658   -2.7201  -36.1029 H         1 L2M         0.1519
     52 H          -2.1294   -3.8639  -31.7162 H         1 L2M         0.1521
     53 H          -3.4643   -4.8926  -31.3179 H         1 L2M         0.1521
     54 H          -2.5410   -2.0122  -32.4393 H         1 L2M         0.1071
     55 H          -4.5108   -3.0752  -34.5131 H         1 L2M         0.1073
@<TRIPOS>BOND
     1    1    2 1  
     2    1   18 1  
     3   25    1 1  
     4   22    3 2  
     5   22    4 1  
     6    7    5 ar 
     7    9    5 ar 
     8    8    6 ar 
     9   10    6 ar 
    10   11    7 ar 
    11   12    8 ar 
    12   20    9 ar 
    13   21   10 ar 
    14   23   11 ar 
    15   24   12 ar 
    16   14   13 1  
    17   15   13 1  
    18   16   14 1  
    19   25   15 1  
    20   26   16 1  
    21   17   22 1  
    22   27   17 1  
    23   18   23 1  
    24   19   24 1  
    25   27   19 1  
    26   23   20 ar 
    27   24   21 ar 
    28   26   25 1  
    29   26   27 1  
    30    1   28 1  
    31   28    4 1  
    32   28   20 1  
    33   28   21 1  
    34   28   27 1  
    35    2   29 1  
    36    2   30 1  
    37    2   31 1  
    38    5   32 1  
    39    6   33 1  
    40    7   34 1  
    41    8   35 1  
    42    9   36 1  
    43   10   37 1  
    44   11   38 1  
    45   12   39 1  
    46   13   40 1  
    47   13   41 1  
    48   14   42 1  
    49   14   43 1  
    50   15   44 1  
    51   15   45 1  
    52   16   46 1  
    53   16   47 1  
    54   17   48 1  
    55   17   49 1  
    56   18   50 1  
    57   18   51 1  
    58   19   52 1  
    59   19   53 1  
    60   25   54 1  
    61   26   55 1  
@<TRIPOS>SUBSTRUCTURE
     1 L2M         1

