5vd0_ligand
  -I-interpret- 

 70 74  0  0  0  0  0  0  0  0999 V2000
   -9.1730    9.2520    3.4240 C   0  0  0  0  0
   -9.4080    8.0460    2.5870 N   0  3  0  0  0
  -10.8420    7.8860    2.2150 C   0  0  0  0  0
  -11.0010    6.6900    1.2460 C   0  0  0  0  0
  -10.4860    5.4740    1.8590 N   0  0  0  0  0
   -9.0720    5.5960    2.1960 C   0  0  0  0  0
   -8.8420    6.7890    3.1670 C   0  0  0  0  0
  -11.2120    4.2720    1.8980 C   0  0  0  0  0
  -12.6250    4.2260    1.7400 C   0  0  0  0  0
  -13.3420    3.0240    1.7820 C   0  0  0  0  0
  -12.6880    1.7920    1.9860 C   0  0  0  0  0
  -13.2810    0.5600    2.0490 N   0  0  0  0  0
  -14.5970    0.2680    2.2370 C   0  0  0  0  0
  -14.9630   -1.0390    2.2490 N   0  0  0  0  0
  -16.2500   -1.4420    2.4260 C   0  0  0  0  0
  -17.2250   -0.4520    2.6040 C   0  0  0  0  0
  -18.6260   -0.4730    2.8030 C   0  0  0  0  0
  -19.4550   -1.4430    2.8910 O   0  0  0  0  0
  -19.0030    0.8350    2.8980 N   0  0  0  0  0
  -20.3780    1.2140    3.1300 C   0  0  0  0  0
  -20.7070    0.7980    4.4800 C   0  0  0  0  0
  -21.7510    0.0170    4.7820 C   0  0  0  0  0
  -17.9480    1.6350    2.7920 N   0  0  0  0  0
  -16.8570    0.8710    2.5980 C   0  0  0  0  0
  -15.5650    1.2070    2.4150 N   0  0  0  0  0
  -17.8740    3.0010    2.7880 C   0  0  0  0  0
  -18.9000    3.6540    2.2100 N   0  0  0  0  0
  -19.0120    4.9970    2.0740 C   0  0  0  0  0
  -17.9610    5.7960    2.5710 C   0  0  0  0  0
  -16.8530    5.1730    3.1700 C   0  0  0  0  0
  -16.7930    3.7710    3.2730 C   0  0  0  0  0
  -20.2380    5.5500    1.4320 C   0  0  0  0  0
  -21.4320    5.5650    2.4270 C   0  0  0  0  0
  -20.6110    4.6780    0.1990 C   0  0  0  0  0
  -20.0180    6.8910    0.9800 O   0  0  0  0  0
  -11.2930    1.8130    2.1470 C   0  0  0  0  0
  -10.5770    3.0190    2.1030 C   0  0  0  0  0
   -9.6339    9.1098    4.4015 H   0  0  0  0  0
   -8.1007    9.4051    3.5454 H   0  0  0  0  0
   -9.6127   10.1222    2.9367 H   0  0  0  0  0
   -8.8857    8.2136    1.7270 H   0  0  0  0  0
  -11.1914    8.7953    1.7260 H   0  0  0  0  0
  -11.4296    7.7021    3.1144 H   0  0  0  0  0
  -10.4415    6.8938    0.3330 H   0  0  0  0  0
  -12.0581    6.5542    1.0175 H   0  0  0  0  0
   -8.5046    5.7702    1.2817 H   0  0  0  0  0
   -8.7440    4.6769    2.6816 H   0  0  0  0  0
   -9.3391    6.5784    4.1139 H   0  0  0  0  0
   -7.7712    6.9196    3.3233 H   0  0  0  0  0
  -13.1678    5.1578    1.5809 H   0  0  0  0  0
  -14.4244    3.0412    1.6548 H   0  0  0  0  0
  -12.6580   -0.2404    1.9415 H   0  0  0  0  0
  -16.5138   -2.4996    2.4292 H   0  0  0  0  0
  -21.0384    0.7364    2.4062 H   0  0  0  0  0
  -20.5075    2.2901    3.0143 H   0  0  0  0  0
  -20.0682    1.1406    5.2941 H   0  0  0  0  0
  -22.4093   -0.3427    3.9912 H   0  0  0  0  0
  -21.9429   -0.2594    5.8187 H   0  0  0  0  0
  -18.0078    6.8821    2.4914 H   0  0  0  0  0
  -16.0346    5.7798    3.5574 H   0  0  0  0  0
  -15.9254    3.2860    3.7203 H   0  0  0  0  0
  -21.6398    4.5477    2.7586 H   0  0  0  0  0
  -21.1785    6.1843    3.2874 H   0  0  0  0  0
  -22.3121    5.9735    1.9303 H   0  0  0  0  0
  -19.7876    4.6897   -0.5151 H   0  0  0  0  0
  -20.7982    3.6542    0.5229 H   0  0  0  0  0
  -21.5076    5.0812   -0.2717 H   0  0  0  0  0
  -20.8196    7.2252    0.5710 H   0  0  0  0  0
  -10.7578    0.8773    2.3088 H   0  0  0  0  0
   -9.4948    2.9928    2.2308 H   0  0  0  0  0
  1  2  1  0  0  0
  2  3  1  0  0  0
  2  7  1  0  0  0
  3  4  1  0  0  0
  4  5  1  0  0  0
  5  6  1  0  0  0
  5  8  1  0  0  0
  6  7  1  0  0  0
  8  9  4  0  0  0
  8 37  4  0  0  0
  9 10  4  0  0  0
 10 11  4  0  0  0
 11 12  1  0  0  0
 11 36  4  0  0  0
 12 13  1  0  0  0
 13 14  4  0  0  0
 13 25  4  0  0  0
 14 15  4  0  0  0
 15 16  4  0  0  0
 16 17  1  0  0  0
 16 24  4  0  0  0
 17 18  2  0  0  0
 17 19  1  0  0  0
 19 20  1  0  0  0
 19 23  1  0  0  0
 20 21  1  0  0  0
 21 22  2  0  0  0
 23 24  1  0  0  0
 23 26  1  0  0  0
 24 25  4  0  0  0
 26 27  4  0  0  0
 26 31  4  0  0  0
 27 28  4  0  0  0
 28 29  4  0  0  0
 28 32  1  0  0  0
 29 30  4  0  0  0
 30 31  4  0  0  0
 32 33  1  0  0  0
 32 34  1  0  0  0
 32 35  1  0  0  0
 36 37  4  0  0  0
  1 38  1  0  0  0
  1 39  1  0  0  0
  1 40  1  0  0  0
  2 41  1  0  0  0
  3 42  1  0  0  0
  3 43  1  0  0  0
  4 44  1  0  0  0
  4 45  1  0  0  0
  6 46  1  0  0  0
  6 47  1  0  0  0
  7 48  1  0  0  0
  7 49  1  0  0  0
  9 50  1  0  0  0
 10 51  1  0  0  0
 12 52  1  0  0  0
 15 53  1  0  0  0
 20 54  1  0  0  0
 20 55  1  0  0  0
 21 56  1  0  0  0
 22 57  1  0  0  0
 22 58  1  0  0  0
 29 59  1  0  0  0
 30 60  1  0  0  0
 31 61  1  0  0  0
 33 62  1  0  0  0
 33 63  1  0  0  0
 33 64  1  0  0  0
 34 65  1  0  0  0
 34 66  1  0  0  0
 34 67  1  0  0  0
 35 68  1  0  0  0
 36 69  1  0  0  0
 37 70  1  0  0  0
M  END
$$$$
