5acw_ligand
  -I-interpret- 

 15 15  0  0  0  0  0  0  0  0999 V2000
  -34.0040    8.5430    5.5950 C   0  0  0  0  0
  -34.5870    9.5760    4.9860 N   0  0  0  0  0
  -35.1650   10.3740    5.8830 N   0  0  0  0  0
  -34.9610    9.8740    7.1210 C   0  0  0  0  0
  -34.2100    8.6670    6.9940 N   0  0  0  0  0
  -33.1440    7.2210    4.8860 S   0  0  0  0  0
  -33.7590    7.7950    8.0790 C   0  0  0  0  0
  -35.4620   10.5330    8.4220 C   0  0  0  0  0
  -34.4740   10.7730    9.2660 F   0  0  0  0  0
  -36.0490   11.6820    8.1970 F   0  0  0  0  0
  -36.3110    9.7630    9.0790 F   0  0  0  0  0
  -32.7197    6.4043    5.8461 H   0  0  0  0  0
  -34.1718    6.7964    7.9363 H   0  0  0  0  0
  -32.6702    7.7436    8.0734 H   0  0  0  0  0
  -34.1001    8.1977    9.0327 H   0  0  0  0  0
  1  2  4  0  0  0
  1  5  4  0  0  0
  1  6  1  0  0  0
  2  3  4  0  0  0
  3  4  4  0  0  0
  4  5  4  0  0  0
  4  8  1  0  0  0
  5  7  1  0  0  0
  8  9  1  0  0  0
  8 10  1  0  0  0
  8 11  1  0  0  0
  6 12  1  0  0  0
  7 13  1  0  0  0
  7 14  1  0  0  0
  7 15  1  0  0  0
M  END
$$$$
