4ivk_ligand
  -I-interpret- 

 38 39  0  0  0  0  0  0  0  0999 V2000
  -26.7160  -16.8840  -22.1600 S   0  0  0  0  0
  -24.9650  -17.0880  -22.0380 C   0  0  0  0  0
  -24.3130  -17.9440  -23.1120 C   0  0  0  0  0
  -22.8940  -18.3830  -22.8050 C   0  0  0  0  0
  -24.9340  -18.3290  -24.2530 C   0  0  0  0  0
  -24.2640  -19.1140  -25.3060 C   0  0  0  0  0
  -24.5630  -18.9640  -26.5200 O   0  0  0  0  0
  -23.3990  -19.9470  -24.9810 O   0  0  0  0  0
  -26.1730  -17.9510  -24.5360 N   0  0  0  0  0
  -26.7730  -16.7860  -23.9160 C   0  0  0  0  0
  -28.1670  -16.4800  -24.4770 C   0  0  0  0  0
  -27.9010  -16.4380  -25.9680 C   0  0  0  0  0
  -28.1880  -17.4070  -26.6500 O   0  0  0  0  0
  -29.1550  -17.4650  -24.0400 N   0  0  0  0  0
  -30.4420  -17.4040  -24.4020 C   0  0  0  0  0
  -30.8670  -16.5180  -25.1210 O   0  0  0  0  0
  -31.3780  -18.4920  -23.8930 C   0  0  0  0  0
  -32.4150  -17.9670  -22.9180 C   0  0  0  0  0
  -32.4730  -16.7570  -22.2530 C   0  0  0  0  0
  -33.5850  -16.6660  -21.4290 C   0  0  0  0  0
  -34.3590  -17.8080  -21.4830 C   0  0  0  0  0
  -33.7470  -19.0390  -22.5460 S   0  0  0  0  0
  -24.7829  -17.5963  -21.0912 H   0  0  0  0  0
  -24.5345  -16.0918  -22.1396 H   0  0  0  0  0
  -22.8534  -19.4713  -22.7601 H   0  0  0  0  0
  -22.2267  -18.0253  -23.5891 H   0  0  0  0  0
  -22.5857  -17.9668  -21.8459 H   0  0  0  0  0
  -25.2411  -18.2892  -26.6004 H   0  0  0  0  0
  -26.7175  -18.4934  -25.2066 H   0  0  0  0  0
  -26.1663  -15.9210  -24.1840 H   0  0  0  0  0
  -28.6162  -15.5509  -24.1261 H   0  0  0  0  0
  -27.4587  -15.5528  -26.4251 H   0  0  0  0  0
  -28.8516  -18.2286  -23.4356 H   0  0  0  0  0
  -30.7742  -19.2340  -23.3705 H   0  0  0  0  0
  -31.9067  -18.9059  -24.7516 H   0  0  0  0  0
  -31.7311  -15.9661  -22.3632 H   0  0  0  0  0
  -33.8195  -15.7977  -20.8132 H   0  0  0  0  0
  -35.2768  -17.9274  -20.9073 H   0  0  0  0  0
  1  2  1  0  0  0
  1 10  1  0  0  0
  2  3  1  0  0  0
  3  4  1  0  0  0
  3  5  2  0  0  0
  5  6  1  0  0  0
  5  9  1  0  0  0
  6  7  1  0  0  0
  6  8  2  0  0  0
  9 10  1  0  0  0
 10 11  1  0  0  0
 11 12  1  0  0  0
 11 14  1  0  0  0
 12 13  2  0  0  0
 14 15  1  0  0  0
 15 16  2  0  0  0
 15 17  1  0  0  0
 17 18  1  0  0  0
 18 19  4  0  0  0
 18 22  4  0  0  0
 19 20  4  0  0  0
 20 21  4  0  0  0
 21 22  4  0  0  0
  2 23  1  0  0  0
  2 24  1  0  0  0
  4 25  1  0  0  0
  4 26  1  0  0  0
  4 27  1  0  0  0
  7 28  1  0  0  0
  9 29  1  0  0  0
 10 30  1  0  0  0
 11 31  1  0  0  0
 12 32  1  0  0  0
 14 33  1  0  0  0
 17 34  1  0  0  0
 17 35  1  0  0  0
 19 36  1  0  0  0
 20 37  1  0  0  0
 21 38  1  0  0  0
M  END
$$$$
