### 
### Created by X-TOOL on Mon Sep 10 21:13:04 2018
### 

@<TRIPOS>MOLECULE
3nth_ligand
  105   104     1     0     0
SMALL
GAST_HUCK


@<TRIPOS>ATOM
      1 N          24.1690  -12.0500   -2.0990 N.4       1 ALA         0.2377
      2 CA         23.9560  -12.5530   -0.7010 C.3       1 ALA         0.0621
      3 C          22.9260  -11.7020   -0.0030 C.2       1 ALA         0.2264
      4 O          22.2100  -10.9490   -0.6490 O.2       1 ALA        -0.3907
      5 CB         25.2530  -12.5100    0.0910 C.3       1 ALA        -0.0040
      6 N          22.8770  -11.7750    1.3290 N.am      1 ARG        -0.2610
      7 CA         21.8840  -10.9810    2.0090 C.3       1 ARG         0.1312
      8 C          22.0220  -10.6930    3.4890 C.2       1 ARG         0.2037
      9 O          21.6890  -11.5230    4.3390 O.2       1 ARG        -0.3944
     10 CB         20.5140  -11.5790    1.7510 C.3       1 ARG        -0.0092
     11 CG         19.4780  -10.5290    1.4570 C.3       1 ARG        -0.0156
     12 CD         20.1020   -9.1760    1.2160 C.3       1 ARG         0.0627
     13 NE         19.4410   -8.4560    0.1320 N.pl3     1 ARG        -0.2723
     14 CZ         19.9210   -7.3490   -0.4290 C.cat     1 ARG         0.2882
     15 NH1        21.0680   -6.8300   -0.0010 N.pl3     1 ARG        -0.2849
     16 NH2        19.2700   -6.7770   -1.4370 N.pl3     1 ARG        -0.2849
     17 N          22.4810   -9.4790    3.7810 N.am      1 GLY        -0.2664
     18 CA         22.6450   -9.0560    5.1520 C.3       1 GLY         0.1201
     19 C          23.5730  -10.0210    5.8310 C.2       1 GLY         0.2007
     20 O          23.3230  -10.4350    6.9590 O.2       1 GLY        -0.3947
     21 N          24.6530  -10.3730    5.1390 N.am      1 2MR        -0.2640
     22 CA         25.6200  -11.3080    5.6840 C.3       1 2MR         0.1311
     23 CB         26.0620  -12.2900    4.6010 C.3       1 2MR        -0.0092
     24 CG         25.1530  -13.5090    4.4530 C.3       1 2MR        -0.0156
     25 CD         25.2290  -14.4440    5.6650 C.3       1 2MR         0.0627
     26 NE         24.4040  -15.6450    5.5020 N.pl3     1 2MR        -0.2721
     27 CZ         24.1850  -16.5530    6.4550 C.cat     1 2MR         0.2920
     28 NH1        24.7280  -16.4010    7.6500 N.pl3     1 2MR        -0.2748
     29 CQ1        24.0910  -16.9970    8.8280 C.3       1 2MR         0.0514
     30 NH2        23.4200  -17.6210    6.2240 N.pl3     1 2MR        -0.2748
     31 CQ2        22.8770  -17.9080    4.8820 C.3       1 2MR         0.0514
     32 C          26.8380  -10.6930    6.3800 C.2       1 2MR         0.2037
     33 O          26.8990  -10.6780    7.6070 O.2       1 2MR        -0.3944
     34 N          27.8150  -10.1940    5.6350 N.am      1 GLY        -0.2664
     35 CA         28.9640   -9.6380    6.3220 C.3       1 GLY         0.1201
     36 C          30.0600   -9.0330    5.4790 C.2       1 GLY         0.2002
     37 O          30.4210   -9.5660    4.4280 O.2       1 GLY        -0.3947
     38 N          30.5930   -7.9130    5.9640 N.am      1 ARG        -0.2697
     39 CA         31.6640   -7.1840    5.2880 C.3       1 ARG         0.0945
     40 C          32.6510   -6.6230    6.3090 C.2       1 ARG         0.0601
     41 O          32.8650   -5.3940    6.2960 O.co2     1 ARG        -0.5666
     42 CB         31.0780   -6.0320    4.4690 C.3       1 ARG        -0.0148
     43 CG         31.5820   -5.9630    3.0400 C.3       1 ARG        -0.0162
     44 CD         31.1690   -7.1980    2.2550 C.3       1 ARG         0.0627
     45 NE         29.7400   -7.4800    2.3850 N.pl3     1 ARG        -0.2723
     46 CZ         28.7700   -6.6560    2.0000 C.cat     1 ARG         0.2882
     47 NH1        29.0660   -5.4850    1.4540 N.pl3     1 ARG        -0.2849
     48 NH2        27.4990   -7.0010    2.1660 N.pl3     1 ARG        -0.2849
     49 OXT        33.1980   -7.4120    7.1090 O.co2     1 ARG        -0.5666
     50 H          23.2874  -12.0879   -2.6107 H         1 ALA         0.2015
     51 H          24.5028  -11.0868   -2.0653 H         1 ALA         0.2015
     52 H          24.8610  -12.6347   -2.5677 H         1 ALA         0.2015
     53 H          23.6094  -13.5848   -0.7594 H         1 ALA         0.1095
     54 H          25.6061  -11.4806    0.1519 H         1 ALA         0.0310
     55 H          25.0768  -12.8950    1.0954 H         1 ALA         0.0310
     56 H          26.0027  -13.1237   -0.4084 H         1 ALA         0.0310
     57 H          23.5204  -12.3724    1.8482 H         1 ARG         0.1884
     58 H          22.0449   -9.9960    1.5707 H         1 ARG         0.0800
     59 H          20.2055  -12.1162    2.6479 H         1 ARG         0.0313
     60 H          20.5889  -12.2325    0.8818 H         1 ARG         0.0313
     61 H          18.8153  -10.4515    2.3189 H         1 ARG         0.0301
     62 H          18.9393  -10.8227    0.5561 H         1 ARG         0.0301
     63 H          21.1457   -9.3257    0.9398 H         1 ARG         0.0689
     64 H          20.0025   -8.5869    2.1277 H         1 ARG         0.0689
     65 H          18.5562   -8.8243   -0.2172 H         1 ARG         0.2642
     66 H          21.5801   -7.2805    0.7575 H         1 ARG         0.2615
     67 H          21.4358   -5.9814   -0.4312 H         1 ARG         0.2615
     68 H          18.4016   -7.1867   -1.7812 H         1 ARG         0.2615
     69 H          19.6389   -5.9284   -1.8663 H         1 ARG         0.2615
     70 H          22.7207   -8.8373    3.0252 H         1 GLY         0.1881
     71 H          21.6801   -9.0434    5.6589 H         1 GLY         0.0763
     72 H          23.0598   -8.0486    5.1869 H         1 GLY         0.0763
     73 H          24.8041   -9.9794    4.2102 H         1 2MR         0.1883
     74 H          25.0880  -11.8203    6.4856 H         1 2MR         0.0800
     75 H          27.0490  -12.6569    4.8827 H         1 2MR         0.0313
     76 H          26.0390  -11.7543    3.6520 H         1 2MR         0.0313
     77 H          25.4775  -14.0675    3.5750 H         1 2MR         0.0301
     78 H          24.1259  -13.1553    4.3635 H         1 2MR         0.0301
     79 H          24.8600  -13.8985    6.5336 H         1 2MR         0.0689
     80 H          26.2654  -14.7616    5.7796 H         1 2MR         0.0689
     81 H          23.9654  -15.7976    4.5938 H         1 2MR         0.2642
     82 H          25.5917  -15.8682    7.7529 H         1 2MR         0.2639
     83 H          23.0865  -16.5894    8.9416 H         1 2MR         0.0652
     84 H          24.0336  -18.0780    8.7005 H         1 2MR         0.0652
     85 H          24.6809  -16.7652    9.7148 H         1 2MR         0.0652
     86 H          23.2050  -18.2549    6.9937 H         1 2MR         0.2639
     87 H          22.2476  -17.0780    4.5610 H         1 2MR         0.0652
     88 H          23.6996  -18.0352    4.1782 H         1 2MR         0.0652
     89 H          22.2842  -18.8220    4.9191 H         1 2MR         0.0652
     90 H          27.7600  -10.2011    4.6165 H         1 GLY         0.1881
     91 H          29.4260  -10.4763    6.8434 H         1 GLY         0.0763
     92 H          28.5744   -8.8185    6.9260 H         1 GLY         0.0763
     93 H          30.2375   -7.5475    6.8474 H         1 ARG         0.1875
     94 H          32.1858   -7.8747    4.6256 H         1 ARG         0.0726
     95 H          31.3762   -5.1054    4.9595 H         1 ARG         0.0307
     96 H          30.0002   -6.1875    4.4219 H         1 ARG         0.0307
     97 H          32.6704   -5.9071    3.0559 H         1 ARG         0.0301
     98 H          31.1518   -5.0840    2.5600 H         1 ARG         0.0301
     99 H          31.7212   -8.0514    2.6486 H         1 ARG         0.0689
    100 H          31.3859   -7.0197    1.2018 H         1 ARG         0.0689
    101 H          29.4683   -8.3712    2.8001 H         1 ARG         0.2642
    102 H          30.0409   -5.2130    1.3278 H         1 ARG         0.2615
    103 H          28.3188   -4.8559    1.1601 H         1 ARG         0.2615
    104 H          27.2654   -7.8991    2.5893 H         1 ARG         0.2615
    105 H          26.7559   -6.3680    1.8702 H         1 ARG         0.2615
@<TRIPOS>BOND
     1    1    2 1  
     2    2    3 1  
     3    2    5 1  
     4    3    4 2  
     5    3    6 am 
     6    6    7 1  
     7    7    8 1  
     8    7   10 1  
     9    8    9 2  
    10    8   17 am 
    11   10   11 1  
    12   11   12 1  
    13   12   13 1  
    14   13   14 ar 
    15   14   15 ar 
    16   14   16 ar 
    17   17   18 1  
    18   18   19 1  
    19   19   20 2  
    20   19   21 am 
    21   21   22 1  
    22   22   23 1  
    23   22   32 1  
    24   23   24 1  
    25   24   25 1  
    26   25   26 1  
    27   26   27 ar 
    28   27   28 ar 
    29   27   30 ar 
    30   28   29 1  
    31   30   31 1  
    32   32   33 2  
    33   32   34 am 
    34   34   35 1  
    35   35   36 1  
    36   36   37 2  
    37   36   38 am 
    38   38   39 1  
    39   39   40 1  
    40   39   42 1  
    41   40   41 ar 
    42   40   49 ar 
    43   42   43 1  
    44   43   44 1  
    45   44   45 1  
    46   45   46 ar 
    47   46   47 ar 
    48   46   48 ar 
    49    1   50 1  
    50    1   51 1  
    51    1   52 1  
    52    2   53 1  
    53    5   54 1  
    54    5   55 1  
    55    5   56 1  
    56    6   57 1  
    57    7   58 1  
    58   10   59 1  
    59   10   60 1  
    60   11   61 1  
    61   11   62 1  
    62   12   63 1  
    63   12   64 1  
    64   13   65 1  
    65   15   66 1  
    66   15   67 1  
    67   16   68 1  
    68   16   69 1  
    69   17   70 1  
    70   18   71 1  
    71   18   72 1  
    72   21   73 1  
    73   22   74 1  
    74   23   75 1  
    75   23   76 1  
    76   24   77 1  
    77   24   78 1  
    78   25   79 1  
    79   25   80 1  
    80   26   81 1  
    81   28   82 1  
    82   29   83 1  
    83   29   84 1  
    84   29   85 1  
    85   30   86 1  
    86   31   87 1  
    87   31   88 1  
    88   31   89 1  
    89   34   90 1  
    90   35   91 1  
    91   35   92 1  
    92   38   93 1  
    93   39   94 1  
    94   42   95 1  
    95   42   96 1  
    96   43   97 1  
    97   43   98 1  
    98   44   99 1  
    99   44  100 1  
   100   45  101 1  
   101   47  102 1  
   102   47  103 1  
   103   48  104 1  
   104   48  105 1  
@<TRIPOS>SUBSTRUCTURE
     1 ALA         1

