3nth_ligand
  -I-interpret- 

105104  0  0  0  0  0  0  0  0999 V2000
   24.1690  -12.0500   -2.0990 N   0  3  0  0  0
   23.9560  -12.5530   -0.7010 C   0  0  0  0  0
   22.9260  -11.7020   -0.0030 C   0  0  0  0  0
   22.2100  -10.9490   -0.6490 O   0  0  0  0  0
   25.2530  -12.5100    0.0910 C   0  0  0  0  0
   22.8770  -11.7750    1.3290 N   0  0  0  0  0
   21.8840  -10.9810    2.0090 C   0  0  0  0  0
   22.0220  -10.6930    3.4890 C   0  0  0  0  0
   21.6890  -11.5230    4.3390 O   0  0  0  0  0
   20.5140  -11.5790    1.7510 C   0  0  0  0  0
   19.4780  -10.5290    1.4570 C   0  0  0  0  0
   20.1020   -9.1760    1.2160 C   0  0  0  0  0
   19.4410   -8.4560    0.1320 N   0  0  0  0  0
   19.9210   -7.3490   -0.4290 C   0  0  0  0  0
   21.0680   -6.8300   -0.0010 N   0  0  0  0  0
   19.2700   -6.7770   -1.4370 N   0  0  0  0  0
   22.4810   -9.4790    3.7810 N   0  0  0  0  0
   22.6450   -9.0560    5.1520 C   0  0  0  0  0
   23.5730  -10.0210    5.8310 C   0  0  0  0  0
   23.3230  -10.4350    6.9590 O   0  0  0  0  0
   24.6530  -10.3730    5.1390 N   0  0  0  0  0
   25.6200  -11.3080    5.6840 C   0  0  0  0  0
   26.0620  -12.2900    4.6010 C   0  0  0  0  0
   25.1530  -13.5090    4.4530 C   0  0  0  0  0
   25.2290  -14.4440    5.6650 C   0  0  0  0  0
   24.4040  -15.6450    5.5020 N   0  0  0  0  0
   24.1850  -16.5530    6.4550 C   0  0  0  0  0
   24.7280  -16.4010    7.6500 N   0  0  0  0  0
   24.0910  -16.9970    8.8280 C   0  0  0  0  0
   23.4200  -17.6210    6.2240 N   0  0  0  0  0
   22.8770  -17.9080    4.8820 C   0  0  0  0  0
   26.8380  -10.6930    6.3800 C   0  0  0  0  0
   26.8990  -10.6780    7.6070 O   0  0  0  0  0
   27.8150  -10.1940    5.6350 N   0  0  0  0  0
   28.9640   -9.6380    6.3220 C   0  0  0  0  0
   30.0600   -9.0330    5.4790 C   0  0  0  0  0
   30.4210   -9.5660    4.4280 O   0  0  0  0  0
   30.5930   -7.9130    5.9640 N   0  0  0  0  0
   31.6640   -7.1840    5.2880 C   0  0  0  0  0
   32.6510   -6.6230    6.3090 C   0  0  0  0  0
   32.8650   -5.3940    6.2960 O   0  0  0  0  0
   31.0780   -6.0320    4.4690 C   0  0  0  0  0
   31.5820   -5.9630    3.0400 C   0  0  0  0  0
   31.1690   -7.1980    2.2550 C   0  0  0  0  0
   29.7400   -7.4800    2.3850 N   0  0  0  0  0
   28.7700   -6.6560    2.0000 C   0  0  0  0  0
   29.0660   -5.4850    1.4540 N   0  0  0  0  0
   27.4990   -7.0010    2.1660 N   0  0  0  0  0
   33.1980   -7.4120    7.1090 O   0  0  0  0  0
   23.2874  -12.0879   -2.6107 H   0  0  0  0  0
   24.5028  -11.0868   -2.0653 H   0  0  0  0  0
   24.8610  -12.6347   -2.5677 H   0  0  0  0  0
   23.6094  -13.5848   -0.7594 H   0  0  0  0  0
   25.6061  -11.4806    0.1519 H   0  0  0  0  0
   25.0768  -12.8950    1.0954 H   0  0  0  0  0
   26.0027  -13.1237   -0.4084 H   0  0  0  0  0
   23.5204  -12.3724    1.8482 H   0  0  0  0  0
   22.0449   -9.9960    1.5707 H   0  0  0  0  0
   20.2055  -12.1162    2.6479 H   0  0  0  0  0
   20.5889  -12.2325    0.8818 H   0  0  0  0  0
   18.8153  -10.4515    2.3189 H   0  0  0  0  0
   18.9393  -10.8227    0.5561 H   0  0  0  0  0
   21.1457   -9.3257    0.9398 H   0  0  0  0  0
   20.0025   -8.5869    2.1277 H   0  0  0  0  0
   18.5562   -8.8243   -0.2172 H   0  0  0  0  0
   21.4471   -5.9942   -0.4460 H   0  0  0  0  0
   21.5687   -7.2677    0.7723 H   0  0  0  0  0
   18.4016   -7.1867   -1.7812 H   0  0  0  0  0
   22.7207   -8.8373    3.0252 H   0  0  0  0  0
   21.6801   -9.0434    5.6589 H   0  0  0  0  0
   23.0598   -8.0486    5.1869 H   0  0  0  0  0
   24.8041   -9.9794    4.2102 H   0  0  0  0  0
   25.0880  -11.8203    6.4856 H   0  0  0  0  0
   27.0490  -12.6569    4.8827 H   0  0  0  0  0
   26.0390  -11.7543    3.6520 H   0  0  0  0  0
   25.4775  -14.0675    3.5750 H   0  0  0  0  0
   24.1259  -13.1553    4.3635 H   0  0  0  0  0
   24.8600  -13.8985    6.5336 H   0  0  0  0  0
   26.2654  -14.7616    5.7796 H   0  0  0  0  0
   24.9277  -16.1780    4.8077 H   0  0  0  0  0
   24.0909  -16.2362    5.4163 H   0  0  0  0  0
   24.6892  -15.3962    7.8210 H   0  0  0  0  0
   23.0865  -16.5894    8.9416 H   0  0  0  0  0
   24.0336  -18.0780    8.7005 H   0  0  0  0  0
   24.6809  -16.7652    9.7148 H   0  0  0  0  0
   22.5891  -17.4515    6.7908 H   0  0  0  0  0
   22.2476  -17.0780    4.5610 H   0  0  0  0  0
   23.6996  -18.0352    4.1782 H   0  0  0  0  0
   22.2842  -18.8220    4.9191 H   0  0  0  0  0
   27.7600  -10.2011    4.6165 H   0  0  0  0  0
   29.4260  -10.4763    6.8434 H   0  0  0  0  0
   28.5744   -8.8185    6.9260 H   0  0  0  0  0
   30.2375   -7.5475    6.8474 H   0  0  0  0  0
   32.1858   -7.8747    4.6256 H   0  0  0  0  0
   31.3762   -5.1054    4.9595 H   0  0  0  0  0
   30.0002   -6.1875    4.4219 H   0  0  0  0  0
   32.6704   -5.9071    3.0559 H   0  0  0  0  0
   31.1518   -5.0840    2.5600 H   0  0  0  0  0
   31.7212   -8.0514    2.6486 H   0  0  0  0  0
   31.3859   -7.0197    1.2018 H   0  0  0  0  0
   29.4683   -8.3712    2.8001 H   0  0  0  0  0
   30.0409   -5.2130    1.3278 H   0  0  0  0  0
   26.7559   -6.3662    1.8739 H   0  0  0  0  0
   27.2654   -7.9009    2.5856 H   0  0  0  0  0
   32.8876   -8.3044    6.9392 H   0  0  0  0  0
  1  2  1  0  0  0
  2  3  1  0  0  0
  2  5  1  0  0  0
  3  4  2  0  0  0
  3  6  1  0  0  0
  6  7  1  0  0  0
  7  8  1  0  0  0
  7 10  1  0  0  0
  8  9  2  0  0  0
  8 17  1  0  0  0
 10 11  1  0  0  0
 11 12  1  0  0  0
 12 13  1  0  0  0
 13 14  1  0  0  0
 14 15  1  0  0  0
 14 16  2  0  0  0
 17 18  1  0  0  0
 18 19  1  0  0  0
 19 20  2  0  0  0
 19 21  1  0  0  0
 21 22  1  0  0  0
 22 23  1  0  0  0
 22 32  1  0  0  0
 23 24  1  0  0  0
 24 25  1  0  0  0
 25 26  1  0  0  0
 26 27  1  0  0  0
 27 28  1  0  0  0
 27 30  1  0  0  0
 28 29  1  0  0  0
 30 31  1  0  0  0
 32 33  2  0  0  0
 32 34  1  0  0  0
 34 35  1  0  0  0
 35 36  1  0  0  0
 36 37  2  0  0  0
 36 38  1  0  0  0
 38 39  1  0  0  0
 39 40  1  0  0  0
 39 42  1  0  0  0
 40 41  2  0  0  0
 40 49  1  0  0  0
 42 43  1  0  0  0
 43 44  1  0  0  0
 44 45  1  0  0  0
 45 46  1  0  0  0
 46 47  2  0  0  0
 46 48  1  0  0  0
  1 50  1  0  0  0
  1 51  1  0  0  0
  1 52  1  0  0  0
  2 53  1  0  0  0
  5 54  1  0  0  0
  5 55  1  0  0  0
  5 56  1  0  0  0
  6 57  1  0  0  0
  7 58  1  0  0  0
 10 59  1  0  0  0
 10 60  1  0  0  0
 11 61  1  0  0  0
 11 62  1  0  0  0
 12 63  1  0  0  0
 12 64  1  0  0  0
 13 65  1  0  0  0
 15 66  1  0  0  0
 15 67  1  0  0  0
 16 68  1  0  0  0
 17 69  1  0  0  0
 18 70  1  0  0  0
 18 71  1  0  0  0
 21 72  1  0  0  0
 22 73  1  0  0  0
 23 74  1  0  0  0
 23 75  1  0  0  0
 24 76  1  0  0  0
 24 77  1  0  0  0
 25 78  1  0  0  0
 25 79  1  0  0  0
 26 80  1  0  0  0
 27 81  1  0  0  0
 28 82  1  0  0  0
 29 83  1  0  0  0
 29 84  1  0  0  0
 29 85  1  0  0  0
 30 86  1  0  0  0
 31 87  1  0  0  0
 31 88  1  0  0  0
 31 89  1  0  0  0
 34 90  1  0  0  0
 35 91  1  0  0  0
 35 92  1  0  0  0
 38 93  1  0  0  0
 39 94  1  0  0  0
 42 95  1  0  0  0
 42 96  1  0  0  0
 43 97  1  0  0  0
 43 98  1  0  0  0
 44 99  1  0  0  0
 44100  1  0  0  0
 45101  1  0  0  0
 47102  1  0  0  0
 48103  1  0  0  0
 48104  1  0  0  0
 49105  1  0  0  0
M  END
$$$$
