6di0_ligand
  -I-interpret- 

 33 34  0  0  0  0  0  0  0  0999 V2000
   20.8750    6.5690    1.9790 N   0  0  0  0  0
   21.4960    6.6850    0.7800 C   0  0  0  0  0
   19.6940    5.9240    2.0720 C   0  0  0  0  0
   19.7470    5.4800   -0.2940 C   0  0  0  0  0
   20.9510    6.1430   -0.3670 C   0  0  0  0  0
   23.9620    9.2450    1.4530 C   0  0  0  0  0
   25.4990    7.3400    3.0920 C   0  0  0  0  0
   17.5880    3.9230   -0.0050 O   0  0  0  0  0
   17.8300    4.6440    0.9580 C   0  0  0  0  0
   17.0170    4.8240    1.9840 N   0  0  0  0  0
   19.1200    5.3650    0.9300 C   0  0  0  0  0
   22.6830    7.3200    0.6310 N   0  0  0  0  0
   23.4340    7.8380    1.7480 C   0  0  0  0  0
   24.9620    9.7140    2.5070 C   0  0  0  0  0
   26.0770    8.6990    2.7310 C   0  0  0  0  0
   24.5790    6.8610    1.9830 C   0  0  0  0  0
   19.1904    5.8399    3.0350 H   0  0  0  0  0
   19.2957    5.0523   -1.1893 H   0  0  0  0  0
   21.4692    6.2392   -1.3211 H   0  0  0  0  0
   23.1169    9.9333    1.4552 H   0  0  0  0  0
   24.4690    9.2232    0.4883 H   0  0  0  0  0
   24.9321    7.4243    4.0192 H   0  0  0  0  0
   26.3119    6.6251    3.2197 H   0  0  0  0  0
   16.1164    4.3459    2.0111 H   0  0  0  0  0
   17.2900    5.4411    2.7489 H   0  0  0  0  0
   23.0611    7.4366   -0.3092 H   0  0  0  0  0
   22.8062    7.9272    2.6346 H   0  0  0  0  0
   24.4278    9.8455    3.4480 H   0  0  0  0  0
   25.4129   10.6431    2.1584 H   0  0  0  0  0
   26.6572    8.6035    1.8132 H   0  0  0  0  0
   26.7085    9.0431    3.5501 H   0  0  0  0  0
   24.1580    5.8988    2.2745 H   0  0  0  0  0
   25.1588    6.7803    1.0635 H   0  0  0  0  0
  2  1  4  0  0  0
  1  3  4  0  0  0
  2  5  4  0  0  0
 12  2  1  0  0  0
  3 11  4  0  0  0
  5  4  4  0  0  0
  4 11  4  0  0  0
 13  6  1  0  0  0
  6 14  1  0  0  0
  7 15  1  0  0  0
 16  7  1  0  0  0
  9  8  2  0  0  0
  9 10  1  0  0  0
 11  9  1  0  0  0
 13 12  1  0  0  0
 13 16  1  0  0  0
 14 15  1  0  0  0
  3 17  1  0  0  0
  4 18  1  0  0  0
  5 19  1  0  0  0
  6 20  1  0  0  0
  6 21  1  0  0  0
  7 22  1  0  0  0
  7 23  1  0  0  0
 10 24  1  0  0  0
 10 25  1  0  0  0
 12 26  1  0  0  0
 13 27  1  0  0  0
 14 28  1  0  0  0
 14 29  1  0  0  0
 15 30  1  0  0  0
 15 31  1  0  0  0
 16 32  1  0  0  0
 16 33  1  0  0  0
M  END
$$$$
