4h3a_ligand
  -I-interpret- 

 49 49  0  0  0  0  0  0  0  0999 V2000
   45.2250   26.2840   67.1370 O   0  0  0  0  0
   45.0050   25.1920   67.6750 C   0  0  0  0  0
   45.2280   25.0200   68.8780 O   0  0  0  0  0
   44.4470   24.0700   66.8360 C   0  0  0  0  0
   44.2150   22.8520   67.4010 O   0  0  0  0  0
   44.2130   24.4140   65.3650 C   0  0  0  0  0
   43.6950   23.4430   64.2970 C   0  0  0  0  0
   43.3130   22.3050   64.5460 O   0  0  0  0  0
   43.5490   24.1150   63.0820 C   0  0  0  0  0
   44.4650   25.1180   62.7980 C   0  0  0  0  0
   44.3990   25.8930   61.6530 C   0  0  0  0  0
   42.4950   23.9230   62.2070 C   0  0  0  0  0
   42.4200   24.7080   61.0670 C   0  0  0  0  0
   43.3600   25.6750   60.8020 C   0  0  0  0  0
   43.2650   26.4130   59.7140 O   0  0  0  0  0
   44.1650   27.4570   59.7580 C   0  0  0  0  0
   43.9970   28.2520   58.4850 C   0  0  0  0  0
   44.4280   29.6870   58.7250 C   0  0  0  0  0
   43.8200   30.2060   60.0300 C   0  0  0  0  0
   44.2170   31.6480   60.3110 C   0  0  0  0  0
   43.2950   32.6410   59.6370 C   0  0  0  0  0
   44.0910   33.8000   59.0560 C   0  0  0  0  0
   45.2430   34.1560   59.9870 C   0  0  0  0  0
   44.9946   26.2332   66.2064 H   0  0  0  0  0
   43.8746   23.1486   66.7286 H   0  0  0  0  0
   44.4381   22.8856   68.3341 H   0  0  0  0  0
   45.2239   24.6221   65.0146 H   0  0  0  0  0
   43.4034   25.1413   65.4256 H   0  0  0  0  0
   45.2715   25.3036   63.5074 H   0  0  0  0  0
   45.1528   26.6512   61.4406 H   0  0  0  0  0
   41.7363   23.1673   62.4105 H   0  0  0  0  0
   41.5989   24.5553   60.3666 H   0  0  0  0  0
   45.1842   27.0795   59.8410 H   0  0  0  0  0
   43.9784   28.0858   60.6286 H   0  0  0  0  0
   42.9508   28.2328   58.1798 H   0  0  0  0  0
   44.6124   27.8142   57.6990 H   0  0  0  0  0
   44.0837   30.3076   57.8977 H   0  0  0  0  0
   45.5150   29.7276   58.7952 H   0  0  0  0  0
   44.1881   29.5860   60.8474 H   0  0  0  0  0
   42.7345   30.1628   59.9408 H   0  0  0  0  0
   45.2231   31.8032   59.9214 H   0  0  0  0  0
   44.1593   31.8104   61.3873 H   0  0  0  0  0
   42.5929   33.0290   60.3750 H   0  0  0  0  0
   42.7627   32.1378   58.8298 H   0  0  0  0  0
   43.4375   34.6653   58.9455 H   0  0  0  0  0
   44.4905   33.5103   58.0841 H   0  0  0  0  0
   44.8461   34.4439   60.9605 H   0  0  0  0  0
   45.8968   33.2914   60.1010 H   0  0  0  0  0
   45.8075   34.9866   59.5633 H   0  0  0  0  0
  1  2  1  0  0  0
  2  3  2  0  0  0
  2  4  1  0  0  0
  4  5  1  0  0  0
  4  6  1  0  0  0
  6  7  1  0  0  0
  7  8  2  0  0  0
  7  9  1  0  0  0
  9 10  4  0  0  0
  9 12  4  0  0  0
 10 11  4  0  0  0
 11 14  4  0  0  0
 12 13  4  0  0  0
 13 14  4  0  0  0
 14 15  1  0  0  0
 15 16  1  0  0  0
 16 17  1  0  0  0
 17 18  1  0  0  0
 18 19  1  0  0  0
 19 20  1  0  0  0
 20 21  1  0  0  0
 21 22  1  0  0  0
 22 23  1  0  0  0
  1 24  1  0  0  0
  4 25  1  0  0  0
  5 26  1  0  0  0
  6 27  1  0  0  0
  6 28  1  0  0  0
 10 29  1  0  0  0
 11 30  1  0  0  0
 12 31  1  0  0  0
 13 32  1  0  0  0
 16 33  1  0  0  0
 16 34  1  0  0  0
 17 35  1  0  0  0
 17 36  1  0  0  0
 18 37  1  0  0  0
 18 38  1  0  0  0
 19 39  1  0  0  0
 19 40  1  0  0  0
 20 41  1  0  0  0
 20 42  1  0  0  0
 21 43  1  0  0  0
 21 44  1  0  0  0
 22 45  1  0  0  0
 22 46  1  0  0  0
 23 47  1  0  0  0
 23 48  1  0  0  0
 23 49  1  0  0  0
M  END
$$$$
