1v2h_ligand
  -I-interpret- 

 14 15  0  0  0  0  0  0  0  0999 V2000
  -17.3600   87.9730    0.7640 N   0  0  0  0  0
  -18.3040   88.5950   -0.0880 C   0  0  0  0  0
  -17.7240   89.3310   -1.0610 N   0  0  0  0  0
  -16.3410   89.1570   -0.7950 C   0  0  0  0  0
  -15.2470   89.6920   -1.4920 C   0  0  0  0  0
  -15.2720   90.4290   -2.4800 O   0  0  0  0  0
  -14.0330   89.3030   -0.9420 N   0  0  0  0  0
  -13.9210   88.5050    0.1330 C   0  0  0  0  0
  -12.6910   88.2190    0.5450 N   0  0  0  0  0
  -14.9370   88.0070    0.7780 N   0  0  0  0  0
  -16.1150   88.3580    0.2780 C   0  0  0  0  0
  -19.3828   88.4912    0.0285 H   0  0  0  0  0
  -11.8854   88.6011    0.0496 H   0  0  0  0  0
  -14.8364   87.4023    1.5932 H   0  0  0  0  0
  1  2  4  0  0  0
  1 11  4  0  0  0
  2  3  4  0  0  0
  3  4  4  0  0  0
  4  5  1  0  0  0
  4 11  4  0  0  0
  5  6  2  0  0  0
  5  7  1  0  0  0
  7  8  4  0  0  0
  8  9  2  0  0  0
  8 10  1  0  0  0
 10 11  1  0  0  0
  2 12  1  0  0  0
  9 13  1  0  0  0
 10 14  1  0  0  0
M  END
$$$$
