3v43_ligand
  -I-interpret- 

114113  0  0  0  0  0  0  0  0999 V2000
   22.6570    5.9270   14.5430 N   0  3  0  0  0
   21.5600    6.7100   13.8980 C   0  0  0  0  0
   21.0270    7.7830   14.8390 C   0  0  0  0  0
   21.2360    7.7270   16.0560 O   0  0  0  0  0
   20.4310    5.7870   13.4190 C   0  0  0  0  0
   20.3570    8.7660   14.2560 N   0  0  0  0  0
   19.7890    9.8870   14.9890 C   0  0  0  0  0
   18.2810    9.8000   14.9460 C   0  0  0  0  0
   17.7140    9.3920   13.9410 O   0  0  0  0  0
   20.2360   11.2160   14.3700 C   0  0  0  0  0
   21.7510   11.4760   14.4480 C   0  0  0  0  0
   22.1150   12.7600   13.7190 C   0  0  0  0  0
   21.7830   12.6560   12.3000 N   0  0  0  0  0
   20.9890   13.4940   11.6210 C   0  0  0  0  0
   20.4550   14.5640   12.1950 N   0  0  0  0  0
   20.7400   13.2590   10.3440 N   0  0  0  0  0
   17.6390   10.1640   16.0520 N   0  0  0  0  0
   16.1780   10.2760   16.1000 C   0  0  0  0  0
   15.7640   11.5780   16.7510 C   0  0  0  0  0
   16.5460   12.1840   17.4940 O   0  0  0  0  0
   15.4900    9.1160   16.8620 C   0  0  0  0  0
   15.5780    9.3180   18.2800 O   0  0  0  0  0
   16.0500    7.7670   16.4780 C   0  0  0  0  0
   14.5210   11.9910   16.4990 N   0  0  0  0  0
   13.9670   13.1800   17.1440 C   0  0  0  0  0
   14.1060   13.1420   18.6680 C   0  0  0  0  0
   14.4860   14.1450   19.2840 O   0  0  0  0  0
   12.4940   13.3450   16.7800 C   0  0  0  0  0
   11.8660   14.5670   17.3840 C   0  0  0  0  0
   10.4090   14.6600   17.0300 C   0  0  0  0  0
    9.8320   15.9300   17.6160 C   0  0  0  0  0
    8.4430   16.1580   17.1370 N   0  3  0  0  0
   13.7890   11.9990   19.2800 N   0  0  0  0  0
   13.6980   11.9260   20.7430 C   0  0  0  0  0
   15.0490   11.6660   21.3920 C   0  0  0  0  0
   15.1650   11.7280   22.6210 O   0  0  0  0  0
   12.6850   10.8640   21.1840 C   0  0  0  0  0
   11.2410   11.1400   20.7720 C   0  0  0  0  0
   10.6250   12.3540   21.4330 C   0  0  0  0  0
   11.0760   12.7970   22.4850 O   0  0  0  0  0
    9.5710   12.8930   20.8180 N   0  0  0  0  0
   16.0730   11.3720   20.6020 N   0  0  0  0  0
   17.4260   11.2830   21.1600 C   0  0  0  0  0
   18.2700   12.5050   20.8090 C   0  0  0  0  0
   19.3860   12.6530   21.3210 O   0  0  0  0  0
   18.1630    9.9970   20.7390 C   0  0  0  0  0
   18.0610    9.8280   19.3210 O   0  0  0  0  0
   17.5810    8.7720   21.4440 C   0  0  0  0  0
   17.7310   13.3880   19.9670 N   0  0  0  0  0
   18.4100   14.6310   19.5710 C   0  0  0  0  0
   18.0250   15.8160   20.4650 C   0  0  0  0  0
   16.9610   15.8140   21.1030 O   0  0  0  0  0
   18.1170   14.9520   18.1080 C   0  0  0  0  0
   18.7690   16.8030   20.5700 O   0  0  0  0  0
   23.3919    6.5638   14.8510 H   0  0  0  0  0
   22.2849    5.4212   15.3468 H   0  0  0  0  0
   23.0405    5.2634   13.8700 H   0  0  0  0  0
   21.9766    7.2095   13.0233 H   0  0  0  0  0
   19.9712    5.3008   14.2794 H   0  0  0  0  0
   19.6819    6.3759   12.8896 H   0  0  0  0  0
   20.8409    5.0312   12.7490 H   0  0  0  0  0
   20.2334    8.7354   13.2440 H   0  0  0  0  0
   20.1372    9.8440   16.0210 H   0  0  0  0  0
   19.7456   12.0113   14.9314 H   0  0  0  0  0
   19.9713   11.1817   13.3132 H   0  0  0  0  0
   22.2757   10.6438   13.9787 H   0  0  0  0  0
   22.0383   11.5720   15.4951 H   0  0  0  0  0
   23.1866   12.9323   13.8198 H   0  0  0  0  0
   21.5520   13.5856   14.1543 H   0  0  0  0  0
   22.1911   11.8780   11.7817 H   0  0  0  0  0
   19.8619   15.1915   11.6520 H   0  0  0  0  0
   20.6375   14.7593   13.1794 H   0  0  0  0  0
   21.1512   12.4460    9.8854 H   0  0  0  0  0
   18.1790   10.3715   16.8921 H   0  0  0  0  0
   15.8521   10.2350   15.0607 H   0  0  0  0  0
   14.4393    9.1203   16.5719 H   0  0  0  0  0
   15.1467    8.5899   18.7332 H   0  0  0  0  0
   15.9031    7.6046   15.4102 H   0  0  0  0  0
   17.1151    7.7383   16.7080 H   0  0  0  0  0
   15.5346    6.9879   17.0396 H   0  0  0  0  0
   13.9444   11.4656   15.8418 H   0  0  0  0  0
   14.5431   14.0293   16.7767 H   0  0  0  0  0
   11.9604   12.4761   17.1651 H   0  0  0  0  0
   12.4318   13.4443   15.6963 H   0  0  0  0  0
   12.3756   15.4486   16.9951 H   0  0  0  0  0
   11.9574   14.5055   18.4684 H   0  0  0  0  0
    9.8794   13.7978   17.4351 H   0  0  0  0  0
   10.2972   14.6748   15.9459 H   0  0  0  0  0
   10.4511   16.7709   17.3034 H   0  0  0  0  0
    9.8155   15.8369   18.7019 H   0  0  0  0  0
    8.0802   17.0187   17.5470 H   0  0  0  0  0
    8.4442   16.2385   16.1202 H   0  0  0  0  0
    7.8551   15.3727   17.4164 H   0  0  0  0  0
   13.6074   11.1641   18.7228 H   0  0  0  0  0
   13.3513   12.9023   21.0817 H   0  0  0  0  0
   12.7033   10.8447   22.2737 H   0  0  0  0  0
   12.9771    9.9309   20.7021 H   0  0  0  0  0
   10.6504   10.2756   21.0756 H   0  0  0  0  0
   11.2444   11.3270   19.6982 H   0  0  0  0  0
    9.1063   13.7065   21.2212 H   0  0  0  0  0
    9.2299   12.4916   19.9446 H   0  0  0  0  0
   15.9194   11.2079   19.6071 H   0  0  0  0  0
   17.2931   11.2501   22.2414 H   0  0  0  0  0
   19.2099   10.0925   21.0271 H   0  0  0  0  0
   18.5209    9.0263   19.0615 H   0  0  0  0  0
   17.6803    8.8938   22.5226 H   0  0  0  0  0
   16.5273    8.6712   21.1840 H   0  0  0  0  0
   18.1218    7.8805   21.1264 H   0  0  0  0  0
   16.8074   13.1926   19.5808 H   0  0  0  0  0
   19.4804   14.4679   19.6968 H   0  0  0  0  0
   16.4874   14.9970   20.9306 H   0  0  0  0  0
   18.4733   14.1356   17.4798 H   0  0  0  0  0
   17.0424   15.0742   17.9723 H   0  0  0  0  0
   18.6267   15.8747   17.8307 H   0  0  0  0  0
  1  2  1  0  0  0
  2  3  1  0  0  0
  2  5  1  0  0  0
  3  4  2  0  0  0
  3  6  1  0  0  0
  6  7  1  0  0  0
  7  8  1  0  0  0
  7 10  1  0  0  0
  8  9  2  0  0  0
  8 17  1  0  0  0
 10 11  1  0  0  0
 11 12  1  0  0  0
 12 13  1  0  0  0
 13 14  1  0  0  0
 14 15  1  0  0  0
 14 16  2  0  0  0
 17 18  1  0  0  0
 18 19  1  0  0  0
 18 21  1  0  0  0
 19 20  2  0  0  0
 19 24  1  0  0  0
 21 22  1  0  0  0
 21 23  1  0  0  0
 24 25  1  0  0  0
 25 26  1  0  0  0
 25 28  1  0  0  0
 26 27  2  0  0  0
 26 33  1  0  0  0
 28 29  1  0  0  0
 29 30  1  0  0  0
 30 31  1  0  0  0
 31 32  1  0  0  0
 33 34  1  0  0  0
 34 35  1  0  0  0
 34 37  1  0  0  0
 35 36  2  0  0  0
 35 42  1  0  0  0
 37 38  1  0  0  0
 38 39  1  0  0  0
 39 40  2  0  0  0
 39 41  1  0  0  0
 42 43  1  0  0  0
 43 44  1  0  0  0
 43 46  1  0  0  0
 44 45  2  0  0  0
 44 49  1  0  0  0
 46 47  1  0  0  0
 46 48  1  0  0  0
 49 50  1  0  0  0
 50 51  1  0  0  0
 50 53  1  0  0  0
 51 52  1  0  0  0
 51 54  2  0  0  0
  1 55  1  0  0  0
  1 56  1  0  0  0
  1 57  1  0  0  0
  2 58  1  0  0  0
  5 59  1  0  0  0
  5 60  1  0  0  0
  5 61  1  0  0  0
  6 62  1  0  0  0
  7 63  1  0  0  0
 10 64  1  0  0  0
 10 65  1  0  0  0
 11 66  1  0  0  0
 11 67  1  0  0  0
 12 68  1  0  0  0
 12 69  1  0  0  0
 13 70  1  0  0  0
 15 71  1  0  0  0
 15 72  1  0  0  0
 16 73  1  0  0  0
 17 74  1  0  0  0
 18 75  1  0  0  0
 21 76  1  0  0  0
 22 77  1  0  0  0
 23 78  1  0  0  0
 23 79  1  0  0  0
 23 80  1  0  0  0
 24 81  1  0  0  0
 25 82  1  0  0  0
 28 83  1  0  0  0
 28 84  1  0  0  0
 29 85  1  0  0  0
 29 86  1  0  0  0
 30 87  1  0  0  0
 30 88  1  0  0  0
 31 89  1  0  0  0
 31 90  1  0  0  0
 32 91  1  0  0  0
 32 92  1  0  0  0
 32 93  1  0  0  0
 33 94  1  0  0  0
 34 95  1  0  0  0
 37 96  1  0  0  0
 37 97  1  0  0  0
 38 98  1  0  0  0
 38 99  1  0  0  0
 41100  1  0  0  0
 41101  1  0  0  0
 42102  1  0  0  0
 43103  1  0  0  0
 46104  1  0  0  0
 47105  1  0  0  0
 48106  1  0  0  0
 48107  1  0  0  0
 48108  1  0  0  0
 49109  1  0  0  0
 50110  1  0  0  0
 52111  1  0  0  0
 53112  1  0  0  0
 53113  1  0  0  0
 53114  1  0  0  0
M  END
$$$$
