### 
### Created by X-TOOL on Mon Sep 10 21:13:08 2018
### 

@<TRIPOS>MOLECULE
3v43_ligand
  114   113     1     0     0
SMALL
GAST_HUCK


@<TRIPOS>ATOM
      1 N          22.6570    5.9270   14.5430 N.4       1 ALA         0.2377
      2 CA         21.5600    6.7100   13.8980 C.3       1 ALA         0.0621
      3 C          21.0270    7.7830   14.8390 C.2       1 ALA         0.2264
      4 O          21.2360    7.7270   16.0560 O.2       1 ALA        -0.3907
      5 CB         20.4310    5.7870   13.4190 C.3       1 ALA        -0.0040
      6 N          20.3570    8.7660   14.2560 N.am      1 ARG        -0.2610
      7 CA         19.7890    9.8870   14.9890 C.3       1 ARG         0.1312
      8 C          18.2810    9.8000   14.9460 C.2       1 ARG         0.2040
      9 O          17.7140    9.3920   13.9410 O.2       1 ARG        -0.3944
     10 CB         20.2360   11.2160   14.3700 C.3       1 ARG        -0.0092
     11 CG         21.7510   11.4760   14.4480 C.3       1 ARG        -0.0156
     12 CD         22.1150   12.7600   13.7190 C.3       1 ARG         0.0627
     13 NE         21.7830   12.6560   12.3000 N.pl3     1 ARG        -0.2723
     14 CZ         20.9890   13.4940   11.6210 C.cat     1 ARG         0.2882
     15 NH1        20.4550   14.5640   12.1950 N.pl3     1 ARG        -0.2849
     16 NH2        20.7400   13.2590   10.3440 N.pl3     1 ARG        -0.2849
     17 N          17.6390   10.1640   16.0520 N.am      1 THR        -0.2613
     18 CA         16.1780   10.2760   16.1000 C.3       1 THR         0.1565
     19 C          15.7640   11.5780   16.7510 C.2       1 THR         0.2065
     20 O          16.5460   12.1840   17.4940 O.2       1 THR        -0.3943
     21 CB         15.4900    9.1160   16.8620 C.3       1 THR         0.0924
     22 OG1        15.5780    9.3180   18.2800 O.3       1 THR        -0.3874
     23 CG2        16.0500    7.7670   16.4780 C.3       1 THR        -0.0346
     24 N          14.5210   11.9910   16.4990 N.am      1 LYS        -0.2637
     25 CA         13.9670   13.1800   17.1440 C.3       1 LYS         0.1310
     26 C          14.1060   13.1420   18.6680 C.2       1 LYS         0.2039
     27 O          14.4860   14.1450   19.2840 O.2       1 LYS        -0.3944
     28 CB         12.4940   13.3450   16.7800 C.3       1 LYS        -0.0122
     29 CG         11.8660   14.5670   17.3840 C.3       1 LYS        -0.0440
     30 CD         10.4090   14.6600   17.0300 C.3       1 LYS        -0.0124
     31 CE          9.8320   15.9300   17.6160 C.3       1 LYS        -0.0354
     32 NZ          8.4430   16.1580   17.1370 N.4       1 LYS         0.2185
     33 N          13.7890   11.9990   19.2800 N.am      1 GLN        -0.2636
     34 CA         13.6980   11.9260   20.7430 C.3       1 GLN         0.1330
     35 C          15.0490   11.6660   21.3920 C.2       1 GLN         0.2041
     36 O          15.1650   11.7280   22.6210 O.2       1 GLN        -0.3944
     37 CB         12.6850   10.8640   21.1840 C.3       1 GLN         0.0045
     38 CG         11.2410   11.1400   20.7720 C.3       1 GLN         0.0412
     39 CD         10.6250   12.3540   21.4330 C.2       1 GLN         0.1737
     40 OE1        11.0760   12.7970   22.4850 O.2       1 GLN        -0.3973
     41 NE2         9.5710   12.8930   20.8180 N.am      1 GLN        -0.3009
     42 N          16.0730   11.3720   20.6020 N.am      1 THR        -0.2613
     43 CA         17.4260   11.2830   21.1600 C.3       1 THR         0.1564
     44 C          18.2700   12.5050   20.8090 C.2       1 THR         0.2059
     45 O          19.3860   12.6530   21.3210 O.2       1 THR        -0.3943
     46 CB         18.1630    9.9970   20.7390 C.3       1 THR         0.0924
     47 OG1        18.0610    9.8280   19.3210 O.3       1 THR        -0.3874
     48 CG2        17.5810    8.7720   21.4440 C.3       1 THR        -0.0346
     49 N          17.7310   13.3880   19.9670 N.am      1 ALA        -0.2697
     50 CA         18.4100   14.6310   19.5710 C.3       1 ALA         0.0916
     51 C          18.0250   15.8160   20.4650 C.2       1 ALA         0.0598
     52 O          16.9610   15.8140   21.1030 O.co2     1 ALA        -0.5666
     53 CB         18.1170   14.9520   18.1080 C.3       1 ALA        -0.0300
     54 OXT        18.7690   16.8030   20.5700 O.co2     1 ALA        -0.5666
     55 H1         22.9913    5.2254   13.9010 H         1 ALA         0.2015
     56 H2         22.3063    5.4805   15.3759 H         1 ALA         0.2015
     57 H3         23.4135    6.5468   14.7871 H         1 ALA         0.2015
     58 H4         21.9801    7.2143   13.0153 H         1 ALA         0.1095
     59 H5         19.6393    6.3893   12.9495 H         1 ALA         0.0310
     60 H6         20.0150    5.2402   14.2780 H         1 ALA         0.0310
     61 H7         20.8295    5.0701   12.6861 H         1 ALA         0.0310
     62 H8         20.2358    8.7360   13.2638 H         1 ARG         0.1884
     63 H9         20.1280    9.8435   16.0345 H         1 ARG         0.0800
     64 H10        19.7194   12.0319   14.8967 H         1 ARG         0.0313
     65 H11        19.9406   11.2186   13.3104 H         1 ARG         0.0313
     66 H12        22.2861   10.6339   13.9848 H         1 ARG         0.0301
     67 H13        22.0484   11.5635   15.5034 H         1 ARG         0.0301
     68 H14        23.1944   12.9429   13.8255 H         1 ARG         0.0689
     69 H15        21.5558   13.5979   14.1608 H         1 ARG         0.0689
     70 H16        22.1951   11.8704   11.7767 H         1 ARG         0.2642
     71 H17        19.8477   15.1920   11.6494 H         1 ARG         0.2615
     72 H18        20.6476   14.7668   13.1863 H         1 ARG         0.2615
     73 H19        21.1471   12.4325    9.8835 H         1 ARG         0.2615
     74 H20        20.1389   13.9025    9.8096 H         1 ARG         0.2615
     75 H21        18.1685   10.3674   16.8756 H         1 THR         0.1884
     76 H22        15.8102   10.2682   15.0633 H         1 THR         0.0826
     77 H23        14.4252    9.1234   16.5859 H         1 THR         0.0639
     78 H24        16.4918    9.3558   18.5373 H         1 THR         0.2101
     79 H25        15.5306    6.9798   17.0441 H         1 THR         0.0257
     80 H26        17.1249    7.7367   16.7097 H         1 THR         0.0257
     81 H27        15.9023    7.6019   15.4006 H         1 THR         0.0257
     82 H28        13.9557   11.4759   15.8547 H         1 LYS         0.1883
     83 H29        14.5200   14.0549   16.7716 H         1 LYS         0.0800
     84 H30        11.9456   12.4596   17.1340 H         1 LYS         0.0312
     85 H31        12.4106   13.4146   15.6854 H         1 LYS         0.0312
     86 H32        12.3846   15.4607   17.0069 H         1 LYS         0.0269
     87 H33        11.9670   14.5188   18.4783 H         1 LYS         0.0269
     88 H34         9.8749   13.7903   17.4404 H         1 LYS         0.0317
     89 H35        10.2970   14.6763   15.9358 H         1 LYS         0.0317
     90 H36        10.4599   16.7818   17.3157 H         1 LYS         0.0813
     91 H37         9.8248   15.8485   18.7129 H         1 LYS         0.0813
     92 H38         8.0834   17.0084   17.5415 H         1 LYS         0.1994
     93 H39         7.8610   15.3825   17.4126 H         1 LYS         0.1994
     94 H40         8.4429   16.2378   16.1322 H         1 LYS         0.1994
     95 H41        13.6109   11.1805   18.7338 H         1 GLN         0.1883
     96 H42        13.3392   12.9026   21.1001 H         1 GLN         0.0801
     97 H43        12.7194   10.7942   22.2812 H         1 GLN         0.0337
     98 H44        12.9869    9.9014   20.7456 H         1 GLN         0.0337
     99 H45        10.6342   10.2606   21.0335 H         1 GLN         0.0504
    100 H46        11.2167   11.2916   19.6828 H         1 GLN         0.0504
    101 H47         9.1219   13.6970   21.2078 H         1 GLN         0.1814
    102 H48         9.2301   12.4931   19.9672 H         1 GLN         0.1814
    103 H49        15.9224   11.2112   19.6266 H         1 THR         0.1884
    104 H50        17.3203   11.2569   22.2546 H         1 THR         0.0826
    105 H51        19.2239   10.0918   21.0138 H         1 THR         0.0639
    106 H52        18.5161    9.0346   19.0642 H         1 THR         0.2101
    107 H53        18.1260    7.8716   21.1243 H         1 THR         0.0257
    108 H54        16.5175    8.6691   21.1824 H         1 THR         0.0257
    109 H55        17.6807    8.8936   22.5327 H         1 THR         0.0257
    110 H56        16.8255   13.1964   19.5884 H         1 ALA         0.1875
    111 H57        19.4930   14.4698   19.6761 H         1 ALA         0.0723
    112 H58        18.6309   15.8830   17.8269 H         1 ALA         0.0270
    113 H59        17.0328   15.0756   17.9697 H         1 ALA         0.0270
    114 H60        18.4762   14.1288   17.4729 H         1 ALA         0.0270
@<TRIPOS>BOND
     1    1    2 1  
     2    2    3 1  
     3    2    5 1  
     4    3    4 2  
     5    3    6 am 
     6    6    7 1  
     7    7    8 1  
     8    7   10 1  
     9    8    9 2  
    10    8   17 am 
    11   10   11 1  
    12   11   12 1  
    13   12   13 1  
    14   13   14 ar 
    15   14   15 ar 
    16   14   16 ar 
    17   17   18 1  
    18   18   19 1  
    19   18   21 1  
    20   19   20 2  
    21   19   24 am 
    22   21   22 1  
    23   21   23 1  
    24   24   25 1  
    25   25   26 1  
    26   25   28 1  
    27   26   27 2  
    28   26   33 am 
    29   28   29 1  
    30   29   30 1  
    31   30   31 1  
    32   31   32 1  
    33   33   34 1  
    34   34   35 1  
    35   34   37 1  
    36   35   36 2  
    37   35   42 am 
    38   37   38 1  
    39   38   39 1  
    40   39   40 2  
    41   39   41 am 
    42   42   43 1  
    43   43   44 1  
    44   43   46 1  
    45   44   45 2  
    46   44   49 am 
    47   46   47 1  
    48   46   48 1  
    49   49   50 1  
    50   50   51 1  
    51   50   53 1  
    52   51   52 ar 
    53   51   54 ar 
    54    1   55 1  
    55    1   56 1  
    56    1   57 1  
    57    2   58 1  
    58    5   59 1  
    59    5   60 1  
    60    5   61 1  
    61    6   62 1  
    62    7   63 1  
    63   10   64 1  
    64   10   65 1  
    65   11   66 1  
    66   11   67 1  
    67   12   68 1  
    68   12   69 1  
    69   13   70 1  
    70   15   71 1  
    71   15   72 1  
    72   16   73 1  
    73   16   74 1  
    74   17   75 1  
    75   18   76 1  
    76   21   77 1  
    77   22   78 1  
    78   23   79 1  
    79   23   80 1  
    80   23   81 1  
    81   24   82 1  
    82   25   83 1  
    83   28   84 1  
    84   28   85 1  
    85   29   86 1  
    86   29   87 1  
    87   30   88 1  
    88   30   89 1  
    89   31   90 1  
    90   31   91 1  
    91   32   92 1  
    92   32   93 1  
    93   32   94 1  
    94   33   95 1  
    95   34   96 1  
    96   37   97 1  
    97   37   98 1  
    98   38   99 1  
    99   38  100 1  
   100   41  101 1  
   101   41  102 1  
   102   42  103 1  
   103   43  104 1  
   104   46  105 1  
   105   47  106 1  
   106   48  107 1  
   107   48  108 1  
   108   48  109 1  
   109   49  110 1  
   110   50  111 1  
   111   53  112 1  
   112   53  113 1  
   113   53  114 1  
@<TRIPOS>SUBSTRUCTURE
     1 ALA         1

