4z7f_ligand
  -I-interpret- 

 50 52  0  0  0  0  0  0  0  0999 V2000
  -12.1800    1.8810   59.7270 N   0  0  0  0  0
  -11.7260    2.8370   60.5720 C   0  0  0  0  0
  -11.0290    2.4900   61.6700 N   0  0  0  0  0
  -11.9100    4.1650   60.3900 N   0  0  0  0  0
  -12.5730    4.6270   59.3140 C   0  0  0  0  0
  -12.7590    5.8470   59.1370 O   0  0  0  0  0
  -13.1010    3.6480   58.3430 C   0  0  0  0  0
  -13.7880    4.0320   57.2470 N   0  0  0  0  0
  -14.2560    3.0940   56.3830 C   0  0  0  0  0
  -14.0270    1.7350   56.6250 C   0  0  0  0  0
  -13.3470    1.3180   57.7170 N   0  0  0  0  0
  -12.8600    2.2150   58.6130 C   0  0  0  0  0
  -15.0010    3.5360   55.1400 C   0  0  0  0  0
  -14.3380    3.0650   53.9260 N   0  0  0  0  0
  -10.8650    4.4650   52.0310 C   0  0  0  0  0
  -12.1500    4.7570   51.5560 C   0  0  0  0  0
  -13.3050    4.2970   52.1910 C   0  0  0  0  0
  -13.1940    3.5230   53.3450 C   0  0  0  0  0
  -11.9230    3.2170   53.8370 C   0  0  0  0  0
  -10.7840    3.6960   53.1840 C   0  0  0  0  0
   -9.6310    5.0100   51.3080 C   0  0  0  0  0
   -9.5690    4.8580   50.0950 O   0  0  0  0  0
   -8.6750    5.6860   51.9750 N   0  0  0  0  0
   -7.5540    6.4100   51.3990 C   0  0  0  0  0
   -7.4700    7.8800   51.8340 C   0  0  0  0  0
   -7.4100    8.9240   50.7060 C   0  0  0  0  0
   -7.4820   10.3770   51.1910 C   0  0  0  0  0
   -7.2820   11.2930   50.3620 O   0  0  0  0  0
   -7.7380   10.6190   52.3960 O   0  0  0  0  0
   -6.3640    5.7690   52.0200 C   0  0  0  0  0
   -5.3090    5.6160   51.3650 O   0  0  0  0  0
   -6.5010    5.3860   53.2030 O   0  0  0  0  0
  -12.0053    0.8981   59.9361 H   0  0  0  0  0
  -10.6784    3.2111   62.3005 H   0  0  0  0  0
  -14.4049    0.9965   55.9180 H   0  0  0  0  0
  -15.0263    4.6255   55.1204 H   0  0  0  0  0
  -16.0063    3.1158   55.1709 H   0  0  0  0  0
  -14.7938    2.2874   53.4485 H   0  0  0  0  0
  -12.2518    5.3657   50.6576 H   0  0  0  0  0
  -14.2874    4.5415   51.7870 H   0  0  0  0  0
  -11.8193    2.6035   54.7319 H   0  0  0  0  0
   -9.8018    3.4585   53.5926 H   0  0  0  0  0
   -8.7456    5.6900   52.9925 H   0  0  0  0  0
   -7.6367    6.3819   50.3125 H   0  0  0  0  0
   -6.5367    7.9790   52.3883 H   0  0  0  0  0
   -8.3862    8.0848   52.3879 H   0  0  0  0  0
   -8.2753    8.7554   50.0649 H   0  0  0  0  0
   -6.4510    8.7997   50.2030 H   0  0  0  0  0
   -7.8587    9.7922   52.8686 H   0  0  0  0  0
   -5.4242    5.9819   50.4849 H   0  0  0  0  0
  1  2  1  0  0  0
 12  1  1  0  0  0
  2  3  2  0  0  0
  4  2  4  0  0  0
  5  4  1  0  0  0
  5  6  2  0  0  0
  7  5  1  0  0  0
  8  7  4  0  0  0
  7 12  4  0  0  0
  9  8  4  0  0  0
  9 10  4  0  0  0
 13  9  1  0  0  0
 10 11  4  0  0  0
 11 12  4  0  0  0
 14 13  1  0  0  0
 18 14  1  0  0  0
 16 15  4  0  0  0
 15 20  4  0  0  0
 15 21  1  0  0  0
 17 16  4  0  0  0
 17 18  4  0  0  0
 18 19  4  0  0  0
 19 20  4  0  0  0
 21 22  2  0  0  0
 21 23  1  0  0  0
 23 24  1  0  0  0
 24 25  1  0  0  0
 24 30  1  0  0  0
 25 26  1  0  0  0
 26 27  1  0  0  0
 27 28  2  0  0  0
 27 29  1  0  0  0
 30 31  1  0  0  0
 30 32  2  0  0  0
  1 33  1  0  0  0
  3 34  1  0  0  0
 10 35  1  0  0  0
 13 36  1  0  0  0
 13 37  1  0  0  0
 14 38  1  0  0  0
 16 39  1  0  0  0
 17 40  1  0  0  0
 19 41  1  0  0  0
 20 42  1  0  0  0
 23 43  1  0  0  0
 24 44  1  0  0  0
 25 45  1  0  0  0
 25 46  1  0  0  0
 26 47  1  0  0  0
 26 48  1  0  0  0
 29 49  1  0  0  0
 31 50  1  0  0  0
M  END
$$$$
