4kql_ligand
  -I-interpret- 

 53 56  0  0  0  0  0  0  0  0999 V2000
   41.9200   57.5170   23.0970 C   0  0  0  0  0
   41.8170   58.8700   22.7010 O   0  0  0  0  0
   41.7560   59.0130   21.3140 C   0  0  0  0  0
   40.9700   60.0580   20.8870 C   0  0  0  0  0
   40.8540   60.3670   19.5450 C   0  0  0  0  0
   41.5070   59.5790   18.6180 C   0  0  0  0  0
   42.2790   58.5060   19.0350 C   0  0  0  0  0
   42.4270   58.2230   20.3850 C   0  0  0  0  0
   42.9130   57.6920   17.9800 C   0  0  0  0  0
   42.5050   57.8370   16.8370 O   0  0  0  0  0
   43.9120   56.8230   18.3730 N   0  0  0  0  0
   44.6030   55.9480   17.5140 C   0  0  0  0  0
   44.8050   54.6510   17.9340 C   0  0  0  0  0
   45.4900   53.7650   17.1300 C   0  0  0  0  0
   45.9660   54.1570   15.8920 C   0  0  0  0  0
   45.7840   55.4610   15.4730 C   0  0  0  0  0
   45.1080   56.3510   16.2870 C   0  0  0  0  0
   46.6910   53.2880   15.0460 N   0  0  0  0  0
   46.5220   51.9170   14.9140 C   0  0  0  0  0
   45.9050   51.1620   15.6630 O   0  0  0  0  0
   47.1970   51.3650   13.7150 C   0  0  0  0  0
   47.4940   52.2060   12.6600 C   0  0  0  0  0
   48.1190   51.6530   11.5590 C   0  0  0  0  0
   48.4180   50.3030   11.5500 C   0  0  0  0  0
   48.0780   49.5490   12.6550 C   0  0  0  0  0
   47.4700   50.0490   13.7420 N   0  0  0  0  0
   39.9720   61.4540   19.1460 C   0  0  0  0  0
   39.1890   61.2830   18.0760 C   0  0  0  0  0
   38.2650   62.1860   17.6430 N   0  0  0  0  0
   38.0080   63.3450   18.3210 C   0  0  0  0  0
   37.1540   64.1370   17.9500 O   0  0  0  0  0
   38.7870   63.5370   19.4560 N   0  0  0  0  0
   39.7740   62.7060   19.9320 C   0  0  0  0  0
   40.4450   62.9620   20.9240 O   0  0  0  0  0
   41.0496   56.9675   22.7384 H   0  0  0  0  0
   42.8253   57.0834   22.6723 H   0  0  0  0  0
   41.9642   57.4604   24.1846 H   0  0  0  0  0
   40.4281   60.6539   21.6214 H   0  0  0  0  0
   41.4151   59.8015   17.5549 H   0  0  0  0  0
   43.0577   57.3965   20.7125 H   0  0  0  0  0
   44.1683   56.8147   19.3602 H   0  0  0  0  0
   44.4232   54.3257   18.9018 H   0  0  0  0  0
   45.6583   52.7444   17.4738 H   0  0  0  0  0
   46.1708   55.7859   14.5071 H   0  0  0  0  0
   44.9704   57.3818   15.9603 H   0  0  0  0  0
   47.4169   53.7145   14.4702 H   0  0  0  0  0
   47.2445   53.2665   12.6950 H   0  0  0  0  0
   48.3748   52.2770   10.7027 H   0  0  0  0  0
   48.9100   49.8456   10.6916 H   0  0  0  0  0
   48.3172   48.4856   12.6442 H   0  0  0  0  0
   39.2972   60.3572   17.5109 H   0  0  0  0  0
   37.7484   61.9910   16.7854 H   0  0  0  0  0
   38.6074   64.3851   19.9935 H   0  0  0  0  0
  1  2  1  0  0  0
  2  3  1  0  0  0
  3  4  4  0  0  0
  3  8  4  0  0  0
  4  5  4  0  0  0
  5  6  4  0  0  0
  5 27  1  0  0  0
  6  7  4  0  0  0
  7  8  4  0  0  0
  7  9  1  0  0  0
  9 10  2  0  0  0
  9 11  1  0  0  0
 11 12  1  0  0  0
 12 13  4  0  0  0
 12 17  4  0  0  0
 13 14  4  0  0  0
 14 15  4  0  0  0
 15 16  4  0  0  0
 15 18  1  0  0  0
 16 17  4  0  0  0
 18 19  1  0  0  0
 19 20  2  0  0  0
 19 21  1  0  0  0
 21 22  4  0  0  0
 21 26  4  0  0  0
 22 23  4  0  0  0
 23 24  4  0  0  0
 24 25  4  0  0  0
 25 26  4  0  0  0
 27 28  2  0  0  0
 27 33  1  0  0  0
 28 29  1  0  0  0
 29 30  1  0  0  0
 30 31  2  0  0  0
 30 32  1  0  0  0
 32 33  1  0  0  0
 33 34  2  0  0  0
  1 35  1  0  0  0
  1 36  1  0  0  0
  1 37  1  0  0  0
  4 38  1  0  0  0
  6 39  1  0  0  0
  8 40  1  0  0  0
 11 41  1  0  0  0
 13 42  1  0  0  0
 14 43  1  0  0  0
 16 44  1  0  0  0
 17 45  1  0  0  0
 18 46  1  0  0  0
 22 47  1  0  0  0
 23 48  1  0  0  0
 24 49  1  0  0  0
 25 50  1  0  0  0
 28 51  1  0  0  0
 29 52  1  0  0  0
 32 53  1  0  0  0
M  END
$$$$
