### 
### Created by X-TOOL on Wed Jan  1 15:39:35 2020
### 

@<TRIPOS>MOLECULE
5zmq_ligand
   85    85     1     0     0
SMALL
GAST_HUCK


@<TRIPOS>ATOM
      1 C1        -14.9490   12.3290  -41.9180 C.2       1 PAC         0.1898
      2 C2        -13.6770   13.1410  -42.1420 C.3       1 PAC         0.0705
      3 C1'       -12.6230   12.2840  -42.8390 C.ar      1 PAC        -0.0243
      4 C2'       -12.0350   11.2240  -42.1680 C.ar      1 PAC        -0.0580
      5 C3'       -11.0780   10.4450  -42.8000 C.ar      1 PAC        -0.0681
      6 C4'       -10.7060   10.7310  -44.1030 C.ar      1 PAC        -0.0684
      7 C5'       -11.2900   11.7940  -44.7740 C.ar      1 PAC        -0.0681
      8 C6'       -12.2480   12.5700  -44.1420 C.ar      1 PAC        -0.0580
      9 O1        -15.5940   11.9790  -42.8470 O.2       1 PAC        -0.3939
     10 N         -15.3510   12.0120  -40.5600 N.am      1 DLY        -0.2640
     11 CA        -16.5380   11.2430  -40.2140 C.3       1 DLY         0.1310
     12 C         -17.8590   11.8270  -40.7330 C.2       1 DLY         0.2039
     13 O         -18.6050   11.0980  -41.2890 O.2       1 DLY        -0.3944
     14 CB        -16.3880    9.8270  -40.7710 C.3       1 DLY        -0.0122
     15 CG        -15.3960    9.0360  -39.9250 C.3       1 DLY        -0.0440
     16 CD        -16.1150    7.8480  -39.2930 C.3       1 DLY        -0.0124
     17 CE        -15.5850    7.6360  -37.8770 C.3       1 DLY        -0.0354
     18 NZ        -15.6520    6.2280  -37.5380 N.4       1 DLY         0.2185
     19 N         -18.2810   13.2090  -40.5510 N.am      1 DLY        -0.2637
     20 CA        -17.4930   14.2330  -39.8980 C.3       1 DLY         0.1309
     21 C         -17.5800   15.4770  -40.7780 C.2       1 DLY         0.2033
     22 O         -16.6860   16.2530  -40.7810 O.2       1 DLY        -0.3944
     23 CB        -18.0590   14.5950  -38.5260 C.3       1 DLY        -0.0122
     24 CG        -18.9120   13.4840  -37.9150 C.3       1 DLY        -0.0440
     25 CD        -19.2570   13.8950  -36.4840 C.3       1 DLY        -0.0124
     26 CE        -20.2400   12.9130  -35.8530 C.3       1 DLY        -0.0354
     27 NZ        -20.3390   13.1790  -34.4300 N.4       1 DLY         0.2185
     28 N         -18.7710   15.6640  -41.6020 N.am      1 DAR        -0.2695
     29 CA        -19.0270   16.7950  -42.4930 C.3       1 DAR         0.0945
     30 CB        -18.3080   16.6850  -43.8400 C.3       1 DAR        -0.0148
     31 CG        -17.7530   15.2860  -44.0810 C.3       1 DAR        -0.0162
     32 CD        -16.4490   15.4510  -44.8530 C.3       1 DAR         0.0627
     33 NE        -15.8040   14.1670  -45.0320 N.pl3     1 DAR        -0.2723
     34 CZ        -15.5660   13.7540  -46.1860 C.cat     1 DAR         0.2882
     35 NH1       -15.9440   14.5590  -47.3330 N.pl3     1 DAR        -0.2849
     36 NH2       -14.9140   12.4740  -46.3770 N.pl3     1 DAR        -0.2849
     37 C         -18.6580   18.1260  -41.8330 C.2       1 DAR         0.0601
     38 O         -18.6240   19.1750  -42.5280 O.co2     1 DAR        -0.5666
     39 OXT       -18.3990   18.1780  -40.6020 O.co2     1 DAR        -0.5666
     40 H1        -13.2862   13.4801  -41.1713 H         1 PAC         0.0659
     41 H2        -13.9087   14.0143  -42.7694 H         1 PAC         0.0659
     42 H3        -12.3238   11.0033  -41.1468 H         1 PAC         0.0561
     43 H4        -10.6217    9.6135  -42.2752 H         1 PAC         0.0600
     44 H5         -9.9576   10.1231  -44.5985 H         1 PAC         0.0561
     45 H6        -10.9971   12.0182  -45.7933 H         1 PAC         0.0600
     46 H7        -12.7044   13.4013  -44.6670 H         1 PAC         0.0561
     47 H8        -14.7749   12.3435  -39.8128 H         1 DLY         0.1884
     48 H9        -16.5984   11.1937  -39.1168 H         1 DLY         0.0800
     49 H10       -16.0221    9.8799  -41.8070 H         1 DLY         0.0312
     50 H11       -17.3655    9.3229  -40.7526 H         1 DLY         0.0312
     51 H12       -14.9882    9.6829  -39.1343 H         1 DLY         0.0269
     52 H13       -14.5755    8.6737  -40.5618 H         1 DLY         0.0269
     53 H14       -15.9315    6.9449  -39.8936 H         1 DLY         0.0317
     54 H15       -17.1957    8.0497  -39.2550 H         1 DLY         0.0317
     55 H16       -16.1961    8.2128  -37.1672 H         1 DLY         0.0813
     56 H17       -14.5404    7.9763  -37.8224 H         1 DLY         0.0813
     57 H18       -15.3016    6.0905  -36.6029 H         1 DLY         0.1994
     58 H19       -15.0918    5.6989  -38.1878 H         1 DLY         0.1994
     59 H20       -16.6091    5.9156  -37.5875 H         1 DLY         0.1994
     60 H21       -19.1802   13.4695  -40.9026 H         1 DLY         0.1883
     61 H22       -16.4504   13.8979  -39.7948 H         1 DLY         0.0800
     62 H23       -18.6813   15.4959  -38.6310 H         1 DLY         0.0312
     63 H24       -17.2203   14.8058  -37.8462 H         1 DLY         0.0312
     64 H25       -18.3477   12.5398  -37.9076 H         1 DLY         0.0269
     65 H26       -19.8344   13.3553  -38.5003 H         1 DLY         0.0269
     66 H27       -19.7092   14.8976  -36.4971 H         1 DLY         0.0317
     67 H28       -18.3353   13.9163  -35.8840 H         1 DLY         0.0317
     68 H29       -19.8834   11.8844  -36.0103 H         1 DLY         0.0813
     69 H30       -21.2293   13.0334  -36.3187 H         1 DLY         0.0813
     70 H31       -20.9880   12.5312  -34.0115 H         1 DLY         0.1994
     71 H32       -20.6656   14.1217  -34.2863 H         1 DLY         0.1994
     72 H33       -19.4323   13.0688  -34.0037 H         1 DLY         0.1994
     73 H34       -19.4746   14.9551  -41.5526 H         1 DAR         0.1875
     74 H35       -20.1081   16.8071  -42.6955 H         1 DAR         0.0726
     75 H36       -17.4761   17.4045  -43.8579 H         1 DAR         0.0307
     76 H37       -19.0198   16.9273  -44.6429 H         1 DAR         0.0307
     77 H38       -18.4678   14.6921  -44.6695 H         1 DAR         0.0301
     78 H39       -17.5626   14.7845  -43.1207 H         1 DAR         0.0301
     79 H40       -15.7780   16.1190  -44.2931 H         1 DAR         0.0689
     80 H41       -16.6640   15.8894  -45.8387 H         1 DAR         0.0689
     81 H42       -15.5435   13.5986  -44.2135 H         1 DAR         0.2642
     82 H43       -15.7490   14.2209  -48.2862 H         1 DAR         0.2615
     83 H44       -16.4073   15.4683  -47.1938 H         1 DAR         0.2615
     84 H45       -14.6470   11.9052  -45.5609 H         1 DAR         0.2615
     85 H46       -14.7175   12.1331  -47.3289 H         1 DAR         0.2615
@<TRIPOS>BOND
     1    1    2 1  
     2    1    9 2  
     3    1   10 am 
     4    2    3 1  
     5    3    4 ar 
     6    3    8 ar 
     7    4    5 ar 
     8    5    6 ar 
     9    6    7 ar 
    10    7    8 ar 
    11   10   11 1  
    12   11   12 1  
    13   11   14 1  
    14   12   13 2  
    15   12   19 am 
    16   14   15 1  
    17   15   16 1  
    18   16   17 1  
    19   17   18 1  
    20   19   20 1  
    21   20   21 1  
    22   20   23 1  
    23   21   22 2  
    24   21   28 am 
    25   23   24 1  
    26   24   25 1  
    27   25   26 1  
    28   26   27 1  
    29   28   29 1  
    30   29   30 1  
    31   29   37 1  
    32   30   31 1  
    33   31   32 1  
    34   32   33 1  
    35   33   34 ar 
    36   34   35 ar 
    37   34   36 ar 
    38   37   38 ar 
    39   37   39 ar 
    40    2   40 1  
    41    2   41 1  
    42    4   42 1  
    43    5   43 1  
    44    6   44 1  
    45    7   45 1  
    46    8   46 1  
    47   10   47 1  
    48   11   48 1  
    49   14   49 1  
    50   14   50 1  
    51   15   51 1  
    52   15   52 1  
    53   16   53 1  
    54   16   54 1  
    55   17   55 1  
    56   17   56 1  
    57   18   57 1  
    58   18   58 1  
    59   18   59 1  
    60   19   60 1  
    61   20   61 1  
    62   23   62 1  
    63   23   63 1  
    64   24   64 1  
    65   24   65 1  
    66   25   66 1  
    67   25   67 1  
    68   26   68 1  
    69   26   69 1  
    70   27   70 1  
    71   27   71 1  
    72   27   72 1  
    73   28   73 1  
    74   29   74 1  
    75   30   75 1  
    76   30   76 1  
    77   31   77 1  
    78   31   78 1  
    79   32   79 1  
    80   32   80 1  
    81   33   81 1  
    82   35   82 1  
    83   35   83 1  
    84   36   84 1  
    85   36   85 1  
@<TRIPOS>SUBSTRUCTURE
     1 PAC         1

