5zmq_ligand
  -I-interpret- 

 85 85  0  0  0  0  0  0  0  0999 V2000
  -14.9490   12.3290  -41.9180 C   0  0  0  0  0
  -13.6770   13.1410  -42.1420 C   0  0  0  0  0
  -12.6230   12.2840  -42.8390 C   0  0  0  0  0
  -12.0350   11.2240  -42.1680 C   0  0  0  0  0
  -11.0780   10.4450  -42.8000 C   0  0  0  0  0
  -10.7060   10.7310  -44.1030 C   0  0  0  0  0
  -11.2900   11.7940  -44.7740 C   0  0  0  0  0
  -12.2480   12.5700  -44.1420 C   0  0  0  0  0
  -15.5940   11.9790  -42.8470 O   0  0  0  0  0
  -15.3510   12.0120  -40.5600 N   0  0  0  0  0
  -16.5380   11.2430  -40.2140 C   0  0  0  0  0
  -17.8590   11.8270  -40.7330 C   0  0  0  0  0
  -18.6050   11.0980  -41.2890 O   0  0  0  0  0
  -16.3880    9.8270  -40.7710 C   0  0  0  0  0
  -15.3960    9.0360  -39.9250 C   0  0  0  0  0
  -16.1150    7.8480  -39.2930 C   0  0  0  0  0
  -15.5850    7.6360  -37.8770 C   0  0  0  0  0
  -15.6520    6.2280  -37.5380 N   0  3  0  0  0
  -18.2810   13.2090  -40.5510 N   0  0  0  0  0
  -17.4930   14.2330  -39.8980 C   0  0  0  0  0
  -17.5800   15.4770  -40.7780 C   0  0  0  0  0
  -16.6860   16.2530  -40.7810 O   0  0  0  0  0
  -18.0590   14.5950  -38.5260 C   0  0  0  0  0
  -18.9120   13.4840  -37.9150 C   0  0  0  0  0
  -19.2570   13.8950  -36.4840 C   0  0  0  0  0
  -20.2400   12.9130  -35.8530 C   0  0  0  0  0
  -20.3390   13.1790  -34.4300 N   0  3  0  0  0
  -18.7710   15.6640  -41.6020 N   0  0  0  0  0
  -19.0270   16.7950  -42.4930 C   0  0  0  0  0
  -18.3080   16.6850  -43.8400 C   0  0  0  0  0
  -17.7530   15.2860  -44.0810 C   0  0  0  0  0
  -16.4490   15.4510  -44.8530 C   0  0  0  0  0
  -15.8040   14.1670  -45.0320 N   0  0  0  0  0
  -15.5660   13.7540  -46.1860 C   0  0  0  0  0
  -15.9440   14.5590  -47.3330 N   0  0  0  0  0
  -14.9140   12.4740  -46.3770 N   0  0  0  0  0
  -18.6580   18.1260  -41.8330 C   0  0  0  0  0
  -18.6240   19.1750  -42.5280 O   0  0  0  0  0
  -18.3990   18.1780  -40.6020 O   0  0  0  0  0
  -13.2892   13.4713  -41.1783 H   0  0  0  0  0
  -13.9084   14.0027  -42.7681 H   0  0  0  0  0
  -12.3254   11.0021  -41.1411 H   0  0  0  0  0
  -10.6192    9.6089  -42.2723 H   0  0  0  0  0
   -9.9535   10.1198  -44.6012 H   0  0  0  0  0
  -10.9955   12.0194  -45.7990 H   0  0  0  0  0
  -12.7070   13.4059  -44.6699 H   0  0  0  0  0
  -14.7634   12.3501  -39.7979 H   0  0  0  0  0
  -16.5989   11.2632  -39.1259 H   0  0  0  0  0
  -16.0213    9.8819  -41.7960 H   0  0  0  0  0
  -17.3568    9.3281  -40.7478 H   0  0  0  0  0
  -14.9886    9.6765  -39.1428 H   0  0  0  0  0
  -14.5806    8.6788  -40.5540 H   0  0  0  0  0
  -15.9358    6.9529  -39.8886 H   0  0  0  0  0
  -17.1863    8.0458  -39.2569 H   0  0  0  0  0
  -16.1917    8.2069  -37.1741 H   0  0  0  0  0
  -14.5495    7.9723  -37.8238 H   0  0  0  0  0
  -15.2973    6.0901  -36.5917 H   0  0  0  0  0
  -16.6209    5.9131  -37.5884 H   0  0  0  0  0
  -15.0849    5.6937  -38.1962 H   0  0  0  0  0
  -19.1982   13.4747  -40.9096 H   0  0  0  0  0
  -16.4737   13.8715  -39.7622 H   0  0  0  0  0
  -18.6967   15.4699  -38.6520 H   0  0  0  0  0
  -17.2167   14.7708  -37.8569 H   0  0  0  0  0
  -18.3645   12.5415  -37.9169 H   0  0  0  0  0
  -19.8219   13.3409  -38.4979 H   0  0  0  0  0
  -19.7163   14.8832  -36.5058 H   0  0  0  0  0
  -18.3416   13.9013  -35.8923 H   0  0  0  0  0
  -19.8875   11.8935  -36.0094 H   0  0  0  0  0
  -21.2202   13.0313  -36.3148 H   0  0  0  0  0
  -20.9959   12.5229  -34.0076 H   0  0  0  0  0
  -19.4210   13.0672  -33.9998 H   0  0  0  0  0
  -20.6695   14.1332  -34.2859 H   0  0  0  0  0
  -19.4887   14.9410  -41.5516 H   0  0  0  0  0
  -20.0991   16.7657  -42.6873 H   0  0  0  0  0
  -17.4735   17.3862  -43.8383 H   0  0  0  0  0
  -19.0274   16.9059  -44.6285 H   0  0  0  0  0
  -18.4623   14.6818  -44.6466 H   0  0  0  0  0
  -17.5792   14.7718  -43.1357 H   0  0  0  0  0
  -15.7842   16.1076  -44.2917 H   0  0  0  0  0
  -16.6669   15.8789  -45.8315 H   0  0  0  0  0
  -15.5460   13.6041  -44.2214 H   0  0  0  0  0
  -15.7509   14.2242  -48.2769 H   0  0  0  0  0
  -16.4028   15.4595  -47.1951 H   0  0  0  0  0
  -14.6496   11.9107  -45.5688 H   0  0  0  0  0
  -18.4691   17.2984  -40.2240 H   0  0  0  0  0
  1  2  1  0  0  0
  1  9  2  0  0  0
  1 10  1  0  0  0
  2  3  1  0  0  0
  3  4  4  0  0  0
  3  8  4  0  0  0
  4  5  4  0  0  0
  5  6  4  0  0  0
  6  7  4  0  0  0
  7  8  4  0  0  0
 10 11  1  0  0  0
 11 12  1  0  0  0
 11 14  1  0  0  0
 12 13  2  0  0  0
 12 19  1  0  0  0
 14 15  1  0  0  0
 15 16  1  0  0  0
 16 17  1  0  0  0
 17 18  1  0  0  0
 19 20  1  0  0  0
 20 21  1  0  0  0
 20 23  1  0  0  0
 21 22  2  0  0  0
 21 28  1  0  0  0
 23 24  1  0  0  0
 24 25  1  0  0  0
 25 26  1  0  0  0
 26 27  1  0  0  0
 28 29  1  0  0  0
 29 30  1  0  0  0
 29 37  1  0  0  0
 30 31  1  0  0  0
 31 32  1  0  0  0
 32 33  1  0  0  0
 33 34  1  0  0  0
 34 35  1  0  0  0
 34 36  2  0  0  0
 37 38  2  0  0  0
 37 39  1  0  0  0
  2 40  1  0  0  0
  2 41  1  0  0  0
  4 42  1  0  0  0
  5 43  1  0  0  0
  6 44  1  0  0  0
  7 45  1  0  0  0
  8 46  1  0  0  0
 10 47  1  0  0  0
 11 48  1  0  0  0
 14 49  1  0  0  0
 14 50  1  0  0  0
 15 51  1  0  0  0
 15 52  1  0  0  0
 16 53  1  0  0  0
 16 54  1  0  0  0
 17 55  1  0  0  0
 17 56  1  0  0  0
 18 57  1  0  0  0
 18 58  1  0  0  0
 18 59  1  0  0  0
 19 60  1  0  0  0
 20 61  1  0  0  0
 23 62  1  0  0  0
 23 63  1  0  0  0
 24 64  1  0  0  0
 24 65  1  0  0  0
 25 66  1  0  0  0
 25 67  1  0  0  0
 26 68  1  0  0  0
 26 69  1  0  0  0
 27 70  1  0  0  0
 27 71  1  0  0  0
 27 72  1  0  0  0
 28 73  1  0  0  0
 29 74  1  0  0  0
 30 75  1  0  0  0
 30 76  1  0  0  0
 31 77  1  0  0  0
 31 78  1  0  0  0
 32 79  1  0  0  0
 32 80  1  0  0  0
 33 81  1  0  0  0
 35 82  1  0  0  0
 35 83  1  0  0  0
 36 84  1  0  0  0
 39 85  1  0  0  0
M  END
$$$$
