5mnc_ligand
  -I-interpret- 

 14 14  0  0  0  0  0  0  0  0999 V2000
   -1.6130  -15.1870  -16.9920 C   0  0  0  0  0
   -2.1990  -13.9590  -17.1810 C   0  0  0  0  0
   -2.1740  -13.0440  -16.1410 C   0  0  0  0  0
   -1.5830  -13.3660  -14.9350 C   0  0  0  0  0
   -1.0120  -14.5990  -14.7700 C   0  0  0  0  0
   -1.0160  -15.5140  -15.8010 C   0  0  0  0  0
   -1.6270  -16.1800  -18.0710 N   0  0  0  0  0
   -2.6740  -13.7096  -18.1298 H   0  0  0  0  0
   -2.6250  -12.0609  -16.2758 H   0  0  0  0  0
   -1.5713  -12.6427  -14.1196 H   0  0  0  0  0
   -0.5511  -14.8591  -13.8171 H   0  0  0  0  0
   -0.5483  -16.4899  -15.6709 H   0  0  0  0  0
   -2.0719  -15.9589  -18.9619 H   0  0  0  0  0
   -1.1919  -17.0918  -17.9307 H   0  0  0  0  0
  1  2  4  0  0  0
  1  6  4  0  0  0
  1  7  1  0  0  0
  2  3  4  0  0  0
  3  4  4  0  0  0
  4  5  4  0  0  0
  5  6  4  0  0  0
  2  8  1  0  0  0
  3  9  1  0  0  0
  4 10  1  0  0  0
  5 11  1  0  0  0
  6 12  1  0  0  0
  7 13  1  0  0  0
  7 14  1  0  0  0
M  END
$$$$
