5dkr_ligand
  -I-interpret- 

 46 49  0  0  0  0  0  0  0  0999 V2000
   -0.6730  -23.0080   15.8710 C   0  0  0  0  0
   -0.4840  -21.7020   16.2900 C   0  0  0  0  0
    0.2290  -23.9710   16.2650 C   0  0  0  0  0
   -1.8140  -23.3970   14.9940 C   0  0  0  0  0
   -2.4010  -24.6630   14.9300 C   0  0  0  0  0
   -3.4250  -24.4810   13.9480 C   0  0  0  0  0
   -3.4370  -23.1900   13.4680 C   0  0  0  0  0
    2.4370  -21.9400   19.6740 C   0  0  0  0  0
    3.4760  -21.3370   20.3640 C   0  0  0  0  0
    3.3950  -21.1790   21.7490 C   0  0  0  0  0
    1.2300  -22.2300   21.7610 C   0  0  0  0  0
    2.8550  -20.2370   24.4530 N   0  0  0  0  0
   -4.3440  -25.4130   13.4670 C   0  0  0  0  0
   -5.2720  -25.0260   12.4980 C   0  0  0  0  0
   -5.2750  -23.7120   12.0180 C   0  0  0  0  0
   -4.3520  -22.7890   12.4990 C   0  0  0  0  0
   -6.2640  -23.2760   10.9750 C   0  0  0  0  0
    0.5950  -21.3780   17.1110 C   0  0  0  0  0
    1.4950  -22.3610   17.5070 C   0  0  0  0  0
    1.3080  -23.6620   17.0790 C   0  0  0  0  0
   -2.4440  -22.5560   14.1270 N   0  0  0  0  0
    2.5630  -22.0690   18.3070 O   0  0  0  0  0
    2.2870  -21.6340   22.4460 C   0  0  0  0  0
    1.3110  -22.3890   20.3690 C   0  0  0  0  0
    2.2460  -21.4030   23.9350 C   0  0  0  0  0
    1.6490  -22.1840   24.7160 N   0  0  0  0  0
   -6.5720  -24.1350    9.8840 N   0  0  0  0  0
   -6.8220  -22.1460   11.0760 N   0  0  0  0  0
   -1.1811  -20.9247   15.9769 H   0  0  0  0  0
    0.0917  -24.9990   15.9295 H   0  0  0  0  0
   -2.1435  -25.5632   15.4881 H   0  0  0  0  0
    4.3565  -20.9860   19.8259 H   0  0  0  0  0
    4.2099  -20.6938   22.2863 H   0  0  0  0  0
    0.3471  -22.5701   22.3022 H   0  0  0  0  0
    2.8067  -20.0373   25.4521 H   0  0  0  0  0
    3.3427  -19.5955   23.8276 H   0  0  0  0  0
   -4.3380  -26.4355   13.8444 H   0  0  0  0  0
   -5.9939  -25.7476   12.1157 H   0  0  0  0  0
   -4.3455  -21.7662   12.1223 H   0  0  0  0  0
    0.7337  -20.3494   17.4440 H   0  0  0  0  0
    2.0066  -24.4425   17.3805 H   0  0  0  0  0
    0.4927  -22.8644   19.8281 H   0  0  0  0  0
    1.6069  -21.9744   25.7133 H   0  0  0  0  0
   -7.2463  -23.8405    9.1776 H   0  0  0  0  0
   -6.1185  -25.0455    9.8080 H   0  0  0  0  0
   -6.5997  -21.5359   11.8626 H   0  0  0  0  0
  2  1  4  0  0  0
  3  1  4  0  0  0
  1  4  1  0  0  0
 18  2  4  0  0  0
 20  3  4  0  0  0
  4  5  4  0  0  0
  4 21  4  0  0  0
  5  6  4  0  0  0
  7  6  4  0  0  0
  6 13  4  0  0  0
  7 16  4  0  0  0
 21  7  4  0  0  0
  9  8  4  0  0  0
  8 22  1  0  0  0
 24  8  4  0  0  0
 10  9  4  0  0  0
 23 10  4  0  0  0
 23 11  4  0  0  0
 11 24  4  0  0  0
 25 12  1  0  0  0
 13 14  4  0  0  0
 15 14  4  0  0  0
 16 15  4  0  0  0
 15 17  1  0  0  0
 17 27  1  0  0  0
 17 28  2  0  0  0
 19 18  4  0  0  0
 19 20  4  0  0  0
 22 19  1  0  0  0
 23 25  1  0  0  0
 25 26  2  0  0  0
  2 29  1  0  0  0
  3 30  1  0  0  0
  5 31  1  0  0  0
  9 32  1  0  0  0
 10 33  1  0  0  0
 11 34  1  0  0  0
 12 35  1  0  0  0
 12 36  1  0  0  0
 13 37  1  0  0  0
 14 38  1  0  0  0
 16 39  1  0  0  0
 18 40  1  0  0  0
 20 41  1  0  0  0
 24 42  1  0  0  0
 26 43  1  0  0  0
 27 44  1  0  0  0
 27 45  1  0  0  0
 28 46  1  0  0  0
M  END
$$$$
