5naw_ligand
  -I-interpret- 

 55 59  0  0  0  0  0  0  0  0999 V2000
   10.9750   10.3440    0.5710 C   0  0  0  0  0
    3.2660    8.6320    2.0710 C   0  0  0  0  0
    9.7250    9.5870    0.3920 C   0  0  0  0  0
   11.0570    8.9640    0.0870 C   0  0  0  0  0
    4.4180    6.2270    1.4250 C   0  0  0  0  0
    8.2040    8.5030    1.9610 C   0  0  0  0  0
    6.5220    7.0230    1.0660 C   0  0  0  0  0
    6.5060    5.7150    0.7750 C   0  0  0  0  0
    4.9020    3.8680    0.7840 C   0  0  0  0  0
    5.2150    7.3790    1.4600 C   0  0  0  0  0
    4.6150    8.6130    1.8300 C   0  0  0  0  0
    9.1660    9.3970    1.6720 N   0  0  0  0  0
    7.6420    7.8720    0.9210 N   0  0  0  0  0
   11.1040   10.7140    2.0170 C   0  0  0  0  0
    5.2560    5.1600    0.9930 N   0  0  0  0  0
    8.3730   11.3080    3.6260 O   0  0  0  0  0
    9.3430   10.5880    3.8310 C   0  0  0  0  0
   10.0250    9.8930    2.6960 C   0  0  0  0  0
    5.7470    3.1450    0.0550 N   0  0  0  0  0
    3.8370    3.4640    1.2160 O   0  0  0  0  0
    2.5180    7.4610    2.1000 C   0  0  0  0  0
    3.0750    6.2490    1.7360 C   0  0  0  0  0
    7.8910    8.2540    3.1090 O   0  0  0  0  0
    9.8760   10.3890    5.0470 N   0  0  0  0  0
    9.5120   10.9740    6.2480 C   0  0  0  0  0
    9.1460   12.3220    6.3070 C   0  0  0  0  0
    8.7770   12.8950    7.5120 C   0  0  0  0  0
    8.8640   12.1520    8.6630 C   0  0  0  0  0
    9.2540   10.8120    8.5950 C   0  0  0  0  0
    9.3460   10.0580    9.7950 O   0  0  0  0  0
    8.3350    9.2730   10.1120 C   0  0  0  0  0
    8.5910    8.7520   11.2610 F   0  0  0  0  0
    8.1960    8.3230    9.2460 F   0  0  0  0  0
    7.2300    9.9870   10.1550 F   0  0  0  0  0
    9.6120   10.2330    7.3960 C   0  0  0  0  0
   11.4915   11.2276    0.1961 H   0  0  0  0  0
    2.7688    9.5865    2.2437 H   0  0  0  0  0
    8.7976    9.6115   -0.1803 H   0  0  0  0  0
   11.6050    8.0476    0.3062 H   0  0  0  0  0
   11.5368    8.4013   -0.7137 H   0  0  0  0  0
    7.3693    5.1573    0.4119 H   0  0  0  0  0
    5.2120    9.5205    1.9198 H   0  0  0  0  0
    8.0372    8.0096   -0.0092 H   0  0  0  0  0
   10.9800   11.7838    2.1850 H   0  0  0  0  0
   12.0975   10.5036    2.4129 H   0  0  0  0  0
   10.4709    9.0471    3.2191 H   0  0  0  0  0
    5.5205    2.1784   -0.1791 H   0  0  0  0  0
    6.6216    3.5570   -0.2701 H   0  0  0  0  0
    1.4751    7.4987    2.4149 H   0  0  0  0  0
    2.4726    5.3414    1.6963 H   0  0  0  0  0
   10.6467    9.7224    5.0918 H   0  0  0  0  0
    9.1512   12.9252    5.3991 H   0  0  0  0  0
    8.4213   13.9248    7.5465 H   0  0  0  0  0
    8.6298   12.6055    9.6261 H   0  0  0  0  0
    9.9684    9.2035    7.3621 H   0  0  0  0  0
  1  3  1  0  0  0
  1  4  1  0  0  0
 14  1  1  0  0  0
 11  2  4  0  0  0
  2 21  4  0  0  0
  3  4  1  0  0  0
 12  3  1  0  0  0
 10  5  4  0  0  0
  5 15  4  0  0  0
  5 22  4  0  0  0
 12  6  1  0  0  0
  6 13  1  0  0  0
  6 23  2  0  0  0
  7  8  4  0  0  0
  7 10  4  0  0  0
 13  7  1  0  0  0
  8 15  4  0  0  0
 15  9  1  0  0  0
  9 19  1  0  0  0
  9 20  2  0  0  0
 10 11  4  0  0  0
 18 12  1  0  0  0
 18 14  1  0  0  0
 17 16  2  0  0  0
 17 18  1  0  0  0
 17 24  1  0  0  0
 21 22  4  0  0  0
 24 25  1  0  0  0
 25 26  4  0  0  0
 25 35  4  0  0  0
 26 27  4  0  0  0
 27 28  4  0  0  0
 28 29  4  0  0  0
 29 30  1  0  0  0
 29 35  4  0  0  0
 30 31  1  0  0  0
 31 32  1  0  0  0
 31 33  1  0  0  0
 31 34  1  0  0  0
  1 36  1  0  0  0
  2 37  1  0  0  0
  3 38  1  0  0  0
  4 39  1  0  0  0
  4 40  1  0  0  0
  8 41  1  0  0  0
 11 42  1  0  0  0
 13 43  1  0  0  0
 14 44  1  0  0  0
 14 45  1  0  0  0
 18 46  1  0  0  0
 19 47  1  0  0  0
 19 48  1  0  0  0
 21 49  1  0  0  0
 22 50  1  0  0  0
 24 51  1  0  0  0
 26 52  1  0  0  0
 27 53  1  0  0  0
 28 54  1  0  0  0
 35 55  1  0  0  0
M  END
$$$$
