3P3J_LIGAND
  -I-interpret- 

 35 45  0  0  0  0  0  0  0  0999 V2000
   15.1000    6.3280   15.1900 C   0  0  0  0  0
   14.9570    5.2650   16.0840 C   0  0  0  0  0
   15.4630    4.0050   15.7550 C   0  0  0  0  0
   16.1070    3.7990   14.5330 C   0  0  0  0  0
   16.2430    4.8710   13.6470 C   0  0  0  0  0
   15.7440    6.1510   13.9650 C   0  0  0  0  0
   15.2620    2.7370   16.9230 S   0  0  0  0  0
   13.7670    2.6750   16.9460 O   0  0  0  0  0
   15.8860    3.0470   18.2130 O   0  0  0  0  0
   15.9040    1.4180   16.3490 N   0  0  0  0  0
   15.8960    7.2170   13.1460 N   0  0  0  0  0
   17.0300    7.7720   12.7240 C   0  0  0  0  0
   16.6360    8.7810   11.9480 C   0  0  0  0  0
   19.3200   11.2320   13.3860 C   0  0  0  0  0
   15.2980    8.7650   11.9580 N   0  0  0  0  0
   19.7500   11.0260   14.6350 C   0  0  0  0  0
   14.9240    7.8290   12.6780 N   0  0  0  0  0
   21.0360   10.6960   14.5730 C   0  0  0  0  0
   21.4100   10.6890   13.2910 C   0  0  0  0  0
   20.3450   11.0240   12.5590 C   0  0  0  0  0
   18.3390    7.3950   13.0270 C   0  0  0  0  0
   18.7730    7.1460   14.2660 C   0  0  0  0  0
   20.0660    6.8330   14.2030 C   0  0  0  0  0
   20.4380    6.8880   12.9200 C   0  0  0  0  0
   19.3740    7.2360   12.1950 C   0  0  0  0  0
   19.8700    9.0160   13.5450 Ru  0  0  0  0  0
   14.7034    7.3088   15.4525 H   0  0  0  0  0
   14.4512    5.4180   17.0374 H   0  0  0  0  0
   16.4983    2.8152   14.2738 H   0  0  0  0  0
   16.7444    4.7148   12.6918 H   0  0  0  0  0
   15.3056    0.6494   16.0464 H   0  0  0  0  0
   16.9181    1.3326   16.2799 H   0  0  0  0  0
   17.2767    9.4808   11.4114 H   0  0  0  0  0
   20.4486   11.5879   11.6319 H   0  0  0  0  0
   19.2347    6.8679   11.1785 H   0  0  0  0  0
  1  2  4  0  0  0
  6  1  4  0  0  0
  2  3  4  0  0  0
  4  3  4  0  0  0
  3  7  1  0  0  0
  5  4  4  0  0  0
  6  5  4  0  0  0
 11  6  1  0  0  0
  7  8  2  0  0  0
  7  9  2  0  0  0
  7 10  1  0  0  0
 12 11  4  0  0  0
 11 17  4  0  0  0
 12 13  4  0  0  0
 21 12  1  0  0  0
 13 15  4  0  0  0
 16 14  2  0  0  0
 20 14  1  0  0  0
 15 17  4  0  0  0
 18 16  1  0  0  0
 19 18  2  0  0  0
 20 19  1  0  0  0
 22 21  2  0  0  0
 21 25  1  0  0  0
 22 23  1  0  0  0
 23 24  2  0  0  0
 24 25  1  0  0  0
 26 14  1  0  0  0
 26 16  1  0  0  0
 26 18  1  0  0  0
 26 19  1  0  0  0
 26 20  1  0  0  0
 26 22  1  0  0  0
 26 23  1  0  0  0
 26 24  1  0  0  0
 26 25  1  0  0  0
  1 27  1  0  0  0
  2 28  1  0  0  0
  4 29  1  0  0  0
  5 30  1  0  0  0
 10 31  1  0  0  0
 10 32  1  0  0  0
 13 33  1  0  0  0
 20 34  1  0  0  0
 25 35  1  0  0  0
M  END
$$$$
