3rf5_ligand
  -I-interpret- 

 27 28  0  0  0  0  0  0  0  0999 V2000
   25.8020  -20.3750   30.8610 O   0  0  0  0  0
   24.8190  -21.4220   32.5720 O   0  0  0  0  0
   21.3700  -17.9520   31.2760 C   0  0  0  0  0
   21.3500  -18.9790   32.2320 C   0  0  0  0  0
   22.4450  -18.0460   25.7690 C   0  0  0  0  0
   23.3280  -19.0300   25.5810 C   0  0  0  0  0
   22.7960  -17.3510   26.8760 C   0  0  0  0  0
   22.4840  -17.7740   30.4430 C   0  0  0  0  0
   22.4810  -19.8160   32.3690 C   0  0  0  0  0
   24.6590  -17.3910   28.6540 C   0  0  0  0  0
   24.6840  -18.4220   29.7430 N   0  0  0  0  0
   24.3090  -18.9590   26.6140 O   0  0  0  0  0
   24.8520  -20.5460   31.6660 C   0  0  0  0  0
   23.9030  -17.8830   27.4040 C   0  0  0  0  0
   23.6030  -18.6000   30.5460 C   0  0  0  0  0
   23.6040  -19.6140   31.5250 C   0  0  0  0  0
   23.9911  -21.3524   33.0529 H   0  0  0  0  0
   20.5120  -17.2867   31.1800 H   0  0  0  0  0
   20.4729  -19.1296   32.8614 H   0  0  0  0  0
   21.5833  -17.8369   25.1351 H   0  0  0  0  0
   23.3033  -19.7632   24.7748 H   0  0  0  0  0
   22.2591  -16.4905   27.2753 H   0  0  0  0  0
   22.4752  -16.9753   29.7013 H   0  0  0  0  0
   22.4905  -20.6095   33.1162 H   0  0  0  0  0
   25.6882  -17.1771   28.3657 H   0  0  0  0  0
   24.1462  -16.5077   29.0348 H   0  0  0  0  0
   25.5178  -18.9930   29.8814 H   0  0  0  0  0
 13  1  2  0  0  0
 13  2  1  0  0  0
  4  3  4  0  0  0
  3  8  4  0  0  0
  9  4  4  0  0  0
  6  5  4  0  0  0
  7  5  4  0  0  0
 12  6  4  0  0  0
 14  7  4  0  0  0
  8 15  4  0  0  0
 16  9  4  0  0  0
 11 10  1  0  0  0
 10 14  1  0  0  0
 15 11  1  0  0  0
 14 12  4  0  0  0
 13 16  1  0  0  0
 15 16  4  0  0  0
  2 17  1  0  0  0
  3 18  1  0  0  0
  4 19  1  0  0  0
  5 20  1  0  0  0
  6 21  1  0  0  0
  7 22  1  0  0  0
  8 23  1  0  0  0
  9 24  1  0  0  0
 10 25  1  0  0  0
 10 26  1  0  0  0
 11 27  1  0  0  0
M  END
$$$$
