6hor_ligand
  -I-interpret- 

 26 26  0  0  0  0  0  0  0  0999 V2000
  -22.8780   18.2280  -13.7420 C   0  0  0  0  0
  -23.3610   18.6110  -12.3620 C   0  0  0  0  0
  -21.9850   12.7770  -17.2360 C   0  0  0  0  0
  -22.0430   11.9190  -16.1090 O   0  0  0  0  0
  -22.2760   12.5060  -14.8530 C   0  0  0  0  0
  -22.3560   11.6580  -13.7490 C   0  0  0  0  0
  -22.1980   10.2810  -13.9380 O   0  0  0  0  0
  -22.5910   12.1490  -12.4660 C   0  0  0  0  0
  -22.7530   13.5160  -12.2950 C   0  0  0  0  0
  -22.6720   14.3740  -13.3850 C   0  0  0  0  0
  -22.4400   13.8810  -14.6720 C   0  0  0  0  0
  -22.8590   15.8600  -13.1180 C   0  0  0  0  0
  -22.6620   16.7730  -14.0840 C   0  0  0  0  0
  -22.6870   19.0790  -14.5840 O   0  0  0  0  0
  -22.6356   19.2785  -11.8968 H   0  0  0  0  0
  -24.3230   19.1172  -12.4426 H   0  0  0  0  0
  -23.4715   17.7126  -11.7548 H   0  0  0  0  0
  -22.9327   13.3059  -17.3375 H   0  0  0  0  0
  -21.1780   13.4973  -17.1015 H   0  0  0  0  0
  -21.7998   12.1852  -18.1324 H   0  0  0  0  0
  -22.2781    9.8319  -13.0933 H   0  0  0  0  0
  -22.6464   11.4720  -11.6135 H   0  0  0  0  0
  -22.9448   13.9191  -11.3006 H   0  0  0  0  0
  -22.3878   14.5604  -15.5228 H   0  0  0  0  0
  -23.1587   16.1906  -12.1235 H   0  0  0  0  0
  -22.3551   16.4721  -15.0857 H   0  0  0  0  0
  1  2  1  0  0  0
 13  1  1  0  0  0
  1 14  2  0  0  0
  4  3  1  0  0  0
  5  4  1  0  0  0
  5  6  4  0  0  0
 11  5  4  0  0  0
  6  7  1  0  0  0
  8  6  4  0  0  0
  9  8  4  0  0  0
 10  9  4  0  0  0
 10 11  4  0  0  0
 12 10  1  0  0  0
 12 13  2  0  0  0
  2 15  1  0  0  0
  2 16  1  0  0  0
  2 17  1  0  0  0
  3 18  1  0  0  0
  3 19  1  0  0  0
  3 20  1  0  0  0
  7 21  1  0  0  0
  8 22  1  0  0  0
  9 23  1  0  0  0
 11 24  1  0  0  0
 12 25  1  0  0  0
 13 26  1  0  0  0
M  END
$$$$
