2rc8_ligand
  -I-interpret- 

 15 14  0  0  0  0  0  0  0  0999 V2000
   13.5670   46.9020    7.0420 N   0  3  0  0  0
   12.8800   48.2410    7.0130 C   0  0  0  0  0
   11.8860   48.3370    8.1270 C   0  0  0  0  0
   11.6010   49.4390    8.6370 O   0  0  0  0  0
   11.3400   47.2860    8.5120 O   0  0  0  0  0
   13.8970   49.3900    7.0220 C   0  0  0  0  0
   14.6620   49.3520    8.2250 O   0  0  0  0  0
   12.8658   46.1612    7.0352 H   0  0  0  0  0
   14.1671   46.8113    6.2222 H   0  0  0  0  0
   14.1320   46.8293    7.8881 H   0  0  0  0  0
   12.3276   48.3340    6.0780 H   0  0  0  0  0
   12.1182   50.1290    8.2151 H   0  0  0  0  0
   13.3662   50.3402    6.9634 H   0  0  0  0  0
   14.5655   49.2850    6.1675 H   0  0  0  0  0
   15.2954   50.0734    8.2230 H   0  0  0  0  0
  1  2  1  0  0  0
  2  3  1  0  0  0
  2  6  1  0  0  0
  3  4  1  0  0  0
  3  5  2  0  0  0
  6  7  1  0  0  0
  1  8  1  0  0  0
  1  9  1  0  0  0
  1 10  1  0  0  0
  2 11  1  0  0  0
  4 12  1  0  0  0
  6 13  1  0  0  0
  6 14  1  0  0  0
  7 15  1  0  0  0
M  END
$$$$
