2hj4_ligand
  -I-interpret- 

 20 20  0  0  0  0  0  0  0  0999 V2000
   23.1590   17.2320   27.8430 C   0  0  0  0  0
   23.1590   17.2890   29.2170 C   0  0  0  0  0
   22.5560   15.9930   30.0170 C   0  0  0  0  0
   22.0930   14.9220   29.2740 C   0  0  0  0  0
   22.1270   14.9870   27.8600 C   0  0  0  0  0
   22.6490   16.0970   27.1630 C   0  0  0  0  0
   20.0630   13.7590   30.3510 N   0  3  0  0  0
   21.4910   13.7370   29.9720 C   0  0  0  0  0
   23.6300   18.3080   27.1660 N   0  0  0  0  0
   24.0060   19.2560   27.8080 O   0  0  0  0  0
   23.6740   18.2840   25.9630 O   0  0  0  0  0
   23.5434   18.1584   29.7503 H   0  0  0  0  0
   22.5205   15.9750   31.1063 H   0  0  0  0  0
   21.7345   14.1465   27.2876 H   0  0  0  0  0
   22.6606   16.0817   26.0732 H   0  0  0  0  0
   19.8213   12.8819   30.8121 H   0  0  0  0  0
   19.8935   14.5374   30.9880 H   0  0  0  0  0
   19.4919   13.8729   29.5136 H   0  0  0  0  0
   22.0263   13.6745   30.9195 H   0  0  0  0  0
   21.5721   12.9229   29.2517 H   0  0  0  0  0
  1  2  4  0  0  0
  1  6  4  0  0  0
  1  9  1  0  0  0
  2  3  4  0  0  0
  3  4  4  0  0  0
  4  5  4  0  0  0
  4  8  1  0  0  0
  5  6  4  0  0  0
  8  7  1  0  0  0
  9 10  2  0  0  0
  9 11  2  0  0  0
  2 12  1  0  0  0
  3 13  1  0  0  0
  5 14  1  0  0  0
  6 15  1  0  0  0
  7 16  1  0  0  0
  7 17  1  0  0  0
  7 18  1  0  0  0
  8 19  1  0  0  0
  8 20  1  0  0  0
M  END
$$$$
