4wp7_ligand
  -I-interpret- 

 63 66  0  0  0  0  0  0  0  0999 V2000
   34.9970  -15.8380   16.4910 C   0  0  0  0  0
   35.5320  -16.8050   15.5050 C   0  0  0  0  0
   34.7110  -17.2490   14.3900 C   0  0  0  0  0
   32.9350  -15.8540   15.1550 C   0  0  0  0  0
   39.6000  -15.4300   16.9870 C   0  0  0  0  0
   39.2050  -15.4190   18.4600 C   0  0  0  0  0
   40.0880  -14.0400   16.5680 C   0  0  0  0  0
   37.8040  -19.1130   13.8410 C   0  0  0  0  0
   40.3240  -19.1550   14.0440 C   0  0  0  0  0
   43.5740  -18.2950   11.7290 O   0  0  0  0  0
   42.4450  -18.2090   11.2560 C   0  0  0  0  0
   42.4010  -18.1200    9.7540 C   0  0  0  0  0
   41.2090  -18.3430    9.1250 O   0  0  0  0  0
   41.4420  -18.2190    7.7690 C   0  0  0  0  0
   42.7830  -17.9300    7.5710 C   0  0  0  0  0
   43.3880  -17.8740    8.8110 C   0  0  0  0  0
   41.3520  -18.2100   12.0720 N   0  0  0  0  0
   41.1230  -19.4740   12.7750 C   0  0  0  0  0
   40.0810  -17.7120   11.5400 C   0  0  0  0  0
   39.2010  -17.3290   12.7280 C   0  0  0  0  0
   39.0970  -18.4580   13.6470 N   0  3  0  0  0
   36.6810  -18.2060   14.3280 C   0  0  0  0  0
   36.7120  -17.4160   15.4350 N   0  0  0  0  0
   37.8140  -17.2230   16.3810 C   0  0  0  0  0
   38.4610  -15.8720   16.0700 C   0  0  0  0  0
   35.4700  -18.1180   13.6930 N   0  0  0  0  0
   33.4600  -16.7910   14.2020 N   0  0  0  0  0
   32.6690  -17.2630   13.0570 C   0  0  0  0  0
   31.7860  -15.3960   15.0320 O   0  0  0  0  0
   33.6810  -15.3900   16.2660 N   0  0  0  0  0
   33.0710  -14.4240   17.1940 C   0  0  0  0  0
   35.6670  -15.4390   17.4690 O   0  0  0  0  0
   40.4016  -16.1608   16.8795 H   0  0  0  0  0
   40.0691  -15.1432   19.0645 H   0  0  0  0  0
   38.4054  -14.6946   18.6150 H   0  0  0  0  0
   38.8592  -16.4113   18.7495 H   0  0  0  0  0
   40.4447  -14.0766   15.5387 H   0  0  0  0  0
   39.2650  -13.3293   16.6437 H   0  0  0  0  0
   40.9004  -13.7284   17.2245 H   0  0  0  0  0
   37.9502  -19.8699   14.6116 H   0  0  0  0  0
   37.4976  -19.4933   12.8665 H   0  0  0  0  0
   40.9139  -18.5264   14.7111 H   0  0  0  0  0
   40.0784  -20.0751   14.5743 H   0  0  0  0  0
   40.6942  -18.3302    6.9838 H   0  0  0  0  0
   43.2721  -17.7748    6.6093 H   0  0  0  0  0
   44.4408  -17.6745    9.0108 H   0  0  0  0  0
   40.5720  -20.1690   12.1414 H   0  0  0  0  0
   42.0716  -19.9466   13.0297 H   0  0  0  0  0
   39.5941  -18.4794   10.9382 H   0  0  0  0  0
   40.2503  -16.8475   10.8981 H   0  0  0  0  0
   38.2068  -17.0617   12.3700 H   0  0  0  0  0
   39.6448  -16.4798   13.2476 H   0  0  0  0  0
   39.0068  -17.8970   14.4941 H   0  0  0  0  0
   38.5446  -18.0258   16.2819 H   0  0  0  0  0
   37.4423  -17.2392   17.4055 H   0  0  0  0  0
   38.8965  -15.9693   15.0755 H   0  0  0  0  0
   37.6737  -15.1275   16.1886 H   0  0  0  0  0
   31.7696  -17.7611   13.4190 H   0  0  0  0  0
   32.3896  -16.4127   12.4348 H   0  0  0  0  0
   33.2632  -17.9641   12.4708 H   0  0  0  0  0
   32.8051  -13.5177   16.6500 H   0  0  0  0  0
   32.1748  -14.8612   17.6343 H   0  0  0  0  0
   33.7830  -14.1803   17.9825 H   0  0  0  0  0
  2  1  1  0  0  0
  1 30  1  0  0  0
  1 32  2  0  0  0
  2  3  4  0  0  0
 23  2  4  0  0  0
 26  3  4  0  0  0
  3 27  1  0  0  0
 27  4  1  0  0  0
  4 29  2  0  0  0
 30  4  1  0  0  0
  5  6  1  0  0  0
  5  7  1  0  0  0
 25  5  1  0  0  0
  8 21  1  0  0  0
 22  8  1  0  0  0
  9 18  1  0  0  0
 21  9  1  0  0  0
 11 10  2  0  0  0
 11 12  1  0  0  0
 17 11  1  0  0  0
 12 13  4  0  0  0
 12 16  4  0  0  0
 13 14  4  0  0  0
 15 14  4  0  0  0
 16 15  4  0  0  0
 18 17  1  0  0  0
 19 17  1  0  0  0
 20 19  1  0  0  0
 21 20  1  0  0  0
 23 22  4  0  0  0
 22 26  4  0  0  0
 24 23  1  0  0  0
 24 25  1  0  0  0
 27 28  1  0  0  0
 30 31  1  0  0  0
  5 33  1  0  0  0
  6 34  1  0  0  0
  6 35  1  0  0  0
  6 36  1  0  0  0
  7 37  1  0  0  0
  7 38  1  0  0  0
  7 39  1  0  0  0
  8 40  1  0  0  0
  8 41  1  0  0  0
  9 42  1  0  0  0
  9 43  1  0  0  0
 14 44  1  0  0  0
 15 45  1  0  0  0
 16 46  1  0  0  0
 18 47  1  0  0  0
 18 48  1  0  0  0
 19 49  1  0  0  0
 19 50  1  0  0  0
 20 51  1  0  0  0
 20 52  1  0  0  0
 21 53  1  0  0  0
 24 54  1  0  0  0
 24 55  1  0  0  0
 25 56  1  0  0  0
 25 57  1  0  0  0
 28 58  1  0  0  0
 28 59  1  0  0  0
 28 60  1  0  0  0
 31 61  1  0  0  0
 31 62  1  0  0  0
 31 63  1  0  0  0
M  END
$$$$
