4nrl_ligand
  -I-interpret- 

 39 39  0  0  0  0  0  0  0  0999 V2000
   38.0060   22.3860  -16.4740 C   0  0  0  0  0
   37.8770   23.8970  -16.4750 C   0  0  0  0  0
   38.8260   24.5560  -17.4540 C   0  0  0  0  0
   38.5370   24.0560  -18.8540 C   0  0  0  0  0
   37.1200   24.4240  -19.2280 C   0  0  0  0  0
   36.2160   23.9140  -18.1270 C   0  0  0  0  0
   34.7820   24.3260  -18.3700 C   0  0  0  0  0
   33.9230   23.7140  -17.2890 C   0  0  0  0  0
   32.4900   23.6320  -17.7610 C   0  0  0  0  0
   36.1140   24.5040  -21.4870 C   0  0  0  0  0
   35.7650   23.8150  -22.7880 C   0  0  0  0  0
   36.7860   23.7940  -20.4580 N   0  0  0  0  0
   39.1500   21.8740  -16.6050 O   0  0  0  0  0
   37.0070   21.6350  -16.3050 O   0  0  0  0  0
   39.4450   24.6150  -19.7740 O   0  0  0  0  0
   36.6230   24.4070  -16.8670 O   0  0  0  0  0
   34.6760   25.7300  -18.3280 O   0  0  0  0  0
   34.3920   22.4190  -16.9980 O   0  0  0  0  0
   31.6380   23.5330  -16.6420 O   0  0  0  0  0
   35.8110   25.6680  -21.3210 O   0  0  0  0  0
   38.0788   24.1229  -15.4279 H   0  0  0  0  0
   39.8532   24.3093  -17.1855 H   0  0  0  0  0
   38.6899   25.6369  -17.4195 H   0  0  0  0  0
   38.6511   22.9723  -18.8804 H   0  0  0  0  0
   37.0090   25.5021  -19.3439 H   0  0  0  0  0
   36.2876   22.8264  -18.1309 H   0  0  0  0  0
   34.4526   23.9811  -19.3501 H   0  0  0  0  0
   33.9736   24.3340  -16.3939 H   0  0  0  0  0
   32.3636   22.7548  -18.3956 H   0  0  0  0  0
   32.2413   24.5265  -18.3320 H   0  0  0  0  0
   34.6841   23.8315  -22.9278 H   0  0  0  0  0
   36.2476   24.3364  -23.6146 H   0  0  0  0  0
   36.1127   22.7825  -22.7555 H   0  0  0  0  0
   37.0335   22.8152  -20.6034 H   0  0  0  0  0
   36.2151   22.1714  -16.2226 H   0  0  0  0  0
   40.3403   24.3738  -19.5251 H   0  0  0  0  0
   35.2242   26.1119  -19.0173 H   0  0  0  0  0
   33.8465   22.0292  -16.3109 H   0  0  0  0  0
   30.7265   23.4807  -16.9388 H   0  0  0  0  0
  2  1  1  0  0  0
  1 13  2  0  0  0
  1 14  1  0  0  0
  3  2  1  0  0  0
 16  2  1  0  0  0
  4  3  1  0  0  0
  5  4  1  0  0  0
  4 15  1  0  0  0
  5  6  1  0  0  0
 12  5  1  0  0  0
  6  7  1  0  0  0
  6 16  1  0  0  0
  7  8  1  0  0  0
  7 17  1  0  0  0
  8  9  1  0  0  0
  8 18  1  0  0  0
  9 19  1  0  0  0
 10 11  1  0  0  0
 10 12  1  0  0  0
 10 20  2  0  0  0
  2 21  1  0  0  0
  3 22  1  0  0  0
  3 23  1  0  0  0
  4 24  1  0  0  0
  5 25  1  0  0  0
  6 26  1  0  0  0
  7 27  1  0  0  0
  8 28  1  0  0  0
  9 29  1  0  0  0
  9 30  1  0  0  0
 11 31  1  0  0  0
 11 32  1  0  0  0
 11 33  1  0  0  0
 12 34  1  0  0  0
 14 35  1  0  0  0
 15 36  1  0  0  0
 17 37  1  0  0  0
 18 38  1  0  0  0
 19 39  1  0  0  0
M  END
$$$$
