### 
### Created by X-TOOL on Mon Sep 10 21:13:30 2018
### 

@<TRIPOS>MOLECULE
2nd0_ligand
  314   317     1     0     0
SMALL
GAST_HUCK


@<TRIPOS>ATOM
      1 N          -8.2290   11.9800   14.0580 N.4       1 ASN         0.2396
      2 CA         -9.0280   11.6870   15.2710 C.3       1 ASN         0.0818
      3 C          -8.9810   10.2040   15.6060 C.2       1 ASN         0.2291
      4 O          -8.4830    9.8140   16.6600 O.2       1 ASN        -0.3905
      5 CB        -10.4780   12.1340   15.0820 C.3       1 ASN         0.0972
      6 CG        -10.6100   13.6410   14.9910 C.2       1 ASN         0.1813
      7 OD1        -9.7970   14.3820   15.5440 O.2       1 ASN        -0.3969
      8 ND2       -11.6370   14.1070   14.3010 N.am      1 ASN        -0.3006
      9 N          -9.5030    9.3770   14.7110 N.am      1 LEU        -0.2609
     10 CA         -9.4830    7.9360   14.9040 C.3       1 LEU         0.1313
     11 C          -8.0920    7.3870   14.6390 C.2       1 LEU         0.2039
     12 O          -7.5490    7.5580   13.5450 O.2       1 LEU        -0.3944
     13 CB        -10.4940    7.2520   13.9800 C.3       1 LEU        -0.0101
     14 CG        -11.9590    7.6100   14.2300 C.3       1 LEU        -0.0425
     15 CD1       -12.8540    6.8970   13.2290 C.3       1 LEU        -0.0625
     16 CD2       -12.3610    7.2540   15.6550 C.3       1 LEU        -0.0625
     17 N          -7.5170    6.7430   15.6450 N.am      1 GLN        -0.2636
     18 CA         -6.1970    6.1390   15.5200 C.3       1 GLN         0.1330
     19 C          -6.2290    5.0170   14.4880 C.2       1 GLN         0.2041
     20 O          -6.6650    3.9050   14.7810 O.2       1 GLN        -0.3944
     21 CB         -5.7330    5.5930   16.8740 C.3       1 GLN         0.0045
     22 CG         -5.6970    6.6400   17.9750 C.3       1 GLN         0.0412
     23 CD         -5.2100    6.0780   19.2940 C.2       1 GLN         0.1737
     24 OE1        -5.9980    5.6010   20.1120 O.2       1 GLN        -0.3973
     25 NE2        -3.9090    6.1300   19.5120 N.am      1 GLN        -0.3009
     26 N          -5.7810    5.3180   13.2800 N.am      1 SER        -0.2616
     27 CA         -5.8160    4.3560   12.1920 C.3       1 SER         0.1539
     28 C          -4.4480    3.7160   11.9990 C.2       1 SER         0.2062
     29 O          -3.4430    4.2130   12.5130 O.2       1 SER        -0.3943
     30 CB         -6.2670    5.0450   10.9060 C.3       1 SER         0.0843
     31 OG         -7.5190    5.6870   11.0940 O.3       1 SER        -0.3903
     32 N          -4.4230    2.6120   11.2620 N.am      1 SER        -0.2615
     33 CA         -3.2000    1.8640   11.0260 C.3       1 SER         0.1539
     34 C          -2.2750    2.5920   10.0510 C.2       1 SER         0.2062
     35 O          -2.1660    2.2240    8.8810 O.2       1 SER        -0.3943
     36 CB         -3.5490    0.4710   10.4990 C.3       1 SER         0.0843
     37 OG         -4.5480    0.5460    9.4940 O.3       1 SER        -0.3903
     38 N          -1.6300    3.6420   10.5400 N.am      1 ILE        -0.2634
     39 CA         -0.6310    4.3510    9.7620 C.3       1 ILE         0.1335
     40 C           0.6540    3.5410    9.7540 C.2       1 ILE         0.2042
     41 O           1.2250    3.2520   10.8090 O.2       1 ILE        -0.3944
     42 CB         -0.3580    5.7640   10.3260 C.3       1 ILE        -0.0037
     43 CG1        -1.6610    6.5710   10.4220 C.3       1 ILE        -0.0491
     44 CG2         0.6650    6.4990    9.4680 C.3       1 ILE        -0.0582
     45 CD1        -2.3750    6.7540    9.0970 C.3       1 ILE        -0.0648
     46 N           1.0930    3.1570    8.5700 N.am      1 VAL        -0.2635
     47 CA          2.2190    2.2470    8.4390 C.3       1 VAL         0.1332
     48 C           3.4940    2.9990    8.0970 C.2       1 VAL         0.2041
     49 O           3.4560    4.0450    7.4580 O.2       1 VAL        -0.3944
     50 CB          1.9600    1.1910    7.3430 C.3       1 VAL        -0.0063
     51 CG1         2.9380    0.0290    7.4480 C.3       1 VAL        -0.0584
     52 CG2         0.5290    0.6950    7.4060 C.3       1 VAL        -0.0584
     53 N           4.6120    2.4580    8.5400 N.am      1 LYS        -0.2637
     54 CA          5.9180    2.9650    8.1690 C.3       1 LYS         0.1310
     55 C           6.8000    1.7840    7.7930 C.2       1 LYS         0.2040
     56 O           6.8920    0.8170    8.5530 O.2       1 LYS        -0.3944
     57 CB          6.5450    3.7390    9.3320 C.3       1 LYS        -0.0122
     58 CG          7.9190    4.3120    9.0160 C.3       1 LYS        -0.0440
     59 CD          8.6760    4.6770   10.2840 C.3       1 LYS        -0.0124
     60 CE          8.0550    5.8690   10.9940 C.3       1 LYS        -0.0354
     61 NZ          8.2130    7.1200   10.2110 N.4       1 LYS         0.2185
     62 N           7.4220    1.8310    6.6280 N.am      1 PHE        -0.2619
     63 CA          8.2910    0.7390    6.2180 C.3       1 PHE         0.1404
     64 C           9.5330    1.2610    5.5150 C.2       1 PHE         0.2060
     65 O           9.5220    2.3370    4.9140 O.2       1 PHE        -0.3942
     66 CB          7.5400   -0.2760    5.3300 C.3       1 PHE         0.0214
     67 CG          7.2030    0.1840    3.9320 C.ar      1 PHE        -0.0386
     68 CD1         8.1620    0.1720    2.9290 C.ar      1 PHE        -0.0601
     69 CD2         5.9190    0.5960    3.6140 C.ar      1 PHE        -0.0601
     70 CE1         7.8470    0.5680    1.6440 C.ar      1 PHE        -0.0686
     71 CE2         5.6000    0.9880    2.3270 C.ar      1 PHE        -0.0686
     72 CZ          6.5650    0.9750    1.3430 C.ar      1 PHE        -0.0687
     73 N          10.6100    0.4990    5.6210 N.am      1 LYS        -0.2636
     74 CA         11.8450    0.8160    4.9280 C.3       1 LYS         0.1310
     75 C          11.9210    0.0100    3.6460 C.2       1 LYS         0.2039
     76 O          11.6890   -1.2000    3.6570 O.2       1 LYS        -0.3944
     77 CB         13.0700    0.5040    5.7990 C.3       1 LYS        -0.0122
     78 CG         13.3840    1.5350    6.8780 C.3       1 LYS        -0.0440
     79 CD         12.2680    1.6700    7.9020 C.3       1 LYS        -0.0124
     80 CE         12.7580    2.3620    9.1650 C.3       1 LYS        -0.0354
     81 NZ         13.3740    3.6840    8.8820 N.4       1 LYS         0.2185
     82 N          12.2320    0.6630    2.5440 N.am      1 LYS        -0.2637
     83 CA         12.3160   -0.0340    1.2770 C.3       1 LYS         0.1312
     84 C          13.7440   -0.0440    0.7630 C.2       1 LYS         0.2064
     85 O          14.3350    1.0130    0.5300 O.2       1 LYS        -0.3942
     86 CB         11.4120    0.6040    0.2290 C.3       1 LYS        -0.0122
     87 CG         11.1090   -0.3370   -0.9260 C.3       1 LYS        -0.0440
     88 CD         10.4790    0.3860   -2.1010 C.3       1 LYS        -0.0124
     89 CE         11.5030    1.2080   -2.8680 C.3       1 LYS        -0.0354
     90 NZ         12.5730    0.3590   -3.4590 N.4       1 LYS         0.2185
     91 N          14.3200   -1.2420    0.5910 N.am      1 PRO        -0.2498
     92 CA         15.6390   -1.4020   -0.0220 C.3       1 PRO         0.1338
     93 C          15.6800   -0.8140   -1.4300 C.2       1 PRO         0.2041
     94 O          14.6720   -0.8360   -2.1440 O.2       1 PRO        -0.3944
     95 CB         15.8370   -2.9200   -0.0730 C.3       1 PRO        -0.0104
     96 CG         14.9250   -3.4620    0.9710 C.3       1 PRO        -0.0281
     97 CD         13.7440   -2.5350    1.0030 C.3       1 PRO         0.0369
     98 N          16.8440   -0.2860   -1.8050 N.am      1 LEU        -0.2637
     99 CA         17.0640    0.3090   -3.1250 C.3       1 LEU         0.1314
    100 C          16.2350    1.5830   -3.3090 C.2       1 LEU         0.2064
    101 O          15.0570    1.5300   -3.6760 O.2       1 LEU        -0.3942
    102 CB         16.7500   -0.6930   -4.2440 C.3       1 LEU        -0.0101
    103 CG         17.5300   -2.0110   -4.1820 C.3       1 LEU        -0.0425
    104 CD1        17.1370   -2.9140   -5.3370 C.3       1 LEU        -0.0625
    105 CD2        19.0290   -1.7530   -4.2000 C.3       1 LEU        -0.0625
    106 N          16.8410    2.7520   -3.0490 N.am      1 PRO        -0.2498
    107 CA         16.1680    4.0380   -3.2150 C.3       1 PRO         0.1338
    108 C          16.0260    4.4280   -4.6850 C.2       1 PRO         0.2041
    109 O          16.8120    5.2150   -5.2170 O.2       1 PRO        -0.3944
    110 CB         17.0780    5.0190   -2.4740 C.3       1 PRO        -0.0104
    111 CG         18.4330    4.3970   -2.5070 C.3       1 PRO        -0.0281
    112 CD         18.2270    2.9060   -2.5710 C.3       1 PRO         0.0369
    113 N          15.0230    3.8550   -5.3370 N.am      1 LEU        -0.2637
    114 CA         14.7470    4.1430   -6.7360 C.3       1 LEU         0.1312
    115 C          14.1670    5.5460   -6.8790 C.2       1 LEU         0.2040
    116 O          14.4730    6.2660   -7.8270 O.2       1 LEU        -0.3944
    117 CB         13.7730    3.1040   -7.3040 C.3       1 LEU        -0.0101
    118 CG         13.5180    3.1880   -8.8100 C.3       1 LEU        -0.0425
    119 CD1        14.7690    2.8100   -9.5890 C.3       1 LEU        -0.0625
    120 CD2        12.3530    2.2930   -9.2030 C.3       1 LEU        -0.0625
    121 N          13.3370    5.9300   -5.9220 N.am      1 THR        -0.2613
    122 CA         12.7320    7.2480   -5.9220 C.3       1 THR         0.1565
    123 C          13.5120    8.2070   -5.0310 C.2       1 THR         0.2065
    124 O          13.0920    8.5250   -3.9160 O.2       1 THR        -0.3943
    125 CB         11.2650    7.1880   -5.4570 C.3       1 THR         0.0924
    126 OG1        11.1690    6.4660   -4.2190 O.3       1 THR        -0.3874
    127 CG2        10.3940    6.5210   -6.5070 C.3       1 THR        -0.0346
    128 N          14.6590    8.6470   -5.5190 N.am      1 GLN        -0.2635
    129 CA         15.4720    9.6160   -4.8010 C.3       1 GLN         0.1332
    130 C          15.4120   10.9590   -5.5200 C.2       1 GLN         0.2065
    131 O          15.9700   11.1080   -6.6060 O.2       1 GLN        -0.3942
    132 CB         16.9210    9.1290   -4.6990 C.3       1 GLN         0.0045
    133 CG         17.8070   10.0260   -3.8490 C.3       1 GLN         0.0412
    134 CD         19.2450    9.5480   -3.8000 C.2       1 GLN         0.1737
    135 OE1        20.0680    9.9340   -4.6280 O.2       1 GLN        -0.3973
    136 NE2        19.5600    8.7090   -2.8270 N.am      1 GLN        -0.3009
    137 N          14.7140   11.9450   -4.9360 N.am      1 PRO        -0.2498
    138 CA         14.5280   13.2590   -5.5620 C.3       1 PRO         0.1337
    139 C          15.8320   14.0440   -5.6770 C.2       1 PRO         0.2033
    140 O          16.7580   13.8610   -4.8810 O.2       1 PRO        -0.3944
    141 CB         13.5500   13.9720   -4.6230 C.3       1 PRO        -0.0104
    142 CG         13.7120   13.2910   -3.3090 C.3       1 PRO        -0.0281
    143 CD         14.0540   11.8620   -3.6190 C.3       1 PRO         0.0369
    144 N          15.9050   14.9100   -6.6770 N.am      1 GLY        -0.2722
    145 CA         17.0910   15.7130   -6.8740 C.3       1 GLY         0.0833
    146 C          16.8120   17.1860   -6.6800 C.2       1 GLY         0.0570
    147 O          15.6790   17.6200   -6.9750 O.co2     1 GLY        -0.5669
    148 OXT        17.7140   17.9130   -6.2220 O.co2     1 GLY        -0.5669
    149 H1         -8.2748   12.9664   13.8557 H         1 ASN         0.2017
    150 H2         -8.5990   11.4596   13.2781 H         1 ASN         0.2017
    151 H3         -7.2697   11.7134   14.2150 H         1 ASN         0.2017
    152 H4         -8.5967   12.2481   16.1131 H         1 ASN         0.1125
    153 H5        -11.0718   11.7783   15.9369 H         1 ASN         0.0585
    154 H6        -10.8671   11.6886   14.1546 H         1 ASN         0.0585
    155 H7        -11.7713   15.0937   14.2093 H         1 ASN         0.1814
    156 H8        -12.2795   13.4728   13.8708 H         1 ASN         0.1814
    157 H9         -9.9203    9.7531   13.8837 H         1 LEU         0.1885
    158 H10        -9.7561    7.7186   15.9472 H         1 LEU         0.0800
    159 H11       -10.3848    6.1644   14.1036 H         1 LEU         0.0315
    160 H12       -10.2490    7.5298   12.9443 H         1 LEU         0.0315
    161 H13       -12.0806    8.6949   14.0954 H         1 LEU         0.0298
    162 H14       -13.9038    7.1637   13.4208 H         1 LEU         0.0232
    163 H15       -12.7271    5.8093   13.3334 H         1 LEU         0.0232
    164 H16       -12.5787    7.2021   12.2086 H         1 LEU         0.0232
    165 H17       -11.7031    7.7786   16.3635 H         1 LEU         0.0232
    166 H18       -12.2665    6.1680   15.8022 H         1 LEU         0.0232
    167 H19       -13.4037    7.5583   15.8287 H         1 LEU         0.0232
    168 H20        -8.0037    6.6696   16.5155 H         1 GLN         0.1883
    169 H21        -5.4857    6.9086   15.1857 H         1 GLN         0.0801
    170 H22        -4.7203    5.1807   16.7537 H         1 GLN         0.0337
    171 H23        -6.4214    4.7913   17.1796 H         1 GLN         0.0337
    172 H24        -6.7122    7.0396   18.1152 H         1 GLN         0.0504
    173 H25        -5.0224    7.4525   17.6672 H         1 GLN         0.0504
    174 H26        -3.5305    5.7735   20.3662 H         1 GLN         0.1814
    175 H27        -3.3020    6.5259   18.8229 H         1 GLN         0.1814
    176 H28        -5.4089    6.2308   13.1117 H         1 SER         0.1884
    177 H29        -6.5400    3.5667   12.4425 H         1 SER         0.0823
    178 H30        -6.3625    4.2939   10.1081 H         1 SER         0.0606
    179 H31        -5.5165    5.7950   10.6157 H         1 SER         0.0606
    180 H32        -7.4395    6.3386   11.7807 H         1 SER         0.2097
    181 H33        -5.2755    2.2839   10.8552 H         1 SER         0.1884
    182 H34        -2.6703    1.7538   11.9837 H         1 SER         0.0823
    183 H35        -3.9201   -0.1462   11.3304 H         1 SER         0.0606
    184 H36        -2.6452    0.0095   10.0747 H         1 SER         0.0606
    185 H37        -4.2303    1.0756    8.7722 H         1 SER         0.2097
    186 H38        -1.8369    3.9530   11.4676 H         1 ILE         0.1883
    187 H39        -0.9970    4.4531    8.7297 H         1 ILE         0.0803
    188 H40         0.0561    5.6560   11.3393 H         1 ILE         0.0345
    189 H41        -1.4222    7.5659   10.8259 H         1 ILE         0.0267
    190 H42        -2.3407    6.0488   11.1114 H         1 ILE         0.0267
    191 H43         1.5898    5.9061    9.4114 H         1 ILE         0.0235
    192 H44         0.8845    7.4786    9.9176 H         1 ILE         0.0235
    193 H45         0.2591    6.6427    8.4558 H         1 ILE         0.0235
    194 H46        -3.2932    7.3393    9.2531 H         1 ILE         0.0230
    195 H47        -2.6342    5.7692    8.6811 H         1 ILE         0.0230
    196 H48        -1.7157    7.2863    8.3956 H         1 ILE         0.0230
    197 H49         0.6416    3.4992    7.7459 H         1 VAL         0.1883
    198 H50         2.3592    1.7315    9.4005 H         1 VAL         0.0802
    199 H51         2.1111    1.6731    6.3659 H         1 VAL         0.0343
    200 H52         2.7251   -0.7022    6.6543 H         1 VAL         0.0234
    201 H53         2.8294   -0.4541    8.4303 H         1 VAL         0.0234
    202 H54         3.9661    0.4036    7.3352 H         1 VAL         0.0234
    203 H55        -0.1590    1.5497    7.3285 H         1 VAL         0.0234
    204 H56         0.3626    0.1759    8.3614 H         1 VAL         0.0234
    205 H57         0.3450   -0.0004    6.5739 H         1 VAL         0.0234
    206 H58         4.5567    1.6702    9.1535 H         1 LYS         0.1883
    207 H59         5.8165    3.6371    7.3042 H         1 LYS         0.0800
    208 H60         6.6420    3.0578   10.1902 H         1 LYS         0.0312
    209 H61         5.8750    4.5700    9.5973 H         1 LYS         0.0312
    210 H62         7.7966    5.2153    8.4003 H         1 LYS         0.0269
    211 H63         8.4987    3.5629    8.4568 H         1 LYS         0.0269
    212 H64         9.7149    4.9230   10.0192 H         1 LYS         0.0317
    213 H65         8.6659    3.8132   10.9649 H         1 LYS         0.0317
    214 H66         8.5443    5.9962   11.9709 H         1 LYS         0.0813
    215 H67         6.9825    5.6755   11.1434 H         1 LYS         0.0813
    216 H68         7.7902    7.8857   10.7121 H         1 LYS         0.1994
    217 H69         7.7624    7.0151    9.3154 H         1 LYS         0.1994
    218 H70         9.1936    7.3089   10.0738 H         1 LYS         0.1994
    219 H71         7.2949    2.6197    6.0265 H         1 PHE         0.1885
    220 H72         8.6164    0.2119    7.1270 H         1 PHE         0.0823
    221 H73         6.5972   -0.5316    5.8358 H         1 PHE         0.0474
    222 H74         8.1665   -1.1762    5.2454 H         1 PHE         0.0474
    223 H75         9.1709   -0.1522    3.1570 H         1 PHE         0.0557
    224 H76         5.1554    0.6112    4.3833 H         1 PHE         0.0557
    225 H77         8.6080    0.5587    0.8721 H         1 PHE         0.0599
    226 H78         4.5906    1.3057    2.0918 H         1 PHE         0.0599
    227 H79         6.3162    1.2843    0.3343 H         1 PHE         0.0559
    228 H80        10.5716   -0.3188    6.1952 H         1 LYS         0.1883
    229 H81        11.8487    1.8882    4.6822 H         1 LYS         0.0800
    230 H82        13.9459    0.4268    5.1380 H         1 LYS         0.0312
    231 H83        12.8975   -0.4633    6.2936 H         1 LYS         0.0312
    232 H84        13.5403    2.5118    6.3969 H         1 LYS         0.0269
    233 H85        14.3043    1.2310    7.3983 H         1 LYS         0.0269
    234 H86        11.8980    0.6676    8.1632 H         1 LYS         0.0317
    235 H87        11.4496    2.2605    7.4644 H         1 LYS         0.0317
    236 H88        13.5068    1.7201    9.6521 H         1 LYS         0.0813
    237 H89        11.9037    2.5078    9.8424 H         1 LYS         0.0813
    238 H90        13.6823    4.1028    9.7455 H         1 LYS         0.1994
    239 H91        12.6943    4.2840    8.4415 H         1 LYS         0.1994
    240 H92        14.1633    3.5622    8.2671 H         1 LYS         0.1994
    241 H93        12.4111    1.6461    2.5829 H         1 LYS         0.1883
    242 H94        11.9906   -1.0730    1.4336 H         1 LYS         0.0800
    243 H95        11.9097    1.5012   -0.1677 H         1 LYS         0.0312
    244 H96        10.4645    0.8918    0.7079 H         1 LYS         0.0312
    245 H97        10.4159   -1.1162   -0.5762 H         1 LYS         0.0269
    246 H98        12.0478   -0.8038   -1.2588 H         1 LYS         0.0269
    247 H99         9.6913    1.0564   -1.7267 H         1 LYS         0.0317
    248 H100       10.0360   -0.3565   -2.7809 H         1 LYS         0.0317
    249 H101       11.9641    1.9319   -2.1800 H         1 LYS         0.0813
    250 H102       10.9902    1.7473   -3.6780 H         1 LYS         0.0813
    251 H103       13.2279    0.9418   -3.9566 H         1 LYS         0.1994
    252 H104       12.1617   -0.3044   -4.0968 H         1 LYS         0.1994
    253 H105       13.0542   -0.1353   -2.7240 H         1 LYS         0.1994
    254 H106       16.4144   -0.9251    0.5955 H         1 PRO         0.0802
    255 H107       16.8814   -3.1816    0.1522 H         1 PRO         0.0313
    256 H108       15.5663   -3.3123   -1.0644 H         1 PRO         0.0313
    257 H109       15.4278   -3.4759    1.9493 H         1 PRO         0.0287
    258 H110       14.6050   -4.4812    0.7087 H         1 PRO         0.0287
    259 H111       12.9659   -2.8629    0.2980 H         1 PRO         0.0524
    260 H112       13.3187   -2.4728    2.0155 H         1 PRO         0.0524
    261 H113       17.6035   -0.2964   -1.1545 H         1 LEU         0.1883
    262 H114       18.1273    0.5810   -3.1990 H         1 LEU         0.0800
    263 H115       16.9758   -0.2097   -5.2060 H         1 LEU         0.0315
    264 H116       15.6771   -0.9307   -4.1959 H         1 LEU         0.0315
    265 H117       17.2767   -2.5197   -3.2402 H         1 LEU         0.0298
    266 H118       17.7053   -3.8540   -5.2773 H         1 LEU         0.0232
    267 H119       17.3607   -2.4102   -6.2889 H         1 LEU         0.0232
    268 H120       16.0603   -3.1324   -5.2818 H         1 LEU         0.0232
    269 H121       19.2984   -1.0980   -3.3583 H         1 LEU         0.0232
    270 H122       19.3059   -1.2661   -5.1467 H         1 LEU         0.0232
    271 H123       19.5666   -2.7082   -4.1079 H         1 LEU         0.0232
    272 H124       15.1696    4.0109   -2.7541 H         1 PRO         0.0802
    273 H125       16.7392    5.1505   -1.4358 H         1 PRO         0.0313
    274 H126       17.0889    5.9944   -2.9825 H         1 PRO         0.0313
    275 H127       18.9938    4.6630   -1.5989 H         1 PRO         0.0287
    276 H128       18.9860    4.7411   -3.3935 H         1 PRO         0.0287
    277 H129       18.9357    2.4442   -3.2742 H         1 PRO         0.0524
    278 H130       18.3492    2.4524   -1.5764 H         1 PRO         0.0524
    279 H131       14.4384    3.2048   -4.8518 H         1 LEU         0.1883
    280 H132       15.6892    4.0908   -7.3012 H         1 LEU         0.0800
    281 H133       12.8083    3.2287   -6.7904 H         1 LEU         0.0315
    282 H134       14.1786    2.1052   -7.0851 H         1 LEU         0.0315
    283 H135       13.2562    4.2269   -9.0593 H         1 LEU         0.0298
    284 H136       14.5635    2.8771  -10.6676 H         1 LEU         0.0232
    285 H137       15.0621    1.7807   -9.3350 H         1 LEU         0.0232
    286 H138       15.5858    3.4989   -9.3278 H         1 LEU         0.0232
    287 H139       11.4595    2.5815   -8.6300 H         1 LEU         0.0232
    288 H140       12.6059    1.2449   -8.9848 H         1 LEU         0.0232
    289 H141       12.1509    2.4052  -10.2784 H         1 LEU         0.0232
    290 H142       13.1216    5.2950   -5.1801 H         1 THR         0.1884
    291 H143       12.7540    7.6343   -6.9517 H         1 THR         0.0826
    292 H144       10.9038    8.2149   -5.2989 H         1 THR         0.0639
    293 H145       11.6890    6.9053   -3.5564 H         1 THR         0.2101
    294 H146        9.3528    6.4896   -6.1536 H         1 THR         0.0257
    295 H147       10.7524    5.4961   -6.6835 H         1 THR         0.0257
    296 H148       10.4458    7.0942   -7.4444 H         1 THR         0.0257
    297 H149       14.9756    8.3051   -6.4038 H         1 GLN         0.1883
    298 H150       15.0682    9.7370   -3.7850 H         1 GLN         0.0801
    299 H151       17.3444    9.0827   -5.7132 H         1 GLN         0.0337
    300 H152       16.9190    8.1221   -4.2561 H         1 GLN         0.0337
    301 H153       17.4076   10.0466   -2.8243 H         1 GLN         0.0504
    302 H154       17.7877   11.0418   -4.2706 H         1 GLN         0.0504
    303 H155       20.4948    8.3627   -2.7485 H         1 GLN         0.1814
    304 H156       18.8633    8.4211   -2.1699 H         1 GLN         0.1814
    305 H157       14.0907   13.1450   -6.5649 H         1 PRO         0.0802
    306 H158       12.5176   13.8674   -4.9880 H         1 PRO         0.0313
    307 H159       13.8029   15.0392   -4.5391 H         1 PRO         0.0313
    308 H160       12.7757   13.3432   -2.7341 H         1 PRO         0.0287
    309 H161       14.5227   13.7610   -2.7329 H         1 PRO         0.0287
    310 H162       14.7365   11.4478   -2.8623 H         1 PRO         0.0524
    311 H163       13.1463   11.2429   -3.6721 H         1 PRO         0.0524
    312 H164       15.1311   15.0093   -7.3025 H         1 GLY         0.1873
    313 H165       17.4631   15.5531   -7.8967 H         1 GLY         0.0689
    314 H166       17.8581   15.3980   -6.1512 H         1 GLY         0.0689
@<TRIPOS>BOND
     1    1    2 1  
     2    2    3 1  
     3    2    5 1  
     4    3    4 2  
     5    3    9 am 
     6    5    6 1  
     7    6    7 2  
     8    6    8 am 
     9    9   10 1  
    10   10   11 1  
    11   10   13 1  
    12   11   12 2  
    13   11   17 am 
    14   13   14 1  
    15   14   15 1  
    16   14   16 1  
    17   17   18 1  
    18   18   19 1  
    19   18   21 1  
    20   19   20 2  
    21   19   26 am 
    22   21   22 1  
    23   22   23 1  
    24   23   24 2  
    25   23   25 am 
    26   26   27 1  
    27   27   28 1  
    28   27   30 1  
    29   28   29 2  
    30   28   32 am 
    31   30   31 1  
    32   32   33 1  
    33   33   34 1  
    34   33   36 1  
    35   34   35 2  
    36   34   38 am 
    37   36   37 1  
    38   38   39 1  
    39   39   40 1  
    40   39   42 1  
    41   40   41 2  
    42   40   46 am 
    43   42   43 1  
    44   42   44 1  
    45   43   45 1  
    46   46   47 1  
    47   47   48 1  
    48   47   50 1  
    49   48   49 2  
    50   48   53 am 
    51   50   51 1  
    52   50   52 1  
    53   53   54 1  
    54   54   55 1  
    55   54   57 1  
    56   55   56 2  
    57   55   62 am 
    58   57   58 1  
    59   58   59 1  
    60   59   60 1  
    61   60   61 1  
    62   62   63 1  
    63   63   64 1  
    64   63   66 1  
    65   64   65 2  
    66   64   73 am 
    67   66   67 1  
    68   67   68 ar 
    69   67   69 ar 
    70   68   70 ar 
    71   69   71 ar 
    72   70   72 ar 
    73   71   72 ar 
    74   73   74 1  
    75   74   75 1  
    76   74   77 1  
    77   75   76 2  
    78   75   82 am 
    79   77   78 1  
    80   78   79 1  
    81   79   80 1  
    82   80   81 1  
    83   82   83 1  
    84   83   84 1  
    85   83   86 1  
    86   84   85 2  
    87   84   91 am 
    88   86   87 1  
    89   87   88 1  
    90   88   89 1  
    91   89   90 1  
    92   91   92 1  
    93   91   97 1  
    94   92   93 1  
    95   92   95 1  
    96   93   94 2  
    97   93   98 am 
    98   95   96 1  
    99   96   97 1  
   100   98   99 1  
   101   99  100 1  
   102   99  102 1  
   103  100  101 2  
   104  100  106 am 
   105  102  103 1  
   106  103  104 1  
   107  103  105 1  
   108  106  107 1  
   109  106  112 1  
   110  107  108 1  
   111  107  110 1  
   112  108  109 2  
   113  108  113 am 
   114  110  111 1  
   115  111  112 1  
   116  113  114 1  
   117  114  115 1  
   118  114  117 1  
   119  115  116 2  
   120  115  121 am 
   121  117  118 1  
   122  118  119 1  
   123  118  120 1  
   124  121  122 1  
   125  122  123 1  
   126  122  125 1  
   127  123  124 2  
   128  123  128 am 
   129  125  126 1  
   130  125  127 1  
   131  128  129 1  
   132  129  130 1  
   133  129  132 1  
   134  130  131 2  
   135  130  137 am 
   136  132  133 1  
   137  133  134 1  
   138  134  135 2  
   139  134  136 am 
   140  137  138 1  
   141  137  143 1  
   142  138  139 1  
   143  138  141 1  
   144  139  140 2  
   145  139  144 am 
   146  141  142 1  
   147  142  143 1  
   148  144  145 1  
   149  145  146 1  
   150  146  147 ar 
   151  146  148 ar 
   152    1  149 1  
   153    1  150 1  
   154    1  151 1  
   155    2  152 1  
   156    5  153 1  
   157    5  154 1  
   158    8  155 1  
   159    8  156 1  
   160    9  157 1  
   161   10  158 1  
   162   13  159 1  
   163   13  160 1  
   164   14  161 1  
   165   15  162 1  
   166   15  163 1  
   167   15  164 1  
   168   16  165 1  
   169   16  166 1  
   170   16  167 1  
   171   17  168 1  
   172   18  169 1  
   173   21  170 1  
   174   21  171 1  
   175   22  172 1  
   176   22  173 1  
   177   25  174 1  
   178   25  175 1  
   179   26  176 1  
   180   27  177 1  
   181   30  178 1  
   182   30  179 1  
   183   31  180 1  
   184   32  181 1  
   185   33  182 1  
   186   36  183 1  
   187   36  184 1  
   188   37  185 1  
   189   38  186 1  
   190   39  187 1  
   191   42  188 1  
   192   43  189 1  
   193   43  190 1  
   194   44  191 1  
   195   44  192 1  
   196   44  193 1  
   197   45  194 1  
   198   45  195 1  
   199   45  196 1  
   200   46  197 1  
   201   47  198 1  
   202   50  199 1  
   203   51  200 1  
   204   51  201 1  
   205   51  202 1  
   206   52  203 1  
   207   52  204 1  
   208   52  205 1  
   209   53  206 1  
   210   54  207 1  
   211   57  208 1  
   212   57  209 1  
   213   58  210 1  
   214   58  211 1  
   215   59  212 1  
   216   59  213 1  
   217   60  214 1  
   218   60  215 1  
   219   61  216 1  
   220   61  217 1  
   221   61  218 1  
   222   62  219 1  
   223   63  220 1  
   224   66  221 1  
   225   66  222 1  
   226   68  223 1  
   227   69  224 1  
   228   70  225 1  
   229   71  226 1  
   230   72  227 1  
   231   73  228 1  
   232   74  229 1  
   233   77  230 1  
   234   77  231 1  
   235   78  232 1  
   236   78  233 1  
   237   79  234 1  
   238   79  235 1  
   239   80  236 1  
   240   80  237 1  
   241   81  238 1  
   242   81  239 1  
   243   81  240 1  
   244   82  241 1  
   245   83  242 1  
   246   86  243 1  
   247   86  244 1  
   248   87  245 1  
   249   87  246 1  
   250   88  247 1  
   251   88  248 1  
   252   89  249 1  
   253   89  250 1  
   254   90  251 1  
   255   90  252 1  
   256   90  253 1  
   257   92  254 1  
   258   95  255 1  
   259   95  256 1  
   260   96  257 1  
   261   96  258 1  
   262   97  259 1  
   263   97  260 1  
   264   98  261 1  
   265   99  262 1  
   266  102  263 1  
   267  102  264 1  
   268  103  265 1  
   269  104  266 1  
   270  104  267 1  
   271  104  268 1  
   272  105  269 1  
   273  105  270 1  
   274  105  271 1  
   275  107  272 1  
   276  110  273 1  
   277  110  274 1  
   278  111  275 1  
   279  111  276 1  
   280  112  277 1  
   281  112  278 1  
   282  113  279 1  
   283  114  280 1  
   284  117  281 1  
   285  117  282 1  
   286  118  283 1  
   287  119  284 1  
   288  119  285 1  
   289  119  286 1  
   290  120  287 1  
   291  120  288 1  
   292  120  289 1  
   293  121  290 1  
   294  122  291 1  
   295  125  292 1  
   296  126  293 1  
   297  127  294 1  
   298  127  295 1  
   299  127  296 1  
   300  128  297 1  
   301  129  298 1  
   302  132  299 1  
   303  132  300 1  
   304  133  301 1  
   305  133  302 1  
   306  136  303 1  
   307  136  304 1  
   308  138  305 1  
   309  141  306 1  
   310  141  307 1  
   311  142  308 1  
   312  142  309 1  
   313  143  310 1  
   314  143  311 1  
   315  144  312 1  
   316  145  313 1  
   317  145  314 1  
@<TRIPOS>SUBSTRUCTURE
     1 ASN         1

