2nd0_ligand
  -I-interpret- 

315318  0  0  0  0  0  0  0  0999 V2000
   -8.2290   11.9800   14.0580 N   0  3  0  0  0
   -9.0280   11.6870   15.2710 C   0  0  0  0  0
   -8.9810   10.2040   15.6060 C   0  0  0  0  0
   -8.4830    9.8140   16.6600 O   0  0  0  0  0
  -10.4780   12.1340   15.0820 C   0  0  0  0  0
  -10.6100   13.6410   14.9910 C   0  0  0  0  0
   -9.7970   14.3820   15.5440 O   0  0  0  0  0
  -11.6370   14.1070   14.3010 N   0  0  0  0  0
   -9.5030    9.3770   14.7110 N   0  0  0  0  0
   -9.4830    7.9360   14.9040 C   0  0  0  0  0
   -8.0920    7.3870   14.6390 C   0  0  0  0  0
   -7.5490    7.5580   13.5450 O   0  0  0  0  0
  -10.4940    7.2520   13.9800 C   0  0  0  0  0
  -11.9590    7.6100   14.2300 C   0  0  0  0  0
  -12.8540    6.8970   13.2290 C   0  0  0  0  0
  -12.3610    7.2540   15.6550 C   0  0  0  0  0
   -7.5170    6.7430   15.6450 N   0  0  0  0  0
   -6.1970    6.1390   15.5200 C   0  0  0  0  0
   -6.2290    5.0170   14.4880 C   0  0  0  0  0
   -6.6650    3.9050   14.7810 O   0  0  0  0  0
   -5.7330    5.5930   16.8740 C   0  0  0  0  0
   -5.6970    6.6400   17.9750 C   0  0  0  0  0
   -5.2100    6.0780   19.2940 C   0  0  0  0  0
   -5.9980    5.6010   20.1120 O   0  0  0  0  0
   -3.9090    6.1300   19.5120 N   0  0  0  0  0
   -5.7810    5.3180   13.2800 N   0  0  0  0  0
   -5.8160    4.3560   12.1920 C   0  0  0  0  0
   -4.4480    3.7160   11.9990 C   0  0  0  0  0
   -3.4430    4.2130   12.5130 O   0  0  0  0  0
   -6.2670    5.0450   10.9060 C   0  0  0  0  0
   -7.5190    5.6870   11.0940 O   0  0  0  0  0
   -4.4230    2.6120   11.2620 N   0  0  0  0  0
   -3.2000    1.8640   11.0260 C   0  0  0  0  0
   -2.2750    2.5920   10.0510 C   0  0  0  0  0
   -2.1660    2.2240    8.8810 O   0  0  0  0  0
   -3.5490    0.4710   10.4990 C   0  0  0  0  0
   -4.5480    0.5460    9.4940 O   0  0  0  0  0
   -1.6300    3.6420   10.5400 N   0  0  0  0  0
   -0.6310    4.3510    9.7620 C   0  0  0  0  0
    0.6540    3.5410    9.7540 C   0  0  0  0  0
    1.2250    3.2520   10.8090 O   0  0  0  0  0
   -0.3580    5.7640   10.3260 C   0  0  0  0  0
   -1.6610    6.5710   10.4220 C   0  0  0  0  0
    0.6650    6.4990    9.4680 C   0  0  0  0  0
   -2.3750    6.7540    9.0970 C   0  0  0  0  0
    1.0930    3.1570    8.5700 N   0  0  0  0  0
    2.2190    2.2470    8.4390 C   0  0  0  0  0
    3.4940    2.9990    8.0970 C   0  0  0  0  0
    3.4560    4.0450    7.4580 O   0  0  0  0  0
    1.9600    1.1910    7.3430 C   0  0  0  0  0
    2.9380    0.0290    7.4480 C   0  0  0  0  0
    0.5290    0.6950    7.4060 C   0  0  0  0  0
    4.6120    2.4580    8.5400 N   0  0  0  0  0
    5.9180    2.9650    8.1690 C   0  0  0  0  0
    6.8000    1.7840    7.7930 C   0  0  0  0  0
    6.8920    0.8170    8.5530 O   0  0  0  0  0
    6.5450    3.7390    9.3320 C   0  0  0  0  0
    7.9190    4.3120    9.0160 C   0  0  0  0  0
    8.6760    4.6770   10.2840 C   0  0  0  0  0
    8.0550    5.8690   10.9940 C   0  0  0  0  0
    8.2130    7.1200   10.2110 N   0  3  0  0  0
    7.4220    1.8310    6.6280 N   0  0  0  0  0
    8.2910    0.7390    6.2180 C   0  0  0  0  0
    9.5330    1.2610    5.5150 C   0  0  0  0  0
    9.5220    2.3370    4.9140 O   0  0  0  0  0
    7.5400   -0.2760    5.3300 C   0  0  0  0  0
    7.2030    0.1840    3.9320 C   0  0  0  0  0
    8.1620    0.1720    2.9290 C   0  0  0  0  0
    5.9190    0.5960    3.6140 C   0  0  0  0  0
    7.8470    0.5680    1.6440 C   0  0  0  0  0
    5.6000    0.9880    2.3270 C   0  0  0  0  0
    6.5650    0.9750    1.3430 C   0  0  0  0  0
   10.6100    0.4990    5.6210 N   0  0  0  0  0
   11.8450    0.8160    4.9280 C   0  0  0  0  0
   11.9210    0.0100    3.6460 C   0  0  0  0  0
   11.6890   -1.2000    3.6570 O   0  0  0  0  0
   13.0700    0.5040    5.7990 C   0  0  0  0  0
   13.3840    1.5350    6.8780 C   0  0  0  0  0
   12.2680    1.6700    7.9020 C   0  0  0  0  0
   12.7580    2.3620    9.1650 C   0  0  0  0  0
   13.3740    3.6840    8.8820 N   0  3  0  0  0
   12.2320    0.6630    2.5440 N   0  0  0  0  0
   12.3160   -0.0340    1.2770 C   0  0  0  0  0
   13.7440   -0.0440    0.7630 C   0  0  0  0  0
   14.3350    1.0130    0.5300 O   0  0  0  0  0
   11.4120    0.6040    0.2290 C   0  0  0  0  0
   11.1090   -0.3370   -0.9260 C   0  0  0  0  0
   10.4790    0.3860   -2.1010 C   0  0  0  0  0
   11.5030    1.2080   -2.8680 C   0  0  0  0  0
   12.5730    0.3590   -3.4590 N   0  3  0  0  0
   14.3200   -1.2420    0.5910 N   0  0  0  0  0
   15.6390   -1.4020   -0.0220 C   0  0  0  0  0
   15.6800   -0.8140   -1.4300 C   0  0  0  0  0
   14.6720   -0.8360   -2.1440 O   0  0  0  0  0
   15.8370   -2.9200   -0.0730 C   0  0  0  0  0
   14.9250   -3.4620    0.9710 C   0  0  0  0  0
   13.7440   -2.5350    1.0030 C   0  0  0  0  0
   16.8440   -0.2860   -1.8050 N   0  0  0  0  0
   17.0640    0.3090   -3.1250 C   0  0  0  0  0
   16.2350    1.5830   -3.3090 C   0  0  0  0  0
   15.0570    1.5300   -3.6760 O   0  0  0  0  0
   16.7500   -0.6930   -4.2440 C   0  0  0  0  0
   17.5300   -2.0110   -4.1820 C   0  0  0  0  0
   17.1370   -2.9140   -5.3370 C   0  0  0  0  0
   19.0290   -1.7530   -4.2000 C   0  0  0  0  0
   16.8410    2.7520   -3.0490 N   0  0  0  0  0
   16.1680    4.0380   -3.2150 C   0  0  0  0  0
   16.0260    4.4280   -4.6850 C   0  0  0  0  0
   16.8120    5.2150   -5.2170 O   0  0  0  0  0
   17.0780    5.0190   -2.4740 C   0  0  0  0  0
   18.4330    4.3970   -2.5070 C   0  0  0  0  0
   18.2270    2.9060   -2.5710 C   0  0  0  0  0
   15.0230    3.8550   -5.3370 N   0  0  0  0  0
   14.7470    4.1430   -6.7360 C   0  0  0  0  0
   14.1670    5.5460   -6.8790 C   0  0  0  0  0
   14.4730    6.2660   -7.8270 O   0  0  0  0  0
   13.7730    3.1040   -7.3040 C   0  0  0  0  0
   13.5180    3.1880   -8.8100 C   0  0  0  0  0
   14.7690    2.8100   -9.5890 C   0  0  0  0  0
   12.3530    2.2930   -9.2030 C   0  0  0  0  0
   13.3370    5.9300   -5.9220 N   0  0  0  0  0
   12.7320    7.2480   -5.9220 C   0  0  0  0  0
   13.5120    8.2070   -5.0310 C   0  0  0  0  0
   13.0920    8.5250   -3.9160 O   0  0  0  0  0
   11.2650    7.1880   -5.4570 C   0  0  0  0  0
   11.1690    6.4660   -4.2190 O   0  0  0  0  0
   10.3940    6.5210   -6.5070 C   0  0  0  0  0
   14.6590    8.6470   -5.5190 N   0  0  0  0  0
   15.4720    9.6160   -4.8010 C   0  0  0  0  0
   15.4120   10.9590   -5.5200 C   0  0  0  0  0
   15.9700   11.1080   -6.6060 O   0  0  0  0  0
   16.9210    9.1290   -4.6990 C   0  0  0  0  0
   17.8070   10.0260   -3.8490 C   0  0  0  0  0
   19.2450    9.5480   -3.8000 C   0  0  0  0  0
   20.0680    9.9340   -4.6280 O   0  0  0  0  0
   19.5600    8.7090   -2.8270 N   0  0  0  0  0
   14.7140   11.9450   -4.9360 N   0  0  0  0  0
   14.5280   13.2590   -5.5620 C   0  0  0  0  0
   15.8320   14.0440   -5.6770 C   0  0  0  0  0
   16.7580   13.8610   -4.8810 O   0  0  0  0  0
   13.5500   13.9720   -4.6230 C   0  0  0  0  0
   13.7120   13.2910   -3.3090 C   0  0  0  0  0
   14.0540   11.8620   -3.6190 C   0  0  0  0  0
   15.9050   14.9100   -6.6770 N   0  0  0  0  0
   17.0910   15.7130   -6.8740 C   0  0  0  0  0
   16.8120   17.1860   -6.6800 C   0  0  0  0  0
   15.6790   17.6200   -6.9750 O   0  0  0  0  0
   17.7140   17.9130   -6.2220 O   0  0  0  0  0
   -7.2668   11.6748   14.2042 H   0  0  0  0  0
   -8.6274   11.4826   13.2616 H   0  0  0  0  0
   -8.2448   12.9835   13.8761 H   0  0  0  0  0
   -8.5933   12.2443   16.1008 H   0  0  0  0  0
  -11.0505   11.7966   15.9460 H   0  0  0  0  0
  -10.8442   11.7062   14.1487 H   0  0  0  0  0
  -11.7774   15.1134   14.2124 H   0  0  0  0  0
  -12.2889   13.4601   13.8572 H   0  0  0  0  0
   -9.9287    9.7606   13.8672 H   0  0  0  0  0
   -9.7575    7.7284   15.9382 H   0  0  0  0  0
  -10.4013    6.1804   14.1567 H   0  0  0  0  0
  -10.2619    7.5813   12.9672 H   0  0  0  0  0
  -12.0803    8.6853   14.0994 H   0  0  0  0  0
  -12.5802    7.2001   12.2184 H   0  0  0  0  0
  -12.7273    5.8194   13.3334 H   0  0  0  0  0
  -13.8939    7.1621   13.4200 H   0  0  0  0  0
  -12.2261    6.1839   15.8126 H   0  0  0  0  0
  -11.7366    7.8075   16.3563 H   0  0  0  0  0
  -13.4071    7.5167   15.8124 H   0  0  0  0  0
   -8.0134    6.6681   16.5329 H   0  0  0  0  0
   -5.4933    6.9032   15.1898 H   0  0  0  0  0
   -4.7166    5.2211   16.7445 H   0  0  0  0  0
   -6.4451    4.8255   17.1773 H   0  0  0  0  0
   -6.7120    7.0094   18.1211 H   0  0  0  0  0
   -5.0067    7.4261   17.6690 H   0  0  0  0  0
   -3.5230    5.7670   20.3836 H   0  0  0  0  0
   -3.2898    6.5331   18.8088 H   0  0  0  0  0
   -5.4014    6.2491   13.1083 H   0  0  0  0  0
   -6.5280    3.5693   12.4417 H   0  0  0  0  0
   -6.3695    4.2952   10.1215 H   0  0  0  0  0
   -5.5251    5.7936   10.6282 H   0  0  0  0  0
   -7.7847    6.1134   10.2760 H   0  0  0  0  0
   -5.2926    2.2773   10.8470 H   0  0  0  0  0
   -2.6645    1.7713   11.9708 H   0  0  0  0  0
   -3.9268   -0.1319   11.3248 H   0  0  0  0  0
   -2.6525    0.0237   10.0697 H   0  0  0  0  0
   -4.7504   -0.3380    9.1790 H   0  0  0  0  0
   -1.8411    3.9592   11.4862 H   0  0  0  0  0
   -1.0096    4.4730    8.7472 H   0  0  0  0  0
    0.0526    5.6554   11.3299 H   0  0  0  0  0
   -1.3991    7.5641   10.7870 H   0  0  0  0  0
   -2.3345    6.0191   11.0777 H   0  0  0  0  0
    1.5990    5.9372    9.4571 H   0  0  0  0  0
    0.2841    6.5928    8.4510 H   0  0  0  0  0
    0.8410    7.4909    9.8844 H   0  0  0  0  0
   -1.7207    7.2815    8.4029 H   0  0  0  0  0
   -2.6313    5.7776    8.6859 H   0  0  0  0  0
   -3.2846    7.3341    9.2529 H   0  0  0  0  0
    0.6326    3.5060    7.7294 H   0  0  0  0  0
    2.3365    1.7492    9.4015 H   0  0  0  0  0
    2.1177    1.6698    6.3766 H   0  0  0  0  0
    3.9562    0.4015    7.3362 H   0  0  0  0  0
    2.8294   -0.4487    8.4217 H   0  0  0  0  0
    2.7261   -0.6948    6.6611 H   0  0  0  0  0
    0.3445    0.2446    8.3813 H   0  0  0  0  0
   -0.1516    1.5332    7.2569 H   0  0  0  0  0
    0.3687   -0.0482    6.6249 H   0  0  0  0  0
    4.5556    1.6545    9.1658 H   0  0  0  0  0
    5.8211    3.6473    7.3245 H   0  0  0  0  0
    6.6658    3.0409   10.1604 H   0  0  0  0  0
    5.8864    4.5776    9.5578 H   0  0  0  0  0
    7.7877    5.2153    8.4202 H   0  0  0  0  0
    8.4920    3.5576    8.4769 H   0  0  0  0  0
    9.6975    4.9386   10.0080 H   0  0  0  0  0
    8.6422    3.8222   10.9594 H   0  0  0  0  0
    8.5590    5.9982   11.9518 H   0  0  0  0  0
    6.9897    5.6759   11.1203 H   0  0  0  0  0
    7.7849    7.8940   10.7190 H   0  0  0  0  0
    9.2055    7.3101   10.0728 H   0  0  0  0  0
    7.7568    7.0126    9.3051 H   0  0  0  0  0
    7.2923    2.6355    6.0145 H   0  0  0  0  0
    8.6094    0.2176    7.1207 H   0  0  0  0  0
    6.5882   -0.4684    5.8252 H   0  0  0  0  0
    8.2048   -1.1324    5.2170 H   0  0  0  0  0
    9.1765   -0.1540    3.1583 H   0  0  0  0  0
    5.1512    0.6113    4.3875 H   0  0  0  0  0
    8.6122    0.5587    0.8678 H   0  0  0  0  0
    4.5850    1.3074    2.0905 H   0  0  0  0  0
    6.3148    1.2860    0.3287 H   0  0  0  0  0
   10.5708   -0.3352    6.2067 H   0  0  0  0  0
   11.8483    1.8829    4.7048 H   0  0  0  0  0
   13.9303    0.4812    5.1300 H   0  0  0  0  0
   12.8551   -0.4317    6.3152 H   0  0  0  0  0
   13.5104    2.5019    6.3908 H   0  0  0  0  0
   14.2820    1.2083    7.4023 H   0  0  0  0  0
   11.9171    0.6725    8.1666 H   0  0  0  0  0
   11.4678    2.2684    7.4665 H   0  0  0  0  0
   13.5157    1.7279    9.6253 H   0  0  0  0  0
   11.8995    2.5220    9.8173 H   0  0  0  0  0
   13.6856    4.1068    9.7564 H   0  0  0  0  0
   14.1725    3.5595    8.2597 H   0  0  0  0  0
   12.6854    4.2902    8.4363 H   0  0  0  0  0
   12.4147    1.6657    2.5837 H   0  0  0  0  0
   11.9840   -1.0576    1.4508 H   0  0  0  0  0
   11.9262    1.4768   -0.1733 H   0  0  0  0  0
   10.4685    0.8621    0.7099 H   0  0  0  0  0
   10.4053   -1.0914   -0.5742 H   0  0  0  0  0
   12.0482   -0.7768   -1.2615 H   0  0  0  0  0
    9.7126    1.0605   -1.7191 H   0  0  0  0  0
   10.0586   -0.3581   -2.7775 H   0  0  0  0  0
   11.9683    1.9064   -2.1725 H   0  0  0  0  0
   10.9880    1.7206   -3.6805 H   0  0  0  0  0
   13.2350    0.9497   -3.9622 H   0  0  0  0  0
   13.0591   -0.1406   -2.7144 H   0  0  0  0  0
   12.1556   -0.3119   -4.1041 H   0  0  0  0  0
   16.4171   -0.8837    0.5384 H   0  0  0  0  0
   16.8743   -3.1988    0.1122 H   0  0  0  0  0
   15.6084   -3.3246   -1.0590 H   0  0  0  0  0
   15.4178   -3.5104    1.9420 H   0  0  0  0  0
   14.6215   -4.4834    0.7413 H   0  0  0  0  0
   12.9347   -2.8621    0.3502 H   0  0  0  0  0
   13.2702   -2.4911    1.9837 H   0  0  0  0  0
   17.6186   -0.2966   -1.1415 H   0  0  0  0  0
   18.1189    0.5764   -3.1861 H   0  0  0  0  0
   17.0270   -0.2105   -5.1813 H   0  0  0  0  0
   15.6953   -0.9499   -4.1456 H   0  0  0  0  0
   17.2796   -2.5110   -3.2464 H   0  0  0  0  0
   16.0700   -3.1296   -5.2812 H   0  0  0  0  0
   17.3591   -2.4136   -6.2796 H   0  0  0  0  0
   17.7007   -3.8450   -5.2768 H   0  0  0  0  0
   19.2952   -1.2293   -5.1181 H   0  0  0  0  0
   19.3016   -1.1419   -3.3395 H   0  0  0  0  0
   19.5605   -2.7036   -4.1552 H   0  0  0  0  0
   15.1487    4.0206   -2.8293 H   0  0  0  0  0
   16.7385    5.1890   -1.4523 H   0  0  0  0  0
   17.0756    6.0027   -2.9435 H   0  0  0  0  0
   19.0065    4.6710   -1.6215 H   0  0  0  0  0
   18.9989    4.7471   -3.3703 H   0  0  0  0  0
   18.9457    2.4196   -3.2305 H   0  0  0  0  0
   18.3840    2.4275   -1.6043 H   0  0  0  0  0
   14.4267    3.1918   -4.8421 H   0  0  0  0  0
   15.6797    4.0928   -7.2978 H   0  0  0  0  0
   12.8137    3.2819   -6.8180 H   0  0  0  0  0
   14.2216    2.1276   -7.1207 H   0  0  0  0  0
   13.2606    4.2179   -9.0572 H   0  0  0  0  0
   15.5775    3.4933   -9.3293 H   0  0  0  0  0
   15.0584    1.7899   -9.3364 H   0  0  0  0  0
   14.5642    2.8769  -10.6575 H   0  0  0  0  0
   12.5842    1.2610   -8.9392 H   0  0  0  0  0
   11.4559    2.6127   -8.6727 H   0  0  0  0  0
   12.1868    2.3661  -10.2778 H   0  0  0  0  0
   13.1173    5.2823   -5.1652 H   0  0  0  0  0
   12.7592    7.6163   -6.9475 H   0  0  0  0  0
   10.9122    8.2086   -5.3084 H   0  0  0  0  0
   10.2514    6.4346   -3.9385 H   0  0  0  0  0
   10.4462    7.0899   -7.4353 H   0  0  0  0  0
   10.7501    5.5056   -6.6810 H   0  0  0  0  0
    9.3626    6.4904   -6.1557 H   0  0  0  0  0
   14.9819    8.2983   -6.4215 H   0  0  0  0  0
   15.0812    9.7321   -3.7901 H   0  0  0  0  0
   17.3349    9.1221   -5.7073 H   0  0  0  0  0
   16.9029    8.1465   -4.2274 H   0  0  0  0  0
   17.4157   10.0169   -2.8317 H   0  0  0  0  0
   17.7996   11.0218   -4.2922 H   0  0  0  0  0
   20.5145    8.3590   -2.7445 H   0  0  0  0  0
   18.8484    8.4121   -2.1593 H   0  0  0  0  0
   14.1643   13.1696   -6.5856 H   0  0  0  0  0
   12.5240   13.9109   -4.9860 H   0  0  0  0  0
   13.7615   15.0391   -4.5539 H   0  0  0  0  0
   12.7998   13.3577   -2.7161 H   0  0  0  0  0
   14.4945   13.7630   -2.7149 H   0  0  0  0  0
   14.6919   11.4103   -2.8593 H   0  0  0  0  0
   13.1768   11.2151   -3.6308 H   0  0  0  0  0
   15.1157   15.0113   -7.3150 H   0  0  0  0  0
   17.4402   15.5626   -7.8956 H   0  0  0  0  0
   17.8372   15.4067   -6.1409 H   0  0  0  0  0
   15.1386   16.9000   -7.3086 H   0  0  0  0  0
  1  2  1  0  0  0
  2  3  1  0  0  0
  2  5  1  0  0  0
  3  4  2  0  0  0
  3  9  1  0  0  0
  5  6  1  0  0  0
  6  7  2  0  0  0
  6  8  1  0  0  0
  9 10  1  0  0  0
 10 11  1  0  0  0
 10 13  1  0  0  0
 11 12  2  0  0  0
 11 17  1  0  0  0
 13 14  1  0  0  0
 14 15  1  0  0  0
 14 16  1  0  0  0
 17 18  1  0  0  0
 18 19  1  0  0  0
 18 21  1  0  0  0
 19 20  2  0  0  0
 19 26  1  0  0  0
 21 22  1  0  0  0
 22 23  1  0  0  0
 23 24  2  0  0  0
 23 25  1  0  0  0
 26 27  1  0  0  0
 27 28  1  0  0  0
 27 30  1  0  0  0
 28 29  2  0  0  0
 28 32  1  0  0  0
 30 31  1  0  0  0
 32 33  1  0  0  0
 33 34  1  0  0  0
 33 36  1  0  0  0
 34 35  2  0  0  0
 34 38  1  0  0  0
 36 37  1  0  0  0
 38 39  1  0  0  0
 39 40  1  0  0  0
 39 42  1  0  0  0
 40 41  2  0  0  0
 40 46  1  0  0  0
 42 43  1  0  0  0
 42 44  1  0  0  0
 43 45  1  0  0  0
 46 47  1  0  0  0
 47 48  1  0  0  0
 47 50  1  0  0  0
 48 49  2  0  0  0
 48 53  1  0  0  0
 50 51  1  0  0  0
 50 52  1  0  0  0
 53 54  1  0  0  0
 54 55  1  0  0  0
 54 57  1  0  0  0
 55 56  2  0  0  0
 55 62  1  0  0  0
 57 58  1  0  0  0
 58 59  1  0  0  0
 59 60  1  0  0  0
 60 61  1  0  0  0
 62 63  1  0  0  0
 63 64  1  0  0  0
 63 66  1  0  0  0
 64 65  2  0  0  0
 64 73  1  0  0  0
 66 67  1  0  0  0
 67 68  4  0  0  0
 67 69  4  0  0  0
 68 70  4  0  0  0
 69 71  4  0  0  0
 70 72  4  0  0  0
 71 72  4  0  0  0
 73 74  1  0  0  0
 74 75  1  0  0  0
 74 77  1  0  0  0
 75 76  2  0  0  0
 75 82  1  0  0  0
 77 78  1  0  0  0
 78 79  1  0  0  0
 79 80  1  0  0  0
 80 81  1  0  0  0
 82 83  1  0  0  0
 83 84  1  0  0  0
 83 86  1  0  0  0
 84 85  2  0  0  0
 84 91  1  0  0  0
 86 87  1  0  0  0
 87 88  1  0  0  0
 88 89  1  0  0  0
 89 90  1  0  0  0
 91 92  1  0  0  0
 91 97  1  0  0  0
 92 93  1  0  0  0
 92 95  1  0  0  0
 93 94  2  0  0  0
 93 98  1  0  0  0
 95 96  1  0  0  0
 96 97  1  0  0  0
 98 99  1  0  0  0
 99100  1  0  0  0
 99102  1  0  0  0
100101  2  0  0  0
100106  1  0  0  0
102103  1  0  0  0
103104  1  0  0  0
103105  1  0  0  0
106107  1  0  0  0
106112  1  0  0  0
107108  1  0  0  0
107110  1  0  0  0
108109  2  0  0  0
108113  1  0  0  0
110111  1  0  0  0
111112  1  0  0  0
113114  1  0  0  0
114115  1  0  0  0
114117  1  0  0  0
115116  2  0  0  0
115121  1  0  0  0
117118  1  0  0  0
118119  1  0  0  0
118120  1  0  0  0
121122  1  0  0  0
122123  1  0  0  0
122125  1  0  0  0
123124  2  0  0  0
123128  1  0  0  0
125126  1  0  0  0
125127  1  0  0  0
128129  1  0  0  0
129130  1  0  0  0
129132  1  0  0  0
130131  2  0  0  0
130137  1  0  0  0
132133  1  0  0  0
133134  1  0  0  0
134135  2  0  0  0
134136  1  0  0  0
137138  1  0  0  0
137143  1  0  0  0
138139  1  0  0  0
138141  1  0  0  0
139140  2  0  0  0
139144  1  0  0  0
141142  1  0  0  0
142143  1  0  0  0
144145  1  0  0  0
145146  1  0  0  0
146147  1  0  0  0
146148  2  0  0  0
  1149  1  0  0  0
  1150  1  0  0  0
  1151  1  0  0  0
  2152  1  0  0  0
  5153  1  0  0  0
  5154  1  0  0  0
  8155  1  0  0  0
  8156  1  0  0  0
  9157  1  0  0  0
 10158  1  0  0  0
 13159  1  0  0  0
 13160  1  0  0  0
 14161  1  0  0  0
 15162  1  0  0  0
 15163  1  0  0  0
 15164  1  0  0  0
 16165  1  0  0  0
 16166  1  0  0  0
 16167  1  0  0  0
 17168  1  0  0  0
 18169  1  0  0  0
 21170  1  0  0  0
 21171  1  0  0  0
 22172  1  0  0  0
 22173  1  0  0  0
 25174  1  0  0  0
 25175  1  0  0  0
 26176  1  0  0  0
 27177  1  0  0  0
 30178  1  0  0  0
 30179  1  0  0  0
 31180  1  0  0  0
 32181  1  0  0  0
 33182  1  0  0  0
 36183  1  0  0  0
 36184  1  0  0  0
 37185  1  0  0  0
 38186  1  0  0  0
 39187  1  0  0  0
 42188  1  0  0  0
 43189  1  0  0  0
 43190  1  0  0  0
 44191  1  0  0  0
 44192  1  0  0  0
 44193  1  0  0  0
 45194  1  0  0  0
 45195  1  0  0  0
 45196  1  0  0  0
 46197  1  0  0  0
 47198  1  0  0  0
 50199  1  0  0  0
 51200  1  0  0  0
 51201  1  0  0  0
 51202  1  0  0  0
 52203  1  0  0  0
 52204  1  0  0  0
 52205  1  0  0  0
 53206  1  0  0  0
 54207  1  0  0  0
 57208  1  0  0  0
 57209  1  0  0  0
 58210  1  0  0  0
 58211  1  0  0  0
 59212  1  0  0  0
 59213  1  0  0  0
 60214  1  0  0  0
 60215  1  0  0  0
 61216  1  0  0  0
 61217  1  0  0  0
 61218  1  0  0  0
 62219  1  0  0  0
 63220  1  0  0  0
 66221  1  0  0  0
 66222  1  0  0  0
 68223  1  0  0  0
 69224  1  0  0  0
 70225  1  0  0  0
 71226  1  0  0  0
 72227  1  0  0  0
 73228  1  0  0  0
 74229  1  0  0  0
 77230  1  0  0  0
 77231  1  0  0  0
 78232  1  0  0  0
 78233  1  0  0  0
 79234  1  0  0  0
 79235  1  0  0  0
 80236  1  0  0  0
 80237  1  0  0  0
 81238  1  0  0  0
 81239  1  0  0  0
 81240  1  0  0  0
 82241  1  0  0  0
 83242  1  0  0  0
 86243  1  0  0  0
 86244  1  0  0  0
 87245  1  0  0  0
 87246  1  0  0  0
 88247  1  0  0  0
 88248  1  0  0  0
 89249  1  0  0  0
 89250  1  0  0  0
 90251  1  0  0  0
 90252  1  0  0  0
 90253  1  0  0  0
 92254  1  0  0  0
 95255  1  0  0  0
 95256  1  0  0  0
 96257  1  0  0  0
 96258  1  0  0  0
 97259  1  0  0  0
 97260  1  0  0  0
 98261  1  0  0  0
 99262  1  0  0  0
102263  1  0  0  0
102264  1  0  0  0
103265  1  0  0  0
104266  1  0  0  0
104267  1  0  0  0
104268  1  0  0  0
105269  1  0  0  0
105270  1  0  0  0
105271  1  0  0  0
107272  1  0  0  0
110273  1  0  0  0
110274  1  0  0  0
111275  1  0  0  0
111276  1  0  0  0
112277  1  0  0  0
112278  1  0  0  0
113279  1  0  0  0
114280  1  0  0  0
117281  1  0  0  0
117282  1  0  0  0
118283  1  0  0  0
119284  1  0  0  0
119285  1  0  0  0
119286  1  0  0  0
120287  1  0  0  0
120288  1  0  0  0
120289  1  0  0  0
121290  1  0  0  0
122291  1  0  0  0
125292  1  0  0  0
126293  1  0  0  0
127294  1  0  0  0
127295  1  0  0  0
127296  1  0  0  0
128297  1  0  0  0
129298  1  0  0  0
132299  1  0  0  0
132300  1  0  0  0
133301  1  0  0  0
133302  1  0  0  0
136303  1  0  0  0
136304  1  0  0  0
138305  1  0  0  0
141306  1  0  0  0
141307  1  0  0  0
142308  1  0  0  0
142309  1  0  0  0
143310  1  0  0  0
143311  1  0  0  0
144312  1  0  0  0
145313  1  0  0  0
145314  1  0  0  0
147315  1  0  0  0
M  END
$$$$
