### 
### Created by X-TOOL on Mon Sep 10 21:12:56 2018
### 

@<TRIPOS>MOLECULE
2jo9_ligand
  137   141     1     0     0
SMALL
GAST_HUCK


@<TRIPOS>ATOM
      1 N          11.9950    1.3150   12.2890 N.4       1 GLU         0.2380
      2 CA         11.5520    2.6830   12.6330 C.3       1 GLU         0.0665
      3 C          11.4210    3.5430   11.3830 C.2       1 GLU         0.2268
      4 O          12.3070    4.3400   11.0730 O.2       1 GLU        -0.3907
      5 CB         12.5230    3.3610   13.6070 C.3       1 GLU         0.0194
      6 CG         12.6770    2.6480   14.9430 C.3       1 GLU         0.0075
      7 CD         13.4070    1.3300   14.8140 C.2       1 GLU         0.0351
      8 OE1        14.6480    1.3390   14.7870 O.co2     1 GLU        -0.5690
      9 OE2        12.7350    0.2840   14.7030 O.co2     1 GLU        -0.5690
     10 N          10.3350    3.3660   10.6460 N.am      1 GLU        -0.2609
     11 CA         10.0520    4.2360    9.5170 C.3       1 GLU         0.1328
     12 C           8.6450    4.7880    9.6540 C.2       1 GLU         0.2065
     13 O           7.7730    4.1160   10.2090 O.2       1 GLU        -0.3942
     14 CB         10.1530    3.4450    8.2060 C.3       1 GLU        -0.0008
     15 CG         11.4480    2.6620    8.0420 C.3       1 GLU         0.0044
     16 CD         11.4140    1.7470    6.8390 C.2       1 GLU         0.0350
     17 OE1        10.9640    0.5860    6.9740 O.co2     1 GLU        -0.5690
     18 OE2        11.8360    2.1750    5.7470 O.co2     1 GLU        -0.5690
     19 N           8.3870    6.0050    9.1710 N.am      1 PRO        -0.2498
     20 CA          7.0310    6.5240    9.0880 C.3       1 PRO         0.1340
     21 C           6.2840    5.9450    7.8940 C.2       1 PRO         0.2066
     22 O           6.8960    5.6250    6.8700 O.2       1 PRO        -0.3942
     23 CB          7.2460    8.0270    8.9270 C.3       1 PRO        -0.0104
     24 CG          8.5560    8.1470    8.2250 C.3       1 PRO        -0.0281
     25 CD          9.3850    6.9690    8.6690 C.3       1 PRO         0.0369
     26 N           4.9660    5.7820    8.0050 N.am      1 PRO        -0.2498
     27 CA          4.0990    5.5920    6.8490 C.3       1 PRO         0.1340
     28 C           3.8350    6.9270    6.1560 C.2       1 PRO         0.2066
     29 O           3.8280    7.9760    6.8080 O.2       1 PRO        -0.3942
     30 CB          2.7960    5.0260    7.4450 C.3       1 PRO        -0.0104
     31 CG          3.0760    4.7950    8.8970 C.3       1 PRO        -0.0281
     32 CD          4.2140    5.7040    9.2590 C.3       1 PRO         0.0369
     33 N           3.6400    6.9300    4.8370 N.am      1 PRO        -0.2498
     34 CA          3.1770    8.1200    4.1460 C.3       1 PRO         0.1340
     35 C           1.6800    8.2880    4.3610 C.2       1 PRO         0.2066
     36 O           0.9620    7.2980    4.4980 O.2       1 PRO        -0.3942
     37 CB          3.5010    7.8350    2.6810 C.3       1 PRO        -0.0104
     38 CG          3.4870    6.3470    2.5660 C.3       1 PRO        -0.0281
     39 CD          3.8630    5.7980    3.9230 C.3       1 PRO         0.0369
     40 N           1.1750    9.5220    4.3920 N.am      1 PRO        -0.2498
     41 CA         -0.2320    9.7610    4.6730 C.3       1 PRO         0.1338
     42 C          -1.0910    9.4740    3.4530 C.2       1 PRO         0.2042
     43 O          -0.6440    9.6350    2.3120 O.2       1 PRO        -0.3944
     44 CB         -0.2870   11.2570    5.0310 C.3       1 PRO        -0.0104
     45 CG          1.1340   11.7350    5.0330 C.3       1 PRO        -0.0281
     46 CD          1.9100   10.7680    4.1870 C.3       1 PRO         0.0369
     47 N          -2.3200    9.0350    3.6880 N.am      1 TYR        -0.2621
     48 CA         -3.2200    8.7400    2.5970 C.3       1 TYR         0.1390
     49 C          -3.8000   10.0280    2.0350 C.2       1 TYR         0.2057
     50 O          -4.7250   10.6160    2.5950 O.2       1 TYR        -0.3942
     51 CB         -4.3380    7.7790    3.0200 C.3       1 TYR         0.0163
     52 CG         -5.3430    7.5360    1.9160 C.ar      1 TYR        -0.0493
     53 CD1        -5.0890    6.6080    0.9190 C.ar      1 TYR        -0.0685
     54 CD2        -6.5290    8.2580    1.8550 C.ar      1 TYR        -0.0685
     55 CE1        -5.9890    6.3980   -0.1060 C.ar      1 TYR        -0.0398
     56 CE2        -7.4330    8.0570    0.8320 C.ar      1 TYR        -0.0398
     57 CZ         -7.1580    7.1230   -0.1460 C.ar      1 TYR         0.0805
     58 OH         -8.0540    6.9130   -1.1660 O.3       1 TYR        -0.3376
     59 N          -3.2000   10.4680    0.9510 N.am      1 GLU        -0.2635
     60 CA         -3.6600   11.6210    0.2120 C.3       1 GLU         0.1324
     61 C          -3.0070   11.5830   -1.1590 C.2       1 GLU         0.2035
     62 O          -1.7890   11.7400   -1.2730 O.2       1 GLU        -0.3944
     63 CB         -3.2910   12.9140    0.9380 C.3       1 GLU        -0.0008
     64 CG         -4.1420   14.0970    0.5240 C.3       1 GLU         0.0044
     65 CD         -5.5280   14.0610    1.1330 C.2       1 GLU         0.0350
     66 OE1        -5.6740   14.4370    2.3180 O.co2     1 GLU        -0.5690
     67 OE2        -6.4830   13.6690    0.4330 O.co2     1 GLU        -0.5690
     68 N          -3.8030   11.3270   -2.1840 N.am      1 ASP        -0.2679
     69 CA         -3.2730   11.1570   -3.5310 C.3       1 ASP         0.1057
     70 C          -2.7510   12.4770   -4.0760 C.2       1 ASP         0.0618
     71 O          -1.5420   12.5580   -4.3770 O.co2     1 ASP        -0.5665
     72 CB         -4.3320   10.5800   -4.4720 C.3       1 ASP         0.0351
     73 CG         -3.7720   10.3020   -5.8500 C.2       1 ASP         0.0387
     74 OD1        -2.9160    9.3960   -5.9790 O.co2     1 ASP        -0.5688
     75 OD2        -4.1720   10.9880   -6.8140 O.co2     1 ASP        -0.5688
     76 OXT        -3.5410   13.4370   -4.1650 O.co2     1 ASP        -0.5665
     77 H1         12.0743    0.7659   13.1306 H         1 GLU         0.2015
     78 H2         12.8914    1.3575   11.8299 H         1 GLU         0.2015
     79 H3         11.3214    0.8888   11.6720 H         1 GLU         0.2015
     80 H4         10.5661    2.6123   13.1157 H         1 GLU         0.1099
     81 H5         12.1586    4.3805   13.8016 H         1 GLU         0.0363
     82 H6         13.5119    3.4103   13.1278 H         1 GLU         0.0363
     83 H7         11.6766    2.4581   15.3591 H         1 GLU         0.0434
     84 H8         13.2414    3.2985   15.6273 H         1 GLU         0.0434
     85 H9          9.7020    2.6247   10.8691 H         1 GLU         0.1885
     86 H10        10.7752    5.0647    9.5024 H         1 GLU         0.0801
     87 H11        10.0716    4.1542    7.3691 H         1 GLU         0.0330
     88 H12         9.3142    2.7344    8.1674 H         1 GLU         0.0330
     89 H13        11.6114    2.0546    8.9444 H         1 GLU         0.0433
     90 H14        12.2790    3.3728    7.9230 H         1 GLU         0.0433
     91 H15         6.4704    6.3037   10.0084 H         1 PRO         0.0802
     92 H16         7.2852    8.5210    9.9090 H         1 PRO         0.0313
     93 H17         6.4405    8.4721    8.3245 H         1 PRO         0.0313
     94 H18         9.0523    9.0883    8.5036 H         1 PRO         0.0287
     95 H19         8.4079    8.1191    7.1354 H         1 PRO         0.0287
     96 H20         9.9483    6.5457    7.8243 H         1 PRO         0.0524
     97 H21        10.0841    7.2604    9.4667 H         1 PRO         0.0524
     98 H22         4.5447    4.8845    6.1343 H         1 PRO         0.0802
     99 H23         2.5288    4.0799    6.9516 H         1 PRO         0.0313
    100 H24         1.9746    5.7475    7.3238 H         1 PRO         0.0313
    101 H25         3.3582    3.7456    9.0678 H         1 PRO         0.0287
    102 H26         2.1882    5.0386    9.4991 H         1 PRO         0.0287
    103 H27         3.8491    6.6951    9.5664 H         1 PRO         0.0524
    104 H28         4.8269    5.2728   10.0643 H         1 PRO         0.0524
    105 H29         3.7061    9.0178    4.4981 H         1 PRO         0.0802
    106 H30         4.4922    8.2339    2.4193 H         1 PRO         0.0313
    107 H31         2.7408    8.2810    2.0228 H         1 PRO         0.0313
    108 H32         4.2159    6.0192    1.8102 H         1 PRO         0.0287
    109 H33         2.4828    5.9990    2.2822 H         1 PRO         0.0287
    110 H34         3.2216    4.9457    4.1918 H         1 PRO         0.0524
    111 H35         4.9169    5.4834    3.9395 H         1 PRO         0.0524
    112 H36        -0.5729    9.1421    5.5160 H         1 PRO         0.0802
    113 H37        -0.7381   11.3957    6.0246 H         1 PRO         0.0313
    114 H38        -0.8742   11.8078    4.2815 H         1 PRO         0.0313
    115 H39         1.5302   11.7450    6.0591 H         1 PRO         0.0287
    116 H40         1.1951   12.7471    4.6064 H         1 PRO         0.0287
    117 H41         1.9008   11.0673    3.1285 H         1 PRO         0.0524
    118 H42         2.9500   10.6796    4.5341 H         1 PRO         0.0524
    119 H43        -2.6273    8.9067    4.6309 H         1 TYR         0.1885
    120 H44        -2.6389    8.2502    1.8018 H         1 TYR         0.0821
    121 H45        -4.8628    8.2081    3.8862 H         1 TYR         0.0453
    122 H46        -3.8871    6.8168    3.3042 H         1 TYR         0.0453
    123 H47        -4.1678    6.0372    0.9445 H         1 TYR         0.0530
    124 H48        -6.7474    8.9908    2.6234 H         1 TYR         0.0530
    125 H49        -5.7760    5.6653   -0.8760 H         1 TYR         0.0525
    126 H50        -8.3531    8.6290    0.7968 H         1 TYR         0.0525
    127 H51        -7.7166    6.2437   -1.7496 H         1 TYR         0.2458
    128 H52        -2.3891    9.9830    0.6235 H         1 GLU         0.1883
    129 H53        -4.7533   11.5729    0.1010 H         1 GLU         0.0801
    130 H54        -2.2383   13.1482    0.7210 H         1 GLU         0.0330
    131 H55        -3.4160   12.7553    2.0193 H         1 GLU         0.0330
    132 H56        -4.2389   14.0946   -0.5717 H         1 GLU         0.0433
    133 H57        -3.6401   15.0214    0.8458 H         1 GLU         0.0433
    134 H58        -4.7882   11.2485   -2.0316 H         1 ASP         0.1876
    135 H59        -2.4337   10.4477   -3.4812 H         1 ASP         0.0745
    136 H60        -5.1578   11.3010   -4.5627 H         1 ASP         0.0471
    137 H61        -4.7115    9.6395   -4.0461 H         1 ASP         0.0471
@<TRIPOS>BOND
     1    1    2 1  
     2    2    3 1  
     3    2    5 1  
     4    3    4 2  
     5    3   10 am 
     6    5    6 1  
     7    6    7 1  
     8    7    8 ar 
     9    7    9 ar 
    10   10   11 1  
    11   11   12 1  
    12   11   14 1  
    13   12   13 2  
    14   12   19 am 
    15   14   15 1  
    16   15   16 1  
    17   16   17 ar 
    18   16   18 ar 
    19   19   20 1  
    20   19   25 1  
    21   20   21 1  
    22   20   23 1  
    23   21   22 2  
    24   21   26 am 
    25   23   24 1  
    26   24   25 1  
    27   26   27 1  
    28   26   32 1  
    29   27   28 1  
    30   27   30 1  
    31   28   29 2  
    32   28   33 am 
    33   30   31 1  
    34   31   32 1  
    35   33   34 1  
    36   33   39 1  
    37   34   35 1  
    38   34   37 1  
    39   35   36 2  
    40   35   40 am 
    41   37   38 1  
    42   38   39 1  
    43   40   41 1  
    44   40   46 1  
    45   41   42 1  
    46   41   44 1  
    47   42   43 2  
    48   42   47 am 
    49   44   45 1  
    50   45   46 1  
    51   47   48 1  
    52   48   49 1  
    53   48   51 1  
    54   49   50 2  
    55   49   59 am 
    56   51   52 1  
    57   52   53 ar 
    58   52   54 ar 
    59   53   55 ar 
    60   54   56 ar 
    61   55   57 ar 
    62   56   57 ar 
    63   57   58 1  
    64   59   60 1  
    65   60   61 1  
    66   60   63 1  
    67   61   62 2  
    68   61   68 am 
    69   63   64 1  
    70   64   65 1  
    71   65   66 ar 
    72   65   67 ar 
    73   68   69 1  
    74   69   70 1  
    75   69   72 1  
    76   70   71 ar 
    77   70   76 ar 
    78   72   73 1  
    79   73   74 ar 
    80   73   75 ar 
    81    1   77 1  
    82    1   78 1  
    83    1   79 1  
    84    2   80 1  
    85    5   81 1  
    86    5   82 1  
    87    6   83 1  
    88    6   84 1  
    89   10   85 1  
    90   11   86 1  
    91   14   87 1  
    92   14   88 1  
    93   15   89 1  
    94   15   90 1  
    95   20   91 1  
    96   23   92 1  
    97   23   93 1  
    98   24   94 1  
    99   24   95 1  
   100   25   96 1  
   101   25   97 1  
   102   27   98 1  
   103   30   99 1  
   104   30  100 1  
   105   31  101 1  
   106   31  102 1  
   107   32  103 1  
   108   32  104 1  
   109   34  105 1  
   110   37  106 1  
   111   37  107 1  
   112   38  108 1  
   113   38  109 1  
   114   39  110 1  
   115   39  111 1  
   116   41  112 1  
   117   44  113 1  
   118   44  114 1  
   119   45  115 1  
   120   45  116 1  
   121   46  117 1  
   122   46  118 1  
   123   47  119 1  
   124   48  120 1  
   125   51  121 1  
   126   51  122 1  
   127   53  123 1  
   128   54  124 1  
   129   55  125 1  
   130   56  126 1  
   131   58  127 1  
   132   59  128 1  
   133   60  129 1  
   134   63  130 1  
   135   63  131 1  
   136   64  132 1  
   137   64  133 1  
   138   68  134 1  
   139   69  135 1  
   140   72  136 1  
   141   72  137 1  
@<TRIPOS>SUBSTRUCTURE
     1 GLU         1

