2jo9_ligand
  -I-interpret- 

142146  0  0  0  0  0  0  0  0999 V2000
   11.9950    1.3150   12.2890 N   0  3  0  0  0
   11.5520    2.6830   12.6330 C   0  0  0  0  0
   11.4210    3.5430   11.3830 C   0  0  0  0  0
   12.3070    4.3400   11.0730 O   0  0  0  0  0
   12.5230    3.3610   13.6070 C   0  0  0  0  0
   12.6770    2.6480   14.9430 C   0  0  0  0  0
   13.4070    1.3300   14.8140 C   0  0  0  0  0
   14.6480    1.3390   14.7870 O   0  0  0  0  0
   12.7350    0.2840   14.7030 O   0  0  0  0  0
   10.3350    3.3660   10.6460 N   0  0  0  0  0
   10.0520    4.2360    9.5170 C   0  0  0  0  0
    8.6450    4.7880    9.6540 C   0  0  0  0  0
    7.7730    4.1160   10.2090 O   0  0  0  0  0
   10.1530    3.4450    8.2060 C   0  0  0  0  0
   11.4480    2.6620    8.0420 C   0  0  0  0  0
   11.4140    1.7470    6.8390 C   0  0  0  0  0
   10.9640    0.5860    6.9740 O   0  0  0  0  0
   11.8360    2.1750    5.7470 O   0  0  0  0  0
    8.3870    6.0050    9.1710 N   0  0  0  0  0
    7.0310    6.5240    9.0880 C   0  0  0  0  0
    6.2840    5.9450    7.8940 C   0  0  0  0  0
    6.8960    5.6250    6.8700 O   0  0  0  0  0
    7.2460    8.0270    8.9270 C   0  0  0  0  0
    8.5560    8.1470    8.2250 C   0  0  0  0  0
    9.3850    6.9690    8.6690 C   0  0  0  0  0
    4.9660    5.7820    8.0050 N   0  0  0  0  0
    4.0990    5.5920    6.8490 C   0  0  0  0  0
    3.8350    6.9270    6.1560 C   0  0  0  0  0
    3.8280    7.9760    6.8080 O   0  0  0  0  0
    2.7960    5.0260    7.4450 C   0  0  0  0  0
    3.0760    4.7950    8.8970 C   0  0  0  0  0
    4.2140    5.7040    9.2590 C   0  0  0  0  0
    3.6400    6.9300    4.8370 N   0  0  0  0  0
    3.1770    8.1200    4.1460 C   0  0  0  0  0
    1.6800    8.2880    4.3610 C   0  0  0  0  0
    0.9620    7.2980    4.4980 O   0  0  0  0  0
    3.5010    7.8350    2.6810 C   0  0  0  0  0
    3.4870    6.3470    2.5660 C   0  0  0  0  0
    3.8630    5.7980    3.9230 C   0  0  0  0  0
    1.1750    9.5220    4.3920 N   0  0  0  0  0
   -0.2320    9.7610    4.6730 C   0  0  0  0  0
   -1.0910    9.4740    3.4530 C   0  0  0  0  0
   -0.6440    9.6350    2.3120 O   0  0  0  0  0
   -0.2870   11.2570    5.0310 C   0  0  0  0  0
    1.1340   11.7350    5.0330 C   0  0  0  0  0
    1.9100   10.7680    4.1870 C   0  0  0  0  0
   -2.3200    9.0350    3.6880 N   0  0  0  0  0
   -3.2200    8.7400    2.5970 C   0  0  0  0  0
   -3.8000   10.0280    2.0350 C   0  0  0  0  0
   -4.7250   10.6160    2.5950 O   0  0  0  0  0
   -4.3380    7.7790    3.0200 C   0  0  0  0  0
   -5.3430    7.5360    1.9160 C   0  0  0  0  0
   -5.0890    6.6080    0.9190 C   0  0  0  0  0
   -6.5290    8.2580    1.8550 C   0  0  0  0  0
   -5.9890    6.3980   -0.1060 C   0  0  0  0  0
   -7.4330    8.0570    0.8320 C   0  0  0  0  0
   -7.1580    7.1230   -0.1460 C   0  0  0  0  0
   -8.0540    6.9130   -1.1660 O   0  0  0  0  0
   -3.2000   10.4680    0.9510 N   0  0  0  0  0
   -3.6600   11.6210    0.2120 C   0  0  0  0  0
   -3.0070   11.5830   -1.1590 C   0  0  0  0  0
   -1.7890   11.7400   -1.2730 O   0  0  0  0  0
   -3.2910   12.9140    0.9380 C   0  0  0  0  0
   -4.1420   14.0970    0.5240 C   0  0  0  0  0
   -5.5280   14.0610    1.1330 C   0  0  0  0  0
   -5.6740   14.4370    2.3180 O   0  0  0  0  0
   -6.4830   13.6690    0.4330 O   0  0  0  0  0
   -3.8030   11.3270   -2.1840 N   0  0  0  0  0
   -3.2730   11.1570   -3.5310 C   0  0  0  0  0
   -2.7510   12.4770   -4.0760 C   0  0  0  0  0
   -1.5420   12.5580   -4.3770 O   0  0  0  0  0
   -4.3320   10.5800   -4.4720 C   0  0  0  0  0
   -3.7720   10.3020   -5.8500 C   0  0  0  0  0
   -2.9160    9.3960   -5.9790 O   0  0  0  0  0
   -4.1720   10.9880   -6.8140 O   0  0  0  0  0
   -3.5410   13.4370   -4.1650 O   0  0  0  0  0
   11.3277    0.8956   11.6415 H   0  0  0  0  0
   12.9152    1.3570   11.8510 H   0  0  0  0  0
   12.0466    0.7520   13.1380 H   0  0  0  0  0
   10.5783    2.5892   13.1139 H   0  0  0  0  0
   12.1224    4.3524   13.8187 H   0  0  0  0  0
   13.5036    3.3622   13.1310 H   0  0  0  0  0
   11.6797    2.4438   15.3326 H   0  0  0  0  0
   13.2584    3.2917   15.6031 H   0  0  0  0  0
   11.8005    0.4988   14.7501 H   0  0  0  0  0
    9.6894    2.6098   10.8736 H   0  0  0  0  0
   10.7758    5.0509    9.5031 H   0  0  0  0  0
   10.1115    4.1686    7.3919 H   0  0  0  0  0
    9.3389    2.7202    8.2063 H   0  0  0  0  0
   11.5876    2.0476    8.9314 H   0  0  0  0  0
   12.2602    3.3754    7.9025 H   0  0  0  0  0
   10.6924    0.4532    7.8852 H   0  0  0  0  0
    6.4237    6.2662    9.9557 H   0  0  0  0  0
    7.2495    8.5431    9.8871 H   0  0  0  0  0
    6.4383    8.4962    8.3652 H   0  0  0  0  0
    9.0481    9.0876    8.4725 H   0  0  0  0  0
    8.4221    8.1460    7.1433 H   0  0  0  0  0
    9.9885    6.5578    7.8598 H   0  0  0  0  0
   10.1182    7.2404    9.4285 H   0  0  0  0  0
    4.5368    4.9337    6.0986 H   0  0  0  0  0
    2.5015    4.1023    6.9469 H   0  0  0  0  0
    1.9647    5.7175    7.3073 H   0  0  0  0  0
    3.3332    3.7525    9.0847 H   0  0  0  0  0
    2.1962    5.0090    9.5038 H   0  0  0  0  0
    3.8849    6.6778    9.6217 H   0  0  0  0  0
    4.8098    5.3324   10.0927 H   0  0  0  0  0
    3.6424    9.0408    4.4976 H   0  0  0  0  0
    4.4646    8.2540    2.3910 H   0  0  0  0  0
    2.7789    8.2993    2.0094 H   0  0  0  0  0
    4.1911    6.0114    1.8046 H   0  0  0  0  0
    2.5015    5.9918    2.2648 H   0  0  0  0  0
    3.2710    4.9240    4.1945 H   0  0  0  0  0
    4.8913    5.4378    3.9534 H   0  0  0  0  0
   -0.6126    9.1180    5.4666 H   0  0  0  0  0
   -0.7570   11.4132    6.0020 H   0  0  0  0  0
   -0.8890   11.8127    4.3121 H   0  0  0  0  0
    1.5317   11.7727    6.0472 H   0  0  0  0  0
    1.2059   12.7470    4.6346 H   0  0  0  0  0
    1.9707   11.0647    3.1399 H   0  0  0  0  0
    2.9612   10.6987    4.4668 H   0  0  0  0  0
   -2.6335    8.9041    4.6498 H   0  0  0  0  0
   -2.6455    8.2393    1.8177 H   0  0  0  0  0
   -4.8656    8.2273    3.8618 H   0  0  0  0  0
   -3.8807    6.8228    3.2743 H   0  0  0  0  0
   -4.1627    6.0341    0.9446 H   0  0  0  0  0
   -6.7486    8.9948    2.6276 H   0  0  0  0  0
   -5.7749    5.6613   -0.8803 H   0  0  0  0  0
   -8.3582    8.6322    0.7966 H   0  0  0  0  0
   -8.8108    7.4922   -1.0500 H   0  0  0  0  0
   -2.3729    9.9733    0.6169 H   0  0  0  0  0
   -4.7458   11.5957    0.1198 H   0  0  0  0  0
   -2.2564   13.1487    0.6879 H   0  0  0  0  0
   -3.4501   12.7505    2.0038 H   0  0  0  0  0
   -4.2518   14.0674   -0.5601 H   0  0  0  0  0
   -3.6469   15.0036    0.8718 H   0  0  0  0  0
   -4.8226   14.6971    2.6772 H   0  0  0  0  0
   -4.8079   11.2470   -2.0286 H   0  0  0  0  0
   -2.4447   10.4508   -3.4736 H   0  0  0  0  0
   -1.1202   11.7076   -4.2342 H   0  0  0  0  0
   -5.1354   11.3100   -4.5707 H   0  0  0  0  0
   -4.6866    9.6391   -4.0512 H   0  0  0  0  0
   -2.7477    8.9923   -5.1244 H   0  0  0  0  0
  1  2  1  0  0  0
  2  3  1  0  0  0
  2  5  1  0  0  0
  3  4  2  0  0  0
  3 10  1  0  0  0
  5  6  1  0  0  0
  6  7  1  0  0  0
  7  8  2  0  0  0
  7  9  1  0  0  0
 10 11  1  0  0  0
 11 12  1  0  0  0
 11 14  1  0  0  0
 12 13  2  0  0  0
 12 19  1  0  0  0
 14 15  1  0  0  0
 15 16  1  0  0  0
 16 17  1  0  0  0
 16 18  2  0  0  0
 19 20  1  0  0  0
 19 25  1  0  0  0
 20 21  1  0  0  0
 20 23  1  0  0  0
 21 22  2  0  0  0
 21 26  1  0  0  0
 23 24  1  0  0  0
 24 25  1  0  0  0
 26 27  1  0  0  0
 26 32  1  0  0  0
 27 28  1  0  0  0
 27 30  1  0  0  0
 28 29  2  0  0  0
 28 33  1  0  0  0
 30 31  1  0  0  0
 31 32  1  0  0  0
 33 34  1  0  0  0
 33 39  1  0  0  0
 34 35  1  0  0  0
 34 37  1  0  0  0
 35 36  2  0  0  0
 35 40  1  0  0  0
 37 38  1  0  0  0
 38 39  1  0  0  0
 40 41  1  0  0  0
 40 46  1  0  0  0
 41 42  1  0  0  0
 41 44  1  0  0  0
 42 43  2  0  0  0
 42 47  1  0  0  0
 44 45  1  0  0  0
 45 46  1  0  0  0
 47 48  1  0  0  0
 48 49  1  0  0  0
 48 51  1  0  0  0
 49 50  2  0  0  0
 49 59  1  0  0  0
 51 52  1  0  0  0
 52 53  4  0  0  0
 52 54  4  0  0  0
 53 55  4  0  0  0
 54 56  4  0  0  0
 55 57  4  0  0  0
 56 57  4  0  0  0
 57 58  1  0  0  0
 59 60  1  0  0  0
 60 61  1  0  0  0
 60 63  1  0  0  0
 61 62  2  0  0  0
 61 68  1  0  0  0
 63 64  1  0  0  0
 64 65  1  0  0  0
 65 66  1  0  0  0
 65 67  2  0  0  0
 68 69  1  0  0  0
 69 70  1  0  0  0
 69 72  1  0  0  0
 70 71  1  0  0  0
 70 76  2  0  0  0
 72 73  1  0  0  0
 73 74  1  0  0  0
 73 75  2  0  0  0
  1 77  1  0  0  0
  1 78  1  0  0  0
  1 79  1  0  0  0
  2 80  1  0  0  0
  5 81  1  0  0  0
  5 82  1  0  0  0
  6 83  1  0  0  0
  6 84  1  0  0  0
  9 85  1  0  0  0
 10 86  1  0  0  0
 11 87  1  0  0  0
 14 88  1  0  0  0
 14 89  1  0  0  0
 15 90  1  0  0  0
 15 91  1  0  0  0
 17 92  1  0  0  0
 20 93  1  0  0  0
 23 94  1  0  0  0
 23 95  1  0  0  0
 24 96  1  0  0  0
 24 97  1  0  0  0
 25 98  1  0  0  0
 25 99  1  0  0  0
 27100  1  0  0  0
 30101  1  0  0  0
 30102  1  0  0  0
 31103  1  0  0  0
 31104  1  0  0  0
 32105  1  0  0  0
 32106  1  0  0  0
 34107  1  0  0  0
 37108  1  0  0  0
 37109  1  0  0  0
 38110  1  0  0  0
 38111  1  0  0  0
 39112  1  0  0  0
 39113  1  0  0  0
 41114  1  0  0  0
 44115  1  0  0  0
 44116  1  0  0  0
 45117  1  0  0  0
 45118  1  0  0  0
 46119  1  0  0  0
 46120  1  0  0  0
 47121  1  0  0  0
 48122  1  0  0  0
 51123  1  0  0  0
 51124  1  0  0  0
 53125  1  0  0  0
 54126  1  0  0  0
 55127  1  0  0  0
 56128  1  0  0  0
 58129  1  0  0  0
 59130  1  0  0  0
 60131  1  0  0  0
 63132  1  0  0  0
 63133  1  0  0  0
 64134  1  0  0  0
 64135  1  0  0  0
 66136  1  0  0  0
 68137  1  0  0  0
 69138  1  0  0  0
 71139  1  0  0  0
 72140  1  0  0  0
 72141  1  0  0  0
 74142  1  0  0  0
M  END
$$$$
