1h4n_ligand
  -I-interpret- 

 20 19  0  0  0  0  0  0  0  0999 V2000
   -5.7840    1.0300   15.8510 C   0  0  0  0  0
   -4.5160    1.9070   15.7840 C   0  0  0  0  0
   -6.8770    1.6260   14.9710 C   0  0  0  0  0
   -6.3320    0.9090   17.3100 C   0  0  0  0  0
   -5.4230   -0.2690   15.3070 N   0  3  0  0  0
   -3.9790    1.7210   14.4810 O   0  0  0  0  0
   -7.9520    0.7020   14.9540 O   0  0  0  0  0
   -5.4140    0.2480   18.1630 O   0  0  0  0  0
   -3.7971    1.6207   16.5517 H   0  0  0  0  0
   -4.7510    2.9553   15.9681 H   0  0  0  0  0
   -6.5046    1.8002   13.9615 H   0  0  0  0  0
   -7.2043    2.5884   15.3644 H   0  0  0  0  0
   -7.2540    0.3283   17.2829 H   0  0  0  0  0
   -6.4983    1.9139   17.6982 H   0  0  0  0  0
   -5.0706   -0.1524   14.3570 H   0  0  0  0  0
   -4.7001   -0.6913   15.8896 H   0  0  0  0  0
   -6.2460   -0.8715   15.2941 H   0  0  0  0  0
   -3.1827    2.2486   14.3860 H   0  0  0  0  0
   -8.6608    1.0475   14.4064 H   0  0  0  0  0
   -5.7835    0.1925   19.0473 H   0  0  0  0  0
  1  2  1  0  0  0
  1  3  1  0  0  0
  1  4  1  0  0  0
  1  5  1  0  0  0
  2  6  1  0  0  0
  3  7  1  0  0  0
  4  8  1  0  0  0
  2  9  1  0  0  0
  2 10  1  0  0  0
  3 11  1  0  0  0
  3 12  1  0  0  0
  4 13  1  0  0  0
  4 14  1  0  0  0
  5 15  1  0  0  0
  5 16  1  0  0  0
  5 17  1  0  0  0
  6 18  1  0  0  0
  7 19  1  0  0  0
  8 20  1  0  0  0
M  END
$$$$
