4zg7_ligand
  -I-interpret- 

 58 63  0  0  0  0  0  0  0  0999 V2000
   -8.2120    5.3360  -38.9300 C   0  0  0  0  0
   -7.8850    2.8960  -38.7820 C   0  0  0  0  0
   -6.6400    2.8450  -38.0170 C   0  0  0  0  0
   -6.1400    1.4960  -37.7130 C   0  0  0  0  0
   -6.8170    7.1390  -39.6040 N   0  0  0  0  0
   -6.8200    0.3410  -38.1030 C   0  0  0  0  0
   -8.0100    0.3970  -38.7980 C   0  0  0  0  0
   -8.5190    1.6320  -39.1640 C   0  0  0  0  0
   -9.6910    2.1270  -39.8730 C   0  0  0  0  0
   -9.6910    3.5910  -39.9000 C   0  0  0  0  0
  -10.7380    4.4700  -40.5510 C   0  0  0  0  0
  -12.8220   -1.3570  -44.9400 O   0  0  0  0  0
  -11.1520   -1.4200  -46.3840 O   0  0  0  0  0
  -10.3150    0.8150  -42.1620 C   0  0  0  0  0
   -9.1230    1.2980  -42.6600 C   0  0  0  0  0
   -8.7340    1.0130  -43.9700 C   0  0  0  0  0
   -9.5340    0.2510  -44.8280 C   0  0  0  0  0
  -10.7350   -0.2760  -44.3850 C   0  0  0  0  0
  -11.1750    0.0050  -43.0240 C   0  0  0  0  0
  -11.5800   -1.0720  -45.2980 C   0  0  0  0  0
   -7.1010    7.8790  -38.3710 C   0  0  0  0  0
   -6.2470    9.1490  -38.4990 C   0  0  0  0  0
   -5.6340    9.1490  -39.8570 C   0  0  0  0  0
   -5.9690    7.8760  -40.4760 C   0  0  0  0  0
   -5.5210    7.6150  -41.7700 C   0  0  0  0  0
   -5.9730    3.9390  -37.6150 F   0  0  0  0  0
   -4.6710    1.3830  -36.7660 Cl  0  0  0  0  0
  -10.8890    1.1050  -40.5910 S   0  0  0  0  0
  -12.3070   -0.4680  -42.5140 F   0  0  0  0  0
   -8.5880    3.9760  -39.2130 N   0  0  0  0  0
   -7.2880    5.9340  -39.9370 C   0  0  0  0  0
   -7.0380    5.3750  -40.9650 O   0  0  0  0  0
   -4.7130    8.5810  -42.4170 C   0  0  0  0  0
   -4.3830    9.7850  -41.7940 C   0  0  0  0  0
   -4.8380   10.0840  -40.5000 C   0  0  0  0  0
   -5.5520    9.7660  -37.3010 C   0  0  0  0  0
   -6.7910   10.4550  -37.9130 C   0  0  0  0  0
   -7.6892    5.3339  -37.9735 H   0  0  0  0  0
   -9.1251    5.9312  -38.9363 H   0  0  0  0  0
   -6.3988   -0.6323  -37.8513 H   0  0  0  0  0
   -8.5427   -0.5184  -39.0557 H   0  0  0  0  0
  -10.7854    4.2477  -41.6170 H   0  0  0  0  0
  -11.7085    4.2757  -40.0945 H   0  0  0  0  0
  -10.4711    5.5172  -40.4085 H   0  0  0  0  0
  -12.9880   -1.0096  -44.0606 H   0  0  0  0  0
   -8.4794    1.9073  -42.0255 H   0  0  0  0  0
   -7.7803    1.3948  -44.3345 H   0  0  0  0  0
   -9.2094    0.0709  -45.8528 H   0  0  0  0  0
   -6.8576    7.3043  -37.4774 H   0  0  0  0  0
   -8.1617    8.1026  -38.2569 H   0  0  0  0  0
   -5.7874    6.6858  -42.2737 H   0  0  0  0  0
   -4.3414    8.3801  -43.4218 H   0  0  0  0  0
   -3.7602   10.5071  -42.3220 H   0  0  0  0  0
   -4.5731   11.0237  -40.0153 H   0  0  0  0  0
   -4.5415   10.0293  -36.9886 H   0  0  0  0  0
   -5.1883    9.4599  -36.3201 H   0  0  0  0  0
   -7.7406   10.8824  -37.5911 H   0  0  0  0  0
   -7.1032   11.4435  -38.2498 H   0  0  0  0  0
 30  1  1  0  0  0
  1 31  1  0  0  0
  2  3  4  0  0  0
  8  2  4  0  0  0
 30  2  4  0  0  0
  3  4  4  0  0  0
  3 26  1  0  0  0
  6  4  4  0  0  0
  4 27  1  0  0  0
  5 21  1  0  0  0
  5 24  1  0  0  0
 31  5  1  0  0  0
  7  6  4  0  0  0
  8  7  4  0  0  0
  9  8  4  0  0  0
  9 10  4  0  0  0
 28  9  1  0  0  0
 10 11  1  0  0  0
 10 30  4  0  0  0
 20 12  1  0  0  0
 20 13  2  0  0  0
 14 15  4  0  0  0
 19 14  4  0  0  0
 14 28  1  0  0  0
 16 15  4  0  0  0
 17 16  4  0  0  0
 18 17  4  0  0  0
 18 19  4  0  0  0
 18 20  1  0  0  0
 19 29  1  0  0  0
 21 22  1  0  0  0
 22 23  1  0  0  0
 22 36  1  0  0  0
 22 37  1  0  0  0
 23 24  4  0  0  0
 23 35  4  0  0  0
 24 25  4  0  0  0
 25 33  4  0  0  0
 31 32  2  0  0  0
 33 34  4  0  0  0
 34 35  4  0  0  0
 36 37  1  0  0  0
  1 38  1  0  0  0
  1 39  1  0  0  0
  6 40  1  0  0  0
  7 41  1  0  0  0
 11 42  1  0  0  0
 11 43  1  0  0  0
 11 44  1  0  0  0
 12 45  1  0  0  0
 15 46  1  0  0  0
 16 47  1  0  0  0
 17 48  1  0  0  0
 21 49  1  0  0  0
 21 50  1  0  0  0
 25 51  1  0  0  0
 33 52  1  0  0  0
 34 53  1  0  0  0
 35 54  1  0  0  0
 36 55  1  0  0  0
 36 56  1  0  0  0
 37 57  1  0  0  0
 37 58  1  0  0  0
M  END
$$$$
