6nng_ligand
  -I-interpret- 

 48 52  0  0  0  0  0  0  0  0999 V2000
   15.0120  -65.5800  -36.7690 C   0  0  0  0  0
   19.2090  -69.0880  -42.7560 C   0  0  0  0  0
   18.2070  -67.3580  -43.6040 C   0  0  0  0  0
   17.7950  -66.3650  -44.4740 C   0  0  0  0  0
   17.8650  -66.5500  -45.8500 C   0  0  0  0  0
   17.4400  -65.5100  -46.7210 C   0  0  0  0  0
   16.9170  -64.2590  -48.4540 C   0  0  0  0  0
   16.6180  -63.5180  -47.3160 C   0  0  0  0  0
   16.9600  -64.3340  -46.2040 C   0  0  0  0  0
   16.8870  -64.1510  -44.8010 C   0  0  0  0  0
   17.3050  -65.1680  -43.9480 C   0  0  0  0  0
   15.7780  -67.5250  -37.6710 C   0  0  0  0  0
   18.3990  -68.5450  -41.7900 C   0  0  0  0  0
   17.9550  -68.3400  -38.2330 C   0  0  0  0  0
   17.0820  -67.8080  -37.3010 C   0  0  0  0  0
   18.9080  -67.4820  -35.8470 C   0  0  0  0  0
   15.3380  -67.7620  -38.9620 C   0  0  0  0  0
   13.6810  -67.7110  -40.6520 C   0  0  0  0  0
   16.2120  -68.3050  -39.8860 C   0  0  0  0  0
   17.5200  -68.5980  -39.5300 C   0  0  0  0  0
   18.3560  -69.1460  -40.5000 C   0  0  0  0  0
   19.8720  -70.7690  -41.1640 C   0  0  0  0  0
   19.9720  -70.2390  -42.4420 C   0  0  0  0  0
   19.0720  -70.2320  -40.2330 N   0  0  0  0  0
   19.0700  -68.3260  -43.8740 N   0  0  0  0  0
   17.4000  -65.4330  -48.0780 N   0  0  0  0  0
   17.7930  -67.4660  -42.3520 N   0  0  0  0  0
   14.9010  -66.9690  -36.7440 O   0  0  0  0  0
   14.0150  -67.4590  -39.3160 O   0  0  0  0  0
   17.5170  -67.5600  -35.9920 O   0  0  0  0  0
   16.0335  -65.2939  -36.5186 H   0  0  0  0  0
   14.7651  -65.2149  -37.7659 H   0  0  0  0  0
   14.3239  -65.1487  -36.0420 H   0  0  0  0  0
   18.2435  -67.4869  -46.2586 H   0  0  0  0  0
   16.7772  -63.9286  -49.4833 H   0  0  0  0  0
   16.2033  -62.5105  -47.2833 H   0  0  0  0  0
   16.5045  -63.2163  -44.3909 H   0  0  0  0  0
   17.2498  -65.0300  -42.8682 H   0  0  0  0  0
   18.9853  -68.5575  -37.9513 H   0  0  0  0  0
   19.3579  -68.4249  -36.1579 H   0  0  0  0  0
   19.2919  -66.6726  -36.4680 H   0  0  0  0  0
   19.1528  -67.2880  -34.8027 H   0  0  0  0  0
   14.3206  -67.1157  -41.3036 H   0  0  0  0  0
   13.8252  -68.7697  -40.8678 H   0  0  0  0  0
   12.6380  -67.4432  -40.8212 H   0  0  0  0  0
   15.8703  -68.5042  -40.9017 H   0  0  0  0  0
   20.4623  -71.6492  -40.9094 H   0  0  0  0  0
   20.6224  -70.6975  -43.1869 H   0  0  0  0  0
 28  1  1  0  0  0
 13  2  4  0  0  0
  2 23  4  0  0  0
  2 25  4  0  0  0
  3  4  1  0  0  0
  3 25  4  0  0  0
 27  3  4  0  0  0
  4  5  4  0  0  0
  4 11  4  0  0  0
  5  6  4  0  0  0
  6  9  4  0  0  0
  6 26  4  0  0  0
  8  7  4  0  0  0
 26  7  4  0  0  0
  9  8  4  0  0  0
 10  9  4  0  0  0
 11 10  4  0  0  0
 15 12  4  0  0  0
 17 12  4  0  0  0
 12 28  1  0  0  0
 21 13  4  0  0  0
 13 27  4  0  0  0
 14 15  4  0  0  0
 20 14  4  0  0  0
 15 30  1  0  0  0
 30 16  1  0  0  0
 19 17  4  0  0  0
 17 29  1  0  0  0
 29 18  1  0  0  0
 20 19  4  0  0  0
 20 21  1  0  0  0
 21 24  4  0  0  0
 23 22  4  0  0  0
 22 24  4  0  0  0
  1 31  1  0  0  0
  1 32  1  0  0  0
  1 33  1  0  0  0
  5 34  1  0  0  0
  7 35  1  0  0  0
  8 36  1  0  0  0
 10 37  1  0  0  0
 11 38  1  0  0  0
 14 39  1  0  0  0
 16 40  1  0  0  0
 16 41  1  0  0  0
 16 42  1  0  0  0
 18 43  1  0  0  0
 18 44  1  0  0  0
 18 45  1  0  0  0
 19 46  1  0  0  0
 22 47  1  0  0  0
 23 48  1  0  0  0
M  END
$$$$
