4pvt_ligand
  -I-interpret- 

 22 22  0  0  0  0  0  0  0  0999 V2000
  -28.6320    7.3030   59.0670 C   0  0  0  0  0
  -30.6150    8.5660   57.6060 C   0  0  0  0  0
  -30.8910    6.5230   55.8410 Cl  0  0  0  0  0
  -30.1730    7.3010   57.2290 C   0  0  0  0  0
  -29.1740    6.6690   57.9600 C   0  0  0  0  0
  -28.6620    5.2950   57.6060 C   0  0  0  0  0
  -27.2650    5.2990   57.0240 C   0  0  0  0  0
  -26.7290    4.0110   56.4530 C   0  0  0  0  0
  -27.4470    2.9700   56.3470 O   0  0  0  0  0
  -25.5380    4.0090   56.0720 O   0  0  0  0  0
  -26.3770    6.7040   56.8100 S   0  0  0  0  0
  -27.3790    6.5350   60.0070 Cl  0  0  0  0  0
  -29.0680    8.5580   59.4320 C   0  0  0  0  0
  -28.3400    9.3090   60.8150 Cl  0  0  0  0  0
  -30.0610    9.1920   58.7070 C   0  0  0  0  0
  -31.3979    9.0629   57.0331 H   0  0  0  0  0
  -29.3296    4.8829   56.8493 H   0  0  0  0  0
  -28.6306    4.7114   58.5260 H   0  0  0  0  0
  -26.9470    5.4570   58.0545 H   0  0  0  0  0
  -28.3261    3.1530   56.6867 H   0  0  0  0  0
  -27.0145    7.7211   57.3827 H   0  0  0  0  0
  -30.4058   10.1827   59.0031 H   0  0  0  0  0
  5  1  4  0  0  0
  1 12  1  0  0  0
  1 13  4  0  0  0
  4  2  4  0  0  0
  2 15  4  0  0  0
  4  3  1  0  0  0
  4  5  4  0  0  0
  5  6  1  0  0  0
  6  7  1  0  0  0
  7  8  1  0  0  0
  7 11  1  0  0  0
  8  9  1  0  0  0
  8 10  2  0  0  0
 13 14  1  0  0  0
 13 15  4  0  0  0
  2 16  1  0  0  0
  6 17  1  0  0  0
  6 18  1  0  0  0
  7 19  1  0  0  0
  9 20  1  0  0  0
 11 21  1  0  0  0
 15 22  1  0  0  0
M  END
$$$$
