### 
### Created by X-TOOL on Mon Sep 10 21:13:08 2018
### 

@<TRIPOS>MOLECULE
4fut_ligand
   43    45     1     0     0
SMALL
GAST_HUCK


@<TRIPOS>ATOM
      1 PG         41.1380  -50.4030   -4.5610 P.3       1 ATP         0.1879
      2 O1G        41.5120  -51.8620   -4.7270 O.co2     1 ATP        -0.6091
      3 O2G        42.1690  -49.5530   -3.8660 O.co2     1 ATP        -0.6091
      4 O3G        40.7270  -49.7560   -5.8540 O.co2     1 ATP        -0.6091
      5 PB         38.3210  -50.6930   -3.9760 P.3       1 ATP         0.3553
      6 O1B        38.2620  -51.1420   -5.4210 O.co2     1 ATP        -0.5652
      7 O2B        37.5640  -51.4860   -2.9620 O.co2     1 ATP        -0.5652
      8 O3B        39.8630  -50.4480   -3.5600 O.3       1 ATP        -0.1546
      9 PA         36.2620  -48.6620   -4.1620 P.3       1 ATP         0.3266
     10 O1A        36.3220  -47.7100   -5.3330 O.co2     1 ATP        -0.5692
     11 O2A        35.6440  -48.1920   -2.8660 O.co2     1 ATP        -0.5692
     12 O3A        37.7770  -49.1580   -3.8860 O.3       1 ATP        -0.1171
     13 O5'        35.4250  -49.9570   -4.5560 O.3       1 ATP        -0.2441
     14 C5'        34.8190  -50.1020   -5.8410 C.3       1 ATP         0.1131
     15 C4'        34.7200  -51.6070   -6.0480 C.3       1 ATP         0.1189
     16 O4'        33.7980  -52.1530   -5.1160 O.3       1 ATP        -0.3364
     17 C3'        34.1810  -52.0050   -7.4090 C.3       1 ATP         0.1149
     18 O3'        35.2490  -52.0040   -8.3540 O.3       1 ATP        -0.3864
     19 C2'        33.5670  -53.3550   -7.1240 C.3       1 ATP         0.1385
     20 O2'        34.5630  -54.3870   -7.0940 O.3       1 ATP        -0.3836
     21 C1'        33.0560  -53.2140   -5.7040 C.3       1 ATP         0.2010
     22 N9         31.6160  -52.8600   -5.7030 N.pl3     1 ATP        -0.1919
     23 C8         31.0990  -51.6230   -5.5430 C.2       1 ATP         0.1123
     24 N7         29.7490  -51.6500   -5.5910 N.2       1 ATP        -0.2958
     25 C5         29.3790  -52.9290   -5.7930 C.ar      1 ATP         0.1045
     26 C6         28.1060  -53.6580   -5.9550 C.ar      1 ATP         0.1298
     27 N6         26.9050  -53.0260   -5.8930 N.pl3     1 ATP        -0.3152
     28 N1         28.1740  -54.9930   -6.1540 N.ar      1 ATP        -0.2698
     29 C2         29.3550  -55.6410   -6.2080 C.ar      1 ATP         0.0533
     30 N3         30.5440  -55.0440   -6.0830 N.ar      1 ATP        -0.2714
     31 C4         30.6190  -53.7170   -5.8670 C.ar      1 ATP         0.1613
     32 H1         35.4450  -49.6427   -6.6202 H         1 ATP         0.0648
     33 H2         33.8203  -49.6412   -5.8541 H         1 ATP         0.0648
     34 H3         35.7175  -52.0479   -5.9046 H         1 ATP         0.0651
     35 H4         33.4060  -51.3043   -7.7531 H         1 ATP         0.0648
     36 H5         35.9138  -52.6247   -8.0795 H         1 ATP         0.2100
     37 H6         32.7684  -53.5971   -7.8406 H         1 ATP         0.0676
     38 H7         35.0020  -54.4264   -7.9356 H         1 ATP         0.2101
     39 H8         33.2099  -54.1500   -5.1470 H         1 ATP         0.0996
     40 H9         31.6922  -50.7219   -5.3947 H         1 ATP         0.1349
     41 H10        26.0339  -53.5629   -6.0101 H         1 ATP         0.1820
     42 H11        26.8656  -52.0099   -5.7289 H         1 ATP         0.1820
     43 H12        29.3391  -56.7138   -6.3625 H         1 ATP         0.0996
@<TRIPOS>BOND
     1    1    2 ar 
     2    1    3 ar 
     3    1    4 ar 
     4    8    1 1  
     5    5    6 ar 
     6    5    7 ar 
     7    5    8 1  
     8   12    5 1  
     9    9   10 ar 
    10    9   11 ar 
    11    9   12 1  
    12    9   13 1  
    13   13   14 1  
    14   14   15 1  
    15   15   16 1  
    16   15   17 1  
    17   16   21 1  
    18   17   18 1  
    19   17   19 1  
    20   19   20 1  
    21   19   21 1  
    22   21   22 1  
    23   22   23 1  
    24   22   31 1  
    25   23   24 2  
    26   24   25 1  
    27   25   26 ar 
    28   25   31 ar 
    29   26   27 1  
    30   26   28 ar 
    31   28   29 ar 
    32   29   30 ar 
    33   30   31 ar 
    34   14   32 1  
    35   14   33 1  
    36   15   34 1  
    37   17   35 1  
    38   18   36 1  
    39   19   37 1  
    40   20   38 1  
    41   21   39 1  
    42   23   40 1  
    43   27   41 1  
    44   27   42 1  
    45   29   43 1  
@<TRIPOS>SUBSTRUCTURE
     1 ATP         1

