4fut_ligand
  -I-interpret- 

 47 49  0  0  0  0  0  0  0  0999 V2000
   41.1380  -50.4030   -4.5610 P   0  0  0  0  0
   41.5120  -51.8620   -4.7270 O   0  0  0  0  0
   42.1690  -49.5530   -3.8660 O   0  0  0  0  0
   40.7270  -49.7560   -5.8540 O   0  0  0  0  0
   38.3210  -50.6930   -3.9760 P   0  0  0  0  0
   38.2620  -51.1420   -5.4210 O   0  0  0  0  0
   37.5640  -51.4860   -2.9620 O   0  0  0  0  0
   39.8630  -50.4480   -3.5600 O   0  0  0  0  0
   36.2620  -48.6620   -4.1620 P   0  0  0  0  0
   36.3220  -47.7100   -5.3330 O   0  0  0  0  0
   35.6440  -48.1920   -2.8660 O   0  0  0  0  0
   37.7770  -49.1580   -3.8860 O   0  0  0  0  0
   35.4250  -49.9570   -4.5560 O   0  0  0  0  0
   34.8190  -50.1020   -5.8410 C   0  0  0  0  0
   34.7200  -51.6070   -6.0480 C   0  0  0  0  0
   33.7980  -52.1530   -5.1160 O   0  0  0  0  0
   34.1810  -52.0050   -7.4090 C   0  0  0  0  0
   35.2490  -52.0040   -8.3540 O   0  0  0  0  0
   33.5670  -53.3550   -7.1240 C   0  0  0  0  0
   34.5630  -54.3870   -7.0940 O   0  0  0  0  0
   33.0560  -53.2140   -5.7040 C   0  0  0  0  0
   31.6160  -52.8600   -5.7030 N   0  0  0  0  0
   31.0990  -51.6230   -5.5430 C   0  0  0  0  0
   29.7490  -51.6500   -5.5910 N   0  0  0  0  0
   29.3790  -52.9290   -5.7930 C   0  0  0  0  0
   28.1060  -53.6580   -5.9550 C   0  0  0  0  0
   26.9050  -53.0260   -5.8930 N   0  0  0  0  0
   28.1740  -54.9930   -6.1540 N   0  0  0  0  0
   29.3550  -55.6410   -6.2080 C   0  0  0  0  0
   30.5440  -55.0440   -6.0830 N   0  0  0  0  0
   30.6190  -53.7170   -5.8670 C   0  0  0  0  0
   41.7653  -52.2252   -3.8752 H   0  0  0  0  0
   42.4257  -49.9732   -3.0419 H   0  0  0  0  0
   38.7887  -50.5483   -5.9611 H   0  0  0  0  0
   35.6780  -48.9019   -2.2206 H   0  0  0  0  0
   35.4027  -49.6193   -6.6248 H   0  0  0  0  0
   33.8436  -49.6178   -5.8897 H   0  0  0  0  0
   35.7387  -51.9776   -5.9342 H   0  0  0  0  0
   33.4437  -51.3383   -7.8563 H   0  0  0  0  0
   34.9116  -52.2555   -9.2168 H   0  0  0  0  0
   32.8213  -53.6162   -7.8749 H   0  0  0  0  0
   34.1427  -55.2305   -6.9112 H   0  0  0  0  0
   33.1736  -54.1489   -5.1561 H   0  0  0  0  0
   31.6928  -50.7210   -5.3946 H   0  0  0  0  0
   26.8660  -52.0198   -5.7305 H   0  0  0  0  0
   26.0423  -53.5577   -6.0089 H   0  0  0  0  0
   29.3390  -56.7197   -6.3634 H   0  0  0  0  0
  1  2  1  0  0  0
  1  3  1  0  0  0
  1  4  2  0  0  0
  8  1  1  0  0  0
  5  6  1  0  0  0
  5  7  2  0  0  0
  5  8  1  0  0  0
 12  5  1  0  0  0
  9 10  2  0  0  0
  9 11  1  0  0  0
  9 12  1  0  0  0
  9 13  1  0  0  0
 13 14  1  0  0  0
 14 15  1  0  0  0
 15 16  1  0  0  0
 15 17  1  0  0  0
 16 21  1  0  0  0
 17 18  1  0  0  0
 17 19  1  0  0  0
 19 20  1  0  0  0
 19 21  1  0  0  0
 21 22  1  0  0  0
 22 23  4  0  0  0
 22 31  4  0  0  0
 23 24  4  0  0  0
 24 25  4  0  0  0
 25 26  4  0  0  0
 25 31  4  0  0  0
 26 27  1  0  0  0
 26 28  4  0  0  0
 28 29  4  0  0  0
 29 30  4  0  0  0
 30 31  4  0  0  0
  2 32  1  0  0  0
  3 33  1  0  0  0
  6 34  1  0  0  0
 11 35  1  0  0  0
 14 36  1  0  0  0
 14 37  1  0  0  0
 15 38  1  0  0  0
 17 39  1  0  0  0
 18 40  1  0  0  0
 19 41  1  0  0  0
 20 42  1  0  0  0
 21 43  1  0  0  0
 23 44  1  0  0  0
 27 45  1  0  0  0
 27 46  1  0  0  0
 29 47  1  0  0  0
M  END
$$$$
