6en4_ligand
  -I-interpret- 

 86 87  0  0  0  0  0  0  0  0999 V2000
  -53.6740   -6.3540   15.3360 C   0  0  0  0  0
  -54.3310   -4.2690   14.1050 C   0  0  0  0  0
  -53.3460   -5.2090   14.7360 C   0  0  0  0  0
  -54.9890   -6.8970   15.4980 C   0  0  0  0  0
  -55.2590   -8.0540   16.1000 C   0  0  0  0  0
  -51.8890   -4.8110   14.6590 C   0  0  0  0  0
  -51.6080   -3.4000   15.1920 C   0  0  0  0  0
  -50.3710   -5.7010   11.4070 C   0  0  0  0  0
  -48.9150   -5.4970   11.0000 C   0  0  0  0  0
  -48.2690   -4.3130   11.7010 C   0  0  0  0  0
  -48.9800   -2.9940   11.3860 C   0  0  0  0  0
  -48.4140   -1.7250   12.0390 C   0  0  0  0  0
  -50.6780   -5.8090   12.8750 C   0  0  0  0  0
  -47.0030   -1.4450   11.5390 C   0  0  0  0  0
  -52.9320   -6.9970   20.6860 O   0  0  0  0  0
  -56.7740   -8.0510   18.7360 C   0  0  0  0  0
  -54.1820   -6.7390   21.3280 C   0  0  0  0  0
  -54.9000   -5.5870   19.1870 C   0  0  0  0  0
  -55.2800   -6.6010   20.2650 C   0  0  0  0  0
  -55.3590   -5.0800   22.8420 C   0  0  0  0  0
  -56.8890   -8.5430   20.0910 O   0  0  0  0  0
  -54.0770   -5.4560   22.1310 C   0  0  0  0  0
  -50.2750   -6.6770   13.6010 O   0  0  0  0  0
  -51.4720   -4.8060   13.2780 O   0  0  0  0  0
  -48.1750   -6.6820   11.3060 O   0  0  0  0  0
  -49.2700   -0.6330   11.6550 O   0  0  0  0  0
  -55.6440   -7.9590   19.6560 C   0  0  0  0  0
  -47.8800   -0.5980   14.1170 O   0  0  0  0  0
  -47.1770   -1.6650   15.9560 O   0  0  0  0  0
  -56.8920   -9.0860   17.6330 C   0  0  0  0  0
  -56.6670   -8.5580   16.2150 C   0  0  0  0  0
  -56.9610   -9.6320   15.1700 C   0  0  0  0  0
  -50.1880   -3.0120   14.8890 C   0  0  0  0  0
  -49.8030   -2.0180   14.1170 C   0  0  0  0  0
  -48.4230   -1.8410   13.5740 C   0  0  0  0  0
  -47.2580   -0.6600   15.3120 C   0  0  0  0  0
  -46.7010    0.6680   15.6950 C   0  0  0  0  0
  -51.8790   -3.2990   16.6950 C   0  0  0  0  0
  -52.8521   -6.9399   15.7476 H   0  0  0  0  0
  -54.8678   -4.7870   13.3103 H   0  0  0  0  0
  -55.0388   -3.9261   14.8597 H   0  0  0  0  0
  -53.7993   -3.4135   13.6884 H   0  0  0  0  0
  -55.8270   -6.3239   15.1012 H   0  0  0  0  0
  -54.4429   -8.6446   16.5162 H   0  0  0  0  0
  -51.3507   -5.5342   15.2716 H   0  0  0  0  0
  -52.2858   -2.7096   14.6900 H   0  0  0  0  0
  -50.6625   -6.6592   10.9769 H   0  0  0  0  0
  -50.8973   -4.8103   11.0638 H   0  0  0  0  0
  -48.9013   -5.2887    9.9302 H   0  0  0  0  0
  -47.2391   -4.2341   11.3528 H   0  0  0  0  0
  -48.3295   -4.4819   12.7761 H   0  0  0  0  0
  -49.9932   -3.1018   11.7732 H   0  0  0  0  0
  -48.8748   -2.8482   10.3109 H   0  0  0  0  0
  -46.3572   -2.2873   11.7870 H   0  0  0  0  0
  -47.0227   -1.3066   10.4580 H   0  0  0  0  0
  -46.6227   -0.5414   12.0154 H   0  0  0  0  0
  -52.2443   -7.0835   21.3502 H   0  0  0  0  0
  -57.2485   -7.3127   18.0896 H   0  0  0  0  0
  -54.4314   -7.5628   21.9967 H   0  0  0  0  0
  -54.7428   -4.6114   19.6469 H   0  0  0  0  0
  -53.9831   -5.9095   18.6937 H   0  0  0  0  0
  -55.7040   -5.5193   18.4541 H   0  0  0  0  0
  -56.1689   -6.2186   20.7668 H   0  0  0  0  0
  -56.1528   -4.9415   22.1080 H   0  0  0  0  0
  -55.6364   -5.8758   23.5333 H   0  0  0  0  0
  -55.2078   -4.1529   23.3950 H   0  0  0  0  0
  -53.8421   -4.6520   21.4335 H   0  0  0  0  0
  -53.3131   -5.6090   22.8934 H   0  0  0  0  0
  -47.2574   -6.5594   11.0519 H   0  0  0  0  0
  -48.9445    0.1805   12.0473 H   0  0  0  0  0
  -54.6008   -8.2709   19.6046 H   0  0  0  0  0
  -57.9139   -9.4636   17.6671 H   0  0  0  0  0
  -56.1152   -9.8282   17.8168 H   0  0  0  0  0
  -57.3576   -7.7367   16.0237 H   0  0  0  0  0
  -56.3017  -10.4848   15.3319 H   0  0  0  0  0
  -57.9992   -9.9513   15.2612 H   0  0  0  0  0
  -56.7912   -9.2238   14.1737 H   0  0  0  0  0
  -49.4032   -3.6100   15.3521 H   0  0  0  0  0
  -50.5479   -1.2669   13.8540 H   0  0  0  0  0
  -47.8330   -2.7128   13.8568 H   0  0  0  0  0
  -47.1478    0.9904   16.6355 H   0  0  0  0  0
  -45.6205    0.5869   15.8136 H   0  0  0  0  0
  -46.9287    1.3947   14.9151 H   0  0  0  0  0
  -51.2054   -3.9683   17.2301 H   0  0  0  0  0
  -51.7122   -2.2736   17.0249 H   0  0  0  0  0
  -52.9117   -3.5835   16.8966 H   0  0  0  0  0
  1  3  2  0  0  0
  4  1  1  0  0  0
  3  2  1  0  0  0
  3  6  1  0  0  0
  5  4  2  0  0  0
 31  5  1  0  0  0
  6  7  1  0  0  0
  6 24  1  0  0  0
  7 33  1  0  0  0
  7 38  1  0  0  0
  8  9  1  0  0  0
 13  8  1  0  0  0
  9 10  1  0  0  0
  9 25  1  0  0  0
 10 11  1  0  0  0
 11 12  1  0  0  0
 12 14  1  0  0  0
 12 26  1  0  0  0
 12 35  1  0  0  0
 13 23  2  0  0  0
 24 13  1  0  0  0
 17 15  1  0  0  0
 16 21  1  0  0  0
 16 27  1  0  0  0
 30 16  1  0  0  0
 19 17  1  0  0  0
 17 22  1  0  0  0
 19 18  1  0  0  0
 27 19  1  0  0  0
 22 20  1  0  0  0
 27 21  1  0  0  0
 35 28  1  0  0  0
 28 36  1  0  0  0
 36 29  2  0  0  0
 30 31  1  0  0  0
 31 32  1  0  0  0
 33 34  2  0  0  0
 34 35  1  0  0  0
 36 37  1  0  0  0
  1 39  1  0  0  0
  2 40  1  0  0  0
  2 41  1  0  0  0
  2 42  1  0  0  0
  4 43  1  0  0  0
  5 44  1  0  0  0
  6 45  1  0  0  0
  7 46  1  0  0  0
  8 47  1  0  0  0
  8 48  1  0  0  0
  9 49  1  0  0  0
 10 50  1  0  0  0
 10 51  1  0  0  0
 11 52  1  0  0  0
 11 53  1  0  0  0
 14 54  1  0  0  0
 14 55  1  0  0  0
 14 56  1  0  0  0
 15 57  1  0  0  0
 16 58  1  0  0  0
 17 59  1  0  0  0
 18 60  1  0  0  0
 18 61  1  0  0  0
 18 62  1  0  0  0
 19 63  1  0  0  0
 20 64  1  0  0  0
 20 65  1  0  0  0
 20 66  1  0  0  0
 22 67  1  0  0  0
 22 68  1  0  0  0
 25 69  1  0  0  0
 26 70  1  0  0  0
 27 71  1  0  0  0
 30 72  1  0  0  0
 30 73  1  0  0  0
 31 74  1  0  0  0
 32 75  1  0  0  0
 32 76  1  0  0  0
 32 77  1  0  0  0
 33 78  1  0  0  0
 34 79  1  0  0  0
 35 80  1  0  0  0
 37 81  1  0  0  0
 37 82  1  0  0  0
 37 83  1  0  0  0
 38 84  1  0  0  0
 38 85  1  0  0  0
 38 86  1  0  0  0
M  END
$$$$
