### 
### Created by X-TOOL on Mon Sep 10 21:13:03 2018
### 

@<TRIPOS>MOLECULE
3mxr_ligand
   55    56     1     0     0
SMALL
GAST_HUCK


@<TRIPOS>ATOM
      1 C          31.3490   65.1880    4.2150 C.2       1 CZ8         0.1732
      2 N          30.8650   67.4840    4.6650 N.am      1 CZ8        -0.2468
      3 O          30.2930   65.0440    3.5910 O.2       1 CZ8        -0.3971
      4 CA         31.9610   66.5550    4.4240 C.3       1 CZ8         0.1309
      5 CB         32.6990   66.9890    3.1650 C.3       1 CZ8        -0.0044
      6 CAA        25.3360   71.7750    6.7960 C.3       1 CZ8        -0.0445
      7 OAC        32.1170   68.6760    6.1150 O.2       1 CZ8        -0.3909
      8 OAD        27.3220   71.0590    4.0870 O.2       1 CZ8        -0.3578
      9 OAE        28.8740   68.9130    3.7460 O.2       1 CZ8        -0.3475
     10 OAF        36.8960   68.2960   -1.4000 O.3       1 CZ8        -0.3376
     11 OAG        33.5680   62.3080    6.2290 O.3       1 CZ8        -0.8710
     12 OAH        31.2640   62.2360    7.1530 O.3       1 CZ8        -0.8710
     13 CAI        35.0500   67.0650   -0.5300 C.ar      1 CZ8        -0.0398
     14 CAJ        36.6580   68.0770    0.9640 C.ar      1 CZ8        -0.0398
     15 CAK        34.3470   66.5680    0.5640 C.ar      1 CZ8        -0.0687
     16 CAL        35.9530   67.5820    2.0610 C.ar      1 CZ8        -0.0687
     17 CAM        26.2720   70.5900    6.6750 C.3       1 CZ8         0.0321
     18 CAN        34.0480   66.2930    3.0550 C.3       1 CZ8        -0.0201
     19 CAP        31.5540   62.7460    4.6330 C.3       1 CZ8        -0.2407
     20 CAQ        28.5460   70.6520    7.3530 C.3       1 CZ8         0.0595
     21 CAR        29.8960   70.0270    7.0240 C.3       1 CZ8         0.0805
     22 NAS        31.9790   64.1370    4.7210 N.am      1 CZ8        -0.4391
     23 CAV        31.0490   68.5030    5.5240 C.2       1 CZ8         0.2935
     24 CAW        27.9200   70.5830    5.0470 C.2       1 CZ8         0.2926
     25 CAX        28.9430   69.5600    4.7820 C.2       1 CZ8         0.3156
     26 BAY        32.1160   61.9530    5.9080 B         1 CZ8         3.0000
     27 CAY        36.2050   67.8160   -0.3280 C.ar      1 CZ8         0.0805
     28 CAZ        34.8000   66.8300    1.8580 C.ar      1 CZ8        -0.0535
     29 NBC        27.6130   71.0190    6.2860 N.am      1 CZ8        -0.2590
     30 NBD        30.0110   69.3330    5.7520 N.am      1 CZ8        -0.1574
     31 H          29.9708   67.3636    4.1892 H         1 CZ8         0.1884
     32 H          32.6623   66.5354    5.2582 H         1 CZ8         0.0798
     33 H          32.8640   68.0655    3.2104 H         1 CZ8         0.0332
     34 H          32.0962   66.7217    2.2971 H         1 CZ8         0.0332
     35 H          25.7169   72.4615    7.5521 H         1 CZ8         0.0249
     36 H          25.2747   72.2875    5.8359 H         1 CZ8         0.0249
     37 H          24.3453   71.4256    7.0867 H         1 CZ8         0.0249
     38 H          37.6604   68.7885   -1.0921 H         1 CZ8         0.2458
     39 H          33.6248   63.2373    6.4631 H         1 CZ8        -0.1290
     40 H          30.3475   62.0181    6.9684 H         1 CZ8        -0.1290
     41 H          34.6972   66.8668   -1.5421 H         1 CZ8         0.0525
     42 H          37.5617   68.6670    1.1169 H         1 CZ8         0.0525
     43 H          33.4450   65.9757    0.4104 H         1 CZ8         0.0530
     44 H          36.3038   67.7834    3.0731 H         1 CZ8         0.0530
     45 H          25.8853   69.9158    5.9108 H         1 CZ8         0.0521
     46 H          26.3315   70.0914    7.6425 H         1 CZ8         0.0521
     47 H          33.8935   65.2208    2.9343 H         1 CZ8         0.0407
     48 H          34.6266   66.4797    3.9597 H         1 CZ8         0.0407
     49 H          31.9425   62.2980    3.7184 H         1 CZ8        -0.1856
     50 H          30.4655   62.6926    4.6149 H         1 CZ8        -0.1856
     51 H          28.7992   71.6015    7.8246 H         1 CZ8         0.0548
     52 H          28.0216   69.8764    7.9111 H         1 CZ8         0.0548
     53 H          30.0687   69.2720    7.7910 H         1 CZ8         0.0596
     54 H          30.6029   70.8553    6.9755 H         1 CZ8         0.0596
     55 H          32.8483   64.3204    5.2221 H         1 CZ8         0.1457
@<TRIPOS>BOND
     1    1    3 2  
     2    4    1 1  
     3    1   22 am 
     4    2    4 1  
     5   23    2 am 
     6    4    5 1  
     7    5   18 1  
     8   17    6 1  
     9   23    7 2  
    10   24    8 2  
    11   25    9 2  
    12   27   10 1  
    13   26   11 1  
    14   26   12 1  
    15   15   13 ar 
    16   13   27 ar 
    17   16   14 ar 
    18   14   27 ar 
    19   28   15 ar 
    20   28   16 ar 
    21   29   17 1  
    22   18   28 1  
    23   22   19 1  
    24   19   26 1  
    25   20   21 1  
    26   29   20 1  
    27   21   30 1  
    28   30   23 am 
    29   24   25 1  
    30   24   29 am 
    31   25   30 am 
    32    2   31 1  
    33    4   32 1  
    34    5   33 1  
    35    5   34 1  
    36    6   35 1  
    37    6   36 1  
    38    6   37 1  
    39   10   38 1  
    40   11   39 1  
    41   12   40 1  
    42   13   41 1  
    43   14   42 1  
    44   15   43 1  
    45   16   44 1  
    46   17   45 1  
    47   17   46 1  
    48   18   47 1  
    49   18   48 1  
    50   19   49 1  
    51   19   50 1  
    52   20   51 1  
    53   20   52 1  
    54   21   53 1  
    55   21   54 1  
    56   22   55 1  
@<TRIPOS>SUBSTRUCTURE
     1 CZ8         1

