3mxr_ligand
  -I-interpret- 

 55 56  0  0  0  0  0  0  0  0999 V2000
   31.3490   65.1880    4.2150 C   0  0  0  0  0
   30.8650   67.4840    4.6650 N   0  0  0  0  0
   30.2930   65.0440    3.5910 O   0  0  0  0  0
   31.9610   66.5550    4.4240 C   0  0  0  0  0
   32.6990   66.9890    3.1650 C   0  0  0  0  0
   25.3360   71.7750    6.7960 C   0  0  0  0  0
   32.1170   68.6760    6.1150 O   0  0  0  0  0
   27.3220   71.0590    4.0870 O   0  0  0  0  0
   28.8740   68.9130    3.7460 O   0  0  0  0  0
   36.8960   68.2960   -1.4000 O   0  0  0  0  0
   33.5680   62.3080    6.2290 O   0  0  0  0  0
   31.2640   62.2360    7.1530 O   0  0  0  0  0
   35.0500   67.0650   -0.5300 C   0  0  0  0  0
   36.6580   68.0770    0.9640 C   0  0  0  0  0
   34.3470   66.5680    0.5640 C   0  0  0  0  0
   35.9530   67.5820    2.0610 C   0  0  0  0  0
   26.2720   70.5900    6.6750 C   0  0  0  0  0
   34.0480   66.2930    3.0550 C   0  0  0  0  0
   31.5540   62.7460    4.6330 C   0  0  0  0  0
   28.5460   70.6520    7.3530 C   0  0  0  0  0
   29.8960   70.0270    7.0240 C   0  0  0  0  0
   31.9790   64.1370    4.7210 N   0  0  0  0  0
   31.0490   68.5030    5.5240 C   0  0  0  0  0
   27.9200   70.5830    5.0470 C   0  0  0  0  0
   28.9430   69.5600    4.7820 C   0  0  0  0  0
   32.1160   61.9530    5.9080 B   0  0  0  0  0
   36.2050   67.8160   -0.3280 C   0  0  0  0  0
   34.8000   66.8300    1.8580 C   0  0  0  0  0
   27.6130   71.0190    6.2860 N   0  0  0  0  0
   30.0110   69.3330    5.7520 N   0  0  0  0  0
   29.9708   67.3636    4.1892 H   0  0  0  0  0
   32.6623   66.5354    5.2582 H   0  0  0  0  0
   32.8640   68.0655    3.2104 H   0  0  0  0  0
   32.0962   66.7217    2.2971 H   0  0  0  0  0
   25.7169   72.4615    7.5521 H   0  0  0  0  0
   25.2747   72.2875    5.8359 H   0  0  0  0  0
   24.3453   71.4256    7.0867 H   0  0  0  0  0
   37.6604   68.7885   -1.0921 H   0  0  0  0  0
   34.1158   62.1366    5.4595 H   0  0  0  0  0
   30.3475   62.0181    6.9684 H   0  0  0  0  0
   34.6972   66.8668   -1.5421 H   0  0  0  0  0
   37.5617   68.6670    1.1169 H   0  0  0  0  0
   33.4450   65.9757    0.4104 H   0  0  0  0  0
   36.3038   67.7834    3.0731 H   0  0  0  0  0
   25.8853   69.9158    5.9108 H   0  0  0  0  0
   26.3315   70.0914    7.6425 H   0  0  0  0  0
   33.8935   65.2208    2.9343 H   0  0  0  0  0
   34.6266   66.4797    3.9597 H   0  0  0  0  0
   31.9425   62.2980    3.7184 H   0  0  0  0  0
   30.4655   62.6926    4.6149 H   0  0  0  0  0
   28.7992   71.6015    7.8246 H   0  0  0  0  0
   28.0216   69.8764    7.9111 H   0  0  0  0  0
   30.0687   69.2720    7.7910 H   0  0  0  0  0
   30.6029   70.8553    6.9755 H   0  0  0  0  0
   32.8483   64.3204    5.2221 H   0  0  0  0  0
  1  3  2  0  0  0
  4  1  1  0  0  0
  1 22  1  0  0  0
  2  4  1  0  0  0
 23  2  1  0  0  0
  4  5  1  0  0  0
  5 18  1  0  0  0
 17  6  1  0  0  0
 23  7  2  0  0  0
 24  8  2  0  0  0
 25  9  2  0  0  0
 27 10  1  0  0  0
 26 11  1  0  0  0
 26 12  1  0  0  0
 15 13  4  0  0  0
 13 27  4  0  0  0
 16 14  4  0  0  0
 14 27  4  0  0  0
 28 15  4  0  0  0
 28 16  4  0  0  0
 29 17  1  0  0  0
 18 28  1  0  0  0
 22 19  1  0  0  0
 19 26  1  0  0  0
 20 21  1  0  0  0
 29 20  1  0  0  0
 21 30  1  0  0  0
 30 23  1  0  0  0
 24 25  1  0  0  0
 24 29  1  0  0  0
 25 30  1  0  0  0
  2 31  1  0  0  0
  4 32  1  0  0  0
  5 33  1  0  0  0
  5 34  1  0  0  0
  6 35  1  0  0  0
  6 36  1  0  0  0
  6 37  1  0  0  0
 10 38  1  0  0  0
 11 39  1  0  0  0
 12 40  1  0  0  0
 13 41  1  0  0  0
 14 42  1  0  0  0
 15 43  1  0  0  0
 16 44  1  0  0  0
 17 45  1  0  0  0
 17 46  1  0  0  0
 18 47  1  0  0  0
 18 48  1  0  0  0
 19 49  1  0  0  0
 19 50  1  0  0  0
 20 51  1  0  0  0
 20 52  1  0  0  0
 21 53  1  0  0  0
 21 54  1  0  0  0
 22 55  1  0  0  0
M  END
$$$$
