5vd1_ligand
  -I-interpret- 

 67 71  0  0  0  0  0  0  0  0999 V2000
    1.3760   -2.9480   -1.9210 O   0  0  0  0  0
    2.1020   -3.8350   -2.3480 C   0  0  0  0  0
    1.6940   -5.0400   -2.6940 N   0  0  0  0  0
    0.3040   -5.4820   -2.6900 C   0  0  0  0  0
    3.5340   -3.5950   -2.4070 C   0  0  0  0  0
    4.4330   -4.5790   -2.4760 N   0  0  0  0  0
    5.6760   -4.0180   -2.5130 N   0  0  0  0  0
    6.7840   -4.9800   -2.6270 C   0  0  0  0  0
    5.6260   -2.6860   -2.5080 C   0  0  0  0  0
    4.2110   -2.2830   -2.4250 C   0  0  0  0  0
    6.7170   -1.7010   -2.4320 C   0  0  0  0  0
    6.3720   -0.3440   -2.5530 C   0  0  0  0  0
    4.9460    0.0810   -2.9190 C   0  0  0  0  0
    3.8310   -0.7990   -2.3430 C   0  0  0  0  0
    3.5940   -0.4130   -0.8940 C   0  0  0  0  0
    2.6430   -0.4870   -3.2320 C   0  0  0  0  0
    7.9780   -2.0940   -2.1220 N   0  0  0  0  0
    8.9670   -1.1870   -1.9690 C   0  0  0  0  0
    8.6520    0.1320   -2.1200 N   0  0  0  0  0
    7.4060    0.5680   -2.3920 C   0  0  0  0  0
   10.2500   -1.5200   -1.6860 N   0  0  0  0  0
   10.8990   -2.7360   -1.6770 C   0  0  0  0  0
   12.3060   -2.7900   -1.7540 C   0  0  0  0  0
   12.9940   -3.9880   -1.7460 C   0  0  0  0  0
   12.3170   -5.2160   -1.6880 C   0  0  0  0  0
   10.8880   -5.1950   -1.6090 C   0  0  0  0  0
   10.1850   -3.9660   -1.5910 C   0  0  0  0  0
   13.0530   -6.4270   -1.6960 N   0  0  0  0  0
   12.3930   -7.7430   -1.7030 C   0  0  0  0  0
   12.9110   -8.2950   -3.0140 C   0  0  0  0  0
   14.3310   -8.5670   -2.7730 N   0  3  0  0  0
   14.8320   -9.9320   -2.8990 C   0  0  0  0  0
   15.1470   -7.6790   -1.9510 C   0  0  0  0  0
   14.4810   -6.3130   -2.0930 C   0  0  0  0  0
    2.4028   -5.7129   -2.9861 H   0  0  0  0  0
   -0.0991   -5.3999   -1.6806 H   0  0  0  0  0
   -0.2771   -4.8555   -3.3667 H   0  0  0  0  0
    0.2531   -6.5197   -3.0197 H   0  0  0  0  0
    6.7680   -5.6538   -1.7704 H   0  0  0  0  0
    6.6708   -5.5555   -3.5458 H   0  0  0  0  0
    7.7309   -4.4406   -2.6490 H   0  0  0  0  0
    4.8688    0.0116   -4.0040 H   0  0  0  0  0
    4.8017    1.0785   -2.5039 H   0  0  0  0  0
    2.7842   -1.0179   -0.4860 H   0  0  0  0  0
    4.5039   -0.5867   -0.3196 H   0  0  0  0  0
    3.3243    0.6417   -0.8397 H   0  0  0  0  0
    2.8918   -0.7262   -4.2659 H   0  0  0  0  0
    1.7874   -1.0836   -2.9155 H   0  0  0  0  0
    2.3988    0.5722   -3.1514 H   0  0  0  0  0
    7.2104    1.6362   -2.4855 H   0  0  0  0  0
   10.8418   -0.7282   -1.4344 H   0  0  0  0  0
   12.8677   -1.8584   -1.8219 H   0  0  0  0  0
   14.0832   -3.9793   -1.7855 H   0  0  0  0  0
   10.3359   -6.1337   -1.5623 H   0  0  0  0  0
    9.0979   -3.9609   -1.5114 H   0  0  0  0  0
   11.3061   -7.7003   -1.6323 H   0  0  0  0  0
   12.6183   -8.3626   -0.8350 H   0  0  0  0  0
   12.7668   -7.5922   -3.8346 H   0  0  0  0  0
   12.3722   -9.1929   -3.3165 H   0  0  0  0  0
   14.5249   -8.1545   -3.6855 H   0  0  0  0  0
   14.3103  -10.5759   -2.1910 H   0  0  0  0  0
   14.6576  -10.2894   -3.9139 H   0  0  0  0  0
   15.9009   -9.9465   -2.6860 H   0  0  0  0  0
   16.1879   -7.6629   -2.2741 H   0  0  0  0  0
   15.1912   -8.0074   -0.9126 H   0  0  0  0  0
   14.9844   -5.5902   -1.4509 H   0  0  0  0  0
   14.5491   -5.9767   -3.1276 H   0  0  0  0  0
  1  2  2  0  0  0
  2  3  1  0  0  0
  2  5  1  0  0  0
  3  4  1  0  0  0
  5  6  4  0  0  0
  5 10  4  0  0  0
  6  7  4  0  0  0
  7  8  1  0  0  0
  7  9  4  0  0  0
  9 10  4  0  0  0
  9 11  1  0  0  0
 10 14  1  0  0  0
 11 12  4  0  0  0
 11 17  4  0  0  0
 12 13  1  0  0  0
 12 20  4  0  0  0
 13 14  1  0  0  0
 14 15  1  0  0  0
 14 16  1  0  0  0
 17 18  4  0  0  0
 18 19  4  0  0  0
 18 21  1  0  0  0
 19 20  4  0  0  0
 21 22  1  0  0  0
 22 23  4  0  0  0
 22 27  4  0  0  0
 23 24  4  0  0  0
 24 25  4  0  0  0
 25 26  4  0  0  0
 25 28  1  0  0  0
 26 27  4  0  0  0
 28 29  1  0  0  0
 28 34  1  0  0  0
 29 30  1  0  0  0
 30 31  1  0  0  0
 31 32  1  0  0  0
 31 33  1  0  0  0
 33 34  1  0  0  0
  3 35  1  0  0  0
  4 36  1  0  0  0
  4 37  1  0  0  0
  4 38  1  0  0  0
  8 39  1  0  0  0
  8 40  1  0  0  0
  8 41  1  0  0  0
 13 42  1  0  0  0
 13 43  1  0  0  0
 15 44  1  0  0  0
 15 45  1  0  0  0
 15 46  1  0  0  0
 16 47  1  0  0  0
 16 48  1  0  0  0
 16 49  1  0  0  0
 20 50  1  0  0  0
 21 51  1  0  0  0
 23 52  1  0  0  0
 24 53  1  0  0  0
 26 54  1  0  0  0
 27 55  1  0  0  0
 29 56  1  0  0  0
 29 57  1  0  0  0
 30 58  1  0  0  0
 30 59  1  0  0  0
 31 60  1  0  0  0
 32 61  1  0  0  0
 32 62  1  0  0  0
 32 63  1  0  0  0
 33 64  1  0  0  0
 33 65  1  0  0  0
 34 66  1  0  0  0
 34 67  1  0  0  0
M  END
$$$$
