2rnw_ligand
  -I-interpret- 

234233  0  0  0  0  0  0  0  0999 V2000
   11.0260   16.7260    4.1250 N   0  3  0  0  0
   12.2420   16.2110    4.8040 C   0  0  0  0  0
   11.9000   15.6220    6.1680 C   0  0  0  0  0
   10.7390   15.6200    6.5790 O   0  0  0  0  0
   13.2740   17.3200    4.9510 C   0  0  0  0  0
   12.9180   15.1220    6.8630 N   0  0  0  0  0
   12.7300   14.5270    8.1840 C   0  0  0  0  0
   11.7130   13.3910    8.1310 C   0  0  0  0  0
   10.8890   13.2380    9.0330 O   0  0  0  0  0
   12.2820   15.5890    9.1900 C   0  0  0  0  0
   13.3300   16.6570    9.4570 C   0  0  0  0  0
   12.8100   17.7240   10.4060 C   0  0  0  0  0
   11.6500   18.4220    9.8600 N   0  0  0  0  0
   10.9460   19.3260   10.5350 C   0  0  0  0  0
   11.2800   19.6420   11.7790 N   0  0  0  0  0
    9.9040   19.9170    9.9640 N   0  0  0  0  0
   11.7760   12.5960    7.0660 N   0  0  0  0  0
   10.8620   11.4730    6.8940 C   0  0  0  0  0
   11.4950   10.1760    7.3860 C   0  0  0  0  0
   12.6930    9.9540    7.2110 O   0  0  0  0  0
   10.4530   11.3070    5.4180 C   0  0  0  0  0
    9.9470   12.5460    4.9070 O   0  0  0  0  0
    9.3940   10.2240    5.2660 C   0  0  0  0  0
   10.6830    9.3230    8.0040 N   0  0  0  0  0
   11.1680    8.0490    8.5240 C   0  0  0  0  0
   10.5660    6.8760    7.7540 C   0  0  0  0  0
    9.6730    6.1880    8.2480 O   0  0  0  0  0
   10.8340    7.9260   10.0140 C   0  0  0  0  0
   11.4080    6.6780   10.6670 C   0  0  0  0  0
   11.0420    6.6030   12.1410 C   0  0  0  0  0
   11.5910    5.3400   12.7850 C   0  0  0  0  0
   11.2390    5.2540   14.2290 N   0  3  0  0  0
   11.0600    6.6550    6.5390 N   0  0  0  0  0
   10.5740    5.5600    5.7060 C   0  0  0  0  0
   11.1910    4.2370    6.1480 C   0  0  0  0  0
   11.9320    4.1860    7.1300 O   0  0  0  0  0
   10.8980    5.8200    4.2330 C   0  0  0  0  0
   12.3870    5.8190    3.9260 C   0  0  0  0  0
   12.6770    5.7750    2.4360 C   0  0  0  0  0
   13.6930    5.2280    2.0080 O   0  0  0  0  0
   11.7860    6.3550    1.6380 N   0  0  0  0  0
   10.8830    3.1690    5.4190 N   0  0  0  0  0
   11.4090    1.8490    5.7430 C   0  0  0  0  0
   11.9700    1.1510    4.5070 C   0  0  0  0  0
   12.7460    0.2020    4.6250 O   0  0  0  0  0
   10.3340    0.9550    6.3870 C   0  0  0  0  0
   10.8040   -0.3960    6.4750 O   0  0  0  0  0
    9.0440    1.0000    5.5860 C   0  0  0  0  0
   11.5710    1.6170    3.3240 N   0  0  0  0  0
   12.0580    1.0330    2.0770 C   0  0  0  0  0
   13.5760    1.1140    2.0200 C   0  0  0  0  0
   14.1350    2.1550    1.6740 O   0  0  0  0  0
   11.4460    1.7400    0.8720 C   0  0  0  0  0
   14.2360    0.0120    2.3720 N   0  0  0  0  0
   15.6930   -0.0380    2.3640 C   0  0  0  0  0
   16.2400    0.5270    1.0600 C   0  0  0  0  0
   17.3270    1.1020    1.0400 O   0  0  0  0  0
   16.1870   -1.4730    2.5650 C   0  0  0  0  0
   15.7680   -2.0850    3.8920 C   0  0  0  0  0
   16.5380   -1.4810    5.0550 C   0  0  0  0  0
   16.1340   -2.0570    6.3350 N   0  0  0  0  0
   16.8410   -1.9360    7.4550 C   0  0  0  0  0
   17.9880   -1.2700    7.4550 N   0  0  0  0  0
   16.4010   -2.4860    8.5790 N   0  0  0  0  0
    9.4130   -0.3000   -2.8270 O   0  0  0  0  0
    9.8420    0.7800   -2.4240 C   0  0  0  0  0
    8.8290    1.8840   -2.0790 C   0  0  0  0  0
   11.1330    0.9520   -2.1260 N   0  0  0  0  0
   11.8930    2.1760   -2.3970 C   0  0  0  0  0
   13.3930    1.9090   -2.4830 C   0  0  0  0  0
   14.1870    2.7960   -1.5210 C   0  0  0  0  0
   15.6530    2.3710   -1.3920 C   0  0  0  0  0
   15.8550    0.8640   -1.3350 C   0  0  0  0  0
   15.4660    0.3690   -0.0180 N   0  0  0  0  0
   17.2940    0.4840   -1.6750 C   0  0  0  0  0
   17.5270   -0.5120   -2.3600 O   0  0  0  0  0
   18.2520    1.2820   -1.2030 N   0  0  0  0  0
   19.6700    1.0250   -1.4560 C   0  0  0  0  0
   19.9950   -0.4590   -1.3230 C   0  0  0  0  0
   19.7190   -1.0760   -0.2940 O   0  0  0  0  0
   20.5340    1.8330   -0.4870 C   0  0  0  0  0
   21.9120    1.5810   -0.6990 O   0  0  0  0  0
   20.5820   -1.0230   -2.3760 N   0  0  0  0  0
   20.9440   -2.4350   -2.3910 C   0  0  0  0  0
   21.8170   -2.7990   -1.1940 C   0  0  0  0  0
   22.8900   -2.2270   -0.9990 O   0  0  0  0  0
   21.6880   -2.8060   -3.6870 C   0  0  0  0  0
   22.9190   -2.0780   -3.7720 O   0  0  0  0  0
   20.8290   -2.5010   -4.9060 C   0  0  0  0  0
   21.3470   -3.7550   -0.3980 N   0  0  0  0  0
   22.0900   -4.1830    0.7720 C   0  0  0  0  0
   21.6710   -5.5580    1.2540 C   0  0  0  0  0
   22.4850   -6.3070    1.7950 O   0  0  0  0  0
   20.3990   -5.8900    1.0560 N   0  0  0  0  0
   19.8930   -7.1840    1.4810 C   0  0  0  0  0
   18.3940   -7.1760    1.7180 C   0  0  0  0  0
   17.9260   -6.6860    2.7440 O   0  0  0  0  0
   17.6450   -7.7240    0.7660 N   0  0  0  0  0
   16.1900   -7.7830    0.8670 C   0  0  0  0  0
   15.6560   -9.0530    0.2150 C   0  0  0  0  0
   15.7520   -9.2270   -0.9980 O   0  0  0  0  0
   15.5610   -6.5470    0.2260 C   0  0  0  0  0
   14.4660   -5.9250    1.0800 C   0  0  0  0  0
   15.0350   -5.2700    2.3300 C   0  0  0  0  0
   14.0860   -5.3950    3.5090 C   0  0  0  0  0
   13.9640   -6.8050    3.9780 N   0  3  0  0  0
   15.1020   -9.9420    1.0370 N   0  0  0  0  0
   14.5540  -11.2020    0.5490 C   0  0  0  0  0
   13.7620  -11.9140    1.6420 C   0  0  0  0  0
   14.3810  -12.6590    2.4290 O   0  0  0  0  0
   15.6690  -12.1000    0.0350 C   0  0  0  0  0
   12.5290  -11.7190    1.7010 O   0  0  0  0  0
   10.3443   15.9728    4.0336 H   0  0  0  0  0
   10.6250   17.4840    4.6772 H   0  0  0  0  0
   11.2764   17.0737    3.1994 H   0  0  0  0  0
   12.6631   15.4163    4.1882 H   0  0  0  0  0
   12.8712   18.1072    5.5883 H   0  0  0  0  0
   14.1799   16.9142    5.4012 H   0  0  0  0  0
   13.5073   17.7300    3.9684 H   0  0  0  0  0
   13.8556   15.1549    6.4627 H   0  0  0  0  0
   13.6863   14.1163    8.5079 H   0  0  0  0  0
   12.0854   15.0815   10.1344 H   0  0  0  0  0
   11.4078   16.0873    8.7709 H   0  0  0  0  0
   13.5866   17.1327    8.5104 H   0  0  0  0  0
   14.1979   16.1819    9.9144 H   0  0  0  0  0
   13.6033   18.4542   10.5660 H   0  0  0  0  0
   12.5099   17.2380   11.3343 H   0  0  0  0  0
   11.3629   18.2038    8.9059 H   0  0  0  0  0
   12.0802   19.1910   12.2224 H   0  0  0  0  0
    9.3642   20.6106   10.4816 H   0  0  0  0  0
    9.6429   19.6776    9.0075 H   0  0  0  0  0
   12.4815   12.7767    6.3518 H   0  0  0  0  0
    9.9729   11.6885    7.4865 H   0  0  0  0  0
   11.3368   11.0123    4.8522 H   0  0  0  0  0
    9.6950   12.4326    3.9876 H   0  0  0  0  0
    9.7910    9.2759    5.6289 H   0  0  0  0  0
    8.5121   10.4960    5.8461 H   0  0  0  0  0
    9.1233   10.1274    4.2146 H   0  0  0  0  0
    9.6986    9.5650    8.1170 H   0  0  0  0  0
   12.2501    8.0208    8.3958 H   0  0  0  0  0
    9.7490    7.8706   10.1017 H   0  0  0  0  0
   11.2700    8.7883   10.5185 H   0  0  0  0  0
   12.4941    6.7118   10.5818 H   0  0  0  0  0
   10.9956    5.8036   10.1635 H   0  0  0  0  0
    9.9555    6.5918   12.2279 H   0  0  0  0  0
   11.4725    7.4660   12.6490 H   0  0  0  0  0
   12.6775    5.3573   12.6988 H   0  0  0  0  0
   11.1559    4.4801   12.2757 H   0  0  0  0  0
   11.6250    4.3952   14.6213 H   0  0  0  0  0
   11.6276    6.0586   14.7210 H   0  0  0  0  0
   10.2241    5.2495   14.3306 H   0  0  0  0  0
   11.7953    7.2648    6.1814 H   0  0  0  0  0
    9.4919    5.4997    5.8220 H   0  0  0  0  0
   10.5144    6.8095    3.9844 H   0  0  0  0  0
   10.4448    5.0164    3.6526 H   0  0  0  0  0
   12.8218    4.9278    4.3785 H   0  0  0  0  0
   12.8116    6.7411    4.3229 H   0  0  0  0  0
   11.9312    6.3579    0.6284 H   0  0  0  0  0
   10.9571    6.7972    2.0353 H   0  0  0  0  0
   10.2647    3.2757    4.6148 H   0  0  0  0  0
   12.2161    2.0034    6.4591 H   0  0  0  0  0
   10.1331    1.3319    7.3898 H   0  0  0  0  0
   10.1262   -0.9438    6.8777 H   0  0  0  0  0
    8.6748    2.0250    5.5515 H   0  0  0  0  0
    9.2346    0.6468    4.5726 H   0  0  0  0  0
    8.3002    0.3604    6.0612 H   0  0  0  0  0
   10.9134    2.3959    3.2887 H   0  0  0  0  0
   11.7573   -0.0143    2.0470 H   0  0  0  0  0
   10.3611    1.6411    0.9067 H   0  0  0  0  0
   11.7168    2.7956    0.8955 H   0  0  0  0  0
   11.8243    1.2868   -0.0443 H   0  0  0  0  0
   13.7103   -0.8155    2.6535 H   0  0  0  0  0
   16.0575    0.5727    3.1900 H   0  0  0  0  0
   17.2766   -1.4474    2.5481 H   0  0  0  0  0
   15.7496   -2.0815    1.7735 H   0  0  0  0  0
   15.9768   -3.1543    3.8592 H   0  0  0  0  0
   14.7066   -1.8876    4.0423 H   0  0  0  0  0
   16.3318   -0.4110    5.0819 H   0  0  0  0  0
   17.5979   -1.6880    4.9069 H   0  0  0  0  0
   15.2601   -2.5818    6.3720 H   0  0  0  0  0
   18.3323   -0.8473    6.5929 H   0  0  0  0  0
   16.9441   -2.3957    9.4377 H   0  0  0  0  0
   15.5196   -2.9993    8.5847 H   0  0  0  0  0
    8.2431    2.1275   -2.9653 H   0  0  0  0  0
    8.1657    1.5326   -1.2886 H   0  0  0  0  0
    9.3626    2.7717   -1.7394 H   0  0  0  0  0
   11.6240    0.1778   -1.6788 H   0  0  0  0  0
   11.7172    2.8749   -1.5793 H   0  0  0  0  0
   11.5625    2.5778   -3.3548 H   0  0  0  0  0
   13.7212    2.1277   -3.4991 H   0  0  0  0  0
   13.5707    0.8679   -2.2134 H   0  0  0  0  0
   13.7281    2.7132   -0.5358 H   0  0  0  0  0
   14.1681    3.8129   -1.9129 H   0  0  0  0  0
   16.0293    2.7842   -0.4562 H   0  0  0  0  0
   16.1752    2.7349   -2.2769 H   0  0  0  0  0
   15.2198    0.3936   -2.0856 H   0  0  0  0  0
   14.5732   -0.1138    0.0829 H   0  0  0  0  0
   17.9884    2.0966   -0.6486 H   0  0  0  0  0
   19.8885    1.3328   -2.4785 H   0  0  0  0  0
   20.2794    1.5423    0.5322 H   0  0  0  0  0
   20.3443    2.8935   -0.6524 H   0  0  0  0  0
   22.4301    2.0996   -0.0791 H   0  0  0  0  0
   20.7843   -0.4509   -3.1959 H   0  0  0  0  0
   20.0129   -2.9992   -2.3370 H   0  0  0  0  0
   21.9000   -3.8750   -3.6662 H   0  0  0  0  0
   23.3749   -2.3160   -4.5826 H   0  0  0  0  0
   19.9055   -3.0775   -4.8516 H   0  0  0  0  0
   20.5938   -1.4369   -4.9261 H   0  0  0  0  0
   21.3746   -2.7710   -5.8101 H   0  0  0  0  0
   20.4515   -4.1934   -0.6132 H   0  0  0  0  0
   21.8943   -3.4712    1.5739 H   0  0  0  0  0
   23.1453   -4.2279    0.5027 H   0  0  0  0  0
   19.7707   -5.2283    0.6002 H   0  0  0  0  0
   20.3797   -7.4418    2.4216 H   0  0  0  0  0
   20.1033   -7.9027    0.6890 H   0  0  0  0  0
   18.1003   -8.1146   -0.0589 H   0  0  0  0  0
   15.9196   -7.8016    1.9228 H   0  0  0  0  0
   15.1107   -6.8555   -0.7175 H   0  0  0  0  0
   16.3469   -5.8022    0.1004 H   0  0  0  0  0
   13.7787   -6.7134    1.3867 H   0  0  0  0  0
   13.9613   -5.1602    0.4897 H   0  0  0  0  0
   15.1896   -4.2110    2.1235 H   0  0  0  0  0
   15.9691   -5.7701    2.5857 H   0  0  0  0  0
   13.1005   -5.0540    3.1919 H   0  0  0  0  0
   14.4796   -4.7949    4.3294 H   0  0  0  0  0
   13.3199   -6.8448    4.7679 H   0  0  0  0  0
   13.6083   -7.3852    3.2182 H   0  0  0  0  0
   14.8806   -7.1462    4.2676 H   0  0  0  0  0
   15.0598   -9.7360    2.0351 H   0  0  0  0  0
   13.8738  -10.9797   -0.2732 H   0  0  0  0  0
   16.1905  -11.5989   -0.7805 H   0  0  0  0  0
   16.3699  -12.3061    0.8440 H   0  0  0  0  0
   15.2428  -13.0362   -0.3255 H   0  0  0  0  0
   12.2680  -11.1143    1.0025 H   0  0  0  0  0
  2  1  1  0  0  0
  3  2  1  0  0  0
  2  5  1  0  0  0
  3  4  2  0  0  0
  6  3  1  0  0  0
  7  6  1  0  0  0
  8  7  1  0  0  0
  7 10  1  0  0  0
  8  9  2  0  0  0
 17  8  1  0  0  0
 10 11  1  0  0  0
 11 12  1  0  0  0
 12 13  1  0  0  0
 13 14  1  0  0  0
 14 15  2  0  0  0
 14 16  1  0  0  0
 18 17  1  0  0  0
 19 18  1  0  0  0
 18 21  1  0  0  0
 19 20  2  0  0  0
 24 19  1  0  0  0
 21 22  1  0  0  0
 21 23  1  0  0  0
 25 24  1  0  0  0
 26 25  1  0  0  0
 25 28  1  0  0  0
 26 27  2  0  0  0
 33 26  1  0  0  0
 28 29  1  0  0  0
 29 30  1  0  0  0
 30 31  1  0  0  0
 31 32  1  0  0  0
 34 33  1  0  0  0
 35 34  1  0  0  0
 34 37  1  0  0  0
 35 36  2  0  0  0
 42 35  1  0  0  0
 37 38  1  0  0  0
 38 39  1  0  0  0
 39 40  2  0  0  0
 39 41  1  0  0  0
 43 42  1  0  0  0
 44 43  1  0  0  0
 43 46  1  0  0  0
 44 45  2  0  0  0
 49 44  1  0  0  0
 46 47  1  0  0  0
 46 48  1  0  0  0
 50 49  1  0  0  0
 51 50  1  0  0  0
 50 53  1  0  0  0
 51 52  2  0  0  0
 54 51  1  0  0  0
 55 54  1  0  0  0
 56 55  1  0  0  0
 55 58  1  0  0  0
 56 57  2  0  0  0
 74 56  1  0  0  0
 58 59  1  0  0  0
 59 60  1  0  0  0
 60 61  1  0  0  0
 61 62  1  0  0  0
 62 63  2  0  0  0
 62 64  1  0  0  0
 66 65  2  0  0  0
 66 67  1  0  0  0
 68 66  1  0  0  0
 69 68  1  0  0  0
 70 69  1  0  0  0
 71 70  1  0  0  0
 72 71  1  0  0  0
 73 72  1  0  0  0
 73 74  1  0  0  0
 73 75  1  0  0  0
 75 76  2  0  0  0
 75 77  1  0  0  0
 77 78  1  0  0  0
 78 79  1  0  0  0
 78 81  1  0  0  0
 79 80  2  0  0  0
 79 83  1  0  0  0
 81 82  1  0  0  0
 83 84  1  0  0  0
 84 85  1  0  0  0
 84 87  1  0  0  0
 85 86  2  0  0  0
 85 90  1  0  0  0
 87 88  1  0  0  0
 87 89  1  0  0  0
 90 91  1  0  0  0
 91 92  1  0  0  0
 92 93  2  0  0  0
 92 94  1  0  0  0
 94 95  1  0  0  0
 95 96  1  0  0  0
 96 97  2  0  0  0
 96 98  1  0  0  0
 98 99  1  0  0  0
 99100  1  0  0  0
 99102  1  0  0  0
100101  2  0  0  0
100107  1  0  0  0
102103  1  0  0  0
103104  1  0  0  0
104105  1  0  0  0
105106  1  0  0  0
107108  1  0  0  0
108109  1  0  0  0
108111  1  0  0  0
109110  2  0  0  0
109112  1  0  0  0
  1113  1  0  0  0
  1114  1  0  0  0
  1115  1  0  0  0
  2116  1  0  0  0
  5117  1  0  0  0
  5118  1  0  0  0
  5119  1  0  0  0
  6120  1  0  0  0
  7121  1  0  0  0
 10122  1  0  0  0
 10123  1  0  0  0
 11124  1  0  0  0
 11125  1  0  0  0
 12126  1  0  0  0
 12127  1  0  0  0
 13128  1  0  0  0
 15129  1  0  0  0
 16130  1  0  0  0
 16131  1  0  0  0
 17132  1  0  0  0
 18133  1  0  0  0
 21134  1  0  0  0
 22135  1  0  0  0
 23136  1  0  0  0
 23137  1  0  0  0
 23138  1  0  0  0
 24139  1  0  0  0
 25140  1  0  0  0
 28141  1  0  0  0
 28142  1  0  0  0
 29143  1  0  0  0
 29144  1  0  0  0
 30145  1  0  0  0
 30146  1  0  0  0
 31147  1  0  0  0
 31148  1  0  0  0
 32149  1  0  0  0
 32150  1  0  0  0
 32151  1  0  0  0
 33152  1  0  0  0
 34153  1  0  0  0
 37154  1  0  0  0
 37155  1  0  0  0
 38156  1  0  0  0
 38157  1  0  0  0
 41158  1  0  0  0
 41159  1  0  0  0
 42160  1  0  0  0
 43161  1  0  0  0
 46162  1  0  0  0
 47163  1  0  0  0
 48164  1  0  0  0
 48165  1  0  0  0
 48166  1  0  0  0
 49167  1  0  0  0
 50168  1  0  0  0
 53169  1  0  0  0
 53170  1  0  0  0
 53171  1  0  0  0
 54172  1  0  0  0
 55173  1  0  0  0
 58174  1  0  0  0
 58175  1  0  0  0
 59176  1  0  0  0
 59177  1  0  0  0
 60178  1  0  0  0
 60179  1  0  0  0
 61180  1  0  0  0
 63181  1  0  0  0
 64182  1  0  0  0
 64183  1  0  0  0
 67184  1  0  0  0
 67185  1  0  0  0
 67186  1  0  0  0
 68187  1  0  0  0
 69188  1  0  0  0
 69189  1  0  0  0
 70190  1  0  0  0
 70191  1  0  0  0
 71192  1  0  0  0
 71193  1  0  0  0
 72194  1  0  0  0
 72195  1  0  0  0
 73196  1  0  0  0
 74197  1  0  0  0
 77198  1  0  0  0
 78199  1  0  0  0
 81200  1  0  0  0
 81201  1  0  0  0
 82202  1  0  0  0
 83203  1  0  0  0
 84204  1  0  0  0
 87205  1  0  0  0
 88206  1  0  0  0
 89207  1  0  0  0
 89208  1  0  0  0
 89209  1  0  0  0
 90210  1  0  0  0
 91211  1  0  0  0
 91212  1  0  0  0
 94213  1  0  0  0
 95214  1  0  0  0
 95215  1  0  0  0
 98216  1  0  0  0
 99217  1  0  0  0
102218  1  0  0  0
102219  1  0  0  0
103220  1  0  0  0
103221  1  0  0  0
104222  1  0  0  0
104223  1  0  0  0
105224  1  0  0  0
105225  1  0  0  0
106226  1  0  0  0
106227  1  0  0  0
106228  1  0  0  0
107229  1  0  0  0
108230  1  0  0  0
111231  1  0  0  0
111232  1  0  0  0
111233  1  0  0  0
112234  1  0  0  0
M  END
$$$$
