### 
### Created by X-TOOL on Mon Sep 10 21:12:59 2018
### 

@<TRIPOS>MOLECULE
2rnw_ligand
  235   234     1     0     0
SMALL
GAST_HUCK


@<TRIPOS>ATOM
      1 N          11.0260   16.7260    4.1250 N.4       1 ALA         0.2377
      2 CA         12.2420   16.2110    4.8040 C.3       1 ALA         0.0621
      3 C          11.9000   15.6220    6.1680 C.2       1 ALA         0.2264
      4 O          10.7390   15.6200    6.5790 O.2       1 ALA        -0.3907
      5 CB         13.2740   17.3200    4.9510 C.3       1 ALA        -0.0040
      6 N          12.9180   15.1220    6.8630 N.am      1 ARG        -0.2610
      7 CA         12.7300   14.5270    8.1840 C.3       1 ARG         0.1312
      8 C          11.7130   13.3910    8.1310 C.2       1 ARG         0.2040
      9 O          10.8890   13.2380    9.0330 O.2       1 ARG        -0.3944
     10 CB         12.2820   15.5890    9.1900 C.3       1 ARG        -0.0092
     11 CG         13.3300   16.6570    9.4570 C.3       1 ARG        -0.0156
     12 CD         12.8100   17.7240   10.4060 C.3       1 ARG         0.0627
     13 NE         11.6500   18.4220    9.8600 N.pl3     1 ARG        -0.2723
     14 CZ         10.9460   19.3260   10.5350 C.cat     1 ARG         0.2882
     15 NH1        11.2800   19.6420   11.7790 N.pl3     1 ARG        -0.2849
     16 NH2         9.9040   19.9170    9.9640 N.pl3     1 ARG        -0.2849
     17 N          11.7760   12.5960    7.0660 N.am      1 THR        -0.2613
     18 CA         10.8620   11.4730    6.8940 C.3       1 THR         0.1565
     19 C          11.4950   10.1760    7.3860 C.2       1 THR         0.2065
     20 O          12.6930    9.9540    7.2110 O.2       1 THR        -0.3943
     21 CB         10.4530   11.3070    5.4180 C.3       1 THR         0.0924
     22 OG1         9.9470   12.5460    4.9070 O.3       1 THR        -0.3874
     23 CG2         9.3940   10.2240    5.2660 C.3       1 THR        -0.0346
     24 N          10.6830    9.3230    8.0040 N.am      1 LYS        -0.2637
     25 CA         11.1680    8.0490    8.5240 C.3       1 LYS         0.1310
     26 C          10.5660    6.8760    7.7540 C.2       1 LYS         0.2039
     27 O           9.6730    6.1880    8.2480 O.2       1 LYS        -0.3944
     28 CB         10.8340    7.9260   10.0140 C.3       1 LYS        -0.0122
     29 CG         11.4080    6.6780   10.6670 C.3       1 LYS        -0.0440
     30 CD         11.0420    6.6030   12.1410 C.3       1 LYS        -0.0124
     31 CE         11.5910    5.3400   12.7850 C.3       1 LYS        -0.0354
     32 NZ         11.2390    5.2540   14.2290 N.4       1 LYS         0.2185
     33 N          11.0600    6.6550    6.5390 N.am      1 GLN        -0.2636
     34 CA         10.5740    5.5600    5.7060 C.3       1 GLN         0.1330
     35 C          11.1910    4.2370    6.1480 C.2       1 GLN         0.2041
     36 O          11.9320    4.1860    7.1300 O.2       1 GLN        -0.3944
     37 CB         10.8980    5.8200    4.2330 C.3       1 GLN         0.0045
     38 CG         12.3870    5.8190    3.9260 C.3       1 GLN         0.0412
     39 CD         12.6770    5.7750    2.4360 C.2       1 GLN         0.1737
     40 OE1        13.6930    5.2280    2.0080 O.2       1 GLN        -0.3973
     41 NE2        11.7860    6.3550    1.6380 N.am      1 GLN        -0.3009
     42 N          10.8830    3.1690    5.4190 N.am      1 THR        -0.2613
     43 CA         11.4090    1.8490    5.7430 C.3       1 THR         0.1565
     44 C          11.9700    1.1510    4.5070 C.2       1 THR         0.2065
     45 O          12.7460    0.2020    4.6250 O.2       1 THR        -0.3943
     46 CB         10.3340    0.9550    6.3870 C.3       1 THR         0.0924
     47 OG1        10.8040   -0.3960    6.4750 O.3       1 THR        -0.3874
     48 CG2         9.0440    1.0000    5.5860 C.3       1 THR        -0.0346
     49 N          11.5710    1.6170    3.3240 N.am      1 ALA        -0.2639
     50 CA         12.0580    1.0330    2.0770 C.3       1 ALA         0.1282
     51 C          13.5760    1.1140    2.0200 C.2       1 ALA         0.2036
     52 O          14.1350    2.1550    1.6740 O.2       1 ALA        -0.3944
     53 CB         11.4460    1.7400    0.8720 C.3       1 ALA        -0.0244
     54 N          14.2360    0.0120    2.3720 N.am      1 ARG        -0.2637
     55 CA         15.6930   -0.0380    2.3640 C.3       1 ARG         0.1311
     56 C          16.2400    0.5270    1.0600 C.2       1 ARG         0.2039
     57 O          17.3270    1.1020    1.0400 O.2       1 ARG        -0.3944
     58 CB         16.1870   -1.4730    2.5650 C.3       1 ARG        -0.0092
     59 CG         15.7680   -2.0850    3.8920 C.3       1 ARG        -0.0156
     60 CD         16.5380   -1.4810    5.0550 C.3       1 ARG         0.0627
     61 NE         16.1340   -2.0570    6.3350 N.pl3     1 ARG        -0.2723
     62 CZ         16.8410   -1.9360    7.4550 C.cat     1 ARG         0.2882
     63 NH1        17.9880   -1.2700    7.4550 N.pl3     1 ARG        -0.2849
     64 NH2        16.4010   -2.4860    8.5790 N.pl3     1 ARG        -0.2849
     65 OH          9.4130   -0.3000   -2.8270 O.2       1 ALY        -0.3974
     66 CH          9.8420    0.7800   -2.4240 C.2       1 ALY         0.1729
     67 CH3         8.8290    1.8840   -2.0790 C.3       1 ALY         0.0256
     68 NZ         11.1330    0.9520   -2.1260 N.am      1 ALY        -0.2872
     69 CE         11.8930    2.1760   -2.3970 C.3       1 ALY         0.0309
     70 CD         13.3930    1.9090   -2.4830 C.3       1 ALY        -0.0325
     71 CG         14.1870    2.7960   -1.5210 C.3       1 ALY        -0.0470
     72 CB         15.6530    2.3710   -1.3920 C.3       1 ALY        -0.0123
     73 CA         15.8550    0.8640   -1.3350 C.3       1 ALY         0.1310
     74 N          15.4660    0.3690   -0.0180 N.am      1 ALY        -0.2637
     75 C          17.2940    0.4840   -1.6750 C.2       1 ALY         0.2040
     76 O          17.5270   -0.5120   -2.3600 O.2       1 ALY        -0.3944
     77 N          18.2520    1.2820   -1.2030 N.am      1 SER        -0.2616
     78 CA         19.6700    1.0250   -1.4560 C.3       1 SER         0.1539
     79 C          19.9950   -0.4590   -1.3230 C.2       1 SER         0.2063
     80 O          19.7190   -1.0760   -0.2940 O.2       1 SER        -0.3943
     81 CB         20.5340    1.8330   -0.4870 C.3       1 SER         0.0843
     82 OG         21.9120    1.5810   -0.6990 O.3       1 SER        -0.3903
     83 N          20.5820   -1.0230   -2.3760 N.am      1 THR        -0.2613
     84 CA         20.9440   -2.4350   -2.3910 C.3       1 THR         0.1565
     85 C          21.8170   -2.7990   -1.1940 C.2       1 THR         0.2063
     86 O          22.8900   -2.2270   -0.9990 O.2       1 THR        -0.3943
     87 CB         21.6880   -2.8060   -3.6870 C.3       1 THR         0.0924
     88 OG1        22.9190   -2.0780   -3.7720 O.3       1 THR        -0.3874
     89 CG2        20.8290   -2.5010   -4.9060 C.3       1 THR        -0.0346
     90 N          21.3470   -3.7550   -0.3980 N.am      1 GLY        -0.2663
     91 CA         22.0900   -4.1830    0.7720 C.3       1 GLY         0.1201
     92 C          21.6710   -5.5580    1.2540 C.2       1 GLY         0.2005
     93 O          22.4850   -6.3070    1.7950 O.2       1 GLY        -0.3947
     94 N          20.3990   -5.8900    1.0560 N.am      1 GLY        -0.2666
     95 CA         19.8930   -7.1840    1.4810 C.3       1 GLY         0.1201
     96 C          18.3940   -7.1760    1.7180 C.2       1 GLY         0.2007
     97 O          17.9260   -6.6860    2.7440 O.2       1 GLY        -0.3947
     98 N          17.6450   -7.7240    0.7660 N.am      1 LYS        -0.2640
     99 CA         16.1900   -7.7830    0.8670 C.3       1 LYS         0.1309
    100 C          15.6560   -9.0530    0.2150 C.2       1 LYS         0.2033
    101 O          15.7520   -9.2270   -0.9980 O.2       1 LYS        -0.3944
    102 CB         15.5610   -6.5470    0.2260 C.3       1 LYS        -0.0122
    103 CG         14.4660   -5.9250    1.0800 C.3       1 LYS        -0.0440
    104 CD         15.0350   -5.2700    2.3300 C.3       1 LYS        -0.0124
    105 CE         14.0860   -5.3950    3.5090 C.3       1 LYS        -0.0354
    106 NZ         13.9640   -6.8050    3.9780 N.4       1 LYS         0.2185
    107 N          15.1020   -9.9420    1.0370 N.am      1 ALA        -0.2698
    108 CA         14.5540  -11.2020    0.5490 C.3       1 ALA         0.0916
    109 C          13.7620  -11.9140    1.6420 C.2       1 ALA         0.0598
    110 O          14.3810  -12.6590    2.4290 O.co2     1 ALA        -0.5666
    111 CB         15.6690  -12.1000    0.0350 C.3       1 ALA        -0.0300
    112 OXT        12.5290  -11.7190    1.7010 O.co2     1 ALA        -0.5666
    113 H1         11.2791   17.1090    3.2276 H         1 ALA         0.2015
    114 H2         10.6046   17.4459    4.6908 H         1 ALA         0.2015
    115 H3         10.3689   15.9727    3.9955 H         1 ALA         0.2015
    116 H4         12.6739   15.4135    4.1816 H         1 ALA         0.1095
    117 H5         14.1681   16.9243    5.4550 H         1 ALA         0.0310
    118 H6         12.8488   18.1397    5.5487 H         1 ALA         0.0310
    119 H7         13.5510   17.6974    3.9556 H         1 ALA         0.0310
    120 H8         13.8372   15.1543    6.4705 H         1 ARG         0.1884
    121 H9         13.6936   14.1148    8.5180 H         1 ARG         0.0800
    122 H10        12.0454   15.0891   10.1408 H         1 ARG         0.0313
    123 H11        11.3784   16.0791    8.7986 H         1 ARG         0.0313
    124 H12        13.6078   17.1311    8.5041 H         1 ARG         0.0301
    125 H13        14.2169   16.1836    9.9033 H         1 ARG         0.0301
    126 H14        13.6103   18.4557   10.5909 H         1 ARG         0.0689
    127 H15        12.5233   17.2466   11.3546 H         1 ARG         0.0689
    128 H16        11.3601   18.2016    8.8965 H         1 ARG         0.2642
    129 H17        10.7313   20.3429   12.2973 H         1 ARG         0.2615
    130 H18        12.0881   19.1866   12.2268 H         1 ARG         0.2615
    131 H19         9.6403   19.6753    8.9981 H         1 ARG         0.2615
    132 H20         9.3589   20.6174   10.4867 H         1 ARG         0.2615
    133 H21        12.4677   12.7731    6.3658 H         1 THR         0.1884
    134 H22         9.9578   11.6709    7.4883 H         1 THR         0.0826
    135 H23        11.3411   11.0173    4.8371 H         1 THR         0.0639
    136 H24         9.6977   12.4338    3.9971 H         1 THR         0.2101
    137 H25         9.1199   10.1255    4.2053 H         1 THR         0.0257
    138 H26         8.5034   10.4973    5.8509 H         1 THR         0.0257
    139 H27         9.7934    9.2666    5.6319 H         1 THR         0.0257
    140 H28         9.7179    9.5603    8.1148 H         1 LYS         0.1883
    141 H29        12.2612    8.0187    8.4054 H         1 LYS         0.0800
    142 H30         9.7398    7.9038   10.1242 H         1 LYS         0.0312
    143 H31        11.2372    8.8072   10.5344 H         1 LYS         0.0312
    144 H32        12.5037    6.6959   10.5711 H         1 LYS         0.0269
    145 H33        11.0094    5.7904   10.1540 H         1 LYS         0.0269
    146 H34         9.9463    6.6072   12.2384 H         1 LYS         0.0317
    147 H35        11.4596    7.4792   12.6586 H         1 LYS         0.0317
    148 H36        12.6865    5.3375   12.6855 H         1 LYS         0.0813
    149 H37        11.1735    4.4654   12.2647 H         1 LYS         0.0813
    150 H38        11.6200    4.4056   14.6177 H         1 LYS         0.1994
    151 H39        10.2362    5.2494   14.3307 H         1 LYS         0.1994
    152 H40        11.6226    6.0487   14.7163 H         1 LYS         0.1994
    153 H41        11.7809    7.2529    6.1884 H         1 GLN         0.1883
    154 H42         9.4818    5.4936    5.8190 H         1 GLN         0.0801
    155 H43        10.4867    6.8015    3.9548 H         1 GLN         0.0337
    156 H44        10.4181    5.0365    3.6282 H         1 GLN         0.0337
    157 H45        12.8436    4.9375    4.3997 H         1 GLN         0.0504
    158 H46        12.8335    6.7329    4.3447 H         1 GLN         0.0504
    159 H47        11.9271    6.3555    0.6480 H         1 GLN         0.1814
    160 H48        10.9747    6.7908    2.0277 H         1 GLN         0.1814
    161 H49        10.2768    3.2736    4.6306 H         1 THR         0.1884
    162 H50        12.2272    1.9805    6.4664 H         1 THR         0.0826
    163 H51        10.1310    1.3265    7.4023 H         1 THR         0.0639
    164 H52        10.9981   -0.7200    5.6033 H         1 THR         0.2101
    165 H53         8.2925    0.3549    6.0646 H         1 THR         0.0257
    166 H54         9.2350    0.6437    4.5630 H         1 THR         0.0257
    167 H55         8.6703    2.0340    5.5504 H         1 THR         0.0257
    168 H56        10.9263    2.3806    3.2894 H         1 ALA         0.1883
    169 H57        11.7613   -0.0258    2.0478 H         1 ALA         0.0797
    170 H58        11.8271    1.2835   -0.0534 H         1 ALA         0.0277
    171 H59        11.7186    2.8054    0.8945 H         1 ALA         0.0277
    172 H60        10.3510    1.6409    0.9058 H         1 ALA         0.0277
    173 H61        13.7206   -0.7993    2.6480 H         1 ARG         0.1883
    174 H62        16.0659    0.5785    3.1952 H         1 ARG         0.0800
    175 H63        17.2859   -1.4719    2.5150 H         1 ARG         0.0313
    176 H64        15.7836   -2.0958    1.7530 H         1 ARG         0.0313
    177 H65        15.9587   -3.1679    3.8617 H         1 ARG         0.0301
    178 H66        14.6934   -1.9060    4.0441 H         1 ARG         0.0301
    179 H67        16.3530   -0.3969    5.0790 H         1 ARG         0.0689
    180 H68        17.6118   -1.6666    4.9049 H         1 ARG         0.0689
    181 H69        15.2516   -2.5869    6.3724 H         1 ARG         0.2642
    182 H70        18.5311   -1.1797    8.3255 H         1 ARG         0.2615
    183 H71        18.3357   -0.8431    6.5845 H         1 ARG         0.2615
    184 H72        15.5109   -3.0043    8.5847 H         1 ARG         0.2615
    185 H73        16.9494   -2.3948    9.4461 H         1 ARG         0.2615
    186 H74         9.3663    2.7805   -1.7361 H         1 ALY         0.0467
    187 H75         8.1590    1.5307   -1.2814 H         1 ALY         0.0467
    188 H76         8.2370    2.1308   -2.9727 H         1 ALY         0.0467
    189 H77        11.6144    0.1930   -1.6876 H         1 ALY         0.1850
    190 H78        11.7063    2.8968   -1.5873 H         1 ALY         0.0520
    191 H79        11.5525    2.6015   -3.3525 H         1 ALY         0.0520
    192 H80        13.7312    2.1075   -3.5107 H         1 ALY         0.0285
    193 H81        13.5815    0.8547   -2.2321 H         1 ALY         0.0285
    194 H82        13.7178    2.7444   -0.5274 H         1 ALY         0.0268
    195 H83        14.1529    3.8319   -1.8893 H         1 ALY         0.0268
    196 H84        16.0612    2.8103   -0.4698 H         1 ALY         0.0312
    197 H85        16.2046    2.7618   -2.2597 H         1 ALY         0.0312
    198 H86        15.1975    0.3996   -2.0846 H         1 ALY         0.0800
    199 H87        14.5907   -0.1044    0.0810 H         1 ALY         0.1883
    200 H88        17.9935    2.0806   -0.6594 H         1 SER         0.1884
    201 H89        19.9023    1.3420   -2.4834 H         1 SER         0.0823
    202 H90        20.2727    1.5547    0.5446 H         1 SER         0.0606
    203 H91        20.3375    2.9046   -0.6387 H         1 SER         0.0606
    204 H92        22.4246    2.0942   -0.0856 H         1 SER         0.2097
    205 H93        20.7804   -0.4621   -3.1798 H         1 THR         0.1884
    206 H94        20.0172   -3.0252   -2.3390 H         1 THR         0.0826
    207 H95        21.9106   -3.8831   -3.6705 H         1 THR         0.0639
    208 H96        23.4652   -2.2934   -3.0252 H         1 THR         0.2101
    209 H97        21.3786   -2.7731   -5.8192 H         1 THR         0.0257
    210 H98        20.5910   -1.4273   -4.9275 H         1 THR         0.0257
    211 H99        19.8967   -3.0823   -4.8523 H         1 THR         0.0257
    212 H100       20.4691   -4.1848   -0.6090 H         1 GLY         0.1881
    213 H101       21.9207   -3.4584    1.5821 H         1 GLY         0.0763
    214 H102       23.1605   -4.2084    0.5204 H         1 GLY         0.0763
    215 H103       19.7830   -5.2413    0.6091 H         1 GLY         0.1881
    216 H104       20.3960   -7.4688    2.4169 H         1 GLY         0.0763
    217 H105       20.1223   -7.9252    0.7013 H         1 GLY         0.0763
    218 H106       18.0914   -8.1069   -0.0428 H         1 LYS         0.1883
    219 H107       15.9166   -7.7991    1.9323 H         1 LYS         0.0800
    220 H108       15.1277   -6.8368   -0.7426 H         1 LYS         0.0312
    221 H109       16.3488   -5.7963    0.0654 H         1 LYS         0.0312
    222 H110       13.7573   -6.7110    1.3799 H         1 LYS         0.0269
    223 H111       13.9393   -5.1635    0.4862 H         1 LYS         0.0269
    224 H112       15.2113   -4.2037    2.1254 H         1 LYS         0.0317
    225 H113       15.9877   -5.7567    2.5857 H         1 LYS         0.0317
    226 H114       13.0922   -5.0341    3.2054 H         1 LYS         0.0813
    227 H115       14.4637   -4.7765    4.3365 H         1 LYS         0.0813
    228 H116       13.3277   -6.8455    4.7587 H         1 LYS         0.1994
    229 H117       14.8692   -7.1433    4.2645 H         1 LYS         0.1994
    230 H118       13.6125   -7.3794    3.2279 H         1 LYS         0.1994
    231 H119       15.0606   -9.7401    2.0155 H         1 ALA         0.1875
    232 H120       13.8715  -10.9821   -0.2852 H         1 ALA         0.0723
    233 H121       15.2401  -13.0452   -0.3291 H         1 ALA         0.0270
    234 H122       16.3770  -12.3088    0.8505 H         1 ALA         0.0270
    235 H123       16.1961  -11.5955   -0.7881 H         1 ALA         0.0270
@<TRIPOS>BOND
     1    2    1 1  
     2    3    2 1  
     3    2    5 1  
     4    3    4 2  
     5    6    3 am 
     6    7    6 1  
     7    8    7 1  
     8    7   10 1  
     9    8    9 2  
    10   17    8 am 
    11   10   11 1  
    12   11   12 1  
    13   12   13 1  
    14   13   14 ar 
    15   14   15 ar 
    16   14   16 ar 
    17   18   17 1  
    18   19   18 1  
    19   18   21 1  
    20   19   20 2  
    21   24   19 am 
    22   21   22 1  
    23   21   23 1  
    24   25   24 1  
    25   26   25 1  
    26   25   28 1  
    27   26   27 2  
    28   33   26 am 
    29   28   29 1  
    30   29   30 1  
    31   30   31 1  
    32   31   32 1  
    33   34   33 1  
    34   35   34 1  
    35   34   37 1  
    36   35   36 2  
    37   42   35 am 
    38   37   38 1  
    39   38   39 1  
    40   39   40 2  
    41   39   41 am 
    42   43   42 1  
    43   44   43 1  
    44   43   46 1  
    45   44   45 2  
    46   49   44 am 
    47   46   47 1  
    48   46   48 1  
    49   50   49 1  
    50   51   50 1  
    51   50   53 1  
    52   51   52 2  
    53   54   51 am 
    54   55   54 1  
    55   56   55 1  
    56   55   58 1  
    57   56   57 2  
    58   74   56 am 
    59   58   59 1  
    60   59   60 1  
    61   60   61 1  
    62   61   62 ar 
    63   62   63 ar 
    64   62   64 ar 
    65   66   65 2  
    66   66   67 1  
    67   68   66 am 
    68   69   68 1  
    69   70   69 1  
    70   71   70 1  
    71   72   71 1  
    72   73   72 1  
    73   73   74 1  
    74   73   75 1  
    75   75   76 2  
    76   75   77 am 
    77   77   78 1  
    78   78   79 1  
    79   78   81 1  
    80   79   80 2  
    81   79   83 am 
    82   81   82 1  
    83   83   84 1  
    84   84   85 1  
    85   84   87 1  
    86   85   86 2  
    87   85   90 am 
    88   87   88 1  
    89   87   89 1  
    90   90   91 1  
    91   91   92 1  
    92   92   93 2  
    93   92   94 am 
    94   94   95 1  
    95   95   96 1  
    96   96   97 2  
    97   96   98 am 
    98   98   99 1  
    99   99  100 1  
   100   99  102 1  
   101  100  101 2  
   102  100  107 am 
   103  102  103 1  
   104  103  104 1  
   105  104  105 1  
   106  105  106 1  
   107  107  108 1  
   108  108  109 1  
   109  108  111 1  
   110  109  110 ar 
   111  109  112 ar 
   112    1  113 1  
   113    1  114 1  
   114    1  115 1  
   115    2  116 1  
   116    5  117 1  
   117    5  118 1  
   118    5  119 1  
   119    6  120 1  
   120    7  121 1  
   121   10  122 1  
   122   10  123 1  
   123   11  124 1  
   124   11  125 1  
   125   12  126 1  
   126   12  127 1  
   127   13  128 1  
   128   15  129 1  
   129   15  130 1  
   130   16  131 1  
   131   16  132 1  
   132   17  133 1  
   133   18  134 1  
   134   21  135 1  
   135   22  136 1  
   136   23  137 1  
   137   23  138 1  
   138   23  139 1  
   139   24  140 1  
   140   25  141 1  
   141   28  142 1  
   142   28  143 1  
   143   29  144 1  
   144   29  145 1  
   145   30  146 1  
   146   30  147 1  
   147   31  148 1  
   148   31  149 1  
   149   32  150 1  
   150   32  151 1  
   151   32  152 1  
   152   33  153 1  
   153   34  154 1  
   154   37  155 1  
   155   37  156 1  
   156   38  157 1  
   157   38  158 1  
   158   41  159 1  
   159   41  160 1  
   160   42  161 1  
   161   43  162 1  
   162   46  163 1  
   163   47  164 1  
   164   48  165 1  
   165   48  166 1  
   166   48  167 1  
   167   49  168 1  
   168   50  169 1  
   169   53  170 1  
   170   53  171 1  
   171   53  172 1  
   172   54  173 1  
   173   55  174 1  
   174   58  175 1  
   175   58  176 1  
   176   59  177 1  
   177   59  178 1  
   178   60  179 1  
   179   60  180 1  
   180   61  181 1  
   181   63  182 1  
   182   63  183 1  
   183   64  184 1  
   184   64  185 1  
   185   67  186 1  
   186   67  187 1  
   187   67  188 1  
   188   68  189 1  
   189   69  190 1  
   190   69  191 1  
   191   70  192 1  
   192   70  193 1  
   193   71  194 1  
   194   71  195 1  
   195   72  196 1  
   196   72  197 1  
   197   73  198 1  
   198   74  199 1  
   199   77  200 1  
   200   78  201 1  
   201   81  202 1  
   202   81  203 1  
   203   82  204 1  
   204   83  205 1  
   205   84  206 1  
   206   87  207 1  
   207   88  208 1  
   208   89  209 1  
   209   89  210 1  
   210   89  211 1  
   211   90  212 1  
   212   91  213 1  
   213   91  214 1  
   214   94  215 1  
   215   95  216 1  
   216   95  217 1  
   217   98  218 1  
   218   99  219 1  
   219  102  220 1  
   220  102  221 1  
   221  103  222 1  
   222  103  223 1  
   223  104  224 1  
   224  104  225 1  
   225  105  226 1  
   226  105  227 1  
   227  106  228 1  
   228  106  229 1  
   229  106  230 1  
   230  107  231 1  
   231  108  232 1  
   232  111  233 1  
   233  111  234 1  
   234  111  235 1  
@<TRIPOS>SUBSTRUCTURE
     1 ALA         1

