6b7h_ligand
  -I-interpret- 

 43 45  0  0  0  0  0  0  0  0999 V2000
  -12.4260   96.4510    8.0060 O   0  0  0  0  0
  -12.3530   94.5040   10.7110 C   0  0  0  0  0
   -7.6440   93.6970   11.8330 O   0  0  0  0  0
  -10.9860   95.0510   10.9280 C   0  0  0  0  0
  -11.1110   94.4520    8.6150 C   0  0  0  0  0
  -13.1690   95.6860   10.7450 N   0  0  0  0  0
   -8.5880   94.5060   11.3070 C   0  0  0  0  0
   -9.8350   94.1440   10.6940 C   0  0  0  0  0
  -10.2870   95.0860    9.6200 C   0  0  0  0  0
  -11.6540   95.4070    7.6430 C   0  0  0  0  0
  -13.5060   95.5660   12.8950 O   0  0  0  0  0
  -13.6610   96.1390   11.9110 C   0  0  0  0  0
  -14.4010   97.3450   11.8730 C   0  0  0  0  0
  -14.6200   98.0090   13.0350 C   0  0  0  0  0
  -15.1870   99.2320   12.9870 C   0  0  0  0  0
  -15.3390  100.0160   14.0280 O   0  0  0  0  0
  -14.8350   99.5610   15.2170 C   0  0  0  0  0
  -15.5770   99.7660   11.8290 C   0  0  0  0  0
  -15.3740   99.0810   10.6850 C   0  0  0  0  0
  -14.7750   97.8600   10.7040 C   0  0  0  0  0
  -12.2710   93.8780    9.3550 C   0  0  0  0  0
   -8.3500   95.8330   11.3340 O   0  0  0  0  0
  -10.3730   93.4610    7.9820 N   0  3  0  0  0
  -11.4260   95.3020    6.3170 O   0  0  0  0  0
  -12.7401   93.7671   11.4148 H   0  0  0  0  0
   -7.9276   92.7832   11.7548 H   0  0  0  0  0
  -11.2158   95.7196   11.7576 H   0  0  0  0  0
  -13.3762   96.1843    9.8794 H   0  0  0  0  0
   -9.6845   93.0687   10.7893 H   0  0  0  0  0
   -9.7826   95.8301    9.0036 H   0  0  0  0  0
  -14.3430   97.5627   13.9901 H   0  0  0  0  0
  -15.3196   98.6206   15.4795 H   0  0  0  0  0
  -13.7611   99.4026   15.1181 H   0  0  0  0  0
  -15.0245  100.2989   15.9966 H   0  0  0  0  0
  -16.0547  100.7455   11.8072 H   0  0  0  0  0
  -15.6933   99.5104    9.7354 H   0  0  0  0  0
  -14.6041   97.3123    9.7772 H   0  0  0  0  0
  -13.1900   94.0794    8.8046 H   0  0  0  0  0
  -12.1403   92.8008    9.4583 H   0  0  0  0  0
  -10.9499   93.0104    7.2717 H   0  0  0  0  0
   -9.5532   93.8783    7.5413 H   0  0  0  0  0
  -10.0755   92.7687    8.6695 H   0  0  0  0  0
  -10.8715   94.5367    6.1484 H   0  0  0  0  0
 10  1  2  0  0  0
  4  2  1  0  0  0
  2  6  1  0  0  0
  2 21  1  0  0  0
  7  3  1  0  0  0
  8  4  1  0  0  0
  4  9  1  0  0  0
  9  5  1  0  0  0
  5 10  1  0  0  0
  5 21  1  0  0  0
  5 23  1  0  0  0
  6 12  1  0  0  0
  7  8  1  0  0  0
  7 22  2  0  0  0
  8  9  1  0  0  0
 10 24  1  0  0  0
 12 11  2  0  0  0
 12 13  1  0  0  0
 13 14  4  0  0  0
 13 20  4  0  0  0
 14 15  4  0  0  0
 15 16  1  0  0  0
 15 18  4  0  0  0
 16 17  1  0  0  0
 18 19  4  0  0  0
 19 20  4  0  0  0
  2 25  1  0  0  0
  3 26  1  0  0  0
  4 27  1  0  0  0
  6 28  1  0  0  0
  8 29  1  0  0  0
  9 30  1  0  0  0
 14 31  1  0  0  0
 17 32  1  0  0  0
 17 33  1  0  0  0
 17 34  1  0  0  0
 18 35  1  0  0  0
 19 36  1  0  0  0
 20 37  1  0  0  0
 21 38  1  0  0  0
 21 39  1  0  0  0
 23 40  1  0  0  0
 23 41  1  0  0  0
 23 42  1  0  0  0
 24 43  1  0  0  0
M  END
$$$$
