### 
### Created by X-TOOL on Mon Sep 10 21:13:10 2018
### 

@<TRIPOS>MOLECULE
3rwf_ligand
  148   152     1     0     0
SMALL
GAST_HUCK


@<TRIPOS>ATOM
      1 N         -36.5450    8.2440    0.7790 N.4       1 GLN         0.2380
      2 CA        -36.1520    8.8500   -0.4870 C.3       1 GLN         0.0671
      3 C         -34.6670    9.1950   -0.4610 C.2       1 GLN         0.2269
      4 O         -34.0900    9.4050    0.6050 O.2       1 GLN        -0.3907
      5 CB        -36.9940   10.0980   -0.7650 C.3       1 GLN         0.0247
      6 CG        -37.0660   10.4900   -2.2340 C.3       1 GLN         0.0443
      7 CD        -38.1600   11.5050   -2.5150 C.2       1 GLN         0.1738
      8 OE1       -38.6250   12.1990   -1.6110 O.2       1 GLN        -0.3973
      9 NE2       -38.5830   11.5880   -3.7720 N.am      1 GLN        -0.3009
     10 N         -34.0480    9.2420   -1.6360 N.am      1 THR        -0.2586
     11 CA        -32.6150    9.5040   -1.7280 C.3       1 THR         0.1566
     12 C         -32.2710   10.9170   -1.2750 C.2       1 THR         0.2065
     13 O         -33.1560   11.7450   -1.0660 O.2       1 THR        -0.3943
     14 CB        -32.0860    9.2850   -3.1570 C.3       1 THR         0.0924
     15 OG1       -32.8520   10.0700   -4.0780 O.3       1 THR        -0.3874
     16 CG2       -32.1860    7.8190   -3.5420 C.3       1 THR        -0.0346
     17 N         -30.9790   11.1860   -1.1240 N.am      1 SER        -0.2615
     18 CA        -30.5260   12.4920   -0.6680 C.3       1 SER         0.1539
     19 C         -30.4390   13.4960   -1.8100 C.2       1 SER         0.2062
     20 O         -30.1220   13.1460   -2.9480 O.2       1 SER        -0.3943
     21 CB        -29.1710   12.3840    0.0330 C.3       1 SER         0.0843
     22 OG        -28.7360   13.6540    0.4900 O.3       1 SER        -0.3903
     23 N         -30.7230   14.7510   -1.4860 N.am      1 GLN        -0.2635
     24 CA        -30.6610   15.8350   -2.4520 C.3       1 GLN         0.1330
     25 C         -29.2130   16.1770   -2.7840 C.2       1 GLN         0.2041
     26 O         -28.9210   16.7170   -3.8500 O.2       1 GLN        -0.3944
     27 CB        -31.3700   17.0640   -1.8820 C.3       1 GLN         0.0045
     28 CG        -31.2930   18.3050   -2.7500 C.3       1 GLN         0.0412
     29 CD        -31.8160   19.5360   -2.0370 C.2       1 GLN         0.1737
     30 OE1       -32.1710   19.4790   -0.8590 O.2       1 GLN        -0.3973
     31 NE2       -31.8640   20.6570   -2.7470 N.am      1 GLN        -0.3009
     32 N         -28.3080   15.8480   -1.8700 N.am      1 TRP        -0.2627
     33 CA        -26.9180   16.2730   -1.9900 C.3       1 TRP         0.1352
     34 C         -25.9660   15.1480   -2.3880 C.2       1 TRP         0.2052
     35 O         -25.9520   14.0760   -1.7810 O.2       1 TRP        -0.3942
     36 CB        -26.4510   16.9220   -0.6870 C.3       1 TRP         0.0042
     37 CG        -27.4050   17.9580   -0.1800 C.2       1 TRP        -0.0418
     38 CD1       -28.1750   17.8830    0.9430 C.2       1 TRP         0.0167
     39 CD2       -27.7050   19.2190   -0.7900 C.ar      1 TRP        -0.0214
     40 NE1       -28.9300   19.0240    1.0770 N.pl3     1 TRP        -0.2890
     41 CE2       -28.6600   19.8590    0.0250 C.ar      1 TRP         0.0603
     42 CE3       -27.2560   19.8700   -1.9440 C.ar      1 TRP        -0.0747
     43 CZ2       -29.1730   21.1200   -0.2780 C.ar      1 TRP        -0.0443
     44 CZ3       -27.7670   21.1210   -2.2410 C.ar      1 TRP        -0.0792
     45 CH2       -28.7150   21.7320   -1.4120 C.ar      1 TRP        -0.0768
     46 N         -25.1640   15.4140   -3.4130 N.am      1 ASP        -0.2621
     47 CA        -24.1900   14.4510   -3.9050 C.3       1 ASP         0.1423
     48 C         -23.0460   15.2000   -4.5830 C.2       1 ASP         0.2057
     49 O         -22.9790   15.2760   -5.8100 O.2       1 ASP        -0.3943
     50 CB        -24.8550   13.4780   -4.8850 C.3       1 ASP         0.0406
     51 CG        -24.0160   12.2410   -5.1420 C.2       1 ASP         0.0393
     52 OD1       -22.7720   12.3530   -5.1700 O.co2     1 ASP        -0.5688
     53 OD2       -24.6010   11.1510   -5.3130 O.co2     1 ASP        -0.5688
     54 N         -22.1520   15.7590   -3.7730 N.am      1 ASP        -0.2621
     55 CA        -21.0500   16.5710   -4.2820 C.3       1 ASP         0.1425
     56 C         -20.0650   15.7800   -5.1360 C.2       1 ASP         0.2081
     57 O         -19.7700   14.6210   -4.8470 O.2       1 ASP        -0.3941
     58 CB        -20.3110   17.2590   -3.1320 C.3       1 ASP         0.0406
     59 CG        -21.0520   18.4700   -2.6070 C.2       1 ASP         0.0393
     60 OD1       -22.2950   18.5080   -2.7340 O.co2     1 ASP        -0.5688
     61 OD2       -20.3930   19.3860   -2.0720 O.co2     1 ASP        -0.5688
     62 N         -19.5480   16.4190   -6.1940 N.am      1 PRO        -0.2497
     63 CA        -18.5730   15.8340   -7.1190 C.3       1 PRO         0.1337
     64 C         -17.2690   15.4740   -6.4170 C.2       1 PRO         0.2036
     65 O         -16.9530   16.0480   -5.3750 O.2       1 PRO        -0.3944
     66 CB        -18.3170   16.9670   -8.1190 C.3       1 PRO        -0.0104
     67 CG        -19.5020   17.8600   -8.0060 C.3       1 PRO        -0.0281
     68 CD        -19.9150   17.7920   -6.5760 C.3       1 PRO         0.0369
     69 N         -16.5260   14.5330   -6.9910 N.am      1 TRP        -0.2684
     70 CA        -15.2150   14.1630   -6.4740 C.3       1 TRP         0.0986
     71 C         -14.1710   15.2120   -6.8350 C.2       1 TRP         0.0613
     72 O         -13.0700   15.2180   -6.2870 O.co2     1 TRP        -0.5665
     73 CB        -14.7850   12.8030   -7.0220 C.3       1 TRP        -0.0013
     74 CG        -15.4670   11.6470   -6.3680 C.2       1 TRP        -0.0424
     75 CD1       -16.5870   11.6850   -5.5910 C.2       1 TRP         0.0166
     76 CD2       -15.0630   10.2760   -6.4230 C.ar      1 TRP        -0.0214
     77 NE1       -16.9100   10.4200   -5.1630 N.pl3     1 TRP        -0.2891
     78 CE2       -15.9880    9.5350   -5.6620 C.ar      1 TRP         0.0603
     79 CE3       -14.0080    9.6000   -7.0450 C.ar      1 TRP        -0.0747
     80 CZ2       -15.8920    8.1550   -5.5050 C.ar      1 TRP        -0.0443
     81 CZ3       -13.9140    8.2320   -6.8900 C.ar      1 TRP        -0.0792
     82 CH2       -14.8500    7.5230   -6.1260 C.ar      1 TRP        -0.0768
     83 OXT       -14.4040   16.0700   -7.6860 O.co2     1 TRP        -0.5665
     84 H         -35.9754    7.4151    0.9491 H         1 GLN         0.2015
     85 H         -36.4045    8.9153    1.5340 H         1 GLN         0.2015
     86 H         -37.5291    7.9790    0.7367 H         1 GLN         0.2015
     87 H         -36.3282    8.1355   -1.2910 H         1 GLN         0.1100
     88 H         -36.5247   10.9265   -0.2344 H         1 GLN         0.0370
     89 H         -38.0112    9.8774   -0.4415 H         1 GLN         0.0370
     90 H         -37.2862    9.5915   -2.8104 H         1 GLN         0.0506
     91 H         -36.1121   10.9407   -2.5079 H         1 GLN         0.0506
     92 H         -39.3216   12.2466   -4.0191 H         1 GLN         0.1814
     93 H         -38.1690   10.9931   -4.4897 H         1 GLN         0.1814
     94 H         -34.5848    9.0921   -2.4903 H         1 THR         0.1885
     95 H         -32.1303    8.7916   -1.0604 H         1 THR         0.0826
     96 H         -31.0399    9.5893   -3.1922 H         1 THR         0.0639
     97 H         -32.5200    9.9315   -4.9681 H         1 THR         0.2101
     98 H         -31.5938    7.2214   -2.8489 H         1 THR         0.0257
     99 H         -33.2283    7.5032   -3.4972 H         1 THR         0.0257
    100 H         -31.8074    7.6841   -4.5552 H         1 THR         0.0257
    101 H         -30.2904   10.4628   -1.3318 H         1 SER         0.1884
    102 H         -31.2686   12.8547    0.0427 H         1 SER         0.0823
    103 H         -28.4392   11.9966   -0.6758 H         1 SER         0.0606
    104 H         -29.2715   11.7182    0.8902 H         1 SER         0.0606
    105 H         -27.8855   13.5620    0.9257 H         1 SER         0.2097
    106 H         -30.9942   14.9622   -0.5257 H         1 GLN         0.1883
    107 H         -31.1575   15.5191   -3.3695 H         1 GLN         0.0801
    108 H         -30.8754   17.3057   -0.9412 H         1 GLN         0.0337
    109 H         -32.4253   16.8064   -1.7925 H         1 GLN         0.0337
    110 H         -31.9078   18.1387   -3.6346 H         1 GLN         0.0504
    111 H         -30.2468   18.4781   -3.0021 H         1 GLN         0.0504
    112 H         -32.2055   21.5176   -2.3190 H         1 GLN         0.1814
    113 H         -31.5594   20.6576   -3.7205 H         1 GLN         0.1814
    114 H         -28.5908   15.2862   -1.0670 H         1 TRP         0.1884
    115 H         -26.8892   17.0001   -2.8015 H         1 TRP         0.0815
    116 H         -25.4977   17.4132   -0.8819 H         1 TRP         0.0397
    117 H         -26.3766   16.1391    0.0677 H         1 TRP         0.0397
    118 H         -28.1897   17.0404    1.6343 H         1 TRP         0.0795
    119 H         -29.5841   19.2172    1.8354 H         1 TRP         0.2216
    120 H         -26.5187   19.4013   -2.5958 H         1 TRP         0.0540
    121 H         -29.9111   21.5997    0.3648 H         1 TRP         0.0541
    122 H         -27.4252   21.6400   -3.1365 H         1 TRP         0.0510
    123 H         -29.0969   22.7181   -1.6763 H         1 TRP         0.0530
    124 H         -25.2331   16.3231   -3.8703 H         1 ASP         0.1884
    125 H         -23.7944   13.8717   -3.0707 H         1 ASP         0.0819
    126 H         -24.9858   13.9968   -5.8347 H         1 ASP         0.0478
    127 H         -25.8001   13.1563   -4.4476 H         1 ASP         0.0478
    128 H         -22.2384   15.6166   -2.7667 H         1 ASP         0.1884
    129 H         -21.4998   17.3224   -4.9310 H         1 ASP         0.0819
    130 H         -19.3438   17.5937   -3.5070 H         1 ASP         0.0478
    131 H         -20.2183   16.5423   -2.3160 H         1 ASP         0.0478
    132 H         -18.9388   14.9108   -7.5685 H         1 PRO         0.0802
    133 H         -18.1934   16.5884   -9.1336 H         1 PRO         0.0313
    134 H         -17.3906   17.4973   -7.8983 H         1 PRO         0.0313
    135 H         -20.3062   17.5432   -8.6700 H         1 PRO         0.0287
    136 H         -19.2636   18.8806   -8.3053 H         1 PRO         0.0287
    137 H         -19.4296   18.5477   -5.9584 H         1 PRO         0.0524
    138 H         -20.9743   18.0035   -6.4304 H         1 PRO         0.0524
    139 H         -16.8844   14.0557   -7.8181 H         1 TRP         0.1876
    140 H         -15.2915   14.1030   -5.3883 H         1 TRP         0.0741
    141 H         -13.7165   12.6994   -6.8330 H         1 TRP         0.0390
    142 H         -15.0489   12.7804   -8.0793 H         1 TRP         0.0390
    143 H         -17.1453   12.5883   -5.3450 H         1 TRP         0.0795
    144 H         -17.7049   10.1784   -4.5713 H         1 TRP         0.2216
    145 H         -13.2744   10.1433   -7.6406 H         1 TRP         0.0540
    146 H         -16.6183    7.6003   -4.9109 H         1 TRP         0.0541
    147 H         -13.0971    7.6936   -7.3705 H         1 TRP         0.0510
    148 H         -14.7455    6.4428   -6.0241 H         1 TRP         0.0530
@<TRIPOS>BOND
     1    1    2 1  
     2    2    3 1  
     3    2    5 1  
     4    3    4 2  
     5    3   10 am 
     6    5    6 1  
     7    6    7 1  
     8    7    8 2  
     9    7    9 am 
    10   10   11 1  
    11   11   12 1  
    12   11   14 1  
    13   12   13 2  
    14   12   17 am 
    15   14   15 1  
    16   14   16 1  
    17   17   18 1  
    18   18   19 1  
    19   18   21 1  
    20   19   20 2  
    21   19   23 am 
    22   21   22 1  
    23   23   24 1  
    24   24   25 1  
    25   24   27 1  
    26   25   26 2  
    27   25   32 am 
    28   27   28 1  
    29   28   29 1  
    30   29   30 2  
    31   29   31 am 
    32   32   33 1  
    33   33   34 1  
    34   33   36 1  
    35   34   35 2  
    36   34   46 am 
    37   36   37 1  
    38   37   38 2  
    39   37   39 1  
    40   38   40 1  
    41   39   41 ar 
    42   39   42 ar 
    43   40   41 1  
    44   41   43 ar 
    45   42   44 ar 
    46   43   45 ar 
    47   44   45 ar 
    48   46   47 1  
    49   47   48 1  
    50   47   50 1  
    51   48   49 2  
    52   48   54 am 
    53   50   51 1  
    54   51   52 ar 
    55   51   53 ar 
    56   54   55 1  
    57   55   56 1  
    58   55   58 1  
    59   56   57 2  
    60   56   62 am 
    61   58   59 1  
    62   59   60 ar 
    63   59   61 ar 
    64   62   63 1  
    65   62   68 1  
    66   63   64 1  
    67   63   66 1  
    68   64   65 2  
    69   64   69 am 
    70   66   67 1  
    71   67   68 1  
    72   69   70 1  
    73   70   71 1  
    74   70   73 1  
    75   71   72 ar 
    76   71   83 ar 
    77   73   74 1  
    78   74   75 2  
    79   74   76 1  
    80   75   77 1  
    81   76   78 ar 
    82   76   79 ar 
    83   77   78 1  
    84   78   80 ar 
    85   79   81 ar 
    86   80   82 ar 
    87   81   82 ar 
    88    1   84 1  
    89    1   85 1  
    90    1   86 1  
    91    2   87 1  
    92    5   88 1  
    93    5   89 1  
    94    6   90 1  
    95    6   91 1  
    96    9   92 1  
    97    9   93 1  
    98   10   94 1  
    99   11   95 1  
   100   14   96 1  
   101   15   97 1  
   102   16   98 1  
   103   16   99 1  
   104   16  100 1  
   105   17  101 1  
   106   18  102 1  
   107   21  103 1  
   108   21  104 1  
   109   22  105 1  
   110   23  106 1  
   111   24  107 1  
   112   27  108 1  
   113   27  109 1  
   114   28  110 1  
   115   28  111 1  
   116   31  112 1  
   117   31  113 1  
   118   32  114 1  
   119   33  115 1  
   120   36  116 1  
   121   36  117 1  
   122   38  118 1  
   123   40  119 1  
   124   42  120 1  
   125   43  121 1  
   126   44  122 1  
   127   45  123 1  
   128   46  124 1  
   129   47  125 1  
   130   50  126 1  
   131   50  127 1  
   132   54  128 1  
   133   55  129 1  
   134   58  130 1  
   135   58  131 1  
   136   63  132 1  
   137   66  133 1  
   138   66  134 1  
   139   67  135 1  
   140   67  136 1  
   141   68  137 1  
   142   68  138 1  
   143   69  139 1  
   144   70  140 1  
   145   73  141 1  
   146   73  142 1  
   147   75  143 1  
   148   77  144 1  
   149   79  145 1  
   150   80  146 1  
   151   81  147 1  
   152   82  148 1  
@<TRIPOS>SUBSTRUCTURE
     1 GLN         1

