3rwf_ligand
  -I-interpret- 

149153  0  0  0  0  0  0  0  0999 V2000
  -36.5450    8.2440    0.7790 N   0  3  0  0  0
  -36.1520    8.8500   -0.4870 C   0  0  0  0  0
  -34.6670    9.1950   -0.4610 C   0  0  0  0  0
  -34.0900    9.4050    0.6050 O   0  0  0  0  0
  -36.9940   10.0980   -0.7650 C   0  0  0  0  0
  -37.0660   10.4900   -2.2340 C   0  0  0  0  0
  -38.1600   11.5050   -2.5150 C   0  0  0  0  0
  -38.6250   12.1990   -1.6110 O   0  0  0  0  0
  -38.5830   11.5880   -3.7720 N   0  0  0  0  0
  -34.0480    9.2420   -1.6360 N   0  0  0  0  0
  -32.6150    9.5040   -1.7280 C   0  0  0  0  0
  -32.2710   10.9170   -1.2750 C   0  0  0  0  0
  -33.1560   11.7450   -1.0660 O   0  0  0  0  0
  -32.0860    9.2850   -3.1570 C   0  0  0  0  0
  -32.8520   10.0700   -4.0780 O   0  0  0  0  0
  -32.1860    7.8190   -3.5420 C   0  0  0  0  0
  -30.9790   11.1860   -1.1240 N   0  0  0  0  0
  -30.5260   12.4920   -0.6680 C   0  0  0  0  0
  -30.4390   13.4960   -1.8100 C   0  0  0  0  0
  -30.1220   13.1460   -2.9480 O   0  0  0  0  0
  -29.1710   12.3840    0.0330 C   0  0  0  0  0
  -28.7360   13.6540    0.4900 O   0  0  0  0  0
  -30.7230   14.7510   -1.4860 N   0  0  0  0  0
  -30.6610   15.8350   -2.4520 C   0  0  0  0  0
  -29.2130   16.1770   -2.7840 C   0  0  0  0  0
  -28.9210   16.7170   -3.8500 O   0  0  0  0  0
  -31.3700   17.0640   -1.8820 C   0  0  0  0  0
  -31.2930   18.3050   -2.7500 C   0  0  0  0  0
  -31.8160   19.5360   -2.0370 C   0  0  0  0  0
  -32.1710   19.4790   -0.8590 O   0  0  0  0  0
  -31.8640   20.6570   -2.7470 N   0  0  0  0  0
  -28.3080   15.8480   -1.8700 N   0  0  0  0  0
  -26.9180   16.2730   -1.9900 C   0  0  0  0  0
  -25.9660   15.1480   -2.3880 C   0  0  0  0  0
  -25.9520   14.0760   -1.7810 O   0  0  0  0  0
  -26.4510   16.9220   -0.6870 C   0  0  0  0  0
  -27.4050   17.9580   -0.1800 C   0  0  0  0  0
  -28.1750   17.8830    0.9430 C   0  0  0  0  0
  -27.7050   19.2190   -0.7900 C   0  0  0  0  0
  -28.9300   19.0240    1.0770 N   0  0  0  0  0
  -28.6600   19.8590    0.0250 C   0  0  0  0  0
  -27.2560   19.8700   -1.9440 C   0  0  0  0  0
  -29.1730   21.1200   -0.2780 C   0  0  0  0  0
  -27.7670   21.1210   -2.2410 C   0  0  0  0  0
  -28.7150   21.7320   -1.4120 C   0  0  0  0  0
  -25.1640   15.4140   -3.4130 N   0  0  0  0  0
  -24.1900   14.4510   -3.9050 C   0  0  0  0  0
  -23.0460   15.2000   -4.5830 C   0  0  0  0  0
  -22.9790   15.2760   -5.8100 O   0  0  0  0  0
  -24.8550   13.4780   -4.8850 C   0  0  0  0  0
  -24.0160   12.2410   -5.1420 C   0  0  0  0  0
  -22.7720   12.3530   -5.1700 O   0  0  0  0  0
  -24.6010   11.1510   -5.3130 O   0  0  0  0  0
  -22.1520   15.7590   -3.7730 N   0  0  0  0  0
  -21.0500   16.5710   -4.2820 C   0  0  0  0  0
  -20.0650   15.7800   -5.1360 C   0  0  0  0  0
  -19.7700   14.6210   -4.8470 O   0  0  0  0  0
  -20.3110   17.2590   -3.1320 C   0  0  0  0  0
  -21.0520   18.4700   -2.6070 C   0  0  0  0  0
  -22.2950   18.5080   -2.7340 O   0  0  0  0  0
  -20.3930   19.3860   -2.0720 O   0  0  0  0  0
  -19.5480   16.4190   -6.1940 N   0  0  0  0  0
  -18.5730   15.8340   -7.1190 C   0  0  0  0  0
  -17.2690   15.4740   -6.4170 C   0  0  0  0  0
  -16.9530   16.0480   -5.3750 O   0  0  0  0  0
  -18.3170   16.9670   -8.1190 C   0  0  0  0  0
  -19.5020   17.8600   -8.0060 C   0  0  0  0  0
  -19.9150   17.7920   -6.5760 C   0  0  0  0  0
  -16.5260   14.5330   -6.9910 N   0  0  0  0  0
  -15.2150   14.1630   -6.4740 C   0  0  0  0  0
  -14.1710   15.2120   -6.8350 C   0  0  0  0  0
  -13.0700   15.2180   -6.2870 O   0  0  0  0  0
  -14.7850   12.8030   -7.0220 C   0  0  0  0  0
  -15.4670   11.6470   -6.3680 C   0  0  0  0  0
  -16.5870   11.6850   -5.5910 C   0  0  0  0  0
  -15.0630   10.2760   -6.4230 C   0  0  0  0  0
  -16.9100   10.4200   -5.1630 N   0  0  0  0  0
  -15.9880    9.5350   -5.6620 C   0  0  0  0  0
  -14.0080    9.6000   -7.0450 C   0  0  0  0  0
  -15.8920    8.1550   -5.5050 C   0  0  0  0  0
  -13.9140    8.2320   -6.8900 C   0  0  0  0  0
  -14.8500    7.5230   -6.1260 C   0  0  0  0  0
  -14.4040   16.0700   -7.6860 O   0  0  0  0  0
  -35.9754    7.4151    0.9491 H   0  0  0  0  0
  -36.4045    8.9153    1.5340 H   0  0  0  0  0
  -37.5291    7.9790    0.7367 H   0  0  0  0  0
  -36.3282    8.1355   -1.2910 H   0  0  0  0  0
  -36.5247   10.9265   -0.2344 H   0  0  0  0  0
  -38.0112    9.8774   -0.4415 H   0  0  0  0  0
  -37.2862    9.5915   -2.8104 H   0  0  0  0  0
  -36.1121   10.9407   -2.5079 H   0  0  0  0  0
  -39.3216   12.2466   -4.0191 H   0  0  0  0  0
  -38.1690   10.9931   -4.4897 H   0  0  0  0  0
  -34.5848    9.0921   -2.4903 H   0  0  0  0  0
  -32.1303    8.7916   -1.0604 H   0  0  0  0  0
  -31.0399    9.5893   -3.1922 H   0  0  0  0  0
  -32.5200    9.9315   -4.9681 H   0  0  0  0  0
  -31.5938    7.2214   -2.8489 H   0  0  0  0  0
  -33.2283    7.5032   -3.4972 H   0  0  0  0  0
  -31.8074    7.6841   -4.5552 H   0  0  0  0  0
  -30.2904   10.4628   -1.3318 H   0  0  0  0  0
  -31.2686   12.8547    0.0427 H   0  0  0  0  0
  -28.4392   11.9966   -0.6758 H   0  0  0  0  0
  -29.2715   11.7182    0.8902 H   0  0  0  0  0
  -27.8855   13.5620    0.9257 H   0  0  0  0  0
  -30.9942   14.9622   -0.5257 H   0  0  0  0  0
  -31.1575   15.5191   -3.3695 H   0  0  0  0  0
  -30.8754   17.3057   -0.9412 H   0  0  0  0  0
  -32.4253   16.8064   -1.7925 H   0  0  0  0  0
  -31.9078   18.1387   -3.6346 H   0  0  0  0  0
  -30.2468   18.4781   -3.0021 H   0  0  0  0  0
  -32.2055   21.5176   -2.3190 H   0  0  0  0  0
  -31.5594   20.6576   -3.7205 H   0  0  0  0  0
  -28.5908   15.2862   -1.0670 H   0  0  0  0  0
  -26.8892   17.0001   -2.8015 H   0  0  0  0  0
  -25.4977   17.4132   -0.8819 H   0  0  0  0  0
  -26.3766   16.1391    0.0677 H   0  0  0  0  0
  -28.1897   17.0404    1.6343 H   0  0  0  0  0
  -26.5187   19.4013   -2.5958 H   0  0  0  0  0
  -29.9111   21.5997    0.3648 H   0  0  0  0  0
  -27.4252   21.6400   -3.1365 H   0  0  0  0  0
  -29.0969   22.7181   -1.6763 H   0  0  0  0  0
  -25.2331   16.3231   -3.8703 H   0  0  0  0  0
  -23.7944   13.8717   -3.0707 H   0  0  0  0  0
  -24.9858   13.9968   -5.8347 H   0  0  0  0  0
  -25.8001   13.1563   -4.4476 H   0  0  0  0  0
  -22.5308   13.2695   -5.0166 H   0  0  0  0  0
  -22.2384   15.6166   -2.7667 H   0  0  0  0  0
  -21.4998   17.3224   -4.9310 H   0  0  0  0  0
  -19.3438   17.5937   -3.5070 H   0  0  0  0  0
  -20.2183   16.5423   -2.3160 H   0  0  0  0  0
  -22.5957   17.7070   -3.1695 H   0  0  0  0  0
  -18.9388   14.9108   -7.5685 H   0  0  0  0  0
  -18.1934   16.5884   -9.1336 H   0  0  0  0  0
  -17.3906   17.4973   -7.8983 H   0  0  0  0  0
  -20.3062   17.5432   -8.6700 H   0  0  0  0  0
  -19.2636   18.8806   -8.3053 H   0  0  0  0  0
  -19.4296   18.5477   -5.9584 H   0  0  0  0  0
  -20.9743   18.0035   -6.4304 H   0  0  0  0  0
  -16.8844   14.0557   -7.8181 H   0  0  0  0  0
  -15.2915   14.1030   -5.3883 H   0  0  0  0  0
  -13.7165   12.6994   -6.8330 H   0  0  0  0  0
  -15.0489   12.7804   -8.0793 H   0  0  0  0  0
  -17.1453   12.5883   -5.3450 H   0  0  0  0  0
  -13.2744   10.1433   -7.6406 H   0  0  0  0  0
  -16.6183    7.6003   -4.9109 H   0  0  0  0  0
  -13.0971    7.6936   -7.3705 H   0  0  0  0  0
  -14.7455    6.4428   -6.0241 H   0  0  0  0  0
  -15.2928   15.9473   -8.0275 H   0  0  0  0  0
  1  2  1  0  0  0
  2  3  1  0  0  0
  2  5  1  0  0  0
  3  4  2  0  0  0
  3 10  1  0  0  0
  5  6  1  0  0  0
  6  7  1  0  0  0
  7  8  2  0  0  0
  7  9  1  0  0  0
 10 11  1  0  0  0
 11 12  1  0  0  0
 11 14  1  0  0  0
 12 13  2  0  0  0
 12 17  1  0  0  0
 14 15  1  0  0  0
 14 16  1  0  0  0
 17 18  1  0  0  0
 18 19  1  0  0  0
 18 21  1  0  0  0
 19 20  2  0  0  0
 19 23  1  0  0  0
 21 22  1  0  0  0
 23 24  1  0  0  0
 24 25  1  0  0  0
 24 27  1  0  0  0
 25 26  2  0  0  0
 25 32  1  0  0  0
 27 28  1  0  0  0
 28 29  1  0  0  0
 29 30  2  0  0  0
 29 31  1  0  0  0
 32 33  1  0  0  0
 33 34  1  0  0  0
 33 36  1  0  0  0
 34 35  2  0  0  0
 34 46  1  0  0  0
 36 37  1  0  0  0
 37 38  4  0  0  0
 37 39  4  0  0  0
 38 40  4  0  0  0
 39 41  4  0  0  0
 39 42  4  0  0  0
 40 41  4  0  0  0
 41 43  4  0  0  0
 42 44  4  0  0  0
 43 45  4  0  0  0
 44 45  4  0  0  0
 46 47  1  0  0  0
 47 48  1  0  0  0
 47 50  1  0  0  0
 48 49  2  0  0  0
 48 54  1  0  0  0
 50 51  1  0  0  0
 51 52  1  0  0  0
 51 53  2  0  0  0
 54 55  1  0  0  0
 55 56  1  0  0  0
 55 58  1  0  0  0
 56 57  2  0  0  0
 56 62  1  0  0  0
 58 59  1  0  0  0
 59 60  1  0  0  0
 59 61  2  0  0  0
 62 63  1  0  0  0
 62 68  1  0  0  0
 63 64  1  0  0  0
 63 66  1  0  0  0
 64 65  2  0  0  0
 64 69  1  0  0  0
 66 67  1  0  0  0
 67 68  1  0  0  0
 69 70  1  0  0  0
 70 71  1  0  0  0
 70 73  1  0  0  0
 71 72  2  0  0  0
 71 83  1  0  0  0
 73 74  1  0  0  0
 74 75  4  0  0  0
 74 76  4  0  0  0
 75 77  4  0  0  0
 76 78  4  0  0  0
 76 79  4  0  0  0
 77 78  4  0  0  0
 78 80  4  0  0  0
 79 81  4  0  0  0
 80 82  4  0  0  0
 81 82  4  0  0  0
  1 84  1  0  0  0
  1 85  1  0  0  0
  1 86  1  0  0  0
  2 87  1  0  0  0
  5 88  1  0  0  0
  5 89  1  0  0  0
  6 90  1  0  0  0
  6 91  1  0  0  0
  9 92  1  0  0  0
  9 93  1  0  0  0
 10 94  1  0  0  0
 11 95  1  0  0  0
 14 96  1  0  0  0
 15 97  1  0  0  0
 16 98  1  0  0  0
 16 99  1  0  0  0
 16100  1  0  0  0
 17101  1  0  0  0
 18102  1  0  0  0
 21103  1  0  0  0
 21104  1  0  0  0
 22105  1  0  0  0
 23106  1  0  0  0
 24107  1  0  0  0
 27108  1  0  0  0
 27109  1  0  0  0
 28110  1  0  0  0
 28111  1  0  0  0
 31112  1  0  0  0
 31113  1  0  0  0
 32114  1  0  0  0
 33115  1  0  0  0
 36116  1  0  0  0
 36117  1  0  0  0
 38118  1  0  0  0
 42119  1  0  0  0
 43120  1  0  0  0
 44121  1  0  0  0
 45122  1  0  0  0
 46123  1  0  0  0
 47124  1  0  0  0
 50125  1  0  0  0
 50126  1  0  0  0
 52127  1  0  0  0
 54128  1  0  0  0
 55129  1  0  0  0
 58130  1  0  0  0
 58131  1  0  0  0
 60132  1  0  0  0
 63133  1  0  0  0
 66134  1  0  0  0
 66135  1  0  0  0
 67136  1  0  0  0
 67137  1  0  0  0
 68138  1  0  0  0
 68139  1  0  0  0
 69140  1  0  0  0
 70141  1  0  0  0
 73142  1  0  0  0
 73143  1  0  0  0
 75144  1  0  0  0
 79145  1  0  0  0
 80146  1  0  0  0
 81147  1  0  0  0
 82148  1  0  0  0
 83149  1  0  0  0
M  END
$$$$
