1qb9_ligand
  -I-interpret- 

 68 73  0  0  0  0  0  0  0  0999 V2000
   19.6800    2.1500   53.8100 N   0  0  0  0  0
   19.9090    1.5210   54.9540 C   0  0  0  0  0
   18.8690    0.7860   55.3640 N   0  0  0  0  0
   21.0750    1.6030   55.7630 C   0  0  0  0  0
   22.2160    2.3270   55.3700 C   0  0  0  0  0
   23.3650    2.3730   56.2070 C   0  0  0  0  0
   24.5020    3.1220   55.8000 C   0  0  0  0  0
   25.6700    3.1410   56.6190 C   0  0  0  0  0
   25.6610    2.4280   57.8380 C   0  0  0  0  0
   24.5350    1.7160   58.2620 C   0  0  0  0  0
   23.3760    1.6660   57.4410 C   0  0  0  0  0
   22.2570    0.9260   57.8630 C   0  0  0  0  0
   21.1210    0.9080   57.0200 C   0  0  0  0  0
   26.9010    3.9020   56.1750 C   0  0  0  0  0
   28.1230    3.1900   56.5870 N   0  0  0  0  0
   28.8770    3.5270   57.6880 C   0  0  0  0  0
   29.9340    2.6340   57.8400 C   0  0  0  0  0
   29.8170    1.7300   56.8040 C   0  0  0  0  0
   28.6860    2.0890   56.0410 C   0  0  0  0  0
   30.6510    0.6320   56.5360 C   0  0  0  0  0
   30.3180   -0.1420   55.4170 C   0  0  0  0  0
   29.1710    0.1870   54.6210 C   0  0  0  0  0
   28.3620    1.2810   54.9170 C   0  0  0  0  0
   30.8970    2.6960   58.8640 C   0  0  0  0  0
   30.7770    3.7480   59.7920 C   0  0  0  0  0
   29.7080    4.6710   59.6700 C   0  0  0  0  0
   28.7530    4.5750   58.6320 C   0  0  0  0  0
   28.9380   -0.6660   53.5510 O   0  0  0  0  0
   29.8570   -1.8200   53.3930 C   0  0  0  0  0
   31.3180   -1.3350   53.1880 C   0  0  0  0  0
   31.6910   -1.3610   51.6590 C   0  0  0  0  0
   31.7100   -2.7510   51.2380 N   0  0  0  0  0
   30.4790   -3.4770   51.5120 C   0  0  0  0  0
   29.3770   -2.6870   52.2250 C   0  0  0  0  0
   32.7940   -3.3460   50.6280 C   0  0  0  0  0
   32.7680   -4.6500   50.2360 N   0  0  0  0  0
   34.0800   -2.6720   50.3310 C   0  0  0  0  0
   18.7810    2.0428   53.3401 H   0  0  0  0  0
   18.0151    0.7552   54.8069 H   0  0  0  0  0
   18.9300    0.2565   56.2337 H   0  0  0  0  0
   22.2192    2.8564   54.4172 H   0  0  0  0  0
   24.4818    3.6807   54.8643 H   0  0  0  0  0
   26.5537    2.4329   58.4635 H   0  0  0  0  0
   24.5460    1.1995   59.2218 H   0  0  0  0  0
   22.2647    0.3840   58.8087 H   0  0  0  0  0
   20.2441    0.3435   57.3371 H   0  0  0  0  0
   26.8932    4.8893   56.6369 H   0  0  0  0  0
   26.8910    3.9895   55.0886 H   0  0  0  0  0
   31.5098    0.3953   57.1641 H   0  0  0  0  0
   30.9346   -1.0000   55.1493 H   0  0  0  0  0
   27.4956    1.5138   54.2979 H   0  0  0  0  0
   31.7000    1.9624   58.9356 H   0  0  0  0  0
   31.5018    3.8521   60.5995 H   0  0  0  0  0
   29.6198    5.4779   60.3974 H   0  0  0  0  0
   27.9369    5.2939   58.5598 H   0  0  0  0  0
   29.8478   -2.4236   54.3006 H   0  0  0  0  0
   31.9928   -1.9969   53.7308 H   0  0  0  0  0
   31.4104   -0.3147   53.5601 H   0  0  0  0  0
   32.6652   -0.9000   51.4963 H   0  0  0  0  0
   30.9608   -0.7969   51.0788 H   0  0  0  0  0
   30.7488   -4.2957   52.1791 H   0  0  0  0  0
   30.0712   -3.7642   50.5428 H   0  0  0  0  0
   28.9457   -2.0109   51.4868 H   0  0  0  0  0
   28.6827   -3.4180   52.6394 H   0  0  0  0  0
   31.9316   -5.2127   50.3915 H   0  0  0  0  0
   34.8877   -3.1883   50.8498 H   0  0  0  0  0
   34.2622   -2.6969   49.2566 H   0  0  0  0  0
   34.0327   -1.6368   50.6689 H   0  0  0  0  0
  1  2  2  0  0  0
  2  4  1  0  0  0
  2  3  1  0  0  0
  4 13  4  0  0  0
  4  5  4  0  0  0
  5  6  4  0  0  0
  6 11  4  0  0  0
  6  7  4  0  0  0
  7  8  4  0  0  0
  8 14  1  0  0  0
  8  9  4  0  0  0
  9 10  4  0  0  0
 10 11  4  0  0  0
 11 12  4  0  0  0
 12 13  4  0  0  0
 14 15  1  0  0  0
 15 19  4  0  0  0
 15 16  4  0  0  0
 16 27  4  0  0  0
 16 17  4  0  0  0
 17 24  4  0  0  0
 17 18  4  0  0  0
 18 20  4  0  0  0
 18 19  4  0  0  0
 19 23  4  0  0  0
 23 22  4  0  0  0
 22 28  1  0  0  0
 22 21  4  0  0  0
 21 20  4  0  0  0
 28 29  1  0  0  0
 29 34  1  0  0  0
 29 30  1  0  0  0
 30 31  1  0  0  0
 31 32  1  0  0  0
 32 35  1  0  0  0
 32 33  1  0  0  0
 33 34  1  0  0  0
 35 37  1  0  0  0
 35 36  2  0  0  0
 24 25  4  0  0  0
 25 26  4  0  0  0
 26 27  4  0  0  0
  1 38  1  0  0  0
  3 39  1  0  0  0
  3 40  1  0  0  0
  5 41  1  0  0  0
  7 42  1  0  0  0
  9 43  1  0  0  0
 10 44  1  0  0  0
 12 45  1  0  0  0
 13 46  1  0  0  0
 14 47  1  0  0  0
 14 48  1  0  0  0
 20 49  1  0  0  0
 21 50  1  0  0  0
 23 51  1  0  0  0
 24 52  1  0  0  0
 25 53  1  0  0  0
 26 54  1  0  0  0
 27 55  1  0  0  0
 29 56  1  0  0  0
 30 57  1  0  0  0
 30 58  1  0  0  0
 31 59  1  0  0  0
 31 60  1  0  0  0
 33 61  1  0  0  0
 33 62  1  0  0  0
 34 63  1  0  0  0
 34 64  1  0  0  0
 36 65  1  0  0  0
 37 66  1  0  0  0
 37 67  1  0  0  0
 37 68  1  0  0  0
M  END
$$$$
