1w5v_ligand
  -I-interpret- 

 88 93  0  0  0  0  0  0  0  0999 V2000
    9.6410   24.0370    2.1640 C   0  0  0  0  0
    8.9980   25.2930    1.7340 C   0  0  0  0  0
    7.5680   25.5240    1.8590 C   0  0  0  0  0
    6.7000   24.4880    2.4330 C   0  0  0  0  0
    7.3050   23.2100    2.8790 C   0  0  0  0  0
    8.7460   22.9890    2.7480 C   0  0  0  0  0
   16.3970   22.0600    8.7660 C   0  0  0  0  0
   15.6750   20.9270    9.3790 C   0  0  0  0  0
   16.4360   19.7040    9.7740 C   0  0  0  0  0
   17.9150   19.6440    9.5470 C   0  0  0  0  0
   18.5990   20.8150    8.9250 C   0  0  0  0  0
   17.8410   21.9810    8.5500 C   0  0  0  0  0
   15.7020   23.3240    8.3220 C   0  0  0  0  0
   14.5970   23.0950    7.4000 O   0  0  0  0  0
   14.9230   22.5790    6.0040 C   0  0  0  0  0
   13.8560   22.8600    4.9680 C   0  0  0  0  0
   13.5060   24.2870    4.9800 C   0  0  0  0  0
   12.0990   24.4790    4.2820 C   0  0  0  0  0
   10.9190   24.4620    5.2400 C   0  0  0  0  0
   10.6740   23.4510    5.9320 O   0  0  0  0  0
   10.1210   25.5690    5.3190 N   0  0  0  0  0
   11.8690   23.4890    3.1800 O   0  0  0  0  0
   11.1650   23.9350    1.9790 C   0  0  0  0  0
   14.5780   25.0440    4.3620 O   0  0  0  0  0
   14.3140   22.5350    3.5900 O   0  0  0  0  0
   15.0660   21.1010    5.8610 C   0  0  0  0  0
   14.0820   20.3750    6.1310 O   0  0  0  0  0
   16.2700   20.6090    5.4590 N   0  0  0  0  0
   16.5430   19.1970    5.3010 C   0  0  0  0  0
   16.4980   18.8130    3.8620 C   0  0  0  0  0
   17.4770   17.7550    3.6020 C   0  0  0  0  0
   15.6520   19.3330    2.7750 C   0  0  0  0  0
   15.8120   18.7620    1.4010 C   0  0  0  0  0
   16.8040   17.7040    1.1730 C   0  0  0  0  0
   17.9720   18.7290    5.6820 C   0  0  0  0  0
   18.8880   19.7880    5.3420 O   0  0  0  0  0
   17.6470   17.1840    2.2590 C   0  0  0  0  0
   18.1790   17.4220    4.8580 C   0  0  0  0  0
    8.9630   25.6810    6.1800 C   0  0  0  0  0
    9.2650   26.4220    7.4800 C   0  0  0  0  0
    8.1160   27.2380    7.8440 C   0  0  0  0  0
   10.4690   26.4110    8.3240 C   0  0  0  0  0
   10.5040   27.2470    9.5630 C   0  0  0  0  0
    9.3320   28.0650    9.9100 C   0  0  0  0  0
    7.8460   26.5800    5.5770 C   0  0  0  0  0
    8.4930   27.6670    4.8690 O   0  0  0  0  0
    8.1300   28.0760    9.0680 C   0  0  0  0  0
    7.0520   27.0460    6.8070 C   0  0  0  0  0
   15.7350   18.5740   10.3740 F   0  0  0  0  0
    6.4580   22.1660    3.4550 F   0  0  0  0  0
    9.6196   26.0792    1.3055 H   0  0  0  0  0
    7.1390   26.4690    1.5257 H   0  0  0  0  0
    5.6274   24.6559    2.5297 H   0  0  0  0  0
    9.1751   22.0442    3.0817 H   0  0  0  0  0
   14.5986   20.9826    9.5414 H   0  0  0  0  0
   18.4831   18.7584    9.8318 H   0  0  0  0  0
   19.6752   20.7881    8.7539 H   0  0  0  0  0
   18.3569   22.8258    8.0937 H   0  0  0  0  0
   16.4393   23.9342    7.8004 H   0  0  0  0  0
   15.2893   23.7979    9.2126 H   0  0  0  0  0
   15.8617   23.1109    5.8490 H   0  0  0  0  0
   13.0014   22.2343    5.2255 H   0  0  0  0  0
   13.4038   24.6678    5.9962 H   0  0  0  0  0
   12.1502   25.4814    3.8569 H   0  0  0  0  0
   10.3573   26.3692    4.7323 H   0  0  0  0  0
   11.5330   24.9314    1.7343 H   0  0  0  0  0
   11.3518   23.1989    1.1971 H   0  0  0  0  0
   14.3536   25.9774    4.3676 H   0  0  0  0  0
   13.6099   22.7271    2.9663 H   0  0  0  0  0
   17.0196   21.2711    5.2585 H   0  0  0  0  0
   15.7923   18.7518    5.9540 H   0  0  0  0  0
   14.9224   20.1196    2.9675 H   0  0  0  0  0
   15.1983   19.1279    0.5779 H   0  0  0  0  0
   16.9186   17.2925    0.1702 H   0  0  0  0  0
   18.1319   18.5214    6.7400 H   0  0  0  0  0
   19.7819   19.5216    5.5690 H   0  0  0  0  0
   18.3777   16.3969    2.0732 H   0  0  0  0  0
   19.2264   17.1555    4.7163 H   0  0  0  0  0
   17.7945   16.5289    5.3505 H   0  0  0  0  0
    8.6678   24.6409    6.3181 H   0  0  0  0  0
   11.3280   25.7990    8.0489 H   0  0  0  0  0
   11.3875   27.2502   10.2014 H   0  0  0  0  0
    9.3567   28.6763   10.8121 H   0  0  0  0  0
    7.1834   26.0938    4.8610 H   0  0  0  0  0
    7.8251   28.2399    4.4852 H   0  0  0  0  0
    7.2673   28.6860    9.3359 H   0  0  0  0  0
    6.4773   27.9530    6.6193 H   0  0  0  0  0
    6.2892   26.3299    7.1128 H   0  0  0  0  0
  1  2  4  0  0  0
  1  6  4  0  0  0
 23  1  1  0  0  0
  2  3  4  0  0  0
  3  4  4  0  0  0
  5  4  4  0  0  0
  6  5  4  0  0  0
  5 50  1  0  0  0
  7  8  4  0  0  0
  7 12  4  0  0  0
 13  7  1  0  0  0
  8  9  4  0  0  0
  9 10  4  0  0  0
  9 49  1  0  0  0
 11 10  4  0  0  0
 12 11  4  0  0  0
 14 13  1  0  0  0
 15 14  1  0  0  0
 16 15  1  0  0  0
 15 26  1  0  0  0
 17 16  1  0  0  0
 16 25  1  0  0  0
 18 17  1  0  0  0
 17 24  1  0  0  0
 18 19  1  0  0  0
 22 18  1  0  0  0
 19 20  2  0  0  0
 19 21  1  0  0  0
 21 39  1  0  0  0
 22 23  1  0  0  0
 26 27  2  0  0  0
 26 28  1  0  0  0
 28 29  1  0  0  0
 29 30  1  0  0  0
 29 35  1  0  0  0
 30 31  4  0  0  0
 30 32  4  0  0  0
 31 37  4  0  0  0
 31 38  1  0  0  0
 32 33  4  0  0  0
 33 34  4  0  0  0
 34 37  4  0  0  0
 35 36  1  0  0  0
 35 38  1  0  0  0
 39 40  1  0  0  0
 39 45  1  0  0  0
 40 41  4  0  0  0
 40 42  4  0  0  0
 41 47  4  0  0  0
 41 48  1  0  0  0
 42 43  4  0  0  0
 43 44  4  0  0  0
 44 47  4  0  0  0
 45 46  1  0  0  0
 45 48  1  0  0  0
  2 51  1  0  0  0
  3 52  1  0  0  0
  4 53  1  0  0  0
  6 54  1  0  0  0
  8 55  1  0  0  0
 10 56  1  0  0  0
 11 57  1  0  0  0
 12 58  1  0  0  0
 13 59  1  0  0  0
 13 60  1  0  0  0
 15 61  1  0  0  0
 16 62  1  0  0  0
 17 63  1  0  0  0
 18 64  1  0  0  0
 21 65  1  0  0  0
 23 66  1  0  0  0
 23 67  1  0  0  0
 24 68  1  0  0  0
 25 69  1  0  0  0
 28 70  1  0  0  0
 29 71  1  0  0  0
 32 72  1  0  0  0
 33 73  1  0  0  0
 34 74  1  0  0  0
 35 75  1  0  0  0
 36 76  1  0  0  0
 37 77  1  0  0  0
 38 78  1  0  0  0
 38 79  1  0  0  0
 39 80  1  0  0  0
 42 81  1  0  0  0
 43 82  1  0  0  0
 44 83  1  0  0  0
 45 84  1  0  0  0
 46 85  1  0  0  0
 47 86  1  0  0  0
 48 87  1  0  0  0
 48 88  1  0  0  0
M  END
$$$$
