5dcz_ligand
  -I-interpret- 

 45 49  0  0  0  0  0  0  0  0999 V2000
   -0.7860  -11.7880  -19.6090 C   0  0  0  0  0
   -2.5110   -8.6770  -24.0280 C   0  0  0  0  0
   -3.2150   -9.9200  -23.4530 C   0  0  0  0  0
   -1.9650  -12.0020  -18.8810 C   0  0  0  0  0
   -1.9700  -12.0350  -21.6960 C   0  0  0  0  0
   -0.7810  -11.8060  -21.0060 C   0  0  0  0  0
   -1.3910  -13.0300  -23.6990 O   0  0  0  0  0
   -1.9550  -12.0670  -23.1750 C   0  0  0  0  0
   -2.5260  -11.1300  -23.9390 N   0  0  0  0  0
   -2.5060  -11.1700  -25.4180 C   0  0  0  0  0
   -1.9110   -9.8750  -26.0080 C   0  0  0  0  0
   -2.5370   -8.7060  -25.4610 O   0  0  0  0  0
   -1.8260  -11.9670  -17.4690 N   0  0  0  0  0
   -2.8080  -12.1390  -16.5190 C   0  0  0  0  0
   -4.1030  -12.2070  -16.7740 N   0  0  0  0  0
   -5.0500  -12.3620  -15.7430 C   0  0  0  0  0
   -6.4130  -12.4280  -16.0550 C   0  0  0  0  0
   -7.3680  -12.5920  -15.0370 C   0  0  0  0  0
   -6.9490  -12.6800  -13.7000 C   0  0  0  0  0
   -5.5840  -12.6080  -13.3830 C   0  0  0  0  0
   -4.6400  -12.4500  -14.4040 C   0  0  0  0  0
   -3.2660  -12.3740  -14.1060 N   0  0  0  0  0
   -2.5010  -12.4270  -12.8820 N   0  0  0  0  0
   -1.2910  -12.3150  -13.1610 N   0  0  0  0  0
   -1.1570  -12.1780  -14.5860 N   0  0  0  0  0
   -2.3550  -12.2190  -15.1130 C   0  0  0  0  0
   -3.1660  -12.2340  -19.5790 C   0  0  0  0  0
   -3.1620  -12.2520  -20.9840 C   0  0  0  0  0
    0.1457  -11.6038  -19.0741 H   0  0  0  0  0
   -1.4742   -8.6690  -23.6919 H   0  0  0  0  0
   -3.0298   -7.7831  -23.6816 H   0  0  0  0  0
   -4.2560   -9.9351  -23.7759 H   0  0  0  0  0
   -3.1816   -9.8904  -22.3639 H   0  0  0  0  0
    0.1474  -11.6419  -21.5530 H   0  0  0  0  0
   -3.5305  -11.2744  -25.7753 H   0  0  0  0  0
   -1.8873  -12.0102  -25.7332 H   0  0  0  0  0
   -2.0765   -9.8808  -27.0853 H   0  0  0  0  0
   -0.8493   -9.8423  -25.7632 H   0  0  0  0  0
   -0.8852  -11.7935  -17.1152 H   0  0  0  0  0
   -6.7355  -12.3518  -17.0934 H   0  0  0  0  0
   -8.4280  -12.6505  -15.2842 H   0  0  0  0  0
   -7.6857  -12.8045  -12.9064 H   0  0  0  0  0
   -5.2598  -12.6749  -12.3445 H   0  0  0  0  0
   -4.0942  -12.3988  -19.0319 H   0  0  0  0  0
   -4.0900  -12.4356  -21.5255 H   0  0  0  0  0
  1  4  4  0  0  0
  6  1  4  0  0  0
  3  2  1  0  0  0
  2 12  1  0  0  0
  9  3  1  0  0  0
  4 13  1  0  0  0
  4 27  4  0  0  0
  5  6  4  0  0  0
  8  5  1  0  0  0
  5 28  4  0  0  0
  8  7  2  0  0  0
  8  9  1  0  0  0
  9 10  1  0  0  0
 10 11  1  0  0  0
 11 12  1  0  0  0
 13 14  1  0  0  0
 14 15  4  0  0  0
 14 26  4  0  0  0
 15 16  4  0  0  0
 16 17  4  0  0  0
 16 21  4  0  0  0
 17 18  4  0  0  0
 18 19  4  0  0  0
 19 20  4  0  0  0
 20 21  4  0  0  0
 21 22  4  0  0  0
 22 23  4  0  0  0
 22 26  4  0  0  0
 23 24  4  0  0  0
 24 25  4  0  0  0
 25 26  4  0  0  0
 27 28  4  0  0  0
  1 29  1  0  0  0
  2 30  1  0  0  0
  2 31  1  0  0  0
  3 32  1  0  0  0
  3 33  1  0  0  0
  6 34  1  0  0  0
 10 35  1  0  0  0
 10 36  1  0  0  0
 11 37  1  0  0  0
 11 38  1  0  0  0
 13 39  1  0  0  0
 17 40  1  0  0  0
 18 41  1  0  0  0
 19 42  1  0  0  0
 20 43  1  0  0  0
 27 44  1  0  0  0
 28 45  1  0  0  0
M  END
$$$$
