4b77_ligand
  -I-interpret- 

 46 49  0  0  0  0  0  0  0  0999 V2000
    5.5780    6.8520  -25.8940 C   0  0  0  0  0
    6.6450    6.2270  -25.1580 O   0  0  0  0  0
    6.3390    5.3480  -24.1550 C   0  0  0  0  0
    7.3460    5.0280  -23.2550 C   0  0  0  0  0
    7.0800    4.1670  -22.1920 C   0  0  0  0  0
    5.0520    4.7760  -24.0290 C   0  0  0  0  0
    4.8000    3.8810  -22.9860 C   0  0  0  0  0
    5.8020    3.5980  -22.0490 C   0  0  0  0  0
    5.5010    2.6590  -20.8840 C   0  0  0  0  0
    6.4280    3.0100  -19.6600 C   0  0  0  0  0
    4.0570    3.2780  -19.1430 C   0  0  0  0  0
    4.1270    2.9240  -20.3920 N   0  0  0  0  0
    2.8860    3.5640  -18.4600 N   0  0  0  0  0
    5.7440    1.2110  -21.2310 C   0  0  0  0  0
    5.2280    0.2150  -20.4040 C   0  0  0  0  0
    6.5310    0.8410  -22.3260 C   0  0  0  0  0
    6.7480   -0.5180  -22.6040 C   0  0  0  0  0
    6.2320   -1.5130  -21.7850 C   0  0  0  0  0
    5.4360   -1.1330  -20.6940 C   0  0  0  0  0
    4.8700   -2.1490  -19.7350 C   0  0  0  0  0
    5.4460    3.3210  -18.5090 C   0  0  0  0  0
    3.5460   -2.0900  -19.2550 C   0  0  0  0  0
    3.1620   -3.0270  -18.3680 N   0  0  0  0  0
    3.9720   -3.9790  -17.9470 C   0  0  0  0  0
    5.2330   -4.0730  -18.3740 N   0  0  0  0  0
    5.7020   -3.1800  -19.2480 C   0  0  0  0  0
    4.9751    6.0846  -26.3795 H   0  0  0  0  0
    4.9543    7.4269  -25.2095 H   0  0  0  0  0
    5.9993    7.5162  -26.6486 H   0  0  0  0  0
    8.3435    5.4495  -23.3795 H   0  0  0  0  0
    7.8634    3.9344  -21.4707 H   0  0  0  0  0
    4.2645    5.0307  -24.7383 H   0  0  0  0  0
    3.8240    3.4032  -22.9015 H   0  0  0  0  0
    7.0867    3.8516  -19.8741 H   0  0  0  0  0
    7.1038    2.1918  -19.4111 H   0  0  0  0  0
    3.3027    2.8355  -20.9863 H   0  0  0  0  0
    1.9879    3.5035  -18.9398 H   0  0  0  0  0
    4.6548    0.4931  -19.5196 H   0  0  0  0  0
    6.9752    1.6062  -22.9626 H   0  0  0  0  0
    7.3332   -0.7973  -23.4802 H   0  0  0  0  0
    6.4402   -2.5641  -21.9847 H   0  0  0  0  0
    5.6513    4.2914  -18.0571 H   0  0  0  0  0
    5.5389    2.6007  -17.6962 H   0  0  0  0  0
    2.8580   -1.3138  -19.5899 H   0  0  0  0  0
    3.6006   -4.7105  -17.2293 H   0  0  0  0  0
    6.7353   -3.2474  -19.5883 H   0  0  0  0  0
  1  2  1  0  0  0
  2  3  1  0  0  0
  3  4  4  0  0  0
  3  6  4  0  0  0
  4  5  4  0  0  0
  5  8  4  0  0  0
  6  7  4  0  0  0
  7  8  4  0  0  0
  8  9  1  0  0  0
  9 10  1  0  0  0
  9 12  1  0  0  0
  9 14  1  0  0  0
 10 21  1  0  0  0
 12 11  1  0  0  0
 11 13  2  0  0  0
 11 21  1  0  0  0
 14 15  4  0  0  0
 14 16  4  0  0  0
 15 19  4  0  0  0
 16 17  4  0  0  0
 17 18  4  0  0  0
 18 19  4  0  0  0
 19 20  1  0  0  0
 20 22  4  0  0  0
 20 26  4  0  0  0
 22 23  4  0  0  0
 23 24  4  0  0  0
 24 25  4  0  0  0
 25 26  4  0  0  0
  1 27  1  0  0  0
  1 28  1  0  0  0
  1 29  1  0  0  0
  4 30  1  0  0  0
  5 31  1  0  0  0
  6 32  1  0  0  0
  7 33  1  0  0  0
 10 34  1  0  0  0
 10 35  1  0  0  0
 12 36  1  0  0  0
 13 37  1  0  0  0
 15 38  1  0  0  0
 16 39  1  0  0  0
 17 40  1  0  0  0
 18 41  1  0  0  0
 21 42  1  0  0  0
 21 43  1  0  0  0
 22 44  1  0  0  0
 24 45  1  0  0  0
 26 46  1  0  0  0
M  END
$$$$
