5b5o_ligand
  -I-interpret- 

 29 31  0  0  0  0  0  0  0  0999 V2000
   14.5800   12.8320   23.5000 C   0  0  0  0  0
   13.7120   13.7500   24.0450 C   0  0  0  0  0
   14.3860   12.3850   22.2120 C   0  0  0  0  0
   12.6620   14.2090   23.2770 C   0  0  0  0  0
   13.3280   12.8440   21.4600 C   0  0  0  0  0
   11.1970   13.9800   17.4880 C   0  0  0  0  0
    7.2420   12.2840   15.1150 C   0  0  0  0  0
   12.4430   13.7600   21.9890 C   0  0  0  0  0
   10.1890   14.7780   17.9700 C   0  0  0  0  0
    7.3010   13.6920   16.7410 C   0  0  0  0  0
   11.1710   14.2780   19.9250 C   0  0  0  0  0
    9.1970   15.4560   17.1180 C   0  0  0  0  0
    6.9960   11.6480   16.2360 N   0  0  0  0  0
   10.1850   14.9250   19.3380 N   0  0  0  0  0
    7.0340   12.5280   17.2880 N   0  0  0  0  0
    7.4450   13.6000   15.3900 N   0  0  0  0  0
   11.3630   14.3040   21.2770 N   0  0  0  0  0
   12.1430   13.4110   18.7960 S   0  0  0  0  0
    7.4780   15.1980   17.5580 S   0  0  0  0  0
   15.4196   12.4593   24.0867 H   0  0  0  0  0
   13.8515   14.1080   25.0650 H   0  0  0  0  0
   15.0776   11.6599   21.7832 H   0  0  0  0  0
   11.9834   14.9497   23.7000 H   0  0  0  0  0
   13.1891   12.4816   20.4414 H   0  0  0  0  0
   11.3679   13.7456   16.4373 H   0  0  0  0  0
    7.2778   11.8309   14.1243 H   0  0  0  0  0
    9.3219   15.0456   16.1160 H   0  0  0  0  0
    9.3830   16.5250   17.2221 H   0  0  0  0  0
   10.6429   14.7696   21.8294 H   0  0  0  0  0
  2  1  4  0  0  0
  3  1  4  0  0  0
  4  2  4  0  0  0
  5  3  4  0  0  0
  8  4  4  0  0  0
  8  5  4  0  0  0
  9  6  4  0  0  0
  6 18  4  0  0  0
  7 13  4  0  0  0
 16  7  4  0  0  0
 17  8  1  0  0  0
 12  9  1  0  0  0
  9 14  4  0  0  0
 10 15  4  0  0  0
 10 16  4  0  0  0
 19 10  1  0  0  0
 14 11  4  0  0  0
 11 17  1  0  0  0
 11 18  4  0  0  0
 12 19  1  0  0  0
 13 15  4  0  0  0
  1 20  1  0  0  0
  2 21  1  0  0  0
  3 22  1  0  0  0
  4 23  1  0  0  0
  5 24  1  0  0  0
  6 25  1  0  0  0
  7 26  1  0  0  0
 12 27  1  0  0  0
 12 28  1  0  0  0
 17 29  1  0  0  0
M  END
$$$$
