3krd_ligand
  -I-interpret- 

 69 68  0  0  0  0  0  0  0  0999 V2000
   44.1790   25.9490   50.9970 N   0  0  0  0  0
   44.6060   27.3410   51.1230 C   0  0  0  0  0
   43.3500   28.2230   51.0300 C   0  0  0  0  0
   42.6550   28.0000   49.7750 O   0  0  0  0  0
   45.6450   27.7830   50.0330 C   0  0  0  0  0
   46.9650   26.9940   49.9580 C   0  0  0  0  0
   47.8380   27.6290   48.8430 C   0  0  0  0  0
   47.7390   27.0140   51.3140 C   0  0  0  0  0
   44.5600   22.7260   52.3130 N   0  0  0  0  0
   43.7240   23.6900   51.6270 C   0  0  0  0  0
   44.2200   25.0640   52.0030 C   0  0  0  0  0
   44.6360   25.3100   53.1890 O   0  0  0  0  0
   42.2610   23.4620   52.0720 C   0  0  0  0  0
   41.6030   22.1270   51.6240 C   0  0  0  0  0
   41.7320   21.8640   50.1100 C   0  0  0  0  0
   41.0900   22.5340   49.2900 O   0  0  0  0  0
   42.5630   20.9120   49.6880 N   0  0  0  0  0
   46.4720   19.7250   52.2730 N   0  0  0  0  0
   46.1580   21.0750   52.8690 C   0  0  0  0  0
   45.4990   21.9650   51.7750 C   0  0  0  0  0
   45.8120   21.9570   50.5580 O   0  0  0  0  0
   47.5300   21.6630   53.3590 C   0  0  0  0  0
   48.2260   20.8950   54.5040 C   0  0  0  0  0
   47.7160   19.9040   55.0260 O   0  0  0  0  0
   49.3820   21.3040   54.9430 N   0  0  0  0  0
   45.8600   15.2170   50.1550 C   0  0  0  0  0
   45.1750   16.4960   50.6930 C   0  0  0  0  0
   44.9660   14.0850   49.5690 C   0  0  0  0  0
   46.1630   17.5610   51.2440 C   0  0  0  0  0
   44.3510   16.1030   51.7800 O   0  0  0  0  0
   45.5530   18.8660   51.7730 C   0  0  0  0  0
   44.3020   19.0870   51.7500 O   0  0  0  0  0
   43.8300   25.6329   50.0922 H   0  0  0  0  0
   45.1148   27.4516   52.0806 H   0  0  0  0  0
   43.6506   29.2693   51.0841 H   0  0  0  0  0
   42.6808   27.9693   51.8522 H   0  0  0  0  0
   41.8758   28.5595   49.7382 H   0  0  0  0  0
   45.9252   28.8049   50.2885 H   0  0  0  0  0
   45.1519   27.6266   49.0736 H   0  0  0  0  0
   46.7407   25.9506   49.7362 H   0  0  0  0  0
   48.0720   28.6598   49.1093 H   0  0  0  0  0
   48.7622   27.0605   48.7389 H   0  0  0  0  0
   47.2908   27.6111   47.9005 H   0  0  0  0  0
   48.6631   26.4450   51.2118 H   0  0  0  0  0
   47.9729   28.0443   51.5822 H   0  0  0  0  0
   47.1194   26.5666   52.0912 H   0  0  0  0  0
   44.4087   22.6232   53.3165 H   0  0  0  0  0
   43.7673   23.5849   50.5429 H   0  0  0  0  0
   41.6765   24.2577   51.6102 H   0  0  0  0  0
   42.2756   23.4418   53.1617 H   0  0  0  0  0
   40.5404   22.1873   51.8594 H   0  0  0  0  0
   42.1130   21.3164   52.1446 H   0  0  0  0  0
   42.6705   20.7349   48.6893 H   0  0  0  0  0
   43.0917   20.3603   50.3636 H   0  0  0  0  0
   47.4504   19.4380   52.2447 H   0  0  0  0  0
   45.4591   21.0206   53.7037 H   0  0  0  0  0
   47.3153   22.6594   53.7452 H   0  0  0  0  0
   48.2053   21.6165   52.5047 H   0  0  0  0  0
   49.8443   20.8053   55.7033 H   0  0  0  0  0
   49.8250   22.1230   54.5265 H   0  0  0  0  0
   46.3520   14.7722   51.0200 H   0  0  0  0  0
   46.4764   15.5534   49.3213 H   0  0  0  0  0
   44.6374   16.9471   49.8590 H   0  0  0  0  0
   44.2795   13.7310   50.3381 H   0  0  0  0  0
   44.3977   14.4734   48.7238 H   0  0  0  0  0
   45.5971   13.2609   49.2362 H   0  0  0  0  0
   46.7942   17.8463   50.4024 H   0  0  0  0  0
   46.6582   17.0960   52.0964 H   0  0  0  0  0
   43.9084   16.8751   52.1400 H   0  0  0  0  0
  1  2  1  0  0  0
 11  1  1  0  0  0
  2  3  1  0  0  0
  2  5  1  0  0  0
  3  4  1  0  0  0
  5  6  1  0  0  0
  6  7  1  0  0  0
  6  8  1  0  0  0
  9 10  1  0  0  0
 20  9  1  0  0  0
 10 11  1  0  0  0
 10 13  1  0  0  0
 11 12  2  0  0  0
 13 14  1  0  0  0
 14 15  1  0  0  0
 15 16  2  0  0  0
 15 17  1  0  0  0
 18 19  1  0  0  0
 31 18  1  0  0  0
 19 20  1  0  0  0
 19 22  1  0  0  0
 20 21  2  0  0  0
 22 23  1  0  0  0
 23 24  2  0  0  0
 23 25  1  0  0  0
 27 26  1  0  0  0
 26 28  1  0  0  0
 29 27  1  0  0  0
 27 30  1  0  0  0
 29 31  1  0  0  0
 31 32  2  0  0  0
  1 33  1  0  0  0
  2 34  1  0  0  0
  3 35  1  0  0  0
  3 36  1  0  0  0
  4 37  1  0  0  0
  5 38  1  0  0  0
  5 39  1  0  0  0
  6 40  1  0  0  0
  7 41  1  0  0  0
  7 42  1  0  0  0
  7 43  1  0  0  0
  8 44  1  0  0  0
  8 45  1  0  0  0
  8 46  1  0  0  0
  9 47  1  0  0  0
 10 48  1  0  0  0
 13 49  1  0  0  0
 13 50  1  0  0  0
 14 51  1  0  0  0
 14 52  1  0  0  0
 17 53  1  0  0  0
 17 54  1  0  0  0
 18 55  1  0  0  0
 19 56  1  0  0  0
 22 57  1  0  0  0
 22 58  1  0  0  0
 25 59  1  0  0  0
 25 60  1  0  0  0
 26 61  1  0  0  0
 26 62  1  0  0  0
 27 63  1  0  0  0
 28 64  1  0  0  0
 28 65  1  0  0  0
 28 66  1  0  0  0
 29 67  1  0  0  0
 29 68  1  0  0  0
 30 69  1  0  0  0
M  END
$$$$
