1sqq_ligand
  -I-interpret- 

 40 41  0  0  0  0  0  0  0  0999 V2000
   66.9710   60.6950  167.6360 C   0  0  0  0  0
   68.0210   59.9850  168.3810 O   0  0  0  0  0
   67.6520   58.9220  169.1640 C   0  0  0  0  0
   66.4620   58.6140  169.2520 O   0  0  0  0  0
   68.7090   58.3480  169.9920 C   0  0  0  0  0
   69.7140   59.2050  170.2050 C   0  0  0  0  0
   70.5170   58.9540  171.1770 O   0  0  0  0  0
   71.4390   60.0150  171.3910 C   0  0  0  0  0
   68.5800   56.9750  170.6280 C   0  0  0  0  0
   67.8510   56.8160  171.8800 C   0  0  0  0  0
   69.0740   55.7330  170.0120 C   0  0  0  0  0
   69.0330   54.4840  170.7290 C   0  0  0  0  0
   68.3360   54.3910  171.9600 C   0  0  0  0  0
   67.7600   55.5550  172.5470 C   0  0  0  0  0
   69.7730   55.7930  168.7330 C   0  0  0  0  0
   69.5290   54.8800  167.7650 C   0  0  0  0  0
   70.3550   54.7780  166.5650 C   0  0  0  0  0
   70.9670   55.9480  165.9730 C   0  0  0  0  0
   71.7400   55.8270  164.7720 C   0  0  0  0  0
   70.4770   53.5160  165.9190 C   0  0  0  0  0
   71.2340   53.3940  164.7120 C   0  0  0  0  0
   71.8820   54.5450  164.1450 C   0  0  0  0  0
   66.4774   60.0010  166.9558 H   0  0  0  0  0
   66.2409   61.1002  168.3366 H   0  0  0  0  0
   67.4190   61.5084  167.0652 H   0  0  0  0  0
   69.8473   60.0854  169.5763 H   0  0  0  0  0
   72.0314   60.1673  170.4888 H   0  0  0  0  0
   70.8921   60.9280  171.6265 H   0  0  0  0  0
   72.0978   59.7602  172.2211 H   0  0  0  0  0
   67.3608   57.6841  172.3207 H   0  0  0  0  0
   69.5394   53.6080  170.3238 H   0  0  0  0  0
   68.2404   53.4266  172.4589 H   0  0  0  0  0
   67.2488   55.4835  173.5070 H   0  0  0  0  0
   70.5016   56.5839  168.5549 H   0  0  0  0  0
   68.6876   54.1975  167.8848 H   0  0  0  0  0
   70.8398   56.9239  166.4416 H   0  0  0  0  0
   72.2176   56.7051  164.3373 H   0  0  0  0  0
   69.9914   52.6386  166.3460 H   0  0  0  0  0
   71.3199   52.4250  164.2203 H   0  0  0  0  0
   72.4805   54.4436  163.2397 H   0  0  0  0  0
  2  1  1  0  0  0
  3  2  1  0  0  0
  3  4  2  0  0  0
  5  3  1  0  0  0
  5  6  2  0  0  0
  9  5  1  0  0  0
  6  7  1  0  0  0
  7  8  1  0  0  0
  9 10  4  0  0  0
 11  9  4  0  0  0
 10 14  4  0  0  0
 11 12  4  0  0  0
 15 11  1  0  0  0
 12 13  4  0  0  0
 13 14  4  0  0  0
 16 15  2  0  0  0
 17 16  1  0  0  0
 17 18  4  0  0  0
 20 17  4  0  0  0
 18 19  4  0  0  0
 19 22  4  0  0  0
 20 21  4  0  0  0
 21 22  4  0  0  0
  1 23  1  0  0  0
  1 24  1  0  0  0
  1 25  1  0  0  0
  6 26  1  0  0  0
  8 27  1  0  0  0
  8 28  1  0  0  0
  8 29  1  0  0  0
 10 30  1  0  0  0
 12 31  1  0  0  0
 13 32  1  0  0  0
 14 33  1  0  0  0
 15 34  1  0  0  0
 16 35  1  0  0  0
 18 36  1  0  0  0
 19 37  1  0  0  0
 20 38  1  0  0  0
 21 39  1  0  0  0
 22 40  1  0  0  0
M  END
$$$$
