4ufj_ligand
  -I-interpret- 

 22 22  0  0  0  0  0  0  0  0999 V2000
   75.9280   90.8550   19.7240 O   0  0  0  0  0
   76.9860   90.2920   19.4270 C   0  0  0  0  0
   78.0820   90.3150   20.4840 C   0  0  0  0  0
   77.5270   90.1090   21.7730 O   0  0  0  0  0
   79.1660   89.2790   20.2010 C   0  0  0  0  0
   78.6830   87.9810   20.5310 O   0  0  0  0  0
   79.5990   89.3380   18.7360 C   0  0  0  0  0
   80.7100   88.3550   18.4330 C   0  0  0  0  0
   81.2020   88.5400   17.1210 O   0  0  0  0  0
   78.4030   89.0370   17.8220 C   0  0  0  0  0
   77.1760   89.7290   18.2410 N   0  0  0  0  0
   78.5513   91.2982   20.4498 H   0  0  0  0  0
   76.8476   90.7672   21.9366 H   0  0  0  0  0
   80.0380   89.4999   20.8166 H   0  0  0  0  0
   78.4167   87.9648   21.4532 H   0  0  0  0  0
   79.9733   90.3448   18.5506 H   0  0  0  0  0
   80.3161   87.3424   18.5205 H   0  0  0  0  0
   81.5243   88.5172   19.1392 H   0  0  0  0  0
   81.9039   87.9074   16.9515 H   0  0  0  0  0
   78.2122   87.9647   17.8650 H   0  0  0  0  0
   78.6546   89.3823   16.8192 H   0  0  0  0  0
   76.4114   89.7803   17.5678 H   0  0  0  0  0
  1  2  2  0  0  0
  2  3  1  0  0  0
  2 11  1  0  0  0
  3  4  1  0  0  0
  3  5  1  0  0  0
  5  6  1  0  0  0
  5  7  1  0  0  0
  7  8  1  0  0  0
  7 10  1  0  0  0
  8  9  1  0  0  0
 10 11  1  0  0  0
  3 12  1  0  0  0
  4 13  1  0  0  0
  5 14  1  0  0  0
  6 15  1  0  0  0
  7 16  1  0  0  0
  8 17  1  0  0  0
  8 18  1  0  0  0
  9 19  1  0  0  0
 10 20  1  0  0  0
 10 21  1  0  0  0
 11 22  1  0  0  0
M  END
$$$$
