1bsk_ligand
  -I-interpret- 

 58 58  0  0  0  0  0  0  0  0999 V2000
   40.9070   53.3330   71.5810 O   0  0  0  0  0
   40.0490   54.2300   72.6150 P   0  0  0  0  0
   41.0890   54.5890   74.0060 O   0  0  0  0  0
   38.6730   53.5140   72.9130 O   0  0  0  0  0
   41.3480   53.5070   74.8520 C   0  0  0  0  0
   40.8190   53.9030   76.1980 C   0  0  0  0  0
   42.8860   53.4450   74.5760 C   0  0  0  0  0
   43.9560   53.9030   75.5980 C   0  0  0  0  0
   45.2570   53.0700   75.8210 C   0  0  0  0  0
   44.7550   51.7370   76.3360 C   0  0  0  0  0
   40.4740   55.0230   76.4560 O   0  0  0  0  0
   40.7910   52.8440   77.0550 N   0  0  0  0  0
   40.4450   53.0020   78.4640 C   0  0  0  0  0
   39.1700   52.1970   78.6850 C   0  0  0  0  0
   38.0360   52.8700   77.9270 C   0  0  0  0  0
   36.8610   51.9560   77.9590 C   0  0  0  0  0
   37.5650   54.1790   78.5290 C   0  0  0  0  0
   41.7230   52.5400   79.1180 C   0  0  0  0  0
   42.3420   53.4540   80.1810 N   0  0  0  0  0
   42.2410   51.4860   78.8000 O   0  0  0  0  0
   43.3610   53.1630   80.9330 C   0  0  0  0  0
   43.8660   51.8440   81.0700 C   0  0  0  0  0
   44.8570   51.6110   82.0370 C   0  0  0  0  0
   45.4180   52.7360   82.7420 C   0  0  0  0  0
   44.9410   54.0640   82.5840 C   0  0  0  0  0
   43.9260   54.2800   81.6050 C   0  0  0  0  0
   46.5100   52.5080   83.6280 N   0  0  0  0  0
   47.1580   53.4810   84.1960 O   0  0  0  0  0
   46.8640   51.2440   83.8530 O   0  0  0  0  0
   39.7249   55.5300   71.9631 O   0  0  0  0  0
   41.1219   52.4919   71.9908 H   0  0  0  0  0
   38.8387   52.6680   73.3355 H   0  0  0  0  0
   40.9065   52.5171   74.7371 H   0  0  0  0  0
   43.0156   54.1491   73.7541 H   0  0  0  0  0
   43.0755   52.3753   74.4863 H   0  0  0  0  0
   43.4430   53.8570   76.5586 H   0  0  0  0  0
   44.3135   54.8530   75.2009 H   0  0  0  0  0
   45.9412   53.5516   76.5196 H   0  0  0  0  0
   45.8426   52.9660   74.9076 H   0  0  0  0  0
   44.2020   51.8918   77.2625 H   0  0  0  0  0
   44.0998   51.2847   75.5915 H   0  0  0  0  0
   45.6032   51.0785   76.5233 H   0  0  0  0  0
   41.0183   51.9145   76.7018 H   0  0  0  0  0
   40.1874   53.9819   78.8660 H   0  0  0  0  0
   38.9346   52.1579   79.7486 H   0  0  0  0  0
   39.3061   51.1780   78.3227 H   0  0  0  0  0
   38.4215   53.0797   76.9293 H   0  0  0  0  0
   37.1247   51.0106   77.4848 H   0  0  0  0  0
   36.5703   51.7762   78.9940 H   0  0  0  0  0
   36.0309   52.4145   77.4215 H   0  0  0  0  0
   37.2075   54.0030   79.5436 H   0  0  0  0  0
   38.3943   54.8860   78.5521 H   0  0  0  0  0
   36.7557   54.5859   77.9227 H   0  0  0  0  0
   41.9165   54.3720   80.3096 H   0  0  0  0  0
   43.4949   51.0341   80.4419 H   0  0  0  0  0
   45.1960   50.5974   82.2507 H   0  0  0  0  0
   45.3338   54.8839   83.1854 H   0  0  0  0  0
   43.5879   55.2904   81.3752 H   0  0  0  0  0
  1  2  1  0  0  0
  2  3  1  0  0  0
  2  4  1  0  0  0
  3  5  1  0  0  0
  5  6  1  0  0  0
  5  7  1  0  0  0
  6 11  2  0  0  0
  6 12  1  0  0  0
  7  8  1  0  0  0
  8  9  1  0  0  0
  9 10  1  0  0  0
 12 13  1  0  0  0
 13 14  1  0  0  0
 13 18  1  0  0  0
 14 15  1  0  0  0
 15 16  1  0  0  0
 15 17  1  0  0  0
 18 19  1  0  0  0
 18 20  2  0  0  0
 19 21  1  0  0  0
 21 22  4  0  0  0
 21 26  4  0  0  0
 22 23  4  0  0  0
 23 24  4  0  0  0
 24 25  4  0  0  0
 24 27  1  0  0  0
 25 26  4  0  0  0
 27 28  2  0  0  0
 27 29  2  0  0  0
  2 30  2  0  0  0
  1 31  1  0  0  0
  4 32  1  0  0  0
  5 33  1  0  0  0
  7 34  1  0  0  0
  7 35  1  0  0  0
  8 36  1  0  0  0
  8 37  1  0  0  0
  9 38  1  0  0  0
  9 39  1  0  0  0
 10 40  1  0  0  0
 10 41  1  0  0  0
 10 42  1  0  0  0
 12 43  1  0  0  0
 13 44  1  0  0  0
 14 45  1  0  0  0
 14 46  1  0  0  0
 15 47  1  0  0  0
 16 48  1  0  0  0
 16 49  1  0  0  0
 16 50  1  0  0  0
 17 51  1  0  0  0
 17 52  1  0  0  0
 17 53  1  0  0  0
 19 54  1  0  0  0
 22 55  1  0  0  0
 23 56  1  0  0  0
 25 57  1  0  0  0
 26 58  1  0  0  0
M  END
$$$$
