### 
### Created by X-TOOL on Mon Sep 10 21:12:47 2018
### 

@<TRIPOS>MOLECULE
1bsk_ligand
   56    56     1     0     0
SMALL
GAST_HUCK


@<TRIPOS>ATOM
      1 O3         40.9070   53.3330   71.5810 O.co2     1 MLN        -0.5536
      2 P1         40.0490   54.2300   72.6150 P.3       1 MLN         0.2046
      3 O2         41.0890   54.5890   74.0060 O.3       1 MLN        -0.2528
      4 O4         38.6730   53.5140   72.9130 O.co2     1 MLN        -0.5536
      5 C5         41.3480   53.5070   74.8520 C.3       1 MLN         0.1773
      6 C6         40.8190   53.9030   76.1980 C.2       1 MLN         0.2124
      7 C7         42.8860   53.4450   74.5760 C.3       1 MLN        -0.0046
      8 C8         43.9560   53.9030   75.5980 C.3       1 MLN        -0.0485
      9 C9         45.2570   53.0700   75.8210 C.3       1 MLN        -0.0557
     10 C10        44.7550   51.7370   76.3360 C.3       1 MLN        -0.0653
     11 O11        40.4740   55.0230   76.4560 O.2       1 MLN        -0.3937
     12 N12        40.7910   52.8440   77.0550 N.am      1 MLN        -0.2592
     13 C13        40.4450   53.0020   78.4640 C.3       1 MLN         0.1778
     14 C14        39.1700   52.1970   78.6850 C.3       1 MLN        -0.0056
     15 C15        38.0360   52.8700   77.9270 C.3       1 MLN        -0.0424
     16 C16        36.8610   51.9560   77.9590 C.3       1 MLN        -0.0625
     17 C17        37.5650   54.1790   78.5290 C.3       1 MLN        -0.0625
     18 C18        41.7230   52.5400   79.1180 C.2       1 MLN         0.3879
     19 N19        42.3420   53.4540   80.1810 N.am      1 MLN        -0.0835
     20 O20        42.2410   51.4860   78.8000 O.2       1 MLN        -0.2799
     21 C21        43.3610   53.1630   80.9330 C.ar      1 MLN         0.3148
     22 C22        43.8660   51.8440   81.0700 C.ar      1 MLN         0.1241
     23 C23        44.8570   51.6110   82.0370 C.ar      1 MLN         0.0809
     24 C24        45.4180   52.7360   82.7420 C.ar      1 MLN         0.1874
     25 C25        44.9410   54.0640   82.5840 C.ar      1 MLN         0.0809
     26 C26        43.9260   54.2800   81.6050 C.ar      1 MLN         0.1241
     27 N27        46.5100   52.5080   83.6280 N.2       1 MLN        -0.1366
     28 O28        47.1580   53.4810   84.1960 O.2       1 MLN        -0.4480
     29 O29        46.8640   51.2440   83.8530 O.2       1 MLN        -0.4480
     30 O1         39.7249   55.5300   71.9631 O.co2     1 MLN        -0.5536
     31 H1         40.8614   52.5707   74.5412 H         1 MLN         0.0894
     32 H2         43.0542   54.0500   73.6729 H         1 MLN         0.0318
     33 H3         43.1103   52.3904   74.3579 H         1 MLN         0.0318
     34 H4         43.4518   53.9643   76.5737 H         1 MLN         0.0268
     35 H5         44.2767   54.9082   75.2871 H         1 MLN         0.0268
     36 H6         45.9095   53.5548   76.5621 H         1 MLN         0.0263
     37 H7         45.8063   52.9424   74.8766 H         1 MLN         0.0263
     38 H8         45.6102   51.0715   76.5254 H         1 MLN         0.0230
     39 H9         44.0936   51.2795   75.5855 H         1 MLN         0.0230
     40 H10        44.1968   51.8918   77.2711 H         1 MLN         0.0230
     41 H11        41.0138   51.9327   76.7087 H         1 MLN         0.1885
     42 H12        40.2495   54.0507   78.7324 H         1 MLN         0.0848
     43 H13        38.9319   52.1666   79.7585 H         1 MLN         0.0316
     44 H14        39.3090   51.1719   78.3111 H         1 MLN         0.0316
     45 H15        38.3588   53.0460   76.8903 H         1 MLN         0.0298
     46 H16        36.0226   52.4176   77.4168 H         1 MLN         0.0232
     47 H17        36.5665   51.7737   79.0031 H         1 MLN         0.0232
     48 H18        37.1258   51.0015   77.4807 H         1 MLN         0.0232
     49 H19        38.3953   54.9005   78.5330 H         1 MLN         0.0232
     50 H20        37.2242   54.0066   79.5605 H         1 MLN         0.0232
     51 H21        36.7338   54.5799   77.9303 H         1 MLN         0.0232
     52 H22        41.9248   54.3540   80.3071 H         1 MLN         0.4309
     53 H23        43.4969   51.0386   80.4454 H         1 MLN         0.1344
     54 H24        45.1942   50.6029   82.2495 H         1 MLN         0.1018
     55 H25        45.3316   54.8794   83.1820 H         1 MLN         0.1018
     56 H26        43.5897   55.2849   81.3765 H         1 MLN         0.1344
@<TRIPOS>BOND
     1    1    2 ar 
     2    2    3 1  
     3    2    4 ar 
     4    3    5 1  
     5    5    6 1  
     6    5    7 1  
     7    6   11 2  
     8    6   12 am 
     9    7    8 1  
    10    8    9 1  
    11    9   10 1  
    12   12   13 1  
    13   13   14 1  
    14   13   18 1  
    15   14   15 1  
    16   15   16 1  
    17   15   17 1  
    18   18   19 am 
    19   18   20 2  
    20   19   21 1  
    21   21   22 ar 
    22   21   26 ar 
    23   22   23 ar 
    24   23   24 ar 
    25   24   25 ar 
    26   24   27 1  
    27   25   26 ar 
    28   27   28 2  
    29   27   29 2  
    30    2   30 ar 
    31    5   31 1  
    32    7   32 1  
    33    7   33 1  
    34    8   34 1  
    35    8   35 1  
    36    9   36 1  
    37    9   37 1  
    38   10   38 1  
    39   10   39 1  
    40   10   40 1  
    41   12   41 1  
    42   13   42 1  
    43   14   43 1  
    44   14   44 1  
    45   15   45 1  
    46   16   46 1  
    47   16   47 1  
    48   16   48 1  
    49   17   49 1  
    50   17   50 1  
    51   17   51 1  
    52   19   52 1  
    53   22   53 1  
    54   23   54 1  
    55   25   55 1  
    56   26   56 1  
@<TRIPOS>SUBSTRUCTURE
     1 MLN         1

