4tpm_ligand
  -I-interpret- 

 54 58  0  0  0  0  0  0  0  0999 V2000
   15.7780   84.8110   34.8540 O   0  0  0  0  0
   14.8070   85.6790   34.3140 C   0  0  0  0  0
   14.1710   86.7590   35.2450 C   0  0  0  0  0
   14.0930   86.3150   36.6420 C   0  0  0  0  0
   13.5880   87.3990   37.5250 C   0  0  0  0  0
   12.3910   88.1580   37.0410 N   0  0  0  0  0
   12.2260   88.2370   35.5940 C   0  0  0  0  0
   12.8120   87.1310   34.7780 C   0  0  0  0  0
   11.6600   88.9320   38.0470 C   0  0  0  0  0
   10.5110   89.5100   37.6540 N   0  0  0  0  0
    9.7500   90.2530   38.5230 C   0  0  0  0  0
   10.2020   90.4080   39.8610 C   0  0  0  0  0
   11.3630   89.8330   40.2660 N   0  0  0  0  0
   12.1220   89.1010   39.4070 C   0  0  0  0  0
   13.3210   88.5130   39.8360 O   0  0  0  0  0
   13.9630   89.2440   40.8310 C   0  0  0  0  0
   15.3680   88.7890   41.0160 C   0  0  0  0  0
   15.0250   88.2200   42.3290 N   0  0  0  0  0
   13.6220   88.6720   42.1380 C   0  0  0  0  0
   15.9010   88.2740   43.4750 C   0  0  0  0  0
   15.3410   88.1990   44.7440 C   0  0  0  0  0
   16.1870   88.2700   45.8850 C   0  0  0  0  0
   17.6050   88.4220   45.7080 C   0  0  0  0  0
   18.4780   88.4970   46.8360 C   0  0  0  0  0
   19.8620   88.6500   46.6410 C   0  0  0  0  0
   20.3890   88.7300   45.3220 C   0  0  0  0  0
   19.5370   88.6550   44.2290 C   0  0  0  0  0
   18.1140   88.4960   44.4260 C   0  0  0  0  0
   17.2600   88.4230   43.3160 N   0  0  0  0  0
   16.0782   84.2050   34.1727 H   0  0  0  0  0
   13.9794   85.0330   34.0210 H   0  0  0  0  0
   15.3279   86.2421   33.5396 H   0  0  0  0  0
   14.8271   87.6281   35.1973 H   0  0  0  0  0
   15.0927   86.0344   36.9736 H   0  0  0  0  0
   13.4057   85.4710   36.7003 H   0  0  0  0  0
   14.3957   88.1272   37.5984 H   0  0  0  0  0
   13.2811   86.9133   38.4513 H   0  0  0  0  0
   12.7499   89.1417   35.2856 H   0  0  0  0  0
   11.1513   88.1982   35.4163 H   0  0  0  0  0
   12.1669   86.2575   34.8728 H   0  0  0  0  0
   12.8866   87.4708   33.7450 H   0  0  0  0  0
    8.8190   90.7140   38.1931 H   0  0  0  0  0
    9.6124   90.9927   40.5672 H   0  0  0  0  0
   13.7503   90.2821   40.5757 H   0  0  0  0  0
   16.1835   89.5077   40.9352 H   0  0  0  0  0
   15.8355   88.1585   40.2597 H   0  0  0  0  0
   12.8095   87.9493   42.2130 H   0  0  0  0  0
   13.1523   89.3011   42.8941 H   0  0  0  0  0
   14.2635   88.0868   44.8641 H   0  0  0  0  0
   15.7626   88.2095   46.8872 H   0  0  0  0  0
   18.0722   88.4358   47.8458 H   0  0  0  0  0
   20.5307   88.7073   47.4999 H   0  0  0  0  0
   21.4616   88.8502   45.1699 H   0  0  0  0  0
   19.9422   88.7162   43.2190 H   0  0  0  0  0
  1  2  1  0  0  0
  2  3  1  0  0  0
  3  4  1  0  0  0
  3  8  1  0  0  0
  4  5  1  0  0  0
  5  6  1  0  0  0
  6  7  1  0  0  0
  6  9  1  0  0  0
  7  8  1  0  0  0
  9 10  4  0  0  0
  9 14  4  0  0  0
 10 11  4  0  0  0
 11 12  4  0  0  0
 12 13  4  0  0  0
 13 14  4  0  0  0
 14 15  1  0  0  0
 15 16  1  0  0  0
 16 17  1  0  0  0
 16 19  1  0  0  0
 17 18  1  0  0  0
 18 19  1  0  0  0
 18 20  1  0  0  0
 20 21  4  0  0  0
 20 29  4  0  0  0
 21 22  4  0  0  0
 22 23  4  0  0  0
 23 24  4  0  0  0
 23 28  4  0  0  0
 24 25  4  0  0  0
 25 26  4  0  0  0
 26 27  4  0  0  0
 27 28  4  0  0  0
 28 29  4  0  0  0
  1 30  1  0  0  0
  2 31  1  0  0  0
  2 32  1  0  0  0
  3 33  1  0  0  0
  4 34  1  0  0  0
  4 35  1  0  0  0
  5 36  1  0  0  0
  5 37  1  0  0  0
  7 38  1  0  0  0
  7 39  1  0  0  0
  8 40  1  0  0  0
  8 41  1  0  0  0
 11 42  1  0  0  0
 12 43  1  0  0  0
 16 44  1  0  0  0
 17 45  1  0  0  0
 17 46  1  0  0  0
 19 47  1  0  0  0
 19 48  1  0  0  0
 21 49  1  0  0  0
 22 50  1  0  0  0
 24 51  1  0  0  0
 25 52  1  0  0  0
 26 53  1  0  0  0
 27 54  1  0  0  0
M  END
$$$$
