1h1q_ligand
  -I-interpret- 

 44 47  0  0  0  0  0  0  0  0999 V2000
    7.8210   43.7020   49.3990 C   0  0  0  0  0
   10.7390   46.1550   51.6470 C   0  0  0  0  0
    5.1160   45.2740   51.6170 C   0  0  0  0  0
    4.1070   45.7240   52.7030 C   0  0  0  0  0
    2.7660   45.9860   51.9860 C   0  0  0  0  0
    1.5620   46.0860   52.9390 C   0  0  0  0  0
    1.4480   44.9690   53.9870 C   0  0  0  0  0
    2.7870   44.7400   54.7250 C   0  0  0  0  0
    4.0090   44.6090   53.7920 C   0  0  0  0  0
    4.6670   40.9170   47.4030 C   0  0  0  0  0
    4.0590   40.6480   48.6330 C   0  0  0  0  0
    4.6450   41.0930   49.8150 C   0  0  0  0  0
    5.8520   41.7890   49.8080 C   0  0  0  0  0
    6.8700   44.4890   50.1810 N   0  0  0  0  0
    7.2370   45.3850   51.0370 C   0  0  0  0  0
    6.3200   46.0740   51.7360 O   0  0  0  0  0
    8.6590   45.6250   51.1990 C   0  0  0  0  0
    9.5490   46.4520   51.9630 N   0  0  0  0  0
   10.7730   45.2130   50.7360 N   0  0  0  0  0
    9.5340   44.9120   50.4780 C   0  0  0  0  0
    9.0610   43.9200   49.5710 N   0  0  0  0  0
    7.6000   42.7620   48.5320 N   0  0  0  0  0
    6.4450   42.0610   48.5810 C   0  0  0  0  0
    5.8550   41.6320   47.3960 C   0  0  0  0  0
   11.6235   46.6237   52.0783 H   0  0  0  0  0
    5.3584   44.2200   51.7526 H   0  0  0  0  0
    4.6787   45.4102   50.6279 H   0  0  0  0  0
    4.4136   46.6362   53.2148 H   0  0  0  0  0
    2.5837   45.1434   51.3190 H   0  0  0  0  0
    2.8538   46.9429   51.4714 H   0  0  0  0  0
    0.6694   46.0182   52.3171 H   0  0  0  0  0
    1.6826   47.0174   53.4923 H   0  0  0  0  0
    1.1743   44.0455   53.4768 H   0  0  0  0  0
    0.6967   45.2613   54.7206 H   0  0  0  0  0
    2.6969   43.8008   55.2708 H   0  0  0  0  0
    2.9580   45.6103   55.3586 H   0  0  0  0  0
    4.8993   44.6900   54.4156 H   0  0  0  0  0
    3.9135   43.6572   53.2694 H   0  0  0  0  0
    4.2177   40.5727   46.4715 H   0  0  0  0  0
    3.1241   40.0886   48.6666 H   0  0  0  0  0
    4.1495   40.8928   50.7650 H   0  0  0  0  0
    6.3182   42.1112   50.7391 H   0  0  0  0  0
    8.2955   42.5527   47.8158 H   0  0  0  0  0
    6.3354   41.8622   46.4451 H   0  0  0  0  0
 22  1  1  0  0  0
  1 21  4  0  0  0
  1 14  4  0  0  0
 14 15  4  0  0  0
 15 17  4  0  0  0
 15 16  1  0  0  0
 16  3  1  0  0  0
  3  4  1  0  0  0
  4  9  1  0  0  0
  4  5  1  0  0  0
  5  6  1  0  0  0
  6  7  1  0  0  0
  7  8  1  0  0  0
  9  8  1  0  0  0
 17 20  4  0  0  0
 17 18  4  0  0  0
 18  2  4  0  0  0
  2 19  4  0  0  0
 20 19  4  0  0  0
 21 20  4  0  0  0
 22 23  1  0  0  0
 23 24  4  0  0  0
 23 13  4  0  0  0
 13 12  4  0  0  0
 12 11  4  0  0  0
 11 10  4  0  0  0
 10 24  4  0  0  0
  2 25  1  0  0  0
  3 26  1  0  0  0
  3 27  1  0  0  0
  4 28  1  0  0  0
  5 29  1  0  0  0
  5 30  1  0  0  0
  6 31  1  0  0  0
  6 32  1  0  0  0
  7 33  1  0  0  0
  7 34  1  0  0  0
  8 35  1  0  0  0
  8 36  1  0  0  0
  9 37  1  0  0  0
  9 38  1  0  0  0
 10 39  1  0  0  0
 11 40  1  0  0  0
 12 41  1  0  0  0
 13 42  1  0  0  0
 22 43  1  0  0  0
 24 44  1  0  0  0
M  END
$$$$
