2q8s_ligand
  -I-interpret- 

 57 60  0  0  0  0  0  0  0  0999 V2000
   18.3630   63.1370   20.2510 O   0  0  0  0  0
   19.1270   62.5230   19.4730 C   0  0  0  0  0
   20.0590   61.7950   19.8760 O   0  0  0  0  0
   18.9180   62.7010   17.9940 C   0  0  0  0  0
   19.9660   63.6310   17.4860 N   0  0  0  0  0
   20.9530   63.3840   16.6100 C   0  0  0  0  0
   21.6800   64.5350   16.4230 C   0  0  0  0  0
   21.1060   65.5040   17.2110 C   0  0  0  0  0
   20.0420   64.9150   17.8590 C   0  0  0  0  0
   18.8670   61.3650   17.2230 C   0  0  0  0  0
   18.2230   61.6380   15.8770 C   0  0  0  0  0
   18.9360   61.6460   14.6720 C   0  0  0  0  0
   18.2850   61.9270   13.4600 C   0  0  0  0  0
   16.9170   62.1930   13.4490 C   0  0  0  0  0
   16.2230   62.1920   14.6590 C   0  0  0  0  0
   16.8640   61.9110   15.8560 C   0  0  0  0  0
   16.1170   62.5290   12.1990 C   0  0  0  0  0
   16.3360   61.6510   10.9780 C   0  0  0  0  0
   17.5580   62.0520   10.2080 C   0  0  0  0  0
   17.7700   63.3980    9.6150 C   0  0  0  0  0
   18.8820   63.7720    8.9250 C   0  0  0  0  0
   20.0820   62.9770    8.5960 C   0  0  0  0  0
   18.7590   65.0600    8.5280 O   0  0  0  0  0
   17.5340   65.4760    8.9990 C   0  0  0  0  0
   16.9150   64.4470    9.6740 N   0  0  0  0  0
   17.0660   66.7670    8.7760 C   0  0  0  0  0
   15.8290   67.1810    9.2570 C   0  0  0  0  0
   15.3850   68.4820    9.0180 C   0  0  0  0  0
   16.1800   69.3710    8.3000 C   0  0  0  0  0
   17.4170   68.9590    7.8160 C   0  0  0  0  0
   17.8580   67.6630    8.0560 C   0  0  0  0  0
   17.7207   63.6351   19.7401 H   0  0  0  0  0
   17.9348   63.1384   17.8205 H   0  0  0  0  0
   21.1461   62.4266   16.1261 H   0  0  0  0  0
   22.5468   64.6565   15.7734 H   0  0  0  0  0
   21.4305   66.5403   17.3053 H   0  0  0  0  0
   19.3721   65.4126   18.5602 H   0  0  0  0  0
   18.2891   60.6266   17.7787 H   0  0  0  0  0
   19.8717   60.9637   17.0899 H   0  0  0  0  0
   20.0049   61.4324   14.6748 H   0  0  0  0  0
   18.8496   61.9371   12.5277 H   0  0  0  0  0
   15.1564   62.4164   14.6636 H   0  0  0  0  0
   16.2958   61.9047   16.7862 H   0  0  0  0  0
   16.4337   63.5296   11.9048 H   0  0  0  0  0
   15.0702   62.3988   12.4735 H   0  0  0  0  0
   15.4711   61.7570   10.3231 H   0  0  0  0  0
   16.4693   60.6237   11.3171 H   0  0  0  0  0
   17.5063   61.4101    9.3286 H   0  0  0  0  0
   18.3428   61.9982   10.9625 H   0  0  0  0  0
   20.5567   62.6398    9.5174 H   0  0  0  0  0
   19.7913   62.1131    7.9983 H   0  0  0  0  0
   20.7807   63.5933    8.0302 H   0  0  0  0  0
   15.2051   66.4882    9.8217 H   0  0  0  0  0
   14.4136   68.8029    9.3943 H   0  0  0  0  0
   15.8336   70.3882    8.1175 H   0  0  0  0  0
   18.0396   69.6514    7.2494 H   0  0  0  0  0
   18.8297   67.3438    7.6791 H   0  0  0  0  0
  1  2  1  0  0  0
  2  3  2  0  0  0
  2  4  1  0  0  0
  4  5  1  0  0  0
  4 10  1  0  0  0
  5  6  4  0  0  0
  5  9  4  0  0  0
  6  7  4  0  0  0
  7  8  4  0  0  0
  8  9  4  0  0  0
 10 11  1  0  0  0
 11 12  4  0  0  0
 11 16  4  0  0  0
 12 13  4  0  0  0
 13 14  4  0  0  0
 14 15  4  0  0  0
 14 17  1  0  0  0
 15 16  4  0  0  0
 17 18  1  0  0  0
 18 19  1  0  0  0
 19 20  1  0  0  0
 20 21  4  0  0  0
 20 25  4  0  0  0
 21 22  1  0  0  0
 21 23  4  0  0  0
 23 24  4  0  0  0
 24 25  4  0  0  0
 24 26  1  0  0  0
 26 27  4  0  0  0
 26 31  4  0  0  0
 27 28  4  0  0  0
 28 29  4  0  0  0
 29 30  4  0  0  0
 30 31  4  0  0  0
  1 32  1  0  0  0
  4 33  1  0  0  0
  6 34  1  0  0  0
  7 35  1  0  0  0
  8 36  1  0  0  0
  9 37  1  0  0  0
 10 38  1  0  0  0
 10 39  1  0  0  0
 12 40  1  0  0  0
 13 41  1  0  0  0
 15 42  1  0  0  0
 16 43  1  0  0  0
 17 44  1  0  0  0
 17 45  1  0  0  0
 18 46  1  0  0  0
 18 47  1  0  0  0
 19 48  1  0  0  0
 19 49  1  0  0  0
 22 50  1  0  0  0
 22 51  1  0  0  0
 22 52  1  0  0  0
 27 53  1  0  0  0
 28 54  1  0  0  0
 29 55  1  0  0  0
 30 56  1  0  0  0
 31 57  1  0  0  0
M  END
$$$$
