4hlh_ligand
  -I-interpret- 

 27 29  0  0  0  0  0  0  0  0999 V2000
  -38.0730  -10.9370   12.8940 C   0  0  0  0  0
  -38.0850  -11.2500   14.2410 C   0  0  0  0  0
  -37.3290  -10.6490   14.9940 O   0  0  0  0  0
  -38.9210  -12.2690   14.6820 C   0  0  0  0  0
  -39.0470  -12.5270   16.0430 C   0  0  0  0  0
  -39.8860  -13.5690   16.4600 C   0  0  0  0  0
  -40.5860  -14.3350   15.5180 C   0  0  0  0  0
  -40.4670  -14.0500   14.1630 C   0  0  0  0  0
  -39.6300  -13.0400   13.7540 C   0  0  0  0  0
  -39.5520  -12.7430   12.4250 O   0  0  0  0  0
  -38.8630  -11.6410   12.0160 C   0  0  0  0  0
  -38.8780  -11.3880   10.6240 C   0  0  0  0  0
  -38.2700  -10.2690   10.0420 C   0  0  0  0  0
  -38.3180  -10.0710    8.6560 C   0  0  0  0  0
  -38.9720  -10.9940    7.8520 C   0  0  0  0  0
  -39.0330  -10.8350    6.5030 F   0  0  0  0  0
  -39.5920  -12.0940    8.4130 C   0  0  0  0  0
  -39.5500  -12.2910    9.7940 C   0  0  0  0  0
  -37.4366  -10.1313   12.5279 H   0  0  0  0  0
  -38.5021  -11.9285   16.7731 H   0  0  0  0  0
  -39.9948  -13.7850   17.5228 H   0  0  0  0  0
  -41.2241  -15.1547   15.8483 H   0  0  0  0  0
  -41.0338  -14.6238   13.4297 H   0  0  0  0  0
  -37.7545   -9.5452   10.6733 H   0  0  0  0  0
  -37.8439   -9.1961    8.2111 H   0  0  0  0  0
  -40.1142  -12.8084    7.7766 H   0  0  0  0  0
  -40.0462  -13.1579   10.2303 H   0  0  0  0  0
  1  2  1  0  0  0
  1 11  2  0  0  0
  2  3  2  0  0  0
  2  4  1  0  0  0
  4  5  4  0  0  0
  4  9  4  0  0  0
  5  6  4  0  0  0
  6  7  4  0  0  0
  7  8  4  0  0  0
  8  9  4  0  0  0
  9 10  1  0  0  0
 10 11  1  0  0  0
 11 12  1  0  0  0
 12 13  4  0  0  0
 12 18  4  0  0  0
 13 14  4  0  0  0
 14 15  4  0  0  0
 15 16  1  0  0  0
 15 17  4  0  0  0
 17 18  4  0  0  0
  1 19  1  0  0  0
  5 20  1  0  0  0
  6 21  1  0  0  0
  7 22  1  0  0  0
  8 23  1  0  0  0
 13 24  1  0  0  0
 14 25  1  0  0  0
 17 26  1  0  0  0
 18 27  1  0  0  0
M  END
$$$$
