4lte_ligand
  -I-interpret- 

 90 92  0  0  0  0  0  0  0  0999 V2000
  -97.9410  -67.9810   24.5870 C   0  0  0  0  0
  -96.4840  -68.1990   24.9620 C   0  0  0  0  0
  -96.0880  -69.3280   25.1190 O   0  0  0  0  0
  -98.3870  -69.2770   23.9920 C   0  0  0  0  0
  -99.8780  -69.5160   24.2240 C   0  0  0  0  0
 -100.1990  -70.9810   24.1670 C   0  0  0  0  0
 -100.6810  -68.8420   23.1100 C   0  0  0  0  0
 -101.7000  -71.2630   24.3890 C   0  0  0  0  0
 -101.8150  -69.7250   22.4770 C   0  0  0  0  0
 -102.6330  -70.5330   23.4380 C   0  0  0  0  0
  -93.6610  -67.0910   30.3180 C   0  0  0  0  0
  -93.8480  -67.2310   31.8320 C   0  0  0  0  0
  -92.8360  -67.4420   34.1550 C   0  0  0  0  0
  -92.7140  -67.7680   28.1890 C   0  0  0  0  0
  -92.8430  -67.9310   29.5790 C   0  0  0  0  0
  -90.6590  -65.8500   33.3870 C   0  0  0  0  0
  -90.7250  -66.3560   34.6770 C   0  0  0  0  0
  -94.9330  -67.6060   32.2540 O   0  0  0  0  0
  -93.2710  -69.1820   23.9600 O   0  0  0  0  0
  -91.6700  -66.1230   32.4620 C   0  0  0  0  0
  -92.7480  -66.9250   32.8470 C   0  0  0  0  0
  -95.5380  -67.1390   25.1280 N   0  0  0  0  0
  -91.8260  -67.1480   35.0670 C   0  0  0  0  0
  -93.4220  -66.7450   27.5670 C   0  0  0  0  0
  -94.2610  -65.9150   28.3030 C   0  0  0  0  0
  -94.3820  -66.0800   29.6700 C   0  0  0  0  0
  -93.3290  -66.5230   26.0690 C   0  0  0  0  0
  -94.2110  -67.5830   25.4620 C   0  0  0  0  0
  -93.4480  -68.0120   24.2320 C   0  0  0  0  0
  -90.0370  -67.0900   18.8500 N   0  0  0  0  0
  -89.5380  -67.6780   20.0910 C   0  0  0  0  0
  -89.7370  -66.6680   21.1990 C   0  0  0  0  0
  -89.5660  -67.3360   22.5790 C   0  0  0  0  0
  -90.9010  -68.0300   22.9380 C   0  0  0  0  0
  -92.1370  -67.4220   22.2510 C   0  0  0  0  0
  -92.9050  -66.9860   23.3880 N   0  0  0  0  0
  -90.0950  -69.0630   20.3800 C   0  0  0  0  0
  -89.4650  -69.9250   20.9720 O   0  0  0  0  0
  -91.4420  -69.3990   19.9360 N   0  0  0  0  0
  -91.1430  -66.1160   18.6510 C   0  0  0  0  0
  -91.3960  -65.7390   17.5260 O   0  0  0  0  0
  -92.0000  -65.5620   19.8240 C   0  0  0  0  0
  -93.3330  -65.2280   19.6700 C   0  0  0  0  0
  -94.0790  -64.7040   20.8990 C   0  0  0  0  0
  -94.5380  -65.4920   21.6840 O   0  0  0  0  0
  -94.1930  -63.6322   21.0610 O   0  0  0  0  0
  -98.0578  -67.1542   23.8864 H   0  0  0  0  0
  -98.5435  -67.7061   25.4527 H   0  0  0  0  0
  -97.8299  -70.0847   24.4667 H   0  0  0  0  0
  -98.2057  -69.2442   22.9177 H   0  0  0  0  0
 -100.1311  -69.1114   25.2039 H   0  0  0  0  0
  -99.6412  -71.4797   24.9596 H   0  0  0  0  0
  -99.9298  -71.3471   23.1762 H   0  0  0  0  0
  -99.9769  -68.6148   22.3095 H   0  0  0  0  0
 -101.1702  -67.9761   23.5561 H   0  0  0  0  0
 -101.9411  -70.9192   25.3949 H   0  0  0  0  0
 -101.8496  -72.3297   24.2223 H   0  0  0  0  0
 -101.3164  -70.4404   21.8230 H   0  0  0  0  0
 -102.5056  -69.0347   21.9926 H   0  0  0  0  0
 -103.2928  -69.8747   24.0032 H   0  0  0  0  0
 -103.2377  -71.2552   22.8895 H   0  0  0  0  0
  -93.6824  -68.0630   34.4484 H   0  0  0  0  0
  -92.0713  -68.4307   27.6094 H   0  0  0  0  0
  -92.2935  -68.7270   30.0815 H   0  0  0  0  0
  -89.8100  -65.2333   33.0921 H   0  0  0  0  0
  -89.9274  -66.1421   35.3885 H   0  0  0  0  0
  -91.6186  -65.7155   31.4524 H   0  0  0  0  0
  -95.7828  -66.1548   25.0191 H   0  0  0  0  0
  -91.8858  -67.5309   36.0858 H   0  0  0  0  0
  -94.8259  -65.1306   27.7993 H   0  0  0  0  0
  -95.0376  -65.4242   30.2429 H   0  0  0  0  0
  -92.3018  -66.5994   25.7124 H   0  0  0  0  0
  -93.6513  -65.5202   25.7886 H   0  0  0  0  0
  -94.3971  -68.3874   26.1736 H   0  0  0  0  0
  -89.5593  -67.3899   18.0001 H   0  0  0  0  0
  -88.4711  -67.8806   19.9978 H   0  0  0  0  0
  -90.7446  -66.2584   21.1271 H   0  0  0  0  0
  -88.9937  -65.8777   21.0944 H   0  0  0  0  0
  -89.3136  -66.5893   23.3319 H   0  0  0  0  0
  -88.7568  -68.0657   22.5482 H   0  0  0  0  0
  -91.0429  -67.9152   24.0126 H   0  0  0  0  0
  -90.8246  -69.0644   22.6028 H   0  0  0  0  0
  -92.6681  -68.1213   21.6052 H   0  0  0  0  0
  -91.8997  -66.6223   21.5494 H   0  0  0  0  0
  -93.0558  -65.9965   23.5841 H   0  0  0  0  0
  -91.8245  -70.3258   20.1235 H   0  0  0  0  0
  -92.0022  -68.7073   19.4378 H   0  0  0  0  0
  -91.5343  -65.4325   20.8009 H   0  0  0  0  0
  -93.8342  -65.3341   18.7079 H   0  0  0  0  0
  -94.3465  -66.3850   21.3883 H   0  0  0  0  0
  2  1  1  0  0  0
  1  4  1  0  0  0
  2  3  2  0  0  0
 22  2  1  0  0  0
  4  5  1  0  0  0
  5  6  1  0  0  0
  5  7  1  0  0  0
  6  8  1  0  0  0
  7  9  1  0  0  0
  8 10  1  0  0  0
  9 10  1  0  0  0
 11 12  1  0  0  0
 15 11  4  0  0  0
 26 11  4  0  0  0
 12 18  2  0  0  0
 12 21  1  0  0  0
 21 13  4  0  0  0
 13 23  4  0  0  0
 14 15  4  0  0  0
 24 14  4  0  0  0
 16 17  4  0  0  0
 20 16  4  0  0  0
 23 17  4  0  0  0
 29 19  2  0  0  0
 21 20  4  0  0  0
 28 22  1  0  0  0
 24 25  4  0  0  0
 27 24  1  0  0  0
 25 26  4  0  0  0
 28 27  1  0  0  0
 29 28  1  0  0  0
 36 29  1  0  0  0
 31 30  1  0  0  0
 30 40  1  0  0  0
 32 31  1  0  0  0
 31 37  1  0  0  0
 33 32  1  0  0  0
 34 33  1  0  0  0
 35 34  1  0  0  0
 35 36  1  0  0  0
 37 38  2  0  0  0
 37 39  1  0  0  0
 40 41  2  0  0  0
 40 42  1  0  0  0
 42 43  2  0  0  0
 43 44  1  0  0  0
 44 45  1  0  0  0
 44 46  2  0  0  0
  1 47  1  0  0  0
  1 48  1  0  0  0
  4 49  1  0  0  0
  4 50  1  0  0  0
  5 51  1  0  0  0
  6 52  1  0  0  0
  6 53  1  0  0  0
  7 54  1  0  0  0
  7 55  1  0  0  0
  8 56  1  0  0  0
  8 57  1  0  0  0
  9 58  1  0  0  0
  9 59  1  0  0  0
 10 60  1  0  0  0
 10 61  1  0  0  0
 13 62  1  0  0  0
 14 63  1  0  0  0
 15 64  1  0  0  0
 16 65  1  0  0  0
 17 66  1  0  0  0
 20 67  1  0  0  0
 22 68  1  0  0  0
 23 69  1  0  0  0
 25 70  1  0  0  0
 26 71  1  0  0  0
 27 72  1  0  0  0
 27 73  1  0  0  0
 28 74  1  0  0  0
 30 75  1  0  0  0
 31 76  1  0  0  0
 32 77  1  0  0  0
 32 78  1  0  0  0
 33 79  1  0  0  0
 33 80  1  0  0  0
 34 81  1  0  0  0
 34 82  1  0  0  0
 35 83  1  0  0  0
 35 84  1  0  0  0
 36 85  1  0  0  0
 39 86  1  0  0  0
 39 87  1  0  0  0
 42 88  1  0  0  0
 43 89  1  0  0  0
 45 90  1  0  0  0
M  END
$$$$
