4jwr_ligand
  -I-interpret- 

 53 55  0  0  0  0  0  0  0  0999 V2000
    4.9710  -11.2980   -2.1870 C   0  0  0  0  0
    3.6130  -11.1410   -2.4690 C   0  0  0  0  0
    2.7990  -12.3050   -3.4520 Cl  0  0  0  0  0
    2.9150  -10.0490   -1.9610 C   0  0  0  0  0
    3.5740   -9.1160   -1.1650 C   0  0  0  0  0
    4.9290   -9.2670   -0.8800 C   0  0  0  0  0
    5.6280  -10.3580   -1.3870 C   0  0  0  0  0
    7.1190  -10.4980   -1.0700 C   0  0  0  0  0
    7.8100  -11.0850   -2.1930 O   0  0  0  0  0
    9.2480  -10.9200   -2.1160 C   0  0  0  0  0
    9.6870   -9.4730   -2.4850 C   0  0  0  0  0
    9.2100   -9.1110   -3.8990 C   0  0  0  0  0
    8.4750   -8.1050   -3.9980 O   0  0  0  0  0
    9.5770   -9.8480   -4.8460 O   0  0  0  0  0
    9.7580  -11.3320   -0.7280 C   0  0  0  0  0
   10.9690  -11.5020   -0.6030 O   0  0  0  0  0
    8.8590  -11.5500    0.3570 N   0  0  0  0  0
    9.3180  -11.9380    1.7150 C   0  0  0  0  0
   10.3670  -13.0810    1.7210 C   0  0  0  0  0
    9.8380  -14.4260    1.1910 C   0  0  0  0  0
    9.8630  -10.6990    2.4460 C   0  0  0  0  0
    8.9090   -9.6300    2.3620 O   0  0  0  0  0
    7.4040  -11.3150    0.2050 C   0  0  0  0  0
    6.6090  -12.6320    0.2380 C   0  0  0  0  0
    5.6230  -12.7660    1.2160 C   0  0  0  0  0
    4.8870  -13.9460    1.2840 C   0  0  0  0  0
    5.1210  -14.9760    0.3710 C   0  0  0  0  0
    4.1790  -16.4220    0.4750 Cl  0  0  0  0  0
    6.1040  -14.8450   -0.6150 C   0  0  0  0  0
    6.8510  -13.6670   -0.6750 C   0  0  0  0  0
    5.5177  -12.1509   -2.5892 H   0  0  0  0  0
    1.8557   -9.9247   -2.1857 H   0  0  0  0  0
    3.0269   -8.2633   -0.7629 H   0  0  0  0  0
    5.4414   -8.5311   -0.2603 H   0  0  0  0  0
    7.4890   -9.4901   -0.8820 H   0  0  0  0  0
    9.7029  -11.5792   -2.8554 H   0  0  0  0  0
   10.7749   -9.4135   -2.4519 H   0  0  0  0  0
    9.2451   -8.7762   -1.7728 H   0  0  0  0  0
   10.1358  -10.5504   -4.5054 H   0  0  0  0  0
    8.4491  -12.3354    2.2395 H   0  0  0  0  0
   10.6649  -13.2386    2.7576 H   0  0  0  0  0
   11.1807  -12.7741    1.0639 H   0  0  0  0  0
    9.0022  -14.7550    1.8085 H   0  0  0  0  0
    9.5040  -14.3030    0.1607 H   0  0  0  0  0
   10.6346  -15.1690    1.2298 H   0  0  0  0  0
   10.7979  -10.3867    1.9806 H   0  0  0  0  0
   10.0388  -10.9452    3.4932 H   0  0  0  0  0
    9.2529   -8.8591    2.8192 H   0  0  0  0  0
    7.0640  -10.7277    1.0580 H   0  0  0  0  0
    5.4309  -11.9557    1.9193 H   0  0  0  0  0
    4.1246  -14.0662    2.0536 H   0  0  0  0  0
    6.2844  -15.6509   -1.3264 H   0  0  0  0  0
    7.6246  -13.5521   -1.4342 H   0  0  0  0  0
  1  2  4  0  0  0
  1  7  4  0  0  0
  2  3  1  0  0  0
  2  4  4  0  0  0
  4  5  4  0  0  0
  5  6  4  0  0  0
  6  7  4  0  0  0
  7  8  1  0  0  0
  8  9  1  0  0  0
  8 23  1  0  0  0
  9 10  1  0  0  0
 10 11  1  0  0  0
 10 15  1  0  0  0
 11 12  1  0  0  0
 12 13  2  0  0  0
 12 14  1  0  0  0
 15 16  2  0  0  0
 15 17  1  0  0  0
 17 18  1  0  0  0
 17 23  1  0  0  0
 18 19  1  0  0  0
 18 21  1  0  0  0
 19 20  1  0  0  0
 21 22  1  0  0  0
 23 24  1  0  0  0
 24 25  4  0  0  0
 24 30  4  0  0  0
 25 26  4  0  0  0
 26 27  4  0  0  0
 27 28  1  0  0  0
 27 29  4  0  0  0
 29 30  4  0  0  0
  1 31  1  0  0  0
  4 32  1  0  0  0
  5 33  1  0  0  0
  6 34  1  0  0  0
  8 35  1  0  0  0
 10 36  1  0  0  0
 11 37  1  0  0  0
 11 38  1  0  0  0
 14 39  1  0  0  0
 18 40  1  0  0  0
 19 41  1  0  0  0
 19 42  1  0  0  0
 20 43  1  0  0  0
 20 44  1  0  0  0
 20 45  1  0  0  0
 21 46  1  0  0  0
 21 47  1  0  0  0
 22 48  1  0  0  0
 23 49  1  0  0  0
 25 50  1  0  0  0
 26 51  1  0  0  0
 29 52  1  0  0  0
 30 53  1  0  0  0
M  END
$$$$
