3m1k_ligand
  -I-interpret- 

 15 15  0  0  0  0  0  0  0  0999 V2000
   16.0340    5.3620   14.1620 C   0  0  0  0  0
   15.2370    5.7810   15.2240 C   0  0  0  0  0
   14.8830    4.8190   16.1930 C   0  0  0  0  0
   16.1430    3.1340   14.9520 N   0  0  0  0  0
   16.5940    1.7090   14.8620 O   0  0  0  0  0
   16.4830    4.0380   14.0310 C   0  0  0  0  0
   15.3640    3.5350   15.9960 C   0  0  0  0  0
   15.0190    2.1950   17.1130 S   0  0  0  0  0
   16.3205    6.0899   13.4029 H   0  0  0  0  0
   14.8991    6.8142   15.3037 H   0  0  0  0  0
   14.2628    5.0729   17.0526 H   0  0  0  0  0
   17.1302    1.5934   14.0742 H   0  0  0  0  0
   17.5688    4.1064   14.0984 H   0  0  0  0  0
   16.0235    3.6802   13.1096 H   0  0  0  0  0
   15.6084    1.0880   16.6703 H   0  0  0  0  0
  1  2  2  0  0  0
  6  1  1  0  0  0
  2  3  1  0  0  0
  3  7  2  0  0  0
  4  5  1  0  0  0
  4  6  1  0  0  0
  4  7  1  0  0  0
  7  8  1  0  0  0
  1  9  1  0  0  0
  2 10  1  0  0  0
  3 11  1  0  0  0
  5 12  1  0  0  0
  6 13  1  0  0  0
  6 14  1  0  0  0
  8 15  1  0  0  0
M  END
$$$$
