4b00_ligand
  -I-interpret- 

 61 65  0  0  0  0  0  0  0  0999 V2000
    7.4070    8.0310  -22.7420 C   0  0  0  0  0
    7.9850    6.6420  -22.9300 C   0  0  0  0  0
    6.9370    5.6560  -23.1440 N   0  0  0  0  0
    6.7130    4.7870  -22.0930 C   0  0  0  0  0
    5.7900    3.8150  -22.1410 C   0  0  0  0  0
    4.9700    3.7420  -23.3430 C   0  0  0  0  0
    5.1170    4.5700  -24.3930 C   0  0  0  0  0
    6.1790    5.6260  -24.3200 C   0  0  0  0  0
    6.3100    6.3960  -25.2630 O   0  0  0  0  0
    4.2890    4.4770  -25.6300 C   0  0  0  0  0
    5.5620    2.8120  -21.0190 C   0  0  0  0  0
    6.3750    3.1150  -19.7890 C   0  0  0  0  0
    7.7430    3.0340  -19.5900 C   0  0  0  0  0
    8.2610    3.3830  -18.3530 C   0  0  0  0  0
    7.4290    3.8200  -17.3360 C   0  0  0  0  0
    6.0570    3.8700  -17.5320 C   0  0  0  0  0
    5.5570    3.5110  -18.7710 C   0  0  0  0  0
    4.1960    3.4430  -19.3060 C   0  0  0  0  0
    4.1830    3.0320  -20.5330 N   0  0  0  0  0
    3.0770    3.7260  -18.5590 N   0  0  0  0  0
    5.2860    4.3020  -16.5230 F   0  0  0  0  0
    5.8560    1.3770  -21.4190 C   0  0  0  0  0
    6.6660    1.0800  -22.5070 C   0  0  0  0  0
    6.9510   -0.2350  -22.8390 C   0  0  0  0  0
    6.4390   -1.2560  -22.0600 C   0  0  0  0  0
    5.6380   -1.0060  -20.9590 C   0  0  0  0  0
    5.3620    0.3220  -20.6550 C   0  0  0  0  0
    5.1520   -2.1100  -20.1190 C   0  0  0  0  0
    3.9610   -2.0860  -19.4070 C   0  0  0  0  0
    3.6380   -3.1260  -18.5580 C   0  0  0  0  0
    4.5050   -4.1970  -18.4710 C   0  0  0  0  0
    5.6470   -4.2860  -19.1580 N   0  0  0  0  0
    5.9360   -3.2410  -19.9410 C   0  0  0  0  0
    2.4740   -3.1740  -17.7480 C   0  0  0  0  0
    1.4920   -3.2190  -17.0620 C   0  0  0  0  0
    0.2970   -3.2730  -16.2260 C   0  0  0  0  0
    6.8431    8.3119  -23.6315 H   0  0  0  0  0
    6.7461    8.0339  -21.8752 H   0  0  0  0  0
    8.2178    8.7423  -22.5846 H   0  0  0  0  0
    8.5363    6.3715  -22.0295 H   0  0  0  0  0
    8.6344    6.6527  -23.8053 H   0  0  0  0  0
    7.3108    4.8960  -21.1881 H   0  0  0  0  0
    4.1964    2.9759  -23.3942 H   0  0  0  0  0
    4.4290    3.4972  -26.0866 H   0  0  0  0  0
    3.2384    4.6129  -25.3735 H   0  0  0  0  0
    4.5966    5.2532  -26.3308 H   0  0  0  0  0
    8.4011    2.7014  -20.3927 H   0  0  0  0  0
    9.3347    3.3128  -18.1787 H   0  0  0  0  0
    7.8533    4.1253  -16.3795 H   0  0  0  0  0
    3.3400    2.8810  -21.0870 H   0  0  0  0  0
    3.1724    3.9993  -17.5810 H   0  0  0  0  0
    7.0821    1.8898  -23.1064 H   0  0  0  0  0
    7.5724   -0.4619  -23.7053 H   0  0  0  0  0
    6.6729   -2.2883  -22.3204 H   0  0  0  0  0
    4.7380    0.5454  -19.7897 H   0  0  0  0  0
    3.2784   -1.2435  -19.5183 H   0  0  0  0  0
    4.2423   -5.0173  -17.8030 H   0  0  0  0  0
    6.8761   -3.2816  -20.4912 H   0  0  0  0  0
    0.5604   -3.6622  -15.2425 H   0  0  0  0  0
   -0.1178   -2.2704  -16.1222 H   0  0  0  0  0
   -0.4410   -3.9266  -16.6911 H   0  0  0  0  0
  1  2  1  0  0  0
  2  3  1  0  0  0
  3  4  1  0  0  0
  3  8  1  0  0  0
  4  5  2  0  0  0
  5  6  1  0  0  0
  5 11  1  0  0  0
  6  7  2  0  0  0
  7  8  1  0  0  0
  7 10  1  0  0  0
  8  9  2  0  0  0
 11 12  1  0  0  0
 11 19  1  0  0  0
 11 22  1  0  0  0
 12 13  4  0  0  0
 12 17  4  0  0  0
 13 14  4  0  0  0
 14 15  4  0  0  0
 15 16  4  0  0  0
 16 17  4  0  0  0
 16 21  1  0  0  0
 17 18  1  0  0  0
 18 19  1  0  0  0
 18 20  2  0  0  0
 22 23  4  0  0  0
 22 27  4  0  0  0
 23 24  4  0  0  0
 24 25  4  0  0  0
 25 26  4  0  0  0
 26 27  4  0  0  0
 26 28  1  0  0  0
 28 29  4  0  0  0
 28 33  4  0  0  0
 29 30  4  0  0  0
 30 31  4  0  0  0
 30 34  1  0  0  0
 31 32  4  0  0  0
 32 33  4  0  0  0
 34 35  3  0  0  0
 35 36  1  0  0  0
  1 37  1  0  0  0
  1 38  1  0  0  0
  1 39  1  0  0  0
  2 40  1  0  0  0
  2 41  1  0  0  0
  4 42  1  0  0  0
  6 43  1  0  0  0
 10 44  1  0  0  0
 10 45  1  0  0  0
 10 46  1  0  0  0
 13 47  1  0  0  0
 14 48  1  0  0  0
 15 49  1  0  0  0
 19 50  1  0  0  0
 20 51  1  0  0  0
 23 52  1  0  0  0
 24 53  1  0  0  0
 25 54  1  0  0  0
 27 55  1  0  0  0
 29 56  1  0  0  0
 31 57  1  0  0  0
 33 58  1  0  0  0
 36 59  1  0  0  0
 36 60  1  0  0  0
 36 61  1  0  0  0
M  END
$$$$
