5u3b_ligand
  -I-interpret- 

 45 45  0  0  0  0  0  0  0  0999 V2000
   16.0560  -15.9870   11.9230 C   0  0  0  0  0
   15.5270  -14.9730   12.9740 C   0  0  0  0  0
   16.4750  -15.3880   10.5250 C   0  0  0  0  0
   14.4840  -14.3460   12.7720 O   0  0  0  0  0
   11.3600  -22.4190   11.0480 O   0  0  0  0  0
   16.5580  -18.7680   11.9150 O   0  0  0  0  0
   14.2790  -19.3950   11.6500 C   0  0  0  0  0
   12.8980  -19.0250   11.6560 C   0  0  0  0  0
   11.8960  -20.0130   11.4810 C   0  0  0  0  0
   15.3890  -18.3830   11.8110 C   0  0  0  0  0
    8.5840  -24.4090   10.2730 C   0  0  0  0  0
    7.8140  -25.6150    9.9250 C   0  0  0  0  0
   15.2930  -14.9730    9.6180 C   0  0  0  0  0
   17.3880  -14.1590   10.6790 C   0  0  0  0  0
   17.2110  -16.3930    9.7490 N   0  3  0  0  0
    9.2350  -23.4160   10.5760 C   0  0  0  0  0
    9.9570  -22.1850   10.9410 C   0  0  0  0  0
   12.2480  -21.3830   11.2670 C   0  0  0  0  0
   13.6180  -21.7390   11.2340 C   0  0  0  0  0
   14.6260  -20.7550   11.4110 C   0  0  0  0  0
   15.0760  -17.0690   11.7800 N   0  0  0  0  0
   16.2770  -14.7310   14.0640 N   0  0  0  0  0
   15.6890  -13.7450   14.9020 O   0  0  0  0  0
   17.0018  -16.3623   12.3138 H   0  0  0  0  0
   12.6149  -17.9817   11.7953 H   0  0  0  0  0
   10.8451  -19.7252   11.5099 H   0  0  0  0  0
    8.4937  -26.3869    9.5642 H   0  0  0  0  0
    7.2881  -25.9763   10.8087 H   0  0  0  0  0
    7.0922  -25.3713    9.1454 H   0  0  0  0  0
   14.7513  -14.1495   10.0833 H   0  0  0  0  0
   15.6752  -14.6559    8.6477 H   0  0  0  0  0
   14.6224  -15.8221    9.4860 H   0  0  0  0  0
   17.7484  -13.8504    9.6977 H   0  0  0  0  0
   16.8245  -13.3440   11.1333 H   0  0  0  0  0
   18.2356  -14.4150   11.3147 H   0  0  0  0  0
   18.0135  -16.7170   10.2889 H   0  0  0  0  0
   16.5961  -17.1810    9.5455 H   0  0  0  0  0
   17.5332  -15.9771    8.8751 H   0  0  0  0  0
    9.7879  -21.4402   10.1633 H   0  0  0  0  0
    9.5882  -21.8401   11.9070 H   0  0  0  0  0
   13.9016  -22.7788   11.0711 H   0  0  0  0  0
   15.6760  -21.0436   11.3634 H   0  0  0  0  0
   14.0972  -16.8135   11.6490 H   0  0  0  0  0
   17.1610  -15.1986   14.2649 H   0  0  0  0  0
   16.2511  -13.6000   15.6666 H   0  0  0  0  0
  1  2  1  0  0  0
  1  3  1  0  0  0
 21  1  1  0  0  0
  2  4  2  0  0  0
  2 22  1  0  0  0
  3 13  1  0  0  0
  3 14  1  0  0  0
  3 15  1  0  0  0
 17  5  1  0  0  0
  5 18  1  0  0  0
 10  6  2  0  0  0
  8  7  4  0  0  0
  7 10  1  0  0  0
  7 20  4  0  0  0
  9  8  4  0  0  0
 18  9  4  0  0  0
 10 21  1  0  0  0
 11 12  1  0  0  0
 16 11  3  0  0  0
 16 17  1  0  0  0
 18 19  4  0  0  0
 19 20  4  0  0  0
 22 23  1  0  0  0
  1 24  1  0  0  0
  8 25  1  0  0  0
  9 26  1  0  0  0
 12 27  1  0  0  0
 12 28  1  0  0  0
 12 29  1  0  0  0
 13 30  1  0  0  0
 13 31  1  0  0  0
 13 32  1  0  0  0
 14 33  1  0  0  0
 14 34  1  0  0  0
 14 35  1  0  0  0
 15 36  1  0  0  0
 15 37  1  0  0  0
 15 38  1  0  0  0
 17 39  1  0  0  0
 17 40  1  0  0  0
 19 41  1  0  0  0
 20 42  1  0  0  0
 21 43  1  0  0  0
 22 44  1  0  0  0
 23 45  1  0  0  0
M  END
$$$$
