4xkx_ligand
  -I-interpret- 

 48 53  0  0  0  0  0  0  0  0999 V2000
   64.3530   51.2100   10.7030 C   0  0  0  0  0
   63.0920   51.4920   11.2370 C   0  0  0  0  0
   62.0180   50.9690   10.6360 F   0  0  0  0  0
   62.9200   52.2640   12.3230 N   0  0  0  0  0
   63.9770   52.8010   12.9340 C   0  0  0  0  0
   65.2710   52.5630   12.4420 C   0  0  0  0  0
   65.4890   51.7620   11.3070 C   0  0  0  0  0
   66.7990   51.5160   10.8280 C   0  0  0  0  0
   67.0990   50.5120    9.8840 C   0  0  0  0  0
   67.8190   52.2670   11.3090 N   0  0  0  0  0
   69.0710   52.0660   10.9320 C   0  0  0  0  0
   69.4100   51.1040   10.0050 C   0  0  0  0  0
   70.7160   50.9920    9.6970 O   0  0  0  0  0
   68.4100   50.2960    9.4510 C   0  0  0  0  0
   68.7450   49.2130    8.4150 C   0  0  0  0  0
   68.3360   47.8210    8.8880 C   0  0  0  0  0
   67.4890   47.2660    7.8310 O   0  0  0  0  0
   67.1990   48.2990    6.9760 C   0  0  0  0  0
   67.8800   49.4120    7.2290 N   0  0  0  0  0
   66.3040   48.1680    6.0030 N   0  0  0  0  0
   70.2420   49.2460    8.0520 C   0  0  0  0  0
   70.7460   48.3890    7.0720 C   0  0  0  0  0
   71.1200   50.1150    8.7290 C   0  0  0  0  0
   72.4660   50.1210    8.4170 C   0  0  0  0  0
   72.9540   49.2650    7.4340 C   0  0  0  0  0
   72.1020   48.3970    6.7590 C   0  0  0  0  0
   72.6210   47.5430    5.7810 C   0  0  0  0  0
   73.6400   46.6490    6.1220 C   0  0  0  0  0
   74.1380   45.8000    5.1460 C   0  0  0  0  0
   73.6170   45.8510    3.8560 C   0  0  0  0  0
   72.6420   46.6920    3.5520 N   0  0  0  0  0
   72.1460   47.5370    4.4610 C   0  0  0  0  0
   71.1790   48.3820    4.0680 F   0  0  0  0  0
   64.4504   50.5683    9.8273 H   0  0  0  0  0
   63.8365   53.4254   13.8163 H   0  0  0  0  0
   66.1252   53.0092   12.9514 H   0  0  0  0  0
   66.2945   49.8940    9.4853 H   0  0  0  0  0
   69.8589   52.6802   11.3680 H   0  0  0  0  0
   67.8016   47.8685    9.8368 H   0  0  0  0  0
   69.2089   47.1925    9.0641 H   0  0  0  0  0
   67.8165   50.2741    6.6876 H   0  0  0  0  0
   65.8130   47.2828    5.8774 H   0  0  0  0  0
   70.0733   47.7094    6.5488 H   0  0  0  0  0
   73.1446   50.7950    8.9399 H   0  0  0  0  0
   74.0163   49.2749    7.1902 H   0  0  0  0  0
   74.0359   46.6200    7.1372 H   0  0  0  0  0
   74.9340   45.0956    5.3874 H   0  0  0  0  0
   74.0172   45.1901    3.0872 H   0  0  0  0  0
  1  2  4  0  0  0
  1  7  4  0  0  0
  2  3  1  0  0  0
  2  4  4  0  0  0
  4  5  4  0  0  0
  5  6  4  0  0  0
  6  7  4  0  0  0
  7  8  1  0  0  0
  8  9  4  0  0  0
  8 10  4  0  0  0
  9 14  4  0  0  0
 10 11  4  0  0  0
 11 12  4  0  0  0
 12 13  1  0  0  0
 12 14  4  0  0  0
 13 23  1  0  0  0
 14 15  1  0  0  0
 15 16  1  0  0  0
 15 19  1  0  0  0
 15 21  1  0  0  0
 16 17  1  0  0  0
 17 18  1  0  0  0
 18 19  1  0  0  0
 18 20  2  0  0  0
 21 22  4  0  0  0
 21 23  4  0  0  0
 22 26  4  0  0  0
 23 24  4  0  0  0
 24 25  4  0  0  0
 25 26  4  0  0  0
 26 27  1  0  0  0
 27 28  4  0  0  0
 27 32  4  0  0  0
 28 29  4  0  0  0
 29 30  4  0  0  0
 30 31  4  0  0  0
 31 32  4  0  0  0
 32 33  1  0  0  0
  1 34  1  0  0  0
  5 35  1  0  0  0
  6 36  1  0  0  0
  9 37  1  0  0  0
 11 38  1  0  0  0
 16 39  1  0  0  0
 16 40  1  0  0  0
 19 41  1  0  0  0
 20 42  1  0  0  0
 22 43  1  0  0  0
 24 44  1  0  0  0
 25 45  1  0  0  0
 28 46  1  0  0  0
 29 47  1  0  0  0
 30 48  1  0  0  0
M  END
$$$$
