3h03_ligand
  -I-interpret- 

 33 33  0  0  0  0  0  0  0  0999 V2000
   21.5620   -2.3380   22.0240 N   0  0  0  0  0
   22.6370   -2.6700   21.1380 C   0  0  0  0  0
   22.3590   -2.9250   19.9310 O   0  0  0  0  0
   23.9910   -2.7000   21.5770 N   0  0  0  0  0
   24.1850   -2.3680   22.9670 C   0  0  0  0  0
   25.3360   -2.3590   23.4520 O   0  0  0  0  0
   23.1650   -2.0480   23.8300 C   0  0  0  0  0
   21.8870   -2.0400   23.3490 C   0  0  0  0  0
   20.1610   -2.3070   21.5610 C   0  0  0  0  0
   19.8870   -1.0010   20.7820 C   0  0  0  0  0
   20.2540    0.1680   21.7070 N   0  3  0  0  0
   18.4130   -0.9800   20.3680 C   0  0  0  0  0
   17.7820   -0.0460   20.8530 O   0  0  0  0  0
   17.9540   -1.8060   19.6420 O   0  0  0  0  0
   24.9720   -3.0750   20.5000 C   0  0  0  0  0
   26.4730   -3.1840   20.7200 C   0  0  0  0  0
   27.1730   -3.5670   19.4550 C   0  0  0  0  0
   27.1930   -2.7680   18.5390 O   0  0  0  0  0
   27.6720   -4.6720   19.3940 O   0  0  0  0  0
   23.3708   -1.8065   24.8728 H   0  0  0  0  0
   21.0784   -1.7879   24.0351 H   0  0  0  0  0
   19.4980   -2.3536   22.4249 H   0  0  0  0  0
   19.9826   -3.1588   20.9047 H   0  0  0  0  0
   20.4816   -0.9248   19.8717 H   0  0  0  0  0
   20.0846    1.0495   21.2225 H   0  0  0  0  0
   19.6807    0.1262   22.5496 H   0  0  0  0  0
   21.2396    0.1023   21.9613 H   0  0  0  0  0
   18.3659    0.4823   21.4021 H   0  0  0  0  0
   24.8908   -2.2434   19.8000 H   0  0  0  0  0
   24.6883   -4.1002   20.2620 H   0  0  0  0  0
   26.6618   -3.9515   21.4706 H   0  0  0  0  0
   26.8497   -2.2155   21.0490 H   0  0  0  0  0
   26.7414   -1.9643   18.8069 H   0  0  0  0  0
  1  2  1  0  0  0
  1  8  1  0  0  0
  1  9  1  0  0  0
  2  3  2  0  0  0
  2  4  1  0  0  0
  4  5  1  0  0  0
  4 15  1  0  0  0
  5  6  2  0  0  0
  5  7  1  0  0  0
  7  8  2  0  0  0
  9 10  1  0  0  0
 10 11  1  0  0  0
 10 12  1  0  0  0
 12 13  1  0  0  0
 12 14  2  0  0  0
 15 16  1  0  0  0
 16 17  1  0  0  0
 17 18  1  0  0  0
 17 19  2  0  0  0
  7 20  1  0  0  0
  8 21  1  0  0  0
  9 22  1  0  0  0
  9 23  1  0  0  0
 10 24  1  0  0  0
 11 25  1  0  0  0
 11 26  1  0  0  0
 11 27  1  0  0  0
 13 28  1  0  0  0
 15 29  1  0  0  0
 15 30  1  0  0  0
 16 31  1  0  0  0
 16 32  1  0  0  0
 18 33  1  0  0  0
M  END
$$$$
