6hck_ligand
  -I-interpret- 

 42 41  0  0  0  0  0  0  0  0999 V2000
  -17.8360  -11.8370   15.9250 N   0  3  0  0  0
  -18.7000  -12.1390   14.7460 C   0  0  0  0  0
  -17.9930  -13.1250   13.8170 C   0  0  0  0  0
  -17.1080  -12.7510   13.0440 O   0  0  0  0  0
  -19.0580  -10.8490   13.9970 C   0  0  0  0  0
  -20.4390  -10.8210   13.3350 C   0  0  0  0  0
  -20.8470   -9.3960   12.9730 C   0  0  0  0  0
  -20.4720  -11.7100   12.1060 C   0  0  0  0  0
  -18.4650  -14.3890   13.8280 N   0  0  0  0  0
  -17.7650  -15.4520   13.1150 C   0  0  0  0  0
  -18.4620  -15.8030   11.8050 C   0  0  0  0  0
  -17.8390  -15.8570   10.7420 O   0  0  0  0  0
  -17.6630  -16.6940   14.0000 C   0  0  0  0  0
  -16.6280  -16.5950   15.1190 C   0  0  0  0  0
  -17.1970  -17.1180   16.4310 C   0  0  0  0  0
  -15.3700  -17.3560   14.7220 C   0  0  0  0  0
  -19.6660  -16.0530   11.7850 O   0  0  0  0  0
  -17.6086  -12.7052   16.4097 H   0  0  0  0  0
  -16.9766  -11.3875   15.6090 H   0  0  0  0  0
  -18.3344  -11.2126   16.5592 H   0  0  0  0  0
  -19.6258  -12.5949   15.0969 H   0  0  0  0  0
  -18.3297  -10.7492   13.1922 H   0  0  0  0  0
  -19.0579  -10.0521   14.7407 H   0  0  0  0  0
  -21.1580  -11.2080   14.0571 H   0  0  0  0  0
  -20.1560   -8.9995   12.2291 H   0  0  0  0  0
  -21.8579   -9.4013   12.5654 H   0  0  0  0  0
  -20.8175   -8.7728   13.8668 H   0  0  0  0  0
  -21.4817  -11.7230   11.6955 H   0  0  0  0  0
  -19.7798  -11.3211   11.3592 H   0  0  0  0  0
  -20.1782  -12.7223   12.3834 H   0  0  0  0  0
  -19.3205  -14.6036   14.3404 H   0  0  0  0  0
  -16.7649  -15.0910   12.8752 H   0  0  0  0  0
  -16.9173  -15.6410   10.9013 H   0  0  0  0  0
  -17.3573  -17.5188   13.3563 H   0  0  0  0  0
  -18.6345  -16.8256   14.4763 H   0  0  0  0  0
  -16.3681  -15.5474   15.2709 H   0  0  0  0  0
  -18.0710  -16.5282   16.7073 H   0  0  0  0  0
  -17.4852  -18.1622   16.3100 H   0  0  0  0  0
  -16.4407  -17.0366   17.2117 H   0  0  0  0  0
  -15.6193  -18.4032   14.5506 H   0  0  0  0  0
  -14.9590  -16.9249   13.8091 H   0  0  0  0  0
  -14.6345  -17.2827   15.5231 H   0  0  0  0  0
  1  2  1  0  0  0
  2  3  1  0  0  0
  2  5  1  0  0  0
  3  4  2  0  0  0
  3  9  1  0  0  0
  5  6  1  0  0  0
  6  7  1  0  0  0
  6  8  1  0  0  0
  9 10  1  0  0  0
 10 11  1  0  0  0
 10 13  1  0  0  0
 11 12  1  0  0  0
 11 17  2  0  0  0
 13 14  1  0  0  0
 14 15  1  0  0  0
 14 16  1  0  0  0
  1 18  1  0  0  0
  1 19  1  0  0  0
  1 20  1  0  0  0
  2 21  1  0  0  0
  5 22  1  0  0  0
  5 23  1  0  0  0
  6 24  1  0  0  0
  7 25  1  0  0  0
  7 26  1  0  0  0
  7 27  1  0  0  0
  8 28  1  0  0  0
  8 29  1  0  0  0
  8 30  1  0  0  0
  9 31  1  0  0  0
 10 32  1  0  0  0
 12 33  1  0  0  0
 13 34  1  0  0  0
 13 35  1  0  0  0
 14 36  1  0  0  0
 15 37  1  0  0  0
 15 38  1  0  0  0
 15 39  1  0  0  0
 16 40  1  0  0  0
 16 41  1  0  0  0
 16 42  1  0  0  0
M  END
$$$$
