5jar_ligand
  -I-interpret- 

 36 38  0  0  0  0  0  0  0  0999 V2000
   15.0730   10.0020   -4.3160 C   0  0  0  0  0
   15.6920   10.3440   -5.6470 C   0  0  0  0  0
   15.5580   11.6330   -6.1590 C   0  0  0  0  0
   16.8150   11.0330   -8.0960 C   0  0  0  0  0
   16.9790    9.7530   -7.6040 C   0  0  0  0  0
   16.4150    9.3870   -6.3820 C   0  0  0  0  0
   16.5990    7.9980   -5.8610 C   0  0  0  0  0
   18.0610    6.4350   -4.7200 C   0  0  0  0  0
   17.0580    5.4710   -4.7820 C   0  0  0  0  0
   15.8390    5.7590   -5.3710 C   0  0  0  0  0
   15.5910    7.0160   -5.9200 C   0  0  0  0  0
   14.2490    7.2760   -6.5570 C   0  0  0  0  0
   19.3610    6.0880   -4.0660 C   0  0  0  0  0
   20.8370    7.2090   -5.7130 N   0  0  0  0  0
   22.1700    7.5470   -5.8590 C   0  0  0  0  0
   16.1110   11.9670   -7.3770 C   0  0  0  0  0
   17.8150    7.6940   -5.2500 C   0  0  0  0  0
   19.3520    5.3450   -3.0910 O   0  0  0  0  0
   20.6600    6.6030   -4.5630 C   0  0  0  0  0
   22.9600    7.1860   -4.8400 C   0  0  0  0  0
   22.0830    6.4020   -3.6230 S   0  0  0  0  0
   15.4988   10.6423   -3.5435 H   0  0  0  0  0
   13.9956   10.1590   -4.3667 H   0  0  0  0  0
   15.2786    8.9582   -4.0786 H   0  0  0  0  0
   15.0104   12.3849   -5.5908 H   0  0  0  0  0
   17.2466   11.3030   -9.0598 H   0  0  0  0  0
   17.5534    9.0234   -8.1749 H   0  0  0  0  0
   17.2345    4.4804   -4.3628 H   0  0  0  0  0
   15.0637    4.9937   -5.4059 H   0  0  0  0  0
   13.7551    8.0976   -6.0382 H   0  0  0  0  0
   14.3907    7.5393   -7.6052 H   0  0  0  0  0
   13.6347    6.3784   -6.4864 H   0  0  0  0  0
   22.5492    8.0683   -6.7379 H   0  0  0  0  0
   15.9888   12.9761   -7.7705 H   0  0  0  0  0
   18.5877    8.4603   -5.1874 H   0  0  0  0  0
   24.0330    7.3734   -4.7993 H   0  0  0  0  0
  2  1  1  0  0  0
  2  3  4  0  0  0
  6  2  4  0  0  0
  3 16  4  0  0  0
  5  4  4  0  0  0
  4 16  4  0  0  0
  6  5  4  0  0  0
  7  6  1  0  0  0
  7 11  4  0  0  0
 17  7  4  0  0  0
  8  9  4  0  0  0
 13  8  1  0  0  0
  8 17  4  0  0  0
  9 10  4  0  0  0
 10 11  4  0  0  0
 11 12  1  0  0  0
 13 18  2  0  0  0
 19 13  1  0  0  0
 14 15  4  0  0  0
 14 19  4  0  0  0
 15 20  4  0  0  0
 19 21  4  0  0  0
 20 21  4  0  0  0
  1 22  1  0  0  0
  1 23  1  0  0  0
  1 24  1  0  0  0
  3 25  1  0  0  0
  4 26  1  0  0  0
  5 27  1  0  0  0
  9 28  1  0  0  0
 10 29  1  0  0  0
 12 30  1  0  0  0
 12 31  1  0  0  0
 12 32  1  0  0  0
 15 33  1  0  0  0
 16 34  1  0  0  0
 17 35  1  0  0  0
 20 36  1  0  0  0
M  END
$$$$
