### 
### Created by X-TOOL on Mon Sep 10 21:13:20 2018
### 

@<TRIPOS>MOLECULE
5cvd_ligand
  113   113     1     0     0
SMALL
GAST_HUCK


@<TRIPOS>ATOM
      1 O         -17.0770   19.7300  -31.3660 O.2       1 DMG        -0.3908
      2 C         -17.6490   20.0810  -32.4340 C.2       1 DMG         0.2263
      3 CA        -18.8710   20.9920  -32.3740 C.3       1 DMG         0.0577
      4 N         -18.7060   21.8400  -31.2090 N.4       1 DMG         0.2477
      5 C4        -17.6870   22.8260  -31.4480 C.3       1 DMG        -0.0415
      6 C5        -19.9380   22.5110  -30.8960 C.3       1 DMG        -0.0415
      7 N         -17.2350   19.6880  -33.6430 N.am      1 PRO        -0.2474
      8 CA        -15.9600   18.9800  -33.7910 C.3       1 PRO         0.1339
      9 C         -14.8380   19.7740  -33.1400 C.2       1 PRO         0.2041
     10 O         -14.8560   21.0020  -33.2190 O.2       1 PRO        -0.3944
     11 CB        -15.7480   18.9450  -35.3040 C.3       1 PRO        -0.0104
     12 CG        -17.0720   19.1530  -35.9000 C.3       1 PRO        -0.0281
     13 CD        -17.8790   19.9590  -34.9360 C.3       1 PRO         0.0370
     14 N         -13.8830   19.0800  -32.5310 N.am      1 ARG        -0.2637
     15 CA        -12.7780   19.7230  -31.8350 C.3       1 ARG         0.1311
     16 C         -11.4840   18.9710  -32.0580 C.2       1 ARG         0.2039
     17 O         -11.4560   17.7460  -32.0020 O.2       1 ARG        -0.3944
     18 CB        -13.0440   19.7630  -30.3230 C.3       1 ARG        -0.0092
     19 CG        -14.1200   20.7300  -29.8800 C.3       1 ARG        -0.0156
     20 CD        -13.6960   22.1660  -30.0980 C.3       1 ARG         0.0627
     21 NE        -14.5860   23.0970  -29.4190 N.pl3     1 ARG        -0.2723
     22 CZ        -14.9520   24.2890  -29.8870 C.cat     1 ARG         0.2882
     23 NH1       -14.5410   24.7190  -31.0770 N.pl3     1 ARG        -0.2849
     24 NH2       -15.7650   25.0470  -29.1660 N.pl3     1 ARG        -0.2849
     25 N         -10.4080   19.7080  -32.3100 N.am      1 ARG        -0.2637
     26 CA         -9.0820   19.1110  -32.3770 C.3       1 ARG         0.1311
     27 C          -8.7840   18.3800  -31.0740 C.2       1 ARG         0.2039
     28 O          -9.0520   18.8960  -29.9850 O.2       1 ARG        -0.3944
     29 CB         -8.0150   20.1830  -32.6240 C.3       1 ARG        -0.0092
     30 CG         -6.6110   19.6090  -32.7870 C.3       1 ARG        -0.0156
     31 CD         -5.5420   20.6630  -33.0340 C.3       1 ARG         0.0627
     32 NE         -4.6770   20.2630  -34.1440 N.pl3     1 ARG        -0.2723
     33 CZ         -4.8550   20.6300  -35.4090 C.cat     1 ARG         0.2882
     34 NH1        -4.0180   20.1990  -36.3460 N.pl3     1 ARG        -0.2849
     35 NH2        -5.8610   21.4290  -35.7460 N.pl3     1 ARG        -0.2849
     36 N          -8.2290   17.1820  -31.1770 N.am      1 ARG        -0.2637
     37 CA         -7.8650   16.4450  -29.9780 C.3       1 ARG         0.1310
     38 C          -6.8280   17.2500  -29.2090 C.2       1 ARG         0.2034
     39 O          -5.9400   17.8480  -29.8100 O.2       1 ARG        -0.3944
     40 CB         -7.3240   15.0710  -30.3390 C.3       1 ARG        -0.0092
     41 CG         -8.3540   14.1890  -30.9950 C.3       1 ARG        -0.0156
     42 CD         -7.9040   12.7460  -31.0540 C.3       1 ARG         0.0627
     43 NE         -6.6730   12.6030  -31.8220 N.pl3     1 ARG        -0.2723
     44 CZ         -6.6130   12.5700  -33.1510 C.cat     1 ARG         0.2882
     45 NH1        -7.7180   12.6750  -33.8790 N.pl3     1 ARG        -0.2849
     46 NH2        -5.4420   12.4410  -33.7570 N.pl3     1 ARG        -0.2849
     47 N          -6.9530   17.2740  -27.8850 N.am      1 SER        -0.2672
     48 CA         -6.0930   18.1100  -27.0450 C.3       1 SER         0.1173
     49 C          -4.6350   17.6610  -27.1180 C.2       1 SER         0.0623
     50 O          -4.3420   16.5280  -27.5050 O.co2     1 SER        -0.5665
     51 CB         -6.5840   18.1030  -25.5900 C.3       1 SER         0.0789
     52 OG         -5.5800   17.6430  -24.6970 O.3       1 SER        -0.3910
     53 OXT        -3.7230   18.4230  -26.7910 O.co2     1 SER        -0.5665
     54 H1        -19.7870   20.3907  -32.2777 H         1 DMG         0.1063
     55 H2        -18.9299   21.6067  -33.2843 H         1 DMG         0.1063
     56 H3        -18.4341   21.2669  -30.4256 H         1 DMG         0.2047
     57 H4        -17.5742   23.4602  -30.5563 H         1 DMG         0.0778
     58 H5        -17.9744   23.4495  -32.3074 H         1 DMG         0.0778
     59 H6        -16.7329   22.3226  -31.6630 H         1 DMG         0.0778
     60 H7        -20.7251   21.7651  -30.7112 H         1 DMG         0.0778
     61 H8        -20.2313   23.1519  -31.7405 H         1 DMG         0.0778
     62 H9        -19.8005   23.1294  -29.9968 H         1 DMG         0.0778
     63 H10       -16.0088   17.9675  -33.3640 H         1 PRO         0.0802
     64 H11       -15.3391   17.9710  -35.6107 H         1 PRO         0.0313
     65 H12       -15.0595   19.7454  -35.6126 H         1 PRO         0.0313
     66 H13       -17.5596   18.1833  -36.0786 H         1 PRO         0.0287
     67 H14       -16.9739   19.6950  -36.8522 H         1 PRO         0.0287
     68 H15       -17.8320   21.0300  -35.1824 H         1 PRO         0.0524
     69 H16       -18.9286   19.6299  -34.9297 H         1 PRO         0.0524
     70 H17       -13.9246   18.0811  -32.5514 H         1 ARG         0.1883
     71 H18       -12.6712   20.7500  -32.2141 H         1 ARG         0.0800
     72 H19       -12.1068   20.0444  -29.8206 H         1 ARG         0.0313
     73 H20       -13.3424   18.7535  -30.0038 H         1 ARG         0.0313
     74 H21       -14.3218   20.5751  -28.8098 H         1 ARG         0.0301
     75 H22       -15.0357   20.5357  -30.4577 H         1 ARG         0.0301
     76 H23       -13.7089   22.3822  -31.1765 H         1 ARG         0.0689
     77 H24       -12.6757   22.2998  -29.7093 H         1 ARG         0.0689
     78 H25       -14.9625   22.8110  -28.5039 H         1 ARG         0.2642
     79 H26       -14.8358   25.6443  -31.4202 H         1 ARG         0.2615
     80 H27       -13.9280   24.1266  -31.6551 H         1 ARG         0.2615
     81 H28       -16.0886   24.7226  -28.2435 H         1 ARG         0.2615
     82 H29       -16.0735   25.9606  -29.5280 H         1 ARG         0.2615
     83 H30       -10.5108   20.6919  -32.4565 H         1 ARG         0.1883
     84 H31        -9.0588   18.3895  -33.2070 H         1 ARG         0.0800
     85 H32        -8.0120   20.8762  -31.7700 H         1 ARG         0.0313
     86 H33        -8.2767   20.7317  -33.5408 H         1 ARG         0.0313
     87 H34        -6.6170   18.9146  -33.6400 H         1 ARG         0.0301
     88 H35        -6.3518   19.0605  -31.8694 H         1 ARG         0.0301
     89 H36        -4.9336   20.7819  -32.1253 H         1 ARG         0.0689
     90 H37        -6.0263   21.6198  -33.2788 H         1 ARG         0.0689
     91 H38        -3.8739   19.6545  -33.9302 H         1 ARG         0.2642
     92 H39        -4.1535   20.4818  -37.3271 H         1 ARG         0.2615
     93 H40        -3.2335   19.5820  -36.0915 H         1 ARG         0.2615
     94 H41        -6.5140   21.7671  -35.0248 H         1 ARG         0.2615
     95 H42        -5.9882   21.7105  -36.7286 H         1 ARG         0.2615
     96 H43        -8.0604   16.7846  -32.0790 H         1 ARG         0.1883
     97 H44        -8.7584   16.3171  -29.3492 H         1 ARG         0.0800
     98 H45        -6.9748   14.5786  -29.4194 H         1 ARG         0.0313
     99 H46        -6.4784   15.1975  -31.0310 H         1 ARG         0.0313
    100 H47        -8.5302   14.5489  -32.0194 H         1 ARG         0.0301
    101 H48        -9.2900   14.2466  -30.4200 H         1 ARG         0.0301
    102 H49        -8.6933   12.1442  -31.5280 H         1 ARG         0.0689
    103 H50        -7.7311   12.3830  -30.0301 H         1 ARG         0.0689
    104 H51        -5.7888   12.5219  -31.2999 H         1 ARG         0.2642
    105 H52        -7.6618   12.6484  -34.9071 H         1 ARG         0.2615
    106 H53        -8.6316   12.7831  -33.4158 H         1 ARG         0.2615
    107 H54        -4.5799   12.3589  -33.1994 H         1 ARG         0.2615
    108 H55        -5.3937   12.4228  -34.7857 H         1 ARG         0.2615
    109 H56        -7.6528   16.7061  -27.4518 H         1 SER         0.1876
    110 H57        -6.1505   19.1420  -27.4214 H         1 SER         0.0749
    111 H58        -7.4594   17.4415  -25.5128 H         1 SER         0.0599
    112 H59        -6.8713   19.1262  -25.3062 H         1 SER         0.0599
    113 H60        -5.9187   17.6524  -23.8095 H         1 SER         0.2096
@<TRIPOS>BOND
     1    1    2 2  
     2    2    3 1  
     3    2    7 am 
     4    3    4 1  
     5    4    5 1  
     6    4    6 1  
     7    7    8 1  
     8    7   13 1  
     9    8    9 1  
    10    8   11 1  
    11    9   10 2  
    12    9   14 am 
    13   11   12 1  
    14   12   13 1  
    15   14   15 1  
    16   15   16 1  
    17   15   18 1  
    18   16   17 2  
    19   16   25 am 
    20   18   19 1  
    21   19   20 1  
    22   20   21 1  
    23   21   22 ar 
    24   22   23 ar 
    25   22   24 ar 
    26   25   26 1  
    27   26   27 1  
    28   26   29 1  
    29   27   28 2  
    30   27   36 am 
    31   29   30 1  
    32   30   31 1  
    33   31   32 1  
    34   32   33 ar 
    35   33   34 ar 
    36   33   35 ar 
    37   36   37 1  
    38   37   38 1  
    39   37   40 1  
    40   38   39 2  
    41   38   47 am 
    42   40   41 1  
    43   41   42 1  
    44   42   43 1  
    45   43   44 ar 
    46   44   45 ar 
    47   44   46 ar 
    48   47   48 1  
    49   48   49 1  
    50   48   51 1  
    51   49   50 ar 
    52   49   53 ar 
    53   51   52 1  
    54    3   54 1  
    55    3   55 1  
    56    4   56 1  
    57    5   57 1  
    58    5   58 1  
    59    5   59 1  
    60    6   60 1  
    61    6   61 1  
    62    6   62 1  
    63    8   63 1  
    64   11   64 1  
    65   11   65 1  
    66   12   66 1  
    67   12   67 1  
    68   13   68 1  
    69   13   69 1  
    70   14   70 1  
    71   15   71 1  
    72   18   72 1  
    73   18   73 1  
    74   19   74 1  
    75   19   75 1  
    76   20   76 1  
    77   20   77 1  
    78   21   78 1  
    79   23   79 1  
    80   23   80 1  
    81   24   81 1  
    82   24   82 1  
    83   25   83 1  
    84   26   84 1  
    85   29   85 1  
    86   29   86 1  
    87   30   87 1  
    88   30   88 1  
    89   31   89 1  
    90   31   90 1  
    91   32   91 1  
    92   34   92 1  
    93   34   93 1  
    94   35   94 1  
    95   35   95 1  
    96   36   96 1  
    97   37   97 1  
    98   40   98 1  
    99   40   99 1  
   100   41  100 1  
   101   41  101 1  
   102   42  102 1  
   103   42  103 1  
   104   43  104 1  
   105   45  105 1  
   106   45  106 1  
   107   46  107 1  
   108   46  108 1  
   109   47  109 1  
   110   48  110 1  
   111   51  111 1  
   112   51  112 1  
   113   52  113 1  
@<TRIPOS>SUBSTRUCTURE
     1 DMG         1

