5cvd_ligand
  -I-interpret- 

111111  0  0  0  0  0  0  0  0999 V2000
  -17.0770   19.7300  -31.3660 O   0  0  0  0  0
  -17.6490   20.0810  -32.4340 C   0  0  0  0  0
  -18.8710   20.9920  -32.3740 C   0  0  0  0  0
  -18.7060   21.8400  -31.2090 N   0  3  0  0  0
  -17.6870   22.8260  -31.4480 C   0  0  0  0  0
  -19.9380   22.5110  -30.8960 C   0  0  0  0  0
  -17.2350   19.6880  -33.6430 N   0  0  0  0  0
  -15.9600   18.9800  -33.7910 C   0  0  0  0  0
  -14.8380   19.7740  -33.1400 C   0  0  0  0  0
  -14.8560   21.0020  -33.2190 O   0  0  0  0  0
  -15.7480   18.9450  -35.3040 C   0  0  0  0  0
  -17.0720   19.1530  -35.9000 C   0  0  0  0  0
  -17.8790   19.9590  -34.9360 C   0  0  0  0  0
  -13.8830   19.0800  -32.5310 N   0  0  0  0  0
  -12.7780   19.7230  -31.8350 C   0  0  0  0  0
  -11.4840   18.9710  -32.0580 C   0  0  0  0  0
  -11.4560   17.7460  -32.0020 O   0  0  0  0  0
  -13.0440   19.7630  -30.3230 C   0  0  0  0  0
  -14.1200   20.7300  -29.8800 C   0  0  0  0  0
  -13.6960   22.1660  -30.0980 C   0  0  0  0  0
  -14.5860   23.0970  -29.4190 N   0  0  0  0  0
  -14.9520   24.2890  -29.8870 C   0  0  0  0  0
  -14.5410   24.7190  -31.0770 N   0  0  0  0  0
  -15.7650   25.0470  -29.1660 N   0  0  0  0  0
  -10.4080   19.7080  -32.3100 N   0  0  0  0  0
   -9.0820   19.1110  -32.3770 C   0  0  0  0  0
   -8.7840   18.3800  -31.0740 C   0  0  0  0  0
   -9.0520   18.8960  -29.9850 O   0  0  0  0  0
   -8.0150   20.1830  -32.6240 C   0  0  0  0  0
   -6.6110   19.6090  -32.7870 C   0  0  0  0  0
   -5.5420   20.6630  -33.0340 C   0  0  0  0  0
   -4.6770   20.2630  -34.1440 N   0  0  0  0  0
   -4.8550   20.6300  -35.4090 C   0  0  0  0  0
   -4.0180   20.1990  -36.3460 N   0  0  0  0  0
   -5.8610   21.4290  -35.7460 N   0  0  0  0  0
   -8.2290   17.1820  -31.1770 N   0  0  0  0  0
   -7.8650   16.4450  -29.9780 C   0  0  0  0  0
   -6.8280   17.2500  -29.2090 C   0  0  0  0  0
   -5.9400   17.8480  -29.8100 O   0  0  0  0  0
   -7.3240   15.0710  -30.3390 C   0  0  0  0  0
   -8.3540   14.1890  -30.9950 C   0  0  0  0  0
   -7.9040   12.7460  -31.0540 C   0  0  0  0  0
   -6.6730   12.6030  -31.8220 N   0  0  0  0  0
   -6.6130   12.5700  -33.1510 C   0  0  0  0  0
   -7.7180   12.6750  -33.8790 N   0  0  0  0  0
   -5.4420   12.4410  -33.7570 N   0  0  0  0  0
   -6.9530   17.2740  -27.8850 N   0  0  0  0  0
   -6.0930   18.1100  -27.0450 C   0  0  0  0  0
   -4.6350   17.6610  -27.1180 C   0  0  0  0  0
   -4.3420   16.5280  -27.5050 O   0  0  0  0  0
   -6.5840   18.1030  -25.5900 C   0  0  0  0  0
   -5.5800   17.6430  -24.6970 O   0  0  0  0  0
   -3.7230   18.4230  -26.7910 O   0  0  0  0  0
  -19.7873   20.4063  -32.2999 H   0  0  0  0  0
  -18.9519   21.5914  -33.2808 H   0  0  0  0  0
  -18.4325   21.2477  -30.4249 H   0  0  0  0  0
  -17.9850   23.4595  -32.2834 H   0  0  0  0  0
  -17.5580   23.4372  -30.5548 H   0  0  0  0  0
  -16.7482   22.3260  -31.6864 H   0  0  0  0  0
  -19.8005   23.1234  -30.0049 H   0  0  0  0  0
  -20.2275   23.1457  -31.7335 H   0  0  0  0  0
  -20.7170   21.7709  -30.7131 H   0  0  0  0  0
  -15.9667   17.9933  -33.3278 H   0  0  0  0  0
  -15.3158   17.9959  -35.6212 H   0  0  0  0  0
  -15.0450   19.7145  -35.6230 H   0  0  0  0  0
  -17.5562   18.1960  -36.0945 H   0  0  0  0  0
  -16.9827   19.6763  -36.8520 H   0  0  0  0  0
  -17.8902   21.0204  -35.1840 H   0  0  0  0  0
  -18.9345   19.6869  -34.9433 H   0  0  0  0  0
  -13.9255   18.0611  -32.5518 H   0  0  0  0  0
  -12.6925   20.7342  -32.2328 H   0  0  0  0  0
  -12.1173   20.0908  -29.8521 H   0  0  0  0  0
  -13.3844   18.7669  -30.0399 H   0  0  0  0  0
  -14.3024   20.5808  -28.8158 H   0  0  0  0  0
  -15.0182   20.5413  -30.4680 H   0  0  0  0  0
  -13.7287   22.3761  -31.1671 H   0  0  0  0  0
  -12.6916   22.2934  -29.6943 H   0  0  0  0  0
  -14.9589   22.8138  -28.5128 H   0  0  0  0  0
  -14.8518   25.6252  -31.4271 H   0  0  0  0  0
  -13.9150   24.1425  -31.6393 H   0  0  0  0  0
  -16.1038   24.7158  -28.2627 H   0  0  0  0  0
  -10.5129   20.7115  -32.4594 H   0  0  0  0  0
   -9.0606   18.4048  -33.2070 H   0  0  0  0  0
   -8.0030   20.8425  -31.7563 H   0  0  0  0  0
   -8.2713   20.6960  -33.5509 H   0  0  0  0  0
   -6.6272   18.9522  -33.6567 H   0  0  0  0  0
   -6.3575   19.1006  -31.8568 H   0  0  0  0  0
   -4.9367   20.7719  -32.1341 H   0  0  0  0  0
   -6.0259   21.6072  -33.2839 H   0  0  0  0  0
   -3.8817   19.6604  -33.9323 H   0  0  0  0  0
   -4.1501   20.4819  -37.3171 H   0  0  0  0  0
   -3.2432   19.5852  -36.0945 H   0  0  0  0  0
   -6.5055   21.7667  -35.0312 H   0  0  0  0  0
   -8.0570   16.7767  -32.0971 H   0  0  0  0  0
   -8.7466   16.2969  -29.3543 H   0  0  0  0  0
   -7.0085   14.5845  -29.4160 H   0  0  0  0  0
   -6.5063   15.2105  -31.0461 H   0  0  0  0  0
   -8.5069   14.5417  -32.0149 H   0  0  0  0  0
   -9.2706   14.2378  -30.4072 H   0  0  0  0  0
   -8.6845   12.1598  -31.5391 H   0  0  0  0  0
   -7.7196   12.3993  -30.0372 H   0  0  0  0  0
   -5.7974   12.5227  -31.3050 H   0  0  0  0  0
   -7.6616   12.6561  -34.8973 H   0  0  0  0  0
   -8.6235   12.7746  -33.4201 H   0  0  0  0  0
   -4.5875   12.3671  -33.2050 H   0  0  0  0  0
   -7.6668   16.6947  -27.4431 H   0  0  0  0  0
   -6.1487   19.1293  -27.4272 H   0  0  0  0  0
   -7.4390   17.4306  -25.5201 H   0  0  0  0  0
   -6.8480   19.1235  -25.3125 H   0  0  0  0  0
   -5.9223   17.6525  -23.8001 H   0  0  0  0  0
   -4.0941   19.2636  -26.5131 H   0  0  0  0  0
  1  2  2  0  0  0
  2  3  1  0  0  0
  2  7  1  0  0  0
  3  4  1  0  0  0
  4  5  1  0  0  0
  4  6  1  0  0  0
  7  8  1  0  0  0
  7 13  1  0  0  0
  8  9  1  0  0  0
  8 11  1  0  0  0
  9 10  2  0  0  0
  9 14  1  0  0  0
 11 12  1  0  0  0
 12 13  1  0  0  0
 14 15  1  0  0  0
 15 16  1  0  0  0
 15 18  1  0  0  0
 16 17  2  0  0  0
 16 25  1  0  0  0
 18 19  1  0  0  0
 19 20  1  0  0  0
 20 21  1  0  0  0
 21 22  1  0  0  0
 22 23  1  0  0  0
 22 24  2  0  0  0
 25 26  1  0  0  0
 26 27  1  0  0  0
 26 29  1  0  0  0
 27 28  2  0  0  0
 27 36  1  0  0  0
 29 30  1  0  0  0
 30 31  1  0  0  0
 31 32  1  0  0  0
 32 33  1  0  0  0
 33 34  1  0  0  0
 33 35  2  0  0  0
 36 37  1  0  0  0
 37 38  1  0  0  0
 37 40  1  0  0  0
 38 39  2  0  0  0
 38 47  1  0  0  0
 40 41  1  0  0  0
 41 42  1  0  0  0
 42 43  1  0  0  0
 43 44  1  0  0  0
 44 45  1  0  0  0
 44 46  2  0  0  0
 47 48  1  0  0  0
 48 49  1  0  0  0
 48 51  1  0  0  0
 49 50  2  0  0  0
 49 53  1  0  0  0
 51 52  1  0  0  0
  3 54  1  0  0  0
  3 55  1  0  0  0
  4 56  1  0  0  0
  5 57  1  0  0  0
  5 58  1  0  0  0
  5 59  1  0  0  0
  6 60  1  0  0  0
  6 61  1  0  0  0
  6 62  1  0  0  0
  8 63  1  0  0  0
 11 64  1  0  0  0
 11 65  1  0  0  0
 12 66  1  0  0  0
 12 67  1  0  0  0
 13 68  1  0  0  0
 13 69  1  0  0  0
 14 70  1  0  0  0
 15 71  1  0  0  0
 18 72  1  0  0  0
 18 73  1  0  0  0
 19 74  1  0  0  0
 19 75  1  0  0  0
 20 76  1  0  0  0
 20 77  1  0  0  0
 21 78  1  0  0  0
 23 79  1  0  0  0
 23 80  1  0  0  0
 24 81  1  0  0  0
 25 82  1  0  0  0
 26 83  1  0  0  0
 29 84  1  0  0  0
 29 85  1  0  0  0
 30 86  1  0  0  0
 30 87  1  0  0  0
 31 88  1  0  0  0
 31 89  1  0  0  0
 32 90  1  0  0  0
 34 91  1  0  0  0
 34 92  1  0  0  0
 35 93  1  0  0  0
 36 94  1  0  0  0
 37 95  1  0  0  0
 40 96  1  0  0  0
 40 97  1  0  0  0
 41 98  1  0  0  0
 41 99  1  0  0  0
 42100  1  0  0  0
 42101  1  0  0  0
 43102  1  0  0  0
 45103  1  0  0  0
 45104  1  0  0  0
 46105  1  0  0  0
 47106  1  0  0  0
 48107  1  0  0  0
 51108  1  0  0  0
 51109  1  0  0  0
 52110  1  0  0  0
 53111  1  0  0  0
M  END
$$$$
