4hiq_ligand
  -I-interpret- 

 37 38  0  0  0  0  0  0  0  0999 V2000
   -0.5890    0.0640   -0.4960 O   0  0  0  0  0
    0.5680   -0.3980   -0.3480 C   0  0  0  0  0
    1.0590   -0.4220    0.8060 O   0  0  0  0  0
    1.2980   -0.8480   -1.4620 C   0  0  0  0  0
    0.7420   -0.6870   -2.7280 C   0  0  0  0  0
    2.5640   -1.4490   -1.3600 C   0  0  0  0  0
    3.2410   -1.9000   -2.4930 C   0  0  0  0  0
    2.6430   -1.7580   -3.7450 C   0  0  0  0  0
    3.3390   -2.1880   -4.8290 F   0  0  0  0  0
    1.3930   -1.1400   -3.8690 C   0  0  0  0  0
    0.8870   -1.0260   -5.1350 O   0  0  0  0  0
    0.2230    0.2290   -5.2970 C   0  0  0  0  0
    0.2220    0.7450   -6.7170 C   0  0  0  0  0
   -0.5960   -0.1460   -7.6320 C   0  0  0  0  0
   -0.3070   -0.0440   -9.2050 C   0  0  0  0  0
    0.0010   -1.1180   -9.9840 C   0  0  0  0  0
    0.1130   -2.6000   -9.5620 C   0  0  0  0  0
    0.1870   -0.7170  -11.2410 N   0  0  0  0  0
    0.0090    0.6190  -11.2790 N   0  0  0  0  0
   -0.2960    1.0370  -10.0450 C   0  0  0  0  0
   -0.5750    2.5170   -9.7330 C   0  0  0  0  0
   -0.8336    0.0204   -1.4233 H   0  0  0  0  0
   -0.2255   -0.1947   -2.8265 H   0  0  0  0  0
    3.0248   -1.5647   -0.3790 H   0  0  0  0  0
    4.2258   -2.3580   -2.4010 H   0  0  0  0  0
    0.7574    0.9584   -4.6883 H   0  0  0  0  0
   -0.8171    0.0845   -5.0048 H   0  0  0  0  0
    1.2499    0.7607   -7.0792 H   0  0  0  0  0
   -0.2188    1.7419   -6.7216 H   0  0  0  0  0
   -1.6318    0.1670   -7.5008 H   0  0  0  0  0
   -0.3446   -1.1687   -7.3509 H   0  0  0  0  0
    0.8848   -2.7019   -8.7991 H   0  0  0  0  0
   -0.8432   -2.9353   -9.1604 H   0  0  0  0  0
    0.3762   -3.2047  -10.4299 H   0  0  0  0  0
   -1.5865    2.6197   -9.3401 H   0  0  0  0  0
    0.1416    2.8722   -8.9925 H   0  0  0  0  0
   -0.4771    3.1042  -10.6461 H   0  0  0  0  0
  1  2  1  0  0  0
  2  3  2  0  0  0
  2  4  1  0  0  0
  4  5  4  0  0  0
  4  6  4  0  0  0
  5 10  4  0  0  0
  6  7  4  0  0  0
  7  8  4  0  0  0
  8  9  1  0  0  0
  8 10  4  0  0  0
 10 11  1  0  0  0
 11 12  1  0  0  0
 12 13  1  0  0  0
 13 14  1  0  0  0
 14 15  1  0  0  0
 15 16  4  0  0  0
 15 20  4  0  0  0
 16 17  1  0  0  0
 16 18  4  0  0  0
 18 19  4  0  0  0
 19 20  4  0  0  0
 20 21  1  0  0  0
  1 22  1  0  0  0
  5 23  1  0  0  0
  6 24  1  0  0  0
  7 25  1  0  0  0
 12 26  1  0  0  0
 12 27  1  0  0  0
 13 28  1  0  0  0
 13 29  1  0  0  0
 14 30  1  0  0  0
 14 31  1  0  0  0
 17 32  1  0  0  0
 17 33  1  0  0  0
 17 34  1  0  0  0
 21 35  1  0  0  0
 21 36  1  0  0  0
 21 37  1  0  0  0
M  END
$$$$
