2xm1_ligand
  -I-interpret- 

 29 29  0  0  0  0  0  0  0  0999 V2000
    5.9420  -10.4730    5.4930 O   0  0  0  0  0
    7.1150  -10.4680    5.8320 C   0  0  0  0  0
    7.5160   -9.8270    7.1270 C   0  0  0  0  0
    8.1280  -11.0390    5.0690 N   0  0  0  0  0
    7.7660  -11.6390    3.7530 C   0  0  0  0  0
    7.4820  -10.5630    2.7110 C   0  0  0  0  0
    8.7770  -10.1620    2.2350 O   0  0  0  0  0
    6.6220  -11.1530    1.5870 C   0  0  0  0  0
    6.4500  -10.1830    0.5500 O   0  0  0  0  0
    5.2830  -11.5340    2.2130 C   0  0  0  0  0
    4.2260  -11.9730    1.2050 C   0  0  0  0  0
    4.8060  -13.0800    0.4770 O   0  0  0  0  0
    5.5380  -12.7060    3.0850 N   0  0  0  0  0
    6.6570  -12.6630    3.8820 C   0  0  0  0  0
    6.7530  -13.5270    4.7490 O   0  0  0  0  0
    7.2405   -8.7725    7.1096 H   0  0  0  0  0
    7.0040  -10.3241    7.9509 H   0  0  0  0  0
    8.5940   -9.9200    7.2585 H   0  0  0  0  0
    9.0925  -11.0471    5.4008 H   0  0  0  0  0
    8.6313  -12.1928    3.3888 H   0  0  0  0  0
    6.9298   -9.7123    3.1103 H   0  0  0  0  0
    9.2860   -9.7986    2.9633 H   0  0  0  0  0
    7.0916  -12.0278    1.1372 H   0  0  0  0  0
    7.3056   -9.9622    0.1748 H   0  0  0  0  0
    4.9036  -10.6512    2.7276 H   0  0  0  0  0
    3.9565  -11.1570    0.5344 H   0  0  0  0  0
    3.3030  -12.2685    1.7038 H   0  0  0  0  0
    4.1773  -13.3969   -0.1756 H   0  0  0  0  0
    4.9099  -13.5096    3.0930 H   0  0  0  0  0
  1  2  2  0  0  0
  2  3  1  0  0  0
  2  4  1  0  0  0
  4  5  1  0  0  0
  5  6  1  0  0  0
  5 14  1  0  0  0
  6  7  1  0  0  0
  6  8  1  0  0  0
  8  9  1  0  0  0
  8 10  1  0  0  0
 10 11  1  0  0  0
 10 13  1  0  0  0
 11 12  1  0  0  0
 13 14  1  0  0  0
 14 15  2  0  0  0
  3 16  1  0  0  0
  3 17  1  0  0  0
  3 18  1  0  0  0
  4 19  1  0  0  0
  5 20  1  0  0  0
  6 21  1  0  0  0
  7 22  1  0  0  0
  8 23  1  0  0  0
  9 24  1  0  0  0
 10 25  1  0  0  0
 11 26  1  0  0  0
 11 27  1  0  0  0
 12 28  1  0  0  0
 13 29  1  0  0  0
M  END
$$$$
