4rro_ligand
  -I-interpret- 

 50 54  0  0  0  0  0  0  0  0999 V2000
   26.9660   15.4910    9.6340 C   0  0  0  0  0
   27.6890   14.2810    9.4550 C   0  0  0  0  0
   27.0290   13.1140    8.9880 C   0  0  0  0  0
   25.6410   13.1240    8.6950 C   0  0  0  0  0
   24.9200   14.3370    8.8690 C   0  0  0  0  0
   25.5810   15.5080    9.3220 C   0  0  0  0  0
   27.5930   16.6950   10.0520 C   0  0  0  0  0
   25.0180   11.9600    8.2500 O   0  0  0  0  0
   23.5980   11.8290    8.3330 C   0  0  0  0  0
   23.0120   13.1420    7.7570 C   0  0  0  0  0
   23.4330   14.4010    8.5240 C   0  0  0  0  0
   23.1550   10.6320    7.4490 C   0  0  0  0  0
   21.6430   10.6940    7.1010 C   0  0  0  0  0
   21.1690   12.1000    6.6390 C   0  0  0  0  0
   21.6020   13.1060    7.5750 O   0  0  0  0  0
   22.5820   14.7050    9.6740 N   0  0  0  0  0
   21.9890   15.8360    9.4760 C   0  0  0  0  0
   22.2750   16.4260    8.2870 N   0  0  0  0  0
   23.1550   15.6220    7.6460 C   0  0  0  0  0
   23.6700   15.7870    6.5380 O   0  0  0  0  0
   21.1140   16.4680   10.3360 N   0  0  0  0  0
   23.1750   11.5710    9.8070 C   0  0  0  0  0
   21.7760   17.6970    7.7620 C   0  0  0  0  0
   28.7080   17.1820    9.3140 C   0  0  0  0  0
   29.3010   18.4030    9.7250 C   0  0  0  0  0
   28.7600   19.1020   10.8350 C   0  0  0  0  0
   27.6900   18.6440   11.5210 N   0  0  0  0  0
   27.1210   17.4780   11.1390 C   0  0  0  0  0
   26.0610   17.0630   11.8640 F   0  0  0  0  0
   28.7556   14.2486    9.6773 H   0  0  0  0  0
   27.5985   12.1946    8.8523 H   0  0  0  0  0
   25.0171   16.4343    9.4321 H   0  0  0  0  0
   23.4624   13.2110    6.7668 H   0  0  0  0  0
   23.3396    9.7120    8.0036 H   0  0  0  0  0
   23.7208   10.6681    6.5180 H   0  0  0  0  0
   21.0886   10.4427    8.0052 H   0  0  0  0  0
   21.4685   10.0027    6.2766 H   0  0  0  0  0
   20.0804   12.1088    6.5854 H   0  0  0  0  0
   21.5976   12.3163    5.6604 H   0  0  0  0  0
   22.4738   14.1177   10.5009 H   0  0  0  0  0
   20.6961   17.3606   10.0733 H   0  0  0  0  0
   23.6426   10.6528   10.1624 H   0  0  0  0  0
   23.4962   12.4076   10.4276 H   0  0  0  0  0
   22.0908   11.4725    9.8606 H   0  0  0  0  0
   20.6896   17.6550    7.6842 H   0  0  0  0  0
   22.0623   18.5045    8.4359 H   0  0  0  0  0
   22.2056   17.8752    6.7762 H   0  0  0  0  0
   29.0956   16.6318    8.4566 H   0  0  0  0  0
   30.1649   18.8010    9.1928 H   0  0  0  0  0
   29.2228   20.0391   11.1443 H   0  0  0  0  0
  1  2  4  0  0  0
  1  6  4  0  0  0
  1  7  1  0  0  0
  2  3  4  0  0  0
  3  4  4  0  0  0
  4  5  4  0  0  0
  4  8  1  0  0  0
  5  6  4  0  0  0
  5 11  1  0  0  0
  7 24  4  0  0  0
  7 28  4  0  0  0
  8  9  1  0  0  0
  9 10  1  0  0  0
  9 12  1  0  0  0
  9 22  1  0  0  0
 10 11  1  0  0  0
 10 15  1  0  0  0
 11 16  1  0  0  0
 11 19  1  0  0  0
 12 13  1  0  0  0
 13 14  1  0  0  0
 14 15  1  0  0  0
 16 17  1  0  0  0
 17 18  4  0  0  0
 17 21  2  0  0  0
 18 19  1  0  0  0
 18 23  1  0  0  0
 19 20  2  0  0  0
 24 25  4  0  0  0
 25 26  4  0  0  0
 26 27  4  0  0  0
 27 28  4  0  0  0
 28 29  1  0  0  0
  2 30  1  0  0  0
  3 31  1  0  0  0
  6 32  1  0  0  0
 10 33  1  0  0  0
 12 34  1  0  0  0
 12 35  1  0  0  0
 13 36  1  0  0  0
 13 37  1  0  0  0
 14 38  1  0  0  0
 14 39  1  0  0  0
 16 40  1  0  0  0
 21 41  1  0  0  0
 22 42  1  0  0  0
 22 43  1  0  0  0
 22 44  1  0  0  0
 23 45  1  0  0  0
 23 46  1  0  0  0
 23 47  1  0  0  0
 24 48  1  0  0  0
 25 49  1  0  0  0
 26 50  1  0  0  0
M  END
$$$$
