### 
### Created by X-TOOL on Mon Sep 10 21:13:16 2018
### 

@<TRIPOS>MOLECULE
4bgk_ligand
   26    25     1     0     0
SMALL
GAST_HUCK


@<TRIPOS>ATOM
      1 O7         20.6950   26.5190   88.1610 O.co2     1 RTK        -0.6209
      2 P5         21.5610   27.6810   87.7730 P.3       1 RTK        -0.0303
      3 O4         22.9950   27.2710   87.4950 O.co2     1 RTK        -0.6209
      4 C6         21.4330   28.9260   89.0800 C.3       1 RTK         0.0158
      5 C3         22.3920   30.0910   88.8530 C.3       1 RTK         0.0032
      6 C2         21.9370   30.9200   87.6610 C.3       1 RTK        -0.0294
      7 N1         22.7000   32.1780   87.4370 N.4       1 RTK         0.2369
      8 C28        24.1220   31.9360   87.0900 C.3       1 RTK        -0.0418
      9 C9         22.6270   33.0900   88.6030 C.3       1 RTK        -0.0418
     10 C8         22.0420   32.8190   86.2770 C.3       1 RTK        -0.0418
     11 H          21.1932   28.0782   86.9227 H         1 RTK         0.1484
     12 H          21.6693   28.4539   90.0450 H         1 RTK         0.0465
     13 H          20.4034   29.3125   89.1032 H         1 RTK         0.0465
     14 H          23.4012   29.6987   88.6590 H         1 RTK         0.0332
     15 H          22.4118   30.7259   89.7510 H         1 RTK         0.0332
     16 H          20.8805   31.1853   87.8141 H         1 RTK         0.0815
     17 H          22.0320   30.2989   86.7581 H         1 RTK         0.0815
     18 H          24.6311   32.8990   86.9372 H         1 RTK         0.0778
     19 H          24.1780   31.3411   86.1665 H         1 RTK         0.0778
     20 H          24.6113   31.3886   87.9091 H         1 RTK         0.0778
     21 H          21.5732   33.2706   88.8618 H         1 RTK         0.0778
     22 H          23.1119   34.0450   88.3525 H         1 RTK         0.0778
     23 H          23.1416   32.6312   89.4602 H         1 RTK         0.0778
     24 H          22.0933   32.1461   85.4084 H         1 RTK         0.0778
     25 H          22.5545   33.7631   86.0402 H         1 RTK         0.0778
     26 H          20.9890   33.0243   86.5200 H         1 RTK         0.0778
@<TRIPOS>BOND
     1    1    2 ar 
     2    2    3 ar 
     3    2    4 1  
     4    4    5 1  
     5    5    6 1  
     6    6    7 1  
     7    7    8 1  
     8    7    9 1  
     9    7   10 1  
    10    2   11 1  
    11    4   12 1  
    12    4   13 1  
    13    5   14 1  
    14    5   15 1  
    15    6   16 1  
    16    6   17 1  
    17    8   18 1  
    18    8   19 1  
    19    8   20 1  
    20    9   21 1  
    21    9   22 1  
    22    9   23 1  
    23   10   24 1  
    24   10   25 1  
    25   10   26 1  
@<TRIPOS>SUBSTRUCTURE
     1 RTK         1

