4bgk_ligand
  -I-interpret- 

 26 25  0  0  0  0  0  0  0  0999 V2000
   20.6950   26.5190   88.1610 O   0  0  0  0  0
   21.5610   27.6810   87.7730 P   0  0  0  0  0
   22.9950   27.2710   87.4950 O   0  0  0  0  0
   21.4330   28.9260   89.0800 C   0  0  0  0  0
   22.3920   30.0910   88.8530 C   0  0  0  0  0
   21.9370   30.9200   87.6610 C   0  0  0  0  0
   22.7000   32.1780   87.4370 N   0  3  0  0  0
   24.1220   31.9360   87.0900 C   0  0  0  0  0
   22.6270   33.0900   88.6030 C   0  0  0  0  0
   22.0420   32.8190   86.2770 C   0  0  0  0  0
   23.5068   28.0460   87.2519 H   0  0  0  0  0
   21.6885   28.4531   90.0283 H   0  0  0  0  0
   20.4154   29.3166   89.0811 H   0  0  0  0  0
   23.3897   29.6991   88.6555 H   0  0  0  0  0
   22.4052   30.7212   89.7422 H   0  0  0  0  0
   20.9048   31.2103   87.8570 H   0  0  0  0  0
   22.0844   30.3022   86.7752 H   0  0  0  0  0
   24.6006   32.8835   86.8427 H   0  0  0  0  0
   24.6301   31.4820   87.9408 H   0  0  0  0  0
   24.1763   31.2653   86.2325 H   0  0  0  0  0
   23.1372   32.6343   89.4516 H   0  0  0  0  0
   23.1078   34.0359   88.3535 H   0  0  0  0  0
   21.5824   33.2682   88.8584 H   0  0  0  0  0
   22.5393   33.7631   86.0548 H   0  0  0  0  0
   22.1095   32.1590   85.4122 H   0  0  0  0  0
   20.9942   33.0054   86.5125 H   0  0  0  0  0
  1  2  2  0  0  0
  2  3  1  0  0  0
  2  4  1  0  0  0
  4  5  1  0  0  0
  5  6  1  0  0  0
  6  7  1  0  0  0
  7  8  1  0  0  0
  7  9  1  0  0  0
  7 10  1  0  0  0
  3 11  1  0  0  0
  4 12  1  0  0  0
  4 13  1  0  0  0
  5 14  1  0  0  0
  5 15  1  0  0  0
  6 16  1  0  0  0
  6 17  1  0  0  0
  8 18  1  0  0  0
  8 19  1  0  0  0
  8 20  1  0  0  0
  9 21  1  0  0  0
  9 22  1  0  0  0
  9 23  1  0  0  0
 10 24  1  0  0  0
 10 25  1  0  0  0
 10 26  1  0  0  0
M  END
$$$$
