6hza_ligand
  -I-interpret- 

123124  0  0  0  0  0  0  0  0999 V2000
   54.5810  -34.2690   -4.9100 N   0  0  0  0  0
   53.7930  -34.1680   -3.6700 C   0  0  0  0  0
   52.4260  -34.4610   -3.8270 C   0  0  0  0  0
   51.8630  -35.2040   -3.0180 O   0  0  0  0  0
   54.0030  -32.7620   -3.0970 C   0  0  0  0  0
   53.4980  -32.6870   -1.6420 C   0  0  0  0  0
   53.9740  -31.3560   -1.0610 C   0  0  0  0  0
   53.3510  -31.1070    0.2450 N   0  0  0  0  0
   52.1540  -30.5130    0.4040 C   0  0  0  0  0
   51.4530  -30.1190   -0.6800 N   0  0  0  0  0
   51.6710  -30.3080    1.6540 N   0  0  0  0  0
   51.6950  -33.9440   -4.9170 N   0  0  0  0  0
   50.2440  -34.2410   -5.1040 C   0  0  0  0  0
   50.0270  -34.6860   -6.4200 C   0  0  0  0  0
   50.7000  -34.2450   -7.3530 O   0  0  0  0  0
   49.3610  -33.0260   -4.7660 C   0  0  0  0  0
   49.6580  -32.5380   -3.3270 C   0  0  0  0  0
   49.0170  -33.4940   -2.2980 C   0  0  0  0  0
   49.2360  -33.0440   -0.9000 N   0  0  0  0  0
   50.0590  -33.6360   -0.0030 C   0  0  0  0  0
   50.1390  -33.1690    1.2630 N   0  0  0  0  0
   50.8010  -34.6990   -0.3530 N   0  0  0  0  0
   49.0340  -35.6520   -6.6620 N   0  0  0  0  0
   48.7640  -36.2520   -7.9900 C   0  0  0  0  0
   47.4180  -36.1640   -8.3500 C   0  0  0  0  0
   46.5390  -36.2310   -7.4950 O   0  0  0  0  0
   49.0170  -37.7580   -7.8630 C   0  0  0  0  0
   50.4400  -38.0820   -7.4720 C   0  0  0  0  0
   51.2950  -38.1470   -8.7140 C   0  0  0  0  0
   52.5410  -38.9690   -8.3910 C   0  0  0  0  0
   53.4740  -38.2080   -7.5310 N   0  0  0  0  0
   47.1680  -36.0740   -9.6700 N   0  0  0  0  0
   45.8040  -36.1070  -10.2320 C   0  0  0  0  0
   45.2090  -37.4780   -9.8470 C   0  0  0  0  0
   45.9070  -38.4750   -9.9890 O   0  0  0  0  0
   45.8100  -35.9620  -11.7600 C   0  0  0  0  0
   46.2200  -34.5580  -12.2300 C   0  0  0  0  0
   46.4670  -34.6540  -13.7510 C   0  0  0  0  0
   46.9050  -33.3640  -14.3070 N   0  0  0  0  0
   48.1680  -32.9220  -14.2150 C   0  0  0  0  0
   49.0820  -33.6670  -13.5850 N   0  0  0  0  0
   48.5180  -31.7330  -14.7390 N   0  0  0  0  0
   43.9560  -37.5200   -9.3490 N   0  0  0  0  0
   43.3470  -38.7960   -8.8930 C   0  0  0  0  0
   43.4530  -38.8750   -7.4660 C   0  0  0  0  0
   42.3620  -38.6160   -6.6360 C   0  0  0  0  0
   42.4790  -38.6780   -5.2420 C   0  0  0  0  0
   43.6890  -38.9950   -4.6270 C   0  0  0  0  0
   43.7990  -39.0580   -3.2150 C   0  0  0  0  0
   44.9710  -39.3830   -2.6580 N   0  0  0  0  0
   42.7420  -38.7440   -2.4660 N   0  0  0  0  0
   44.7740  -39.2530   -5.4530 C   0  0  0  0  0
   44.6620  -39.1850   -6.8510 C   0  0  0  0  0
   54.8200  -38.5980   -7.5000 C   0  0  0  0  0
   55.7390  -37.8660   -6.7490 C   0  0  0  0  0
   55.9620  -36.5640   -7.5280 C   0  0  0  0  0
   55.3860  -35.2600   -6.9100 C   0  0  0  0  0
   54.5370  -35.3520   -5.7820 C   0  0  0  0  0
   55.1790  -39.5510   -8.1930 O   0  0  0  0  0
   53.7460  -36.2780   -5.5620 O   0  0  0  0  0
   55.2002  -33.4933   -5.1451 H   0  0  0  0  0
   54.1501  -34.9315   -2.9789 H   0  0  0  0  0
   53.4445  -32.0475   -3.7017 H   0  0  0  0  0
   55.0678  -32.5297   -3.1134 H   0  0  0  0  0
   53.8893  -33.5203   -1.0584 H   0  0  0  0  0
   52.4102  -32.7500   -1.6115 H   0  0  0  0  0
   53.6941  -30.5535   -1.7435 H   0  0  0  0  0
   55.0559  -31.3940   -0.9337 H   0  0  0  0  0
   53.8553  -31.4017    1.0812 H   0  0  0  0  0
   51.8309  -30.2719   -1.6150 H   0  0  0  0  0
   50.7682  -29.8513    1.7834 H   0  0  0  0  0
   52.2104  -30.6104    2.4651 H   0  0  0  0  0
   52.1711  -33.3506   -5.5964 H   0  0  0  0  0
   49.9571  -35.0304   -4.4092 H   0  0  0  0  0
   48.3123  -33.3145   -4.8371 H   0  0  0  0  0
   49.5754  -32.2208   -5.4687 H   0  0  0  0  0
   49.2409  -31.5396   -3.1952 H   0  0  0  0  0
   50.7368  -32.5179   -3.1722 H   0  0  0  0  0
   49.4778  -34.4749   -2.4141 H   0  0  0  0  0
   47.9429  -33.5183   -2.4816 H   0  0  0  0  0
   48.7229  -32.2190   -0.5893 H   0  0  0  0  0
   50.7563  -33.6232    1.9361 H   0  0  0  0  0
   49.5821  -32.3624    1.5452 H   0  0  0  0  0
   50.7477  -35.0678   -1.3025 H   0  0  0  0  0
   48.4637  -35.9590   -5.8740 H   0  0  0  0  0
   49.3868  -35.7321   -8.7180 H   0  0  0  0  0
   48.8267  -38.2115   -8.8357 H   0  0  0  0  0
   48.3607  -38.1419   -7.0820 H   0  0  0  0  0
   50.4679  -39.0431   -6.9587 H   0  0  0  0  0
   50.8212  -37.3077   -6.8063 H   0  0  0  0  0
   51.5789  -37.1423   -9.0272 H   0  0  0  0  0
   50.7393  -38.6120   -9.5283 H   0  0  0  0  0
   53.0483  -39.2141   -9.3241 H   0  0  0  0  0
   52.2356  -39.8712   -7.8610 H   0  0  0  0  0
   53.1457  -37.4189   -6.9743 H   0  0  0  0  0
   47.9566  -35.9788  -10.3099 H   0  0  0  0  0
   45.2191  -35.2756   -9.8385 H   0  0  0  0  0
   44.7960  -36.1472  -12.1144 H   0  0  0  0  0
   46.5374  -36.6700  -12.1572 H   0  0  0  0  0
   47.1176  -34.2214  -11.7112 H   0  0  0  0  0
   45.4389  -33.8307  -12.0084 H   0  0  0  0  0
   45.5336  -34.9405  -14.2356 H   0  0  0  0  0
   47.2503  -35.3909  -13.9284 H   0  0  0  0  0
   46.2177  -32.7800  -14.7835 H   0  0  0  0  0
   48.8167  -34.5642  -13.1788 H   0  0  0  0  0
   49.4791  -31.4017  -14.6551 H   0  0  0  0  0
   47.8222  -31.1630  -15.2201 H   0  0  0  0  0
   43.4153  -36.6575   -9.2842 H   0  0  0  0  0
   43.8684  -39.6376   -9.3490 H   0  0  0  0  0
   42.2982  -38.8305   -9.1877 H   0  0  0  0  0
   41.4003  -38.3606   -7.0810 H   0  0  0  0  0
   41.6045  -38.4739   -4.6242 H   0  0  0  0  0
   45.0676  -39.3936   -1.6426 H   0  0  0  0  0
   45.7680  -39.6202   -3.2486 H   0  0  0  0  0
   41.8678  -38.4627   -2.9099 H   0  0  0  0  0
   45.7337  -39.5140   -5.0069 H   0  0  0  0  0
   45.5401  -39.3790   -7.4670 H   0  0  0  0  0
   56.6711  -38.4147   -6.6139 H   0  0  0  0  0
   55.3668  -37.6705   -5.7433 H   0  0  0  0  0
   55.4445  -36.6951   -8.4783 H   0  0  0  0  0
   57.0421  -36.4223   -7.5649 H   0  0  0  0  0
   54.7646  -34.8283   -7.6945 H   0  0  0  0  0
   56.2574  -34.7061   -6.5609 H   0  0  0  0  0
  1  2  1  0  0  0
  1 58  1  0  0  0
  2  3  1  0  0  0
  2  5  1  0  0  0
  3  4  2  0  0  0
  3 12  1  0  0  0
  5  6  1  0  0  0
  6  7  1  0  0  0
  7  8  1  0  0  0
  8  9  1  0  0  0
  9 10  2  0  0  0
  9 11  1  0  0  0
 12 13  1  0  0  0
 13 14  1  0  0  0
 13 16  1  0  0  0
 14 15  2  0  0  0
 14 23  1  0  0  0
 16 17  1  0  0  0
 17 18  1  0  0  0
 18 19  1  0  0  0
 19 20  1  0  0  0
 20 21  1  0  0  0
 20 22  2  0  0  0
 23 24  1  0  0  0
 24 25  1  0  0  0
 24 27  1  0  0  0
 25 26  2  0  0  0
 25 32  1  0  0  0
 27 28  1  0  0  0
 28 29  1  0  0  0
 29 30  1  0  0  0
 30 31  1  0  0  0
 31 54  1  0  0  0
 32 33  1  0  0  0
 33 34  1  0  0  0
 33 36  1  0  0  0
 34 35  2  0  0  0
 34 43  1  0  0  0
 36 37  1  0  0  0
 37 38  1  0  0  0
 38 39  1  0  0  0
 39 40  1  0  0  0
 40 41  2  0  0  0
 40 42  1  0  0  0
 43 44  1  0  0  0
 44 45  1  0  0  0
 45 46  4  0  0  0
 45 53  4  0  0  0
 46 47  4  0  0  0
 47 48  4  0  0  0
 48 49  1  0  0  0
 48 52  4  0  0  0
 49 50  1  0  0  0
 49 51  2  0  0  0
 52 53  4  0  0  0
 54 55  1  0  0  0
 54 59  2  0  0  0
 55 56  1  0  0  0
 56 57  1  0  0  0
 57 58  1  0  0  0
 58 60  2  0  0  0
  1 61  1  0  0  0
  2 62  1  0  0  0
  5 63  1  0  0  0
  5 64  1  0  0  0
  6 65  1  0  0  0
  6 66  1  0  0  0
  7 67  1  0  0  0
  7 68  1  0  0  0
  8 69  1  0  0  0
 10 70  1  0  0  0
 11 71  1  0  0  0
 11 72  1  0  0  0
 12 73  1  0  0  0
 13 74  1  0  0  0
 16 75  1  0  0  0
 16 76  1  0  0  0
 17 77  1  0  0  0
 17 78  1  0  0  0
 18 79  1  0  0  0
 18 80  1  0  0  0
 19 81  1  0  0  0
 21 82  1  0  0  0
 21 83  1  0  0  0
 22 84  1  0  0  0
 23 85  1  0  0  0
 24 86  1  0  0  0
 27 87  1  0  0  0
 27 88  1  0  0  0
 28 89  1  0  0  0
 28 90  1  0  0  0
 29 91  1  0  0  0
 29 92  1  0  0  0
 30 93  1  0  0  0
 30 94  1  0  0  0
 31 95  1  0  0  0
 32 96  1  0  0  0
 33 97  1  0  0  0
 36 98  1  0  0  0
 36 99  1  0  0  0
 37100  1  0  0  0
 37101  1  0  0  0
 38102  1  0  0  0
 38103  1  0  0  0
 39104  1  0  0  0
 41105  1  0  0  0
 42106  1  0  0  0
 42107  1  0  0  0
 43108  1  0  0  0
 44109  1  0  0  0
 44110  1  0  0  0
 46111  1  0  0  0
 47112  1  0  0  0
 50113  1  0  0  0
 50114  1  0  0  0
 51115  1  0  0  0
 52116  1  0  0  0
 53117  1  0  0  0
 55118  1  0  0  0
 55119  1  0  0  0
 56120  1  0  0  0
 56121  1  0  0  0
 57122  1  0  0  0
 57123  1  0  0  0
M  END
$$$$
