3ibl_ligand
  -I-interpret- 

 38 37  0  0  0  0  0  0  0  0999 V2000
   -4.7710    1.9230   14.5970 C   0  0  0  0  0
   -5.3700   -0.4660   16.2230 N   0  0  0  0  0
   -7.1920    1.1550   16.3950 O   0  0  0  0  0
   -5.8350    0.9300   16.7690 S   0  0  0  0  0
   -4.1010    3.1800   14.1260 C   0  0  0  0  0
   -0.9460   11.6960   11.9910 N   0  0  0  0  0
   -5.4500    1.0310   18.1450 O   0  0  0  0  0
   -1.6330   11.7780   13.4050 S   0  0  0  0  0
   -4.9880    4.3970   14.1490 C   0  0  0  0  0
   -5.0200    2.0690   16.0500 O   0  0  0  0  0
   -4.3700    5.6210   13.5210 C   0  0  0  0  0
   -1.9850   10.3210   13.9010 O   0  0  0  0  0
   -3.2310    6.2150   14.3050 C   0  0  0  0  0
   -0.6810   12.2730   14.3520 O   0  0  0  0  0
   -2.4360    7.2380   13.5510 C   0  0  0  0  0
   -2.9000   12.4200   13.2530 O   0  0  0  0  0
   -1.5010    8.0300   14.4230 C   0  0  0  0  0
   -0.9550    9.2670   13.7690 C   0  0  0  0  0
   -4.1370    1.0576   14.4039 H   0  0  0  0  0
   -5.7086    1.7677   14.0632 H   0  0  0  0  0
   -6.0182   -1.0476   15.6921 H   0  0  0  0  0
   -4.4195   -0.7916   16.3991 H   0  0  0  0  0
   -3.8039    3.0177   13.0899 H   0  0  0  0  0
   -3.2694    3.3748   14.8032 H   0  0  0  0  0
    0.0284   11.9765   11.8804 H   0  0  0  0  0
   -1.4753   11.3624   11.1854 H   0  0  0  0  0
   -5.1828    4.6345   15.1948 H   0  0  0  0  0
   -5.8818    4.1556   13.5737 H   0  0  0  0  0
   -5.1501    6.3803   13.4656 H   0  0  0  0  0
   -3.9682    5.3162   12.5547 H   0  0  0  0  0
   -2.5522    5.3997   14.5552 H   0  0  0  0  0
   -3.6629    6.7167   15.1709 H   0  0  0  0  0
   -3.1417    7.9387   13.1048 H   0  0  0  0  0
   -1.8299    6.7071   12.8169 H   0  0  0  0  0
   -0.6527    7.3862   14.6554 H   0  0  0  0  0
   -2.0679    8.3501   15.2972 H   0  0  0  0  0
   -0.0254    9.5760   14.2469 H   0  0  0  0  0
   -0.7296    9.0792   12.7192 H   0  0  0  0  0
  5  1  1  0  0  0
  1 10  1  0  0  0
  4  2  1  0  0  0
  4  3  2  0  0  0
  4  7  2  0  0  0
 10  4  1  0  0  0
  9  5  1  0  0  0
  8  6  1  0  0  0
 12  8  1  0  0  0
  8 14  2  0  0  0
  8 16  2  0  0  0
 11  9  1  0  0  0
 13 11  1  0  0  0
 18 12  1  0  0  0
 15 13  1  0  0  0
 17 15  1  0  0  0
 17 18  1  0  0  0
  1 19  1  0  0  0
  1 20  1  0  0  0
  2 21  1  0  0  0
  2 22  1  0  0  0
  5 23  1  0  0  0
  5 24  1  0  0  0
  6 25  1  0  0  0
  6 26  1  0  0  0
  9 27  1  0  0  0
  9 28  1  0  0  0
 11 29  1  0  0  0
 11 30  1  0  0  0
 13 31  1  0  0  0
 13 32  1  0  0  0
 15 33  1  0  0  0
 15 34  1  0  0  0
 17 35  1  0  0  0
 17 36  1  0  0  0
 18 37  1  0  0  0
 18 38  1  0  0  0
M  END
$$$$
