4ehe_ligand
  -I-interpret- 

 43 45  0  0  0  0  0  0  0  0999 V2000
   17.8020  -26.6090   -1.4320 C   0  0  0  0  0
   18.6710  -25.6710   -0.9970 N   0  0  0  0  0
   18.1800  -24.4270   -0.8510 C   0  0  0  0  0
   16.8080  -24.2090   -1.1540 C   0  0  0  0  0
   15.9830  -25.2640   -1.5990 C   0  0  0  0  0
   16.4920  -26.5010   -1.7440 N   0  0  0  0  0
   16.0340  -22.6510   -1.0060 S   0  0  0  0  0
   14.5190  -23.3180   -1.5390 C   0  0  0  0  0
   14.6540  -24.7070   -1.8170 C   0  0  0  0  0
   19.0080  -23.4420   -0.4180 N   0  0  0  0  0
   13.6080  -25.5500   -2.2640 C   0  0  0  0  0
   12.4890  -25.1260   -2.5630 O   0  0  0  0  0
   13.9940  -26.8260   -2.2700 N   0  0  0  0  0
   13.2570  -27.9620   -2.6220 C   0  0  0  0  0
   13.0090  -28.2220   -3.9730 C   0  0  0  0  0
   12.2770  -29.3710   -4.3430 C   0  0  0  0  0
   11.7980  -30.2480   -3.3390 C   0  0  0  0  0
   12.0370  -29.9910   -1.9740 C   0  0  0  0  0
   12.7720  -28.8380   -1.6350 C   0  0  0  0  0
   12.0410  -29.6350   -5.6270 N   0  0  0  0  0
   13.5020  -27.3460   -4.8690 F   0  0  0  0  0
   13.0340  -28.5410   -0.3560 F   0  0  0  0  0
   11.1800  -31.0080   -6.1930 S   0  0  0  0  0
   10.0110  -31.0920   -5.3100 O   0  0  0  0  0
   11.0280  -30.9540   -7.6550 O   0  0  0  0  0
   12.3430  -32.3900   -5.8360 C   0  0  0  0  0
   13.7740  -32.0750   -6.2820 C   0  0  0  0  0
   14.6420  -33.3300   -6.3780 C   0  0  0  0  0
   18.2227  -27.6076   -1.5495 H   0  0  0  0  0
   13.5943  -22.7508   -1.6454 H   0  0  0  0  0
   19.9843  -23.6514   -0.2095 H   0  0  0  0  0
   18.6538  -22.4926   -0.3012 H   0  0  0  0  0
   14.9564  -26.9972   -1.9787 H   0  0  0  0  0
   11.2354  -31.1361   -3.6268 H   0  0  0  0  0
   11.6639  -30.6649   -1.2028 H   0  0  0  0  0
   12.3958  -28.9769   -6.3208 H   0  0  0  0  0
   12.0032  -33.2683   -6.3848 H   0  0  0  0  0
   12.3529  -32.5540   -4.7585 H   0  0  0  0  0
   14.2204  -31.4112   -5.5416 H   0  0  0  0  0
   13.7272  -31.6199   -7.2714 H   0  0  0  0  0
   14.6907  -33.8121   -5.4016 H   0  0  0  0  0
   14.2057  -34.0174   -7.1027 H   0  0  0  0  0
   15.6463  -33.0520   -6.6979 H   0  0  0  0  0
  1  2  4  0  0  0
  1  6  4  0  0  0
  2  3  4  0  0  0
  3  4  4  0  0  0
  3 10  1  0  0  0
  4  5  4  0  0  0
  4  7  4  0  0  0
  5  6  4  0  0  0
  5  9  4  0  0  0
  7  8  4  0  0  0
  8  9  4  0  0  0
  9 11  1  0  0  0
 11 12  2  0  0  0
 11 13  1  0  0  0
 13 14  1  0  0  0
 14 15  4  0  0  0
 14 19  4  0  0  0
 15 16  4  0  0  0
 15 21  1  0  0  0
 16 17  4  0  0  0
 16 20  1  0  0  0
 17 18  4  0  0  0
 18 19  4  0  0  0
 19 22  1  0  0  0
 20 23  1  0  0  0
 23 24  2  0  0  0
 23 25  2  0  0  0
 23 26  1  0  0  0
 26 27  1  0  0  0
 27 28  1  0  0  0
  1 29  1  0  0  0
  8 30  1  0  0  0
 10 31  1  0  0  0
 10 32  1  0  0  0
 13 33  1  0  0  0
 17 34  1  0  0  0
 18 35  1  0  0  0
 20 36  1  0  0  0
 26 37  1  0  0  0
 26 38  1  0  0  0
 27 39  1  0  0  0
 27 40  1  0  0  0
 28 41  1  0  0  0
 28 42  1  0  0  0
 28 43  1  0  0  0
M  END
$$$$
