1cgl_ligand
  -I-interpret- 

 94 96  0  0  0  0  0  0  0  0999 V2000
   29.6830   45.3880    1.2040 C   0  0  0  0  0
   29.6440   45.4640    2.4450 O   0  0  0  0  0
   30.0780   46.3940    0.3160 O   0  0  0  0  0
   30.6030   47.6530    0.7460 C   0  0  0  0  0
   31.9180   47.4290    1.4500 C   0  0  0  0  0
   32.9890   46.8630    0.7660 C   0  0  0  0  0
   34.1630   46.5850    1.4340 C   0  0  0  0  0
   34.2280   46.9030    2.7900 C   0  0  0  0  0
   33.1780   47.5150    3.4670 C   0  0  0  0  0
   32.0330   47.7530    2.7930 C   0  0  0  0  0
   29.3370   44.2710    0.6500 N   0  0  0  0  0
   29.3740   44.1540   -0.8010 C   0  0  0  0  0
   29.2450   42.7180   -1.1400 C   0  0  0  0  0
   30.5770   41.9770   -1.0070 C   0  0  0  0  0
   31.5200   42.0330   -2.2490 C   0  0  0  0  0
   31.8150   43.0020   -2.9320 O   0  0  0  0  0
   31.9890   40.8170   -2.6590 O   0  0  0  0  0
   30.1420   40.5960   -0.7300 N   0  3  0  0  0
   29.4570   39.7430   -1.7960 C   0  0  0  0  0
   28.0090   39.6850   -1.3350 C   0  0  0  0  0
   27.7410   39.7360   -0.1160 O   0  0  0  0  0
   30.1810   38.3640   -1.8290 C   0  0  0  0  0
   29.7670   37.2800   -2.8150 C   0  0  0  0  0
   30.0320   37.6930   -4.2710 C   0  0  0  0  0
   30.3720   35.9000   -2.4850 C   0  0  0  0  0
   27.0850   39.5910   -2.3230 N   0  0  0  0  0
   25.6380   39.3850   -2.0580 C   0  0  0  0  0
   25.2620   37.9340   -2.4320 C   0  0  0  0  0
   25.7440   37.3740   -3.3770 O   0  0  0  0  0
   24.7710   40.3870   -2.8840 C   0  0  0  0  0
   24.8660   41.8600   -2.4630 C   0  0  0  0  0
   24.1990   42.2970   -1.3430 C   0  0  0  0  0
   25.8150   42.6850   -3.0750 C   0  0  0  0  0
   24.5580   43.4970   -0.7690 C   0  0  0  0  0
   26.1760   43.8730   -2.4760 C   0  0  0  0  0
   25.5690   44.2730   -1.3150 C   0  0  0  0  0
   21.0320   39.1800   -5.5530 O   0  0  0  0  0
   20.3680   39.3490   -4.3070 C   0  0  0  0  0
   21.1240   38.7690   -3.0680 C   0  0  0  0  0
   21.6510   37.4420   -3.3850 N   0  3  0  0  0
   22.2890   37.3510   -4.7210 C   0  0  0  0  0
   21.2520   37.8310   -5.7950 C   0  0  0  0  0
   22.1130   36.5570   -2.2810 C   0  0  0  0  0
   23.6060   36.1880   -2.1840 C   0  0  0  0  0
   24.3440   37.3620   -1.7460 N   0  0  0  0  0
   29.8991   48.1282    1.4292 H   0  0  0  0  0
   30.7567   48.2991   -0.1183 H   0  0  0  0  0
   32.9003   46.6394   -0.2971 H   0  0  0  0  0
   35.0108   46.1323    0.9197 H   0  0  0  0  0
   35.1371   46.6627    3.3412 H   0  0  0  0  0
   33.2775   47.7953    4.5156 H   0  0  0  0  0
   31.1878   48.2058    3.3114 H   0  0  0  0  0
   29.0415   43.4809    1.2235 H   0  0  0  0  0
   30.3107   44.5531   -1.1901 H   0  0  0  0  0
   28.5599   44.7242   -1.2485 H   0  0  0  0  0
   28.9131   42.6402   -2.1753 H   0  0  0  0  0
   28.5330   42.2668   -0.4489 H   0  0  0  0  0
   31.1977   42.4377   -0.2385 H   0  0  0  0  0
   31.6939   40.1386   -2.0472 H   0  0  0  0  0
   29.4268   40.7065   -0.0112 H   0  0  0  0  0
   31.0137   40.0995   -0.5453 H   0  0  0  0  0
   29.4976   40.1231   -2.8168 H   0  0  0  0  0
   29.9632   37.9292   -0.8535 H   0  0  0  0  0
   31.2017   38.6099   -2.1218 H   0  0  0  0  0
   28.6884   37.1691   -2.7039 H   0  0  0  0  0
   29.4659   38.5959   -4.5000 H   0  0  0  0  0
   31.0964   37.8863   -4.4045 H   0  0  0  0  0
   29.7211   36.8888   -4.9378 H   0  0  0  0  0
   31.4597   35.9675   -2.5045 H   0  0  0  0  0
   30.0438   35.5885   -1.4934 H   0  0  0  0  0
   30.0385   35.1722   -3.2247 H   0  0  0  0  0
   27.3975   39.6650   -3.2911 H   0  0  0  0  0
   25.4425   39.5619   -1.0004 H   0  0  0  0  0
   23.7327   40.0910   -2.7340 H   0  0  0  0  0
   25.1365   40.3365   -3.9096 H   0  0  0  0  0
   23.3944   41.7002   -0.9135 H   0  0  0  0  0
   26.2674   42.3899   -4.0218 H   0  0  0  0  0
   24.0402   43.8409    0.1264 H   0  0  0  0  0
   26.9474   44.4964   -2.9280 H   0  0  0  0  0
   25.8788   45.1953   -0.8236 H   0  0  0  0  0
   19.4238   38.8092   -4.3791 H   0  0  0  0  0
   20.2760   40.4228   -4.1438 H   0  0  0  0  0
   20.4331   38.6910   -2.2286 H   0  0  0  0  0
   21.9494   39.4314   -2.8072 H   0  0  0  0  0
   20.8069   36.8839   -3.5132 H   0  0  0  0  0
   22.5882   36.3226   -4.9234 H   0  0  0  0  0
   23.1794   37.9789   -4.7539 H   0  0  0  0  0
   21.6323   37.6719   -6.8040 H   0  0  0  0  0
   20.3236   37.2644   -5.7225 H   0  0  0  0  0
   21.6029   35.6091   -2.4525 H   0  0  0  0  0
   21.9054   37.1178   -1.3697 H   0  0  0  0  0
   23.9721   35.8599   -3.1568 H   0  0  0  0  0
   23.7428   35.3751   -1.4708 H   0  0  0  0  0
   24.1157   37.7555   -0.8331 H   0  0  0  0  0
  1  2  2  0  0  0
  1  3  1  0  0  0
 11  1  1  0  0  0
  3  4  1  0  0  0
  4  5  1  0  0  0
  5  6  4  0  0  0
  5 10  4  0  0  0
  6  7  4  0  0  0
  7  8  4  0  0  0
  9  8  4  0  0  0
 10  9  4  0  0  0
 12 11  1  0  0  0
 13 12  1  0  0  0
 14 13  1  0  0  0
 14 15  1  0  0  0
 18 14  1  0  0  0
 15 16  2  0  0  0
 15 17  1  0  0  0
 19 18  1  0  0  0
 20 19  1  0  0  0
 19 22  1  0  0  0
 20 21  2  0  0  0
 26 20  1  0  0  0
 22 23  1  0  0  0
 23 24  1  0  0  0
 23 25  1  0  0  0
 27 26  1  0  0  0
 28 27  1  0  0  0
 27 30  1  0  0  0
 28 29  2  0  0  0
 45 28  1  0  0  0
 30 31  1  0  0  0
 31 32  4  0  0  0
 31 33  4  0  0  0
 32 34  4  0  0  0
 33 35  4  0  0  0
 34 36  4  0  0  0
 35 36  4  0  0  0
 38 37  1  0  0  0
 42 37  1  0  0  0
 39 38  1  0  0  0
 40 39  1  0  0  0
 40 41  1  0  0  0
 43 40  1  0  0  0
 41 42  1  0  0  0
 44 43  1  0  0  0
 44 45  1  0  0  0
  4 46  1  0  0  0
  4 47  1  0  0  0
  6 48  1  0  0  0
  7 49  1  0  0  0
  8 50  1  0  0  0
  9 51  1  0  0  0
 10 52  1  0  0  0
 11 53  1  0  0  0
 12 54  1  0  0  0
 12 55  1  0  0  0
 13 56  1  0  0  0
 13 57  1  0  0  0
 14 58  1  0  0  0
 17 59  1  0  0  0
 18 60  1  0  0  0
 18 61  1  0  0  0
 19 62  1  0  0  0
 22 63  1  0  0  0
 22 64  1  0  0  0
 23 65  1  0  0  0
 24 66  1  0  0  0
 24 67  1  0  0  0
 24 68  1  0  0  0
 25 69  1  0  0  0
 25 70  1  0  0  0
 25 71  1  0  0  0
 26 72  1  0  0  0
 27 73  1  0  0  0
 30 74  1  0  0  0
 30 75  1  0  0  0
 32 76  1  0  0  0
 33 77  1  0  0  0
 34 78  1  0  0  0
 35 79  1  0  0  0
 36 80  1  0  0  0
 38 81  1  0  0  0
 38 82  1  0  0  0
 39 83  1  0  0  0
 39 84  1  0  0  0
 40 85  1  0  0  0
 41 86  1  0  0  0
 41 87  1  0  0  0
 42 88  1  0  0  0
 42 89  1  0  0  0
 43 90  1  0  0  0
 43 91  1  0  0  0
 44 92  1  0  0  0
 44 93  1  0  0  0
 45 94  1  0  0  0
M  END
$$$$
