4rqi_ligand
  -I-interpret- 

236237  0  0  0  0  0  0  0  0999 V2000
    5.4600   29.5480   39.0770 N   0  3  0  0  0
    6.1840   28.5070   39.7960 C   0  0  0  0  0
    5.4360   27.1750   39.8130 C   0  0  0  0  0
    6.0600   26.1130   39.7710 O   0  0  0  0  0
    6.4650   28.9480   41.2350 C   0  0  0  0  0
    5.1960   29.1070   42.0500 C   0  0  0  0  0
    4.2180   29.6940   41.5850 O   0  0  0  0  0
    5.1990   28.5700   43.2640 N   0  0  0  0  0
    4.1040   27.2470   39.8870 N   0  0  0  0  0
    3.2190   26.0770   40.0080 C   0  0  0  0  0
    3.3820   25.3360   41.3310 C   0  0  0  0  0
    2.3910   24.9600   41.9510 O   0  0  0  0  0
    3.4390   25.0930   38.8530 C   0  0  0  0  0
    2.7900   25.5020   37.5590 C   0  0  0  0  0
    3.2510   24.6140   36.4040 C   0  0  0  0  0
    2.7480   23.2430   36.4830 N   0  0  0  0  0
    1.4680   22.9200   36.6400 C   0  0  0  0  0
    0.5430   23.8680   36.7500 N   0  0  0  0  0
    1.1140   21.6410   36.6870 N   0  0  0  0  0
    4.6350   25.1450   41.7420 N   0  0  0  0  0
    5.0350   24.4040   42.9460 C   0  0  0  0  0
    3.9070   23.8770   43.8430 C   0  0  0  0  0
    3.8640   22.6900   44.1470 O   0  0  0  0  0
    5.9720   25.2720   43.7770 C   0  0  0  0  0
    2.9820   24.7540   44.2310 N   0  0  0  0  0
    1.9770   24.4230   45.2460 C   0  0  0  0  0
    0.7620   23.6240   44.7440 C   0  0  0  0  0
    0.1350   22.9060   45.5220 O   0  0  0  0  0
    1.5020   25.7050   45.9570 C   0  0  0  0  0
    1.0630   27.0180   45.2900 C   0  0  0  0  0
    0.5160   27.9610   46.3550 C   0  0  0  0  0
    2.1810   27.7190   44.5280 C   0  0  0  0  0
    0.4080   23.7490   43.4700 N   0  0  0  0  0
   -0.6520   22.9050   42.9230 C   0  0  0  0  0
   -0.0750   21.5390   42.5570 C   0  0  0  0  0
   -0.7960   20.5400   42.4870 O   0  0  0  0  0
   -1.3580   23.5910   41.7450 C   0  0  0  0  0
   -0.4700   24.4120   40.8250 C   0  0  0  0  0
   -0.6510   25.9110   41.0800 C   0  0  0  0  0
    0.3290   26.5870   41.4530 O   0  0  0  0  0
   -1.7820   26.4170   40.9150 O   0  0  0  0  0
    1.2250   21.5140   42.2890 N   0  0  0  0  0
    1.9200   20.2770   41.9670 C   0  0  0  0  0
    1.9890   19.3830   43.1990 C   0  0  0  0  0
    1.6540   18.1990   43.1410 O   0  0  0  0  0
    3.3100   20.5760   41.4140 C   0  0  0  0  0
    3.1740   21.0670   39.9720 C   0  0  0  0  0
    4.5120   21.3990   39.3570 C   0  0  0  0  0
    2.4430   20.0230   39.1340 C   0  0  0  0  0
    2.4360   19.9680   44.3080 N   0  0  0  0  0
    2.5700   19.2630   45.5750 C   0  0  0  0  0
    1.2110   18.7220   45.9930 C   0  0  0  0  0
    1.1100   17.6720   46.6220 O   0  0  0  0  0
    3.1340   20.1910   46.6510 C   0  0  0  0  0
    4.5270   20.7240   46.3560 C   0  0  0  0  0
    5.5640   19.6270   46.2200 C   0  0  0  0  0
    5.4770   18.6300   46.9660 O   0  0  0  0  0
    6.4810   19.7710   45.3830 O   0  0  0  0  0
    0.1680   19.4630   45.6330 N   0  0  0  0  0
   -1.2050   19.0910   45.9450 C   0  0  0  0  0
   -1.6280   17.8680   45.1360 C   0  0  0  0  0
   -2.6790   17.2770   45.3990 O   0  0  0  0  0
   -2.1430   20.2530   45.6780 C   0  0  0  0  0
   -0.8120   17.5220   44.1390 N   0  0  0  0  0
   -1.0840   16.4280   43.2070 C   0  0  0  0  0
   -2.3540   16.6860   42.4200 C   0  0  0  0  0
   -3.1750   15.7890   42.2270 O   0  0  0  0  0
   -1.1720   15.0820   43.9300 C   0  0  0  0  0
    0.1750   14.4940   44.2790 C   0  0  0  0  0
    0.9160   13.8080   43.3280 C   0  0  0  0  0
    0.7000   14.6140   45.5550 C   0  0  0  0  0
    2.1440   13.2620   43.6370 C   0  0  0  0  0
    1.9290   14.0720   45.8730 C   0  0  0  0  0
    2.6460   13.3990   44.9100 C   0  0  0  0  0
    3.8710   12.8570   45.2220 O   0  0  0  0  0
   -2.5000   17.9210   41.9540 N   0  0  0  0  0
   -3.6690   18.3020   41.1820 C   0  0  0  0  0
   -3.5600   17.6620   39.8000 C   0  0  0  0  0
   -2.5910   17.8890   39.0750 O   0  0  0  0  0
   -3.7620   19.8300   41.0960 C   0  0  0  0  0
   -5.0380   20.3760   40.4900 C   0  0  0  0  0
   -5.0850   21.8900   40.6430 C   0  0  0  0  0
   -6.2890   22.4660   40.0540 N   0  0  0  0  0
   -7.3610   22.8290   40.7500 C   0  0  0  0  0
   -7.3830   22.6840   42.0680 N   0  0  0  0  0
   -8.4130   23.3420   40.1290 N   0  0  0  0  0
   -4.5620   16.8640   39.4430 N   0  0  0  0  0
   -4.5720   16.1590   38.1670 C   0  0  0  0  0
   -5.3240   16.9750   37.1350 C   0  0  0  0  0
   -4.7990   17.2780   36.0640 O   0  0  0  0  0
   -5.2070   14.7700   38.3040 C   0  0  0  0  0
   -4.7520   13.8180   39.4160 C   0  0  0  0  0
   -5.6080   12.5630   39.4160 C   0  0  0  0  0
   -3.2890   13.4500   39.2510 C   0  0  0  0  0
   -6.5550   17.3400   37.4730 N   0  0  0  0  0
   -7.3770   18.1470   36.5960 C   0  0  0  0  0
   -6.9320   19.5970   36.6420 C   0  0  0  0  0
   -6.2220   19.9970   37.5600 O   0  0  0  0  0
   -7.3460   20.3910   35.6420 N   0  0  0  0  0
   -6.9630   21.7910   35.4140 C   0  0  0  0  0
   -7.6160   22.7850   36.3730 C   0  0  0  0  0
   -8.7310   22.5660   36.8510 O   0  0  0  0  0
   -7.4320   22.0450   33.9790 C   0  0  0  0  0
   -8.5780   21.1370   33.8040 C   0  0  0  0  0
   -8.2440   19.8970   34.5830 C   0  0  0  0  0
   -6.8880   23.8540   36.6780 N   0  0  0  0  0
   -7.4430   24.9660   37.4370 C   0  0  0  0  0
   -8.7200   25.5090   36.8000 C   0  0  0  0  0
   -9.7850   25.4860   37.4180 O   0  0  0  0  0
   -6.4120   26.0730   37.5740 C   0  0  0  0  0
   -8.6170   25.9840   35.5620 N   0  0  0  0  0
   -9.7910   26.4500   34.8300 C   0  0  0  0  0
   -9.8770   25.8150   33.4410 C   0  0  0  0  0
   -8.8930   25.7520   32.6990 O   0  0  0  0  0
   -9.7820   27.9770   34.7220 C   0  0  0  0  0
   -8.6290   28.4390   34.0410 O   0  0  0  0  0
  -10.9330   25.3430   33.0120 O   0  0  0  0  0
    5.2813   29.2383   38.1217 H   0  0  0  0  0
    4.5738   29.7312   39.5477 H   0  0  0  0  0
    6.0200   30.4003   39.0602 H   0  0  0  0  0
    7.1216   28.3548   39.2614 H   0  0  0  0  0
    6.9659   29.9154   41.1992 H   0  0  0  0  0
    7.0762   28.1803   41.7095 H   0  0  0  0  0
    4.3683   28.6346   43.8523 H   0  0  0  0  0
    6.0320   28.0928   43.6085 H   0  0  0  0  0
    3.6731   28.1710   39.8578 H   0  0  0  0  0
    2.2044   26.4735   39.9699 H   0  0  0  0  0
    2.9918   24.1444   39.1503 H   0  0  0  0  0
    4.5129   25.0456   38.6722 H   0  0  0  0  0
    3.0711   26.5320   37.3393 H   0  0  0  0  0
    1.7098   25.4018   37.6649 H   0  0  0  0  0
    4.3392   24.5657   36.4430 H   0  0  0  0  0
    2.8665   25.0507   35.4823 H   0  0  0  0  0
    3.4250   22.4833   36.4129 H   0  0  0  0  0
   -0.4372   23.6127   36.8703 H   0  0  0  0  0
    0.8133   24.8509   36.7141 H   0  0  0  0  0
    1.8227   20.9123   36.6028 H   0  0  0  0  0
    5.3795   25.5473   41.1726 H   0  0  0  0  0
    5.5181   23.5047   42.5639 H   0  0  0  0  0
    6.8549   25.5190   43.1874 H   0  0  0  0  0
    5.4570   26.1888   44.0640 H   0  0  0  0  0
    6.2721   24.7269   44.6719 H   0  0  0  0  0
    2.9728   25.6828   43.8096 H   0  0  0  0  0
    2.4894   23.7545   45.9379 H   0  0  0  0  0
    2.4085   26.0159   46.4763 H   0  0  0  0  0
    0.5709   25.3696   46.4137 H   0  0  0  0  0
    0.2986   26.7583   44.5576 H   0  0  0  0  0
   -0.3384   27.4955   46.8464 H   0  0  0  0  0
    1.2933   28.1655   47.0913 H   0  0  0  0  0
    0.2032   28.8941   45.8863 H   0  0  0  0  0
    2.9929   27.9578   45.2149 H   0  0  0  0  0
    2.5506   27.0613   43.7413 H   0  0  0  0  0
    1.7964   28.6375   44.0847 H   0  0  0  0  0
    0.8752   24.4328   42.8746 H   0  0  0  0  0
   -1.4212   22.7494   43.6794 H   0  0  0  0  0
   -2.0751   24.2869   42.1804 H   0  0  0  0  0
   -1.7791   22.7933   41.1332 H   0  0  0  0  0
   -0.7443   24.1977   39.7921 H   0  0  0  0  0
    0.5701   24.1482   41.0165 H   0  0  0  0  0
   -2.3966   25.7375   40.6283 H   0  0  0  0  0
    1.7518   22.3872   42.3094 H   0  0  0  0  0
    1.3655   19.7448   41.1941 H   0  0  0  0  0
    3.9192   19.6725   41.4398 H   0  0  0  0  0
    3.7909   21.3432   42.0208 H   0  0  0  0  0
    2.5921   21.9885   39.9883 H   0  0  0  0  0
    4.9935   22.1842   39.9398 H   0  0  0  0  0
    5.1407   20.5086   39.3554 H   0  0  0  0  0
    4.3646   21.7431   38.3333 H   0  0  0  0  0
    3.0070   19.0904   39.1449 H   0  0  0  0  0
    1.4505   19.8538   39.5516 H   0  0  0  0  0
    2.3509   20.3815   38.1088 H   0  0  0  0  0
    2.6961   20.9535   44.2685 H   0  0  0  0  0
    3.2657   18.4329   45.4526 H   0  0  0  0  0
    3.2028   19.6092   47.5702 H   0  0  0  0  0
    2.4686   21.0523   46.7105 H   0  0  0  0  0
    4.8232   21.3594   47.1906 H   0  0  0  0  0
    4.4838   21.2596   45.4077 H   0  0  0  0  0
    6.3601   20.6017   44.9173 H   0  0  0  0  0
    0.3360   20.3270   45.1175 H   0  0  0  0  0
   -1.2594   18.8378   47.0038 H   0  0  0  0  0
   -1.8549   21.1010   46.2993 H   0  0  0  0  0
   -2.0814   20.5338   44.6266 H   0  0  0  0  0
   -3.1642   19.9562   45.9169 H   0  0  0  0  0
    0.0518   18.0511   44.0197 H   0  0  0  0  0
   -0.2471   16.3824   42.5101 H   0  0  0  0  0
   -1.6701   14.3824   43.2588 H   0  0  0  0  0
   -1.7085   15.2473   44.8643 H   0  0  0  0  0
    0.5205   13.6985   42.3182 H   0  0  0  0  0
    0.1337   15.1449   46.3202 H   0  0  0  0  0
    2.7128   12.7256   42.8776 H   0  0  0  0  0
    2.3295   14.1764   46.8814 H   0  0  0  0  0
    4.0752   13.0389   46.1422 H   0  0  0  0  0
   -1.7768   18.6153   42.1421 H   0  0  0  0  0
   -4.5818   17.9496   41.6624 H   0  0  0  0  0
   -2.9484   20.1531   40.4465 H   0  0  0  0  0
   -3.7233   20.2002   42.1205 H   0  0  0  0  0
   -5.8936   19.9382   41.0041 H   0  0  0  0  0
   -5.0671   20.1229   39.4302 H   0  0  0  0  0
   -4.2210   22.3100   40.1279 H   0  0  0  0  0
   -5.0830   22.1236   41.7077 H   0  0  0  0  0
   -6.3091   22.5986   39.0429 H   0  0  0  0  0
   -8.2070   22.9668   42.5985 H   0  0  0  0  0
   -6.5759   22.2896   42.5512 H   0  0  0  0  0
   -8.4004   23.4586   39.1158 H   0  0  0  0  0
   -5.3478   16.7414   40.0816 H   0  0  0  0  0
   -3.5398   16.0262   37.8430 H   0  0  0  0  0
   -4.9358   14.2568   37.3814 H   0  0  0  0  0
   -6.2531   14.9727   38.5333 H   0  0  0  0  0
   -4.8707   14.3303   40.3707 H   0  0  0  0  0
   -6.6500   12.8355   39.5833 H   0  0  0  0  0
   -5.5127   12.0597   38.4538 H   0  0  0  0  0
   -5.2733   11.8964   40.2108 H   0  0  0  0  0
   -3.1456   12.9587   38.2886 H   0  0  0  0  0
   -2.6813   14.3539   39.2931 H   0  0  0  0  0
   -2.9930   12.7740   40.0532 H   0  0  0  0  0
   -6.9313   17.0442   38.3737 H   0  0  0  0  0
   -8.4148   18.0831   36.9231 H   0  0  0  0  0
   -7.2777   17.7769   35.5756 H   0  0  0  0  0
   -5.8957   21.9373   35.5798 H   0  0  0  0  0
   -6.6438   21.8557   33.2503 H   0  0  0  0  0
   -7.7059   23.0873   33.8155 H   0  0  0  0  0
   -8.7452   20.9096   32.7512 H   0  0  0  0  0
   -9.5015   21.5922   34.1620 H   0  0  0  0  0
   -9.1293   19.4017   34.9818 H   0  0  0  0  0
   -7.7805   19.1270   33.9662 H   0  0  0  0  0
   -5.9157   23.8968   36.3727 H   0  0  0  0  0
   -7.7039   24.5916   38.4269 H   0  0  0  0  0
   -5.5344   25.6881   38.0934 H   0  0  0  0  0
   -6.1243   26.4245   36.5831 H   0  0  0  0  0
   -6.8401   26.8980   38.1435 H   0  0  0  0  0
   -7.7007   26.0234   35.1157 H   0  0  0  0  0
  -10.6744   26.1416   35.3892 H   0  0  0  0  0
   -8.1367   26.1481   33.1380 H   0  0  0  0  0
   -9.7812   28.3957   35.7284 H   0  0  0  0  0
  -10.6636   28.2901   34.1627 H   0  0  0  0  0
   -8.6518   29.3973   33.9893 H   0  0  0  0  0
  1  2  1  0  0  0
  2  3  1  0  0  0
  2  5  1  0  0  0
  3  4  2  0  0  0
  3  9  1  0  0  0
  5  6  1  0  0  0
  6  7  2  0  0  0
  6  8  1  0  0  0
  9 10  1  0  0  0
 10 11  1  0  0  0
 10 13  1  0  0  0
 11 12  2  0  0  0
 11 20  1  0  0  0
 13 14  1  0  0  0
 14 15  1  0  0  0
 15 16  1  0  0  0
 16 17  1  0  0  0
 17 18  1  0  0  0
 17 19  2  0  0  0
 20 21  1  0  0  0
 21 22  1  0  0  0
 21 24  1  0  0  0
 22 23  2  0  0  0
 22 25  1  0  0  0
 25 26  1  0  0  0
 26 27  1  0  0  0
 26 29  1  0  0  0
 27 28  2  0  0  0
 27 33  1  0  0  0
 29 30  1  0  0  0
 30 31  1  0  0  0
 30 32  1  0  0  0
 33 34  1  0  0  0
 34 35  1  0  0  0
 34 37  1  0  0  0
 35 36  2  0  0  0
 35 42  1  0  0  0
 37 38  1  0  0  0
 38 39  1  0  0  0
 39 40  2  0  0  0
 39 41  1  0  0  0
 42 43  1  0  0  0
 43 44  1  0  0  0
 43 46  1  0  0  0
 44 45  2  0  0  0
 44 50  1  0  0  0
 46 47  1  0  0  0
 47 48  1  0  0  0
 47 49  1  0  0  0
 50 51  1  0  0  0
 51 52  1  0  0  0
 51 54  1  0  0  0
 52 53  2  0  0  0
 52 59  1  0  0  0
 54 55  1  0  0  0
 55 56  1  0  0  0
 56 57  2  0  0  0
 56 58  1  0  0  0
 59 60  1  0  0  0
 60 61  1  0  0  0
 60 63  1  0  0  0
 61 62  2  0  0  0
 61 64  1  0  0  0
 64 65  1  0  0  0
 65 66  1  0  0  0
 65 68  1  0  0  0
 66 67  2  0  0  0
 66 76  1  0  0  0
 68 69  1  0  0  0
 69 70  4  0  0  0
 69 71  4  0  0  0
 70 72  4  0  0  0
 71 73  4  0  0  0
 72 74  4  0  0  0
 73 74  4  0  0  0
 74 75  1  0  0  0
 76 77  1  0  0  0
 77 78  1  0  0  0
 77 80  1  0  0  0
 78 79  2  0  0  0
 78 87  1  0  0  0
 80 81  1  0  0  0
 81 82  1  0  0  0
 82 83  1  0  0  0
 83 84  1  0  0  0
 84 85  1  0  0  0
 84 86  2  0  0  0
 87 88  1  0  0  0
 88 89  1  0  0  0
 88 91  1  0  0  0
 89 90  2  0  0  0
 89 95  1  0  0  0
 91 92  1  0  0  0
 92 93  1  0  0  0
 92 94  1  0  0  0
 95 96  1  0  0  0
 96 97  1  0  0  0
 97 98  2  0  0  0
 97 99  1  0  0  0
 99100  1  0  0  0
 99105  1  0  0  0
100101  1  0  0  0
100103  1  0  0  0
101102  2  0  0  0
101106  1  0  0  0
103104  1  0  0  0
104105  1  0  0  0
106107  1  0  0  0
107108  1  0  0  0
107110  1  0  0  0
108109  2  0  0  0
108111  1  0  0  0
111112  1  0  0  0
112113  1  0  0  0
112115  1  0  0  0
113114  1  0  0  0
113117  2  0  0  0
115116  1  0  0  0
  1118  1  0  0  0
  1119  1  0  0  0
  1120  1  0  0  0
  2121  1  0  0  0
  5122  1  0  0  0
  5123  1  0  0  0
  8124  1  0  0  0
  8125  1  0  0  0
  9126  1  0  0  0
 10127  1  0  0  0
 13128  1  0  0  0
 13129  1  0  0  0
 14130  1  0  0  0
 14131  1  0  0  0
 15132  1  0  0  0
 15133  1  0  0  0
 16134  1  0  0  0
 18135  1  0  0  0
 18136  1  0  0  0
 19137  1  0  0  0
 20138  1  0  0  0
 21139  1  0  0  0
 24140  1  0  0  0
 24141  1  0  0  0
 24142  1  0  0  0
 25143  1  0  0  0
 26144  1  0  0  0
 29145  1  0  0  0
 29146  1  0  0  0
 30147  1  0  0  0
 31148  1  0  0  0
 31149  1  0  0  0
 31150  1  0  0  0
 32151  1  0  0  0
 32152  1  0  0  0
 32153  1  0  0  0
 33154  1  0  0  0
 34155  1  0  0  0
 37156  1  0  0  0
 37157  1  0  0  0
 38158  1  0  0  0
 38159  1  0  0  0
 41160  1  0  0  0
 42161  1  0  0  0
 43162  1  0  0  0
 46163  1  0  0  0
 46164  1  0  0  0
 47165  1  0  0  0
 48166  1  0  0  0
 48167  1  0  0  0
 48168  1  0  0  0
 49169  1  0  0  0
 49170  1  0  0  0
 49171  1  0  0  0
 50172  1  0  0  0
 51173  1  0  0  0
 54174  1  0  0  0
 54175  1  0  0  0
 55176  1  0  0  0
 55177  1  0  0  0
 58178  1  0  0  0
 59179  1  0  0  0
 60180  1  0  0  0
 63181  1  0  0  0
 63182  1  0  0  0
 63183  1  0  0  0
 64184  1  0  0  0
 65185  1  0  0  0
 68186  1  0  0  0
 68187  1  0  0  0
 70188  1  0  0  0
 71189  1  0  0  0
 72190  1  0  0  0
 73191  1  0  0  0
 75192  1  0  0  0
 76193  1  0  0  0
 77194  1  0  0  0
 80195  1  0  0  0
 80196  1  0  0  0
 81197  1  0  0  0
 81198  1  0  0  0
 82199  1  0  0  0
 82200  1  0  0  0
 83201  1  0  0  0
 85202  1  0  0  0
 85203  1  0  0  0
 86204  1  0  0  0
 87205  1  0  0  0
 88206  1  0  0  0
 91207  1  0  0  0
 91208  1  0  0  0
 92209  1  0  0  0
 93210  1  0  0  0
 93211  1  0  0  0
 93212  1  0  0  0
 94213  1  0  0  0
 94214  1  0  0  0
 94215  1  0  0  0
 95216  1  0  0  0
 96217  1  0  0  0
 96218  1  0  0  0
100219  1  0  0  0
103220  1  0  0  0
103221  1  0  0  0
104222  1  0  0  0
104223  1  0  0  0
105224  1  0  0  0
105225  1  0  0  0
106226  1  0  0  0
107227  1  0  0  0
110228  1  0  0  0
110229  1  0  0  0
110230  1  0  0  0
111231  1  0  0  0
112232  1  0  0  0
114233  1  0  0  0
115234  1  0  0  0
115235  1  0  0  0
116236  1  0  0  0
M  END
$$$$
