### 
### Created by X-TOOL on Mon Sep 10 21:13:28 2018
### 

@<TRIPOS>MOLECULE
4rqi_ligand
  235   236     1     0     0
SMALL
GAST_HUCK


@<TRIPOS>ATOM
      1 N           5.4600   29.5480   39.0770 N.4       1 ASN         0.2396
      2 CA          6.1840   28.5070   39.7960 C.3       1 ASN         0.0818
      3 C           5.4360   27.1750   39.8130 C.2       1 ASN         0.2291
      4 O           6.0600   26.1130   39.7710 O.2       1 ASN        -0.3905
      5 CB          6.4650   28.9480   41.2350 C.3       1 ASN         0.0972
      6 CG          5.1960   29.1070   42.0500 C.2       1 ASN         0.1813
      7 OD1         4.2180   29.6940   41.5850 O.2       1 ASN        -0.3969
      8 ND2         5.1990   28.5700   43.2640 N.am      1 ASN        -0.3006
      9 N           4.1040   27.2470   39.8870 N.am      1 ARG        -0.2609
     10 CA          3.2190   26.0770   40.0080 C.3       1 ARG         0.1312
     11 C           3.3820   25.3360   41.3310 C.2       1 ARG         0.2039
     12 O           2.3910   24.9600   41.9510 O.2       1 ARG        -0.3944
     13 CB          3.4390   25.0930   38.8530 C.3       1 ARG        -0.0092
     14 CG          2.7900   25.5020   37.5590 C.3       1 ARG        -0.0156
     15 CD          3.2510   24.6140   36.4040 C.3       1 ARG         0.0627
     16 NE          2.7480   23.2430   36.4830 N.pl3     1 ARG        -0.2723
     17 CZ          1.4680   22.9200   36.6400 C.cat     1 ARG         0.2882
     18 NH1         0.5430   23.8680   36.7500 N.pl3     1 ARG        -0.2849
     19 NH2         1.1140   21.6410   36.6870 N.pl3     1 ARG        -0.2849
     20 N           4.6350   25.1450   41.7420 N.am      1 ARG        -0.2640
     21 CA          5.0350   24.4040   42.9460 C.3       1 ARG         0.1282
     22 C           3.9070   23.8770   43.8430 C.2       1 ARG         0.2036
     23 O           3.8640   22.6900   44.1470 O.2       1 ARG        -0.3944
     24 CB          5.9720   25.2720   43.7770 C.3       1 ARG        -0.0244
     25 N           2.9820   24.7540   44.2310 N.am      1 LEU        -0.2637
     26 CA          1.9770   24.4230   45.2460 C.3       1 LEU         0.1312
     27 C           0.7620   23.6240   44.7440 C.2       1 LEU         0.2039
     28 O           0.1350   22.9060   45.5220 O.2       1 LEU        -0.3944
     29 CB          1.5020   25.7050   45.9570 C.3       1 LEU        -0.0101
     30 CG          1.0630   27.0180   45.2900 C.3       1 LEU        -0.0425
     31 CD1         0.5160   27.9610   46.3550 C.3       1 LEU        -0.0625
     32 CD2         2.1810   27.7190   44.5280 C.3       1 LEU        -0.0625
     33 N           0.4080   23.7490   43.4700 N.am      1 GLU        -0.2636
     34 CA         -0.6520   22.9050   42.9230 C.3       1 GLU         0.1325
     35 C          -0.0750   21.5390   42.5570 C.2       1 GLU         0.2040
     36 O          -0.7960   20.5400   42.4870 O.2       1 GLU        -0.3944
     37 CB         -1.3580   23.5910   41.7450 C.3       1 GLU        -0.0008
     38 CG         -0.4700   24.4120   40.8250 C.3       1 GLU         0.0044
     39 CD         -0.6510   25.9110   41.0800 C.2       1 GLU         0.0350
     40 OE1         0.3290   26.5870   41.4530 O.co2     1 GLU        -0.5690
     41 OE2        -1.7820   26.4170   40.9150 O.co2     1 GLU        -0.5690
     42 N           1.2250   21.5140   42.2890 N.am      1 LEU        -0.2637
     43 CA          1.9200   20.2770   41.9670 C.3       1 LEU         0.1312
     44 C           1.9890   19.3830   43.1990 C.2       1 LEU         0.2039
     45 O           1.6540   18.1990   43.1410 O.2       1 LEU        -0.3944
     46 CB          3.3100   20.5760   41.4140 C.3       1 LEU        -0.0101
     47 CG          3.1740   21.0670   39.9720 C.3       1 LEU        -0.0425
     48 CD1         4.5120   21.3990   39.3570 C.3       1 LEU        -0.0625
     49 CD2         2.4430   20.0230   39.1340 C.3       1 LEU        -0.0625
     50 N           2.4360   19.9680   44.3080 N.am      1 GLU        -0.2636
     51 CA          2.5700   19.2630   45.5750 C.3       1 GLU         0.1325
     52 C           1.2110   18.7220   45.9930 C.2       1 GLU         0.2040
     53 O           1.1100   17.6720   46.6220 O.2       1 GLU        -0.3944
     54 CB          3.1340   20.1910   46.6510 C.3       1 GLU        -0.0008
     55 CG          4.5270   20.7240   46.3560 C.3       1 GLU         0.0044
     56 CD          5.5640   19.6270   46.2200 C.2       1 GLU         0.0350
     57 OE1         5.4770   18.6300   46.9660 O.co2     1 GLU        -0.5690
     58 OE2         6.4810   19.7710   45.3830 O.co2     1 GLU        -0.5690
     59 N           0.1680   19.4630   45.6330 N.am      1 ALA        -0.2640
     60 CA         -1.2050   19.0910   45.9450 C.3       1 ALA         0.1282
     61 C          -1.6280   17.8680   45.1360 C.2       1 ALA         0.2037
     62 O          -2.6790   17.2770   45.3990 O.2       1 ALA        -0.3944
     63 CB         -2.1430   20.2530   45.6780 C.3       1 ALA        -0.0244
     64 N          -0.8120   17.5220   44.1390 N.am      1 TYR        -0.2621
     65 CA         -1.0840   16.4280   43.2070 C.3       1 TYR         0.1390
     66 C          -2.3540   16.6860   42.4200 C.2       1 TYR         0.2057
     67 O          -3.1750   15.7890   42.2270 O.2       1 TYR        -0.3942
     68 CB         -1.1720   15.0820   43.9300 C.3       1 TYR         0.0163
     69 CG          0.1750   14.4940   44.2790 C.ar      1 TYR        -0.0493
     70 CD1         0.9160   13.8080   43.3280 C.ar      1 TYR        -0.0685
     71 CD2         0.7000   14.6140   45.5550 C.ar      1 TYR        -0.0685
     72 CE1         2.1440   13.2620   43.6370 C.ar      1 TYR        -0.0398
     73 CE2         1.9290   14.0720   45.8730 C.ar      1 TYR        -0.0398
     74 CZ          2.6460   13.3990   44.9100 C.ar      1 TYR         0.0805
     75 OH          3.8710   12.8570   45.2220 O.3       1 TYR        -0.3376
     76 N          -2.5000   17.9210   41.9540 N.am      1 ARG        -0.2636
     77 CA         -3.6690   18.3020   41.1820 C.3       1 ARG         0.1311
     78 C          -3.5600   17.6620   39.8000 C.2       1 ARG         0.2039
     79 O          -2.5910   17.8890   39.0750 O.2       1 ARG        -0.3944
     80 CB         -3.7620   19.8300   41.0960 C.3       1 ARG        -0.0092
     81 CG         -5.0380   20.3760   40.4900 C.3       1 ARG        -0.0156
     82 CD         -5.0850   21.8900   40.6430 C.3       1 ARG         0.0627
     83 NE         -6.2890   22.4660   40.0540 N.pl3     1 ARG        -0.2723
     84 CZ         -7.3610   22.8290   40.7500 C.cat     1 ARG         0.2882
     85 NH1        -7.3830   22.6840   42.0680 N.pl3     1 ARG        -0.2849
     86 NH2        -8.4130   23.3420   40.1290 N.pl3     1 ARG        -0.2849
     87 N          -4.5620   16.8640   39.4430 N.am      1 LEU        -0.2637
     88 CA         -4.5720   16.1590   38.1670 C.3       1 LEU         0.1312
     89 C          -5.3240   16.9750   37.1350 C.2       1 LEU         0.2037
     90 O          -4.7990   17.2780   36.0640 O.2       1 LEU        -0.3944
     91 CB         -5.2070   14.7700   38.3040 C.3       1 LEU        -0.0101
     92 CG         -4.7520   13.8180   39.4160 C.3       1 LEU        -0.0425
     93 CD1        -5.6080   12.5630   39.4160 C.3       1 LEU        -0.0625
     94 CD2        -3.2890   13.4500   39.2510 C.3       1 LEU        -0.0625
     95 N          -6.5550   17.3400   37.4730 N.am      1 GLY        -0.2664
     96 CA         -7.3770   18.1470   36.5960 C.3       1 GLY         0.1203
     97 C          -6.9320   19.5970   36.6420 C.2       1 GLY         0.2032
     98 O          -6.2220   19.9970   37.5600 O.2       1 GLY        -0.3945
     99 N          -7.3460   20.3910   35.6420 N.am      1 PRO        -0.2501
    100 CA         -6.9630   21.7910   35.4140 C.3       1 PRO         0.1338
    101 C          -7.6160   22.7850   36.3730 C.2       1 PRO         0.2041
    102 O          -8.7310   22.5660   36.8510 O.2       1 PRO        -0.3944
    103 CB         -7.4320   22.0450   33.9790 C.3       1 PRO        -0.0104
    104 CG         -8.5780   21.1370   33.8040 C.3       1 PRO        -0.0281
    105 CD         -8.2440   19.8970   34.5830 C.3       1 PRO         0.0369
    106 N          -6.8880   23.8540   36.6780 N.am      1 ALA        -0.2640
    107 CA         -7.4430   24.9660   37.4370 C.3       1 ALA         0.1282
    108 C          -8.7200   25.5090   36.8000 C.2       1 ALA         0.2031
    109 O          -9.7850   25.4860   37.4180 O.2       1 ALA        -0.3944
    110 CB         -6.4120   26.0730   37.5740 C.3       1 ALA        -0.0244
    111 N          -8.6170   25.9840   35.5620 N.am      1 SER        -0.2672
    112 CA         -9.7910   26.4500   34.8300 C.3       1 SER         0.1173
    113 C          -9.8770   25.8150   33.4410 C.2       1 SER         0.0623
    114 O          -8.8930   25.7520   32.6990 O.co2     1 SER        -0.5665
    115 CB         -9.7820   27.9770   34.7220 C.3       1 SER         0.0789
    116 OG         -8.6290   28.4390   34.0410 O.3       1 SER        -0.3910
    117 OXT       -10.9330   25.3430   33.0120 O.co2     1 SER        -0.5665
    118 H1          5.9942   30.4026   39.0953 H         1 ASN         0.2017
    119 H2          4.5662   29.7009   39.5172 H         1 ASN         0.2017
    120 H3          5.3190   29.2604   38.1213 H         1 ASN         0.2017
    121 H4          7.1455   28.3513   39.2849 H         1 ASN         0.1125
    122 H5          6.9930   29.9127   41.2120 H         1 ASN         0.0585
    123 H6          7.1023   28.1926   41.7178 H         1 ASN         0.0585
    124 H7          4.3890   28.6444   43.8456 H         1 ASN         0.1814
    125 H8          6.0113   28.0911   43.5969 H         1 ASN         0.1814
    126 H9          3.6815   28.1529   39.8584 H         1 ARG         0.1885
    127 H10         2.1830   26.4427   39.9537 H         1 ARG         0.0800
    128 H11         3.0296   24.1162   39.1500 H         1 ARG         0.0313
    129 H12         4.5215   25.0000   38.6811 H         1 ARG         0.0313
    130 H13         3.0575   26.5458   37.3378 H         1 ARG         0.0301
    131 H14         1.6982   25.4173   37.6628 H         1 ARG         0.0301
    132 H15         4.3505   24.5818   36.4075 H         1 ARG         0.0689
    133 H16         2.9002   25.0594   35.4614 H         1 ARG         0.0689
    134 H17         3.4317   22.4758   36.4122 H         1 ARG         0.2642
    135 H18        -0.4468   23.6102   36.8714 H         1 ARG         0.2615
    136 H19         0.8159   24.8605   36.7138 H         1 ARG         0.2615
    137 H20         1.8296   20.9051   36.6019 H         1 ARG         0.2615
    138 H21         0.1238   21.3848   36.8085 H         1 ARG         0.2615
    139 H22         5.3649   25.5394   41.1837 H         1 ARG         0.1883
    140 H23         5.5986   23.5246   42.6011 H         1 ARG         0.0797
    141 H24         6.2755   24.7229   44.6805 H         1 ARG         0.0277
    142 H25         5.4534   26.1976   44.0673 H         1 ARG         0.0277
    143 H26         6.8635   25.5220   43.1831 H         1 ARG         0.0277
    144 H27         2.9729   25.6646   43.8179 H         1 LEU         0.1883
    145 H28         2.4813   23.7927   45.9932 H         1 LEU         0.0800
    146 H29         2.3328   25.9869   46.6205 H         1 LEU         0.0315
    147 H30         0.6391   25.3913   46.5628 H         1 LEU         0.0315
    148 H31         0.2600   26.7840   44.5755 H         1 LEU         0.0298
    149 H32         0.2000   28.9031   45.8832 H         1 LEU         0.0232
    150 H33         1.2995   28.1682   47.0987 H         1 LEU         0.0232
    151 H34        -0.3464   27.4924   46.8517 H         1 LEU         0.0232
    152 H35         2.5797   27.0426   43.7576 H         1 LEU         0.0232
    153 H36         2.9850   27.9933   45.2267 H         1 LEU         0.0232
    154 H37         1.7853   28.6270   44.0495 H         1 LEU         0.0232
    155 H38         0.8660   24.4194   42.8863 H         1 GLU         0.1883
    156 H39        -1.4042   22.7501   43.7105 H         1 GLU         0.0801
    157 H40        -2.1270   24.2610   42.1570 H         1 GLU         0.0330
    158 H41        -1.8393   22.8092   41.1391 H         1 GLU         0.0330
    159 H42        -0.7328   24.1908   39.7800 H         1 GLU         0.0433
    160 H43         0.5810   24.1412   41.0040 H         1 GLU         0.0433
    161 H44         1.7415   22.3701   42.3090 H         1 LEU         0.1883
    162 H45         1.3485   19.7486   41.1898 H         1 LEU         0.0800
    163 H46         3.9211   19.6616   41.4367 H         1 LEU         0.0315
    164 H47         3.7912   21.3538   42.0251 H         1 LEU         0.0315
    165 H48         2.5699   21.9862   39.9818 H         1 LEU         0.0298
    166 H49         4.3645   21.7464   38.3238 H         1 LEU         0.0232
    167 H50         5.1474   20.5011   39.3547 H         1 LEU         0.0232
    168 H51         4.9990   22.1914   39.9443 H         1 LEU         0.0232
    169 H52         1.4720   19.7949   39.5978 H         1 LEU         0.0232
    170 H53         3.0483   19.1061   39.0809 H         1 LEU         0.0232
    171 H54         2.2814   20.4151   38.1190 H         1 LEU         0.0232
    172 H55         2.6910   20.9342   44.2693 H         1 GLU         0.1883
    173 H56         3.2630   18.4193   45.4412 H         1 GLU         0.0801
    174 H57         3.1726   19.6345   47.5990 H         1 GLU         0.0330
    175 H58         2.4532   21.0485   46.7566 H         1 GLU         0.0330
    176 H59         4.8282   21.3913   47.1770 H         1 GLU         0.0433
    177 H60         4.4928   21.2927   45.4150 H         1 GLU         0.0433
    178 H61         0.3327   20.3100   45.1276 H         1 ALA         0.1883
    179 H62        -1.2615   18.8369   47.0137 H         1 ALA         0.0797
    180 H63        -3.1740   19.9547   45.9187 H         1 ALA         0.0277
    181 H64        -2.0818   20.5374   44.6172 H         1 ALA         0.0277
    182 H65        -1.8534   21.1095   46.3045 H         1 ALA         0.0277
    183 H66         0.0349   18.0407   44.0220 H         1 TYR         0.1885
    184 H67        -0.2467   16.3764   42.4955 H         1 TYR         0.0821
    185 H68        -1.7034   14.3718   43.2794 H         1 TYR         0.0453
    186 H69        -1.7413   15.2236   44.8605 H         1 TYR         0.0453
    187 H70         0.5227   13.6991   42.3238 H         1 TYR         0.0530
    188 H71         0.1368   15.1419   46.3160 H         1 TYR         0.0530
    189 H72         2.7097   12.7285   42.8817 H         1 TYR         0.0525
    190 H73         2.3273   14.1758   46.8758 H         1 TYR         0.0525
    191 H74         4.2321   12.4302   44.4539 H         1 TYR         0.2458
    192 H75        -1.7910   18.6017   42.1384 H         1 ARG         0.1883
    193 H76        -4.5734   17.9229   41.6804 H         1 ARG         0.0800
    194 H77        -2.9186   20.1864   40.4863 H         1 ARG         0.0313
    195 H78        -3.6730   20.2322   42.1159 H         1 ARG         0.0313
    196 H79        -5.9035   19.9317   41.0033 H         1 ARG         0.0301
    197 H80        -5.0728   20.1173   39.4214 H         1 ARG         0.0301
    198 H81        -4.2049   22.3239   40.1458 H         1 ARG         0.0689
    199 H82        -5.0608   22.1388   41.7142 H         1 ARG         0.0689
    200 H83        -6.3093   22.5999   39.0329 H         1 ARG         0.2642
    201 H84        -8.2162   22.9668   42.6034 H         1 ARG         0.2615
    202 H85        -6.5668   22.2886   42.5563 H         1 ARG         0.2615
    203 H86        -8.4014   23.4569   39.1055 H         1 ARG         0.2615
    204 H87        -9.2424   23.6259   40.6698 H         1 ARG         0.2615
    205 H88        -5.3324   16.7438   40.0691 H         1 LEU         0.1883
    206 H89        -3.5326   16.0343   37.8294 H         1 LEU         0.0800
    207 H90        -5.0347   14.2482   37.3511 H         1 LEU         0.0315
    208 H91        -6.2863   14.9283   38.4455 H         1 LEU         0.0315
    209 H92        -4.8762   14.3278   40.3828 H         1 LEU         0.0298
    210 H93        -5.2712   11.8894   40.2178 H         1 LEU         0.0232
    211 H94        -5.5127   12.0541   38.4455 H         1 LEU         0.0232
    212 H95        -6.6599   12.8366   39.5848 H         1 LEU         0.0232
    213 H96        -2.6784   14.3650   39.2523 H         1 LEU         0.0232
    214 H97        -3.1499   12.9178   38.2984 H         1 LEU         0.0232
    215 H98        -2.9782   12.8006   40.0827 H         1 LEU         0.0232
    216 H99        -6.9239   17.0500   38.3561 H         1 GLY         0.1881
    217 H100       -8.4264   18.0793   36.9186 H         1 GLY         0.0763
    218 H101       -7.2851   17.7720   35.5660 H         1 GLY         0.0763
    219 H102       -5.8710   21.8982   35.4913 H         1 PRO         0.0802
    220 H103       -6.6337   21.8076   33.2605 H         1 PRO         0.0313
    221 H104       -7.7418   23.0926   33.8501 H         1 PRO         0.0313
    222 H105       -8.7152   20.8948   32.7398 H         1 PRO         0.0287
    223 H106       -9.4958   21.5994   34.1961 H         1 PRO         0.0287
    224 H107       -9.1504   19.4467   35.0138 H         1 PRO         0.0524
    225 H108       -7.7341   19.1582   33.9473 H         1 PRO         0.0524
    226 H109       -5.9348   23.8959   36.3787 H         1 ALA         0.1883
    227 H110       -7.6939   24.5998   38.4434 H         1 ALA         0.0797
    228 H111       -6.8428   26.9062   38.1486 H         1 ALA         0.0277
    229 H112       -6.1208   26.4287   36.5746 H         1 ALA         0.0277
    230 H113       -5.5257   25.6859   38.0981 H         1 ALA         0.0277
    231 H114       -7.7186   26.0227   35.1244 H         1 SER         0.1876
    232 H115      -10.6854   26.1507   35.3961 H         1 SER         0.0749
    233 H116       -9.7968   28.4077   35.7340 H         1 SER         0.0599
    234 H117      -10.6772   28.3024   34.1719 H         1 SER         0.0599
    235 H118       -8.6128   28.0737   33.1642 H         1 SER         0.2096
@<TRIPOS>BOND
     1    1    2 1  
     2    2    3 1  
     3    2    5 1  
     4    3    4 2  
     5    3    9 am 
     6    5    6 1  
     7    6    7 2  
     8    6    8 am 
     9    9   10 1  
    10   10   11 1  
    11   10   13 1  
    12   11   12 2  
    13   11   20 am 
    14   13   14 1  
    15   14   15 1  
    16   15   16 1  
    17   16   17 ar 
    18   17   18 ar 
    19   17   19 ar 
    20   20   21 1  
    21   21   22 1  
    22   21   24 1  
    23   22   23 2  
    24   22   25 am 
    25   25   26 1  
    26   26   27 1  
    27   26   29 1  
    28   27   28 2  
    29   27   33 am 
    30   29   30 1  
    31   30   31 1  
    32   30   32 1  
    33   33   34 1  
    34   34   35 1  
    35   34   37 1  
    36   35   36 2  
    37   35   42 am 
    38   37   38 1  
    39   38   39 1  
    40   39   40 ar 
    41   39   41 ar 
    42   42   43 1  
    43   43   44 1  
    44   43   46 1  
    45   44   45 2  
    46   44   50 am 
    47   46   47 1  
    48   47   48 1  
    49   47   49 1  
    50   50   51 1  
    51   51   52 1  
    52   51   54 1  
    53   52   53 2  
    54   52   59 am 
    55   54   55 1  
    56   55   56 1  
    57   56   57 ar 
    58   56   58 ar 
    59   59   60 1  
    60   60   61 1  
    61   60   63 1  
    62   61   62 2  
    63   61   64 am 
    64   64   65 1  
    65   65   66 1  
    66   65   68 1  
    67   66   67 2  
    68   66   76 am 
    69   68   69 1  
    70   69   70 ar 
    71   69   71 ar 
    72   70   72 ar 
    73   71   73 ar 
    74   72   74 ar 
    75   73   74 ar 
    76   74   75 1  
    77   76   77 1  
    78   77   78 1  
    79   77   80 1  
    80   78   79 2  
    81   78   87 am 
    82   80   81 1  
    83   81   82 1  
    84   82   83 1  
    85   83   84 ar 
    86   84   85 ar 
    87   84   86 ar 
    88   87   88 1  
    89   88   89 1  
    90   88   91 1  
    91   89   90 2  
    92   89   95 am 
    93   91   92 1  
    94   92   93 1  
    95   92   94 1  
    96   95   96 1  
    97   96   97 1  
    98   97   98 2  
    99   97   99 am 
   100   99  100 1  
   101   99  105 1  
   102  100  101 1  
   103  100  103 1  
   104  101  102 2  
   105  101  106 am 
   106  103  104 1  
   107  104  105 1  
   108  106  107 1  
   109  107  108 1  
   110  107  110 1  
   111  108  109 2  
   112  108  111 am 
   113  111  112 1  
   114  112  113 1  
   115  112  115 1  
   116  113  114 ar 
   117  113  117 ar 
   118  115  116 1  
   119    1  118 1  
   120    1  119 1  
   121    1  120 1  
   122    2  121 1  
   123    5  122 1  
   124    5  123 1  
   125    8  124 1  
   126    8  125 1  
   127    9  126 1  
   128   10  127 1  
   129   13  128 1  
   130   13  129 1  
   131   14  130 1  
   132   14  131 1  
   133   15  132 1  
   134   15  133 1  
   135   16  134 1  
   136   18  135 1  
   137   18  136 1  
   138   19  137 1  
   139   19  138 1  
   140   20  139 1  
   141   21  140 1  
   142   24  141 1  
   143   24  142 1  
   144   24  143 1  
   145   25  144 1  
   146   26  145 1  
   147   29  146 1  
   148   29  147 1  
   149   30  148 1  
   150   31  149 1  
   151   31  150 1  
   152   31  151 1  
   153   32  152 1  
   154   32  153 1  
   155   32  154 1  
   156   33  155 1  
   157   34  156 1  
   158   37  157 1  
   159   37  158 1  
   160   38  159 1  
   161   38  160 1  
   162   42  161 1  
   163   43  162 1  
   164   46  163 1  
   165   46  164 1  
   166   47  165 1  
   167   48  166 1  
   168   48  167 1  
   169   48  168 1  
   170   49  169 1  
   171   49  170 1  
   172   49  171 1  
   173   50  172 1  
   174   51  173 1  
   175   54  174 1  
   176   54  175 1  
   177   55  176 1  
   178   55  177 1  
   179   59  178 1  
   180   60  179 1  
   181   63  180 1  
   182   63  181 1  
   183   63  182 1  
   184   64  183 1  
   185   65  184 1  
   186   68  185 1  
   187   68  186 1  
   188   70  187 1  
   189   71  188 1  
   190   72  189 1  
   191   73  190 1  
   192   75  191 1  
   193   76  192 1  
   194   77  193 1  
   195   80  194 1  
   196   80  195 1  
   197   81  196 1  
   198   81  197 1  
   199   82  198 1  
   200   82  199 1  
   201   83  200 1  
   202   85  201 1  
   203   85  202 1  
   204   86  203 1  
   205   86  204 1  
   206   87  205 1  
   207   88  206 1  
   208   91  207 1  
   209   91  208 1  
   210   92  209 1  
   211   93  210 1  
   212   93  211 1  
   213   93  212 1  
   214   94  213 1  
   215   94  214 1  
   216   94  215 1  
   217   95  216 1  
   218   96  217 1  
   219   96  218 1  
   220  100  219 1  
   221  103  220 1  
   222  103  221 1  
   223  104  222 1  
   224  104  223 1  
   225  105  224 1  
   226  105  225 1  
   227  106  226 1  
   228  107  227 1  
   229  110  228 1  
   230  110  229 1  
   231  110  230 1  
   232  111  231 1  
   233  112  232 1  
   234  115  233 1  
   235  115  234 1  
   236  116  235 1  
@<TRIPOS>SUBSTRUCTURE
     1 ASN         1

