6naf_ligand
  -I-interpret- 

 29 31  0  0  0  0  0  0  0  0999 V2000
   25.2430  -14.6420   37.3180 N   0  3  0  0  0
   25.2890  -14.6200   35.8660 C   0  0  0  0  0
   23.8820  -14.3450   35.3210 C   0  0  0  0  0
   23.9140  -14.2850   33.8020 C   0  0  0  0  0
   26.2380  -13.5150   35.3870 C   0  0  0  0  0
   26.2990  -13.5080   33.8660 C   0  0  0  0  0
   24.9050  -13.1990   33.3230 C   0  0  0  0  0
   26.7520  -14.8860   33.3360 C   0  0  0  0  0
   25.7770  -15.9740   35.3350 C   0  0  0  0  0
   25.7800  -15.9630   33.8130 C   0  0  0  0  0
   24.3680  -15.6440   33.2720 C   0  0  0  0  0
   24.9176  -13.7380   37.6604 H   0  0  0  0  0
   24.6027  -15.3739   37.6256 H   0  0  0  0  0
   26.1765  -14.8295   37.6837 H   0  0  0  0  0
   23.5275  -13.3904   35.7098 H   0  0  0  0  0
   23.2136  -15.1472   35.6338 H   0  0  0  0  0
   22.9191  -14.0391   33.4307 H   0  0  0  0  0
   27.2354  -13.6997   35.7860 H   0  0  0  0  0
   25.8716  -12.5498   35.7366 H   0  0  0  0  0
   27.0150  -12.7537   33.5396 H   0  0  0  0  0
   24.5805  -12.2243   33.6875 H   0  0  0  0  0
   24.9334  -13.1876   32.2334 H   0  0  0  0  0
   27.7510  -15.1078   33.7112 H   0  0  0  0  0
   26.7664  -14.8681   32.2462 H   0  0  0  0  0
   25.1094  -16.7602   35.6875 H   0  0  0  0  0
   26.7892  -16.1577   35.6952 H   0  0  0  0  0
   26.0828  -16.9440   33.4469 H   0  0  0  0  0
   24.3937  -15.6188   32.1826 H   0  0  0  0  0
   23.6703  -16.4139   33.6017 H   0  0  0  0  0
  1  2  1  0  0  0
  2  3  1  0  0  0
  2  5  1  0  0  0
  2  9  1  0  0  0
  3  4  1  0  0  0
  4  7  1  0  0  0
  4 11  1  0  0  0
  5  6  1  0  0  0
  6  7  1  0  0  0
  6  8  1  0  0  0
  8 10  1  0  0  0
  9 10  1  0  0  0
 10 11  1  0  0  0
  1 12  1  0  0  0
  1 13  1  0  0  0
  1 14  1  0  0  0
  3 15  1  0  0  0
  3 16  1  0  0  0
  4 17  1  0  0  0
  5 18  1  0  0  0
  5 19  1  0  0  0
  6 20  1  0  0  0
  7 21  1  0  0  0
  7 22  1  0  0  0
  8 23  1  0  0  0
  8 24  1  0  0  0
  9 25  1  0  0  0
  9 26  1  0  0  0
 10 27  1  0  0  0
 11 28  1  0  0  0
 11 29  1  0  0  0
M  END
$$$$
