4q7v_ligand
  -I-interpret- 

 16 16  0  0  0  0  0  0  0  0999 V2000
   14.8660    0.0320   17.0700 S   0  0  0  0  0
   15.2540    1.3380   16.0150 C   0  0  0  0  0
   14.7020    2.6210   16.2450 C   0  0  0  0  0
   15.0050    3.6400   15.4210 C   0  0  0  0  0
   15.8480    3.4370   14.3600 C   0  0  0  0  0
   16.1850    4.5740   13.4430 C   0  0  0  0  0
   16.3890    2.1810   14.1350 C   0  0  0  0  0
   16.0790    1.1380   14.9780 N   0  0  0  0  0
   16.6100   -0.0970   14.7580 O   0  0  0  0  0
   14.0319    2.7831   17.0893 H   0  0  0  0  0
   14.5797    4.6280   15.5974 H   0  0  0  0  0
   17.2616    4.7439   13.4574 H   0  0  0  0  0
   15.8682    4.3278   12.4295 H   0  0  0  0  0
   15.6693    5.4741   13.7777 H   0  0  0  0  0
   17.0595    2.0192   13.2910 H   0  0  0  0  0
   16.2948   -0.7042   15.4315 H   0  0  0  0  0
  1  2  2  0  0  0
  2  3  1  0  0  0
  2  8  1  0  0  0
  3  4  2  0  0  0
  4  5  1  0  0  0
  5  6  1  0  0  0
  5  7  2  0  0  0
  7  8  1  0  0  0
  8  9  1  0  0  0
  3 10  1  0  0  0
  4 11  1  0  0  0
  6 12  1  0  0  0
  6 13  1  0  0  0
  6 14  1  0  0  0
  7 15  1  0  0  0
  9 16  1  0  0  0
M  END
$$$$
