2vc7_ligand
  -I-interpret- 

 43 43  0  0  0  0  0  0  0  0999 V2000
   16.2390  -18.2480  -10.7330 O   0  0  0  0  0
   16.4700  -17.8790  -11.8370 C   0  0  0  0  0
   17.2520  -16.8250  -12.0570 N   0  0  0  0  0
   19.5510  -14.4730  -10.9680 S   0  0  0  0  0
   17.7450  -16.2830  -10.8190 C   0  0  0  0  0
   18.0400  -14.8100  -10.7200 C   0  0  0  0  0
   17.3430  -13.8940  -10.4630 O   0  0  0  0  0
   19.0790  -17.0090  -10.7800 C   0  0  0  0  0
   20.1830  -16.0730  -11.2340 C   0  0  0  0  0
   15.8300  -18.6480  -12.9040 C   0  0  0  0  0
   14.3610  -18.5950  -12.4910 C   0  0  0  0  0
   14.0640  -19.4780  -11.3010 C   0  0  0  0  0
   14.3630  -20.9520  -11.5230 C   0  0  0  0  0
   14.8050  -25.0710  -13.7690 C   0  0  0  0  0
   13.3340  -24.8520  -13.5360 C   0  0  0  0  0
   13.9860  -21.4720  -12.9090 C   0  0  0  0  0
   12.8360  -22.4500  -12.8640 C   0  0  0  0  0
   12.8580  -23.4760  -13.9820 C   0  0  0  0  0
   17.4724  -16.4513  -12.9801 H   0  0  0  0  0
   16.9990  -16.4093  -10.0344 H   0  0  0  0  0
   19.0406  -17.8721  -11.4446 H   0  0  0  0  0
   19.2812  -17.3394   -9.7612 H   0  0  0  0  0
   21.1078  -16.2399  -10.6818 H   0  0  0  0  0
   20.4472  -16.2354  -12.2790 H   0  0  0  0  0
   16.2169  -19.6626  -12.9985 H   0  0  0  0  0
   16.0148  -18.2443  -13.8995 H   0  0  0  0  0
   13.7621  -18.9482  -13.3304 H   0  0  0  0  0
   14.1255  -17.5672  -12.2150 H   0  0  0  0  0
   12.9960  -19.3949  -11.0995 H   0  0  0  0  0
   14.7034  -19.1411  -10.4851 H   0  0  0  0  0
   13.7691  -21.5108  -10.7998 H   0  0  0  0  0
   15.4403  -21.0789  -11.4164 H   0  0  0  0  0
   15.0214  -24.9744  -14.8329 H   0  0  0  0  0
   15.3745  -24.3269  -13.2121 H   0  0  0  0  0
   15.0805  -26.0697  -13.4301 H   0  0  0  0  0
   13.1521  -24.9346  -12.4645 H   0  0  0  0  0
   12.7915  -25.5958  -14.1196 H   0  0  0  0  0
   14.8521  -21.9888  -13.3223 H   0  0  0  0  0
   13.6808  -20.6204  -13.5171 H   0  0  0  0  0
   11.9164  -21.8745  -12.9699 H   0  0  0  0  0
   12.9098  -22.9944  -11.9226 H   0  0  0  0  0
   11.8364  -23.5853  -14.3459 H   0  0  0  0  0
   13.5547  -23.1187  -14.7403 H   0  0  0  0  0
  2  1  2  0  0  0
  2  3  1  0  0  0
 10  2  1  0  0  0
  3  5  1  0  0  0
  6  4  1  0  0  0
  9  4  1  0  0  0
  5  6  1  0  0  0
  5  8  1  0  0  0
  6  7  2  0  0  0
  8  9  1  0  0  0
 11 10  1  0  0  0
 12 11  1  0  0  0
 13 12  1  0  0  0
 16 13  1  0  0  0
 15 14  1  0  0  0
 18 15  1  0  0  0
 17 16  1  0  0  0
 17 18  1  0  0  0
  3 19  1  0  0  0
  5 20  1  0  0  0
  8 21  1  0  0  0
  8 22  1  0  0  0
  9 23  1  0  0  0
  9 24  1  0  0  0
 10 25  1  0  0  0
 10 26  1  0  0  0
 11 27  1  0  0  0
 11 28  1  0  0  0
 12 29  1  0  0  0
 12 30  1  0  0  0
 13 31  1  0  0  0
 13 32  1  0  0  0
 14 33  1  0  0  0
 14 34  1  0  0  0
 14 35  1  0  0  0
 15 36  1  0  0  0
 15 37  1  0  0  0
 16 38  1  0  0  0
 16 39  1  0  0  0
 17 40  1  0  0  0
 17 41  1  0  0  0
 18 42  1  0  0  0
 18 43  1  0  0  0
M  END
$$$$
