3sv6_ligand
  -I-interpret- 

104108  0  0  0  0  0  0  0  0999 V2000
  -23.8170   -9.5390   13.4650 C   0  0  0  0  0
  -25.7680   -8.7300   12.5370 C   0  0  0  0  0
  -26.1470  -10.0360   12.2190 C   0  0  0  0  0
  -22.4830   -9.2690   14.1800 C   0  0  0  0  0
  -24.2070  -10.8410   13.1410 C   0  0  0  0  0
  -22.1210   -8.1240   14.4280 O   0  0  0  0  0
  -24.6150   -8.5050   13.1550 N   0  0  0  0  0
  -25.3630  -11.0600   12.5250 N   0  0  0  0  0
  -21.7990  -10.3520   14.4960 N   0  0  0  0  0
  -20.5020  -10.2620   15.1860 C   0  0  0  0  0
  -19.3940  -10.1610   14.1470 C   0  0  0  0  0
  -19.2800  -11.0130   13.2620 O   0  0  0  0  0
  -20.3110  -11.4900   16.0670 C   0  0  0  0  0
  -21.4240  -11.5610   17.1250 C   0  0  0  0  0
  -21.2230  -12.7570   18.0530 C   0  0  0  0  0
  -19.8350  -12.7230   18.7120 C   0  0  0  0  0
  -18.7280  -12.6440   17.6560 C   0  0  0  0  0
  -18.9350  -11.4340   16.7400 C   0  0  0  0  0
  -18.6430   -9.0740   14.2630 N   0  0  0  0  0
  -17.5300   -8.8030   13.3430 C   0  0  0  0  0
  -17.6910   -7.4340   12.6560 C   0  0  0  0  0
  -17.8120   -6.2560   13.6200 C   0  0  0  0  0
  -18.9450   -7.4560   11.7660 C   0  0  0  0  0
  -16.4730   -7.1820   11.7430 C   0  0  0  0  0
  -16.2010   -8.9330   14.1170 C   0  0  0  0  0
  -15.9570   -8.1990   15.0930 O   0  0  0  0  0
  -13.1120   -8.8820   14.0310 C   0  0  0  0  0
  -15.3170   -9.8560   13.7460 N   0  0  0  0  0
  -13.0890   -8.5310   12.8500 O   0  0  0  0  0
  -14.0210  -10.0270   14.4370 C   0  0  0  0  0
  -13.4570  -11.3660   13.9710 C   0  0  0  0  0
  -14.1430  -11.6610   12.6290 C   0  0  0  0  0
  -13.8150  -12.5080   14.9020 C   0  0  0  0  0
  -13.8610  -13.7250   13.9800 C   0  0  0  0  0
  -15.4400  -10.8180   12.6110 C   0  0  0  0  0
  -14.4250  -13.1680   12.6650 C   0  0  0  0  0
   -9.1640   -6.1430   13.0990 N   0  0  0  0  0
  -12.4380   -8.2720   15.0090 N   0  0  0  0  0
  -11.6590   -7.0550   14.7010 C   0  0  0  0  0
  -10.1640   -7.1840   14.9970 C   0  0  0  0  0
  -12.2910   -5.8610   15.4430 C   0  0  0  0  0
  -13.5620   -5.4220   14.6760 C   0  0  0  0  0
  -14.2460   -4.2370   15.3400 C   0  0  0  0  0
   -9.3980   -6.0150   14.3980 C   0  0  0  0  0
   -8.4840   -5.0930   12.3450 C   0  0  0  0  0
   -7.0370   -5.4010   12.0270 C   0  0  0  0  0
   -8.1000   -5.4890   10.9260 C   0  0  0  0  0
   -9.6320   -8.3780   14.4540 O   0  0  0  0  0
   -9.0870   -5.0460   15.0810 O   0  0  0  0  0
  -26.4192   -7.8952   12.2777 H   0  0  0  0  0
  -27.0965  -10.2149   11.7144 H   0  0  0  0  0
  -23.5598  -11.6805   13.3949 H   0  0  0  0  0
  -22.1762  -11.2692   14.2576 H   0  0  0  0  0
  -20.4711   -9.3759   15.8200 H   0  0  0  0  0
  -20.3654  -12.3863   15.4492 H   0  0  0  0  0
  -22.3822  -11.6701   16.6171 H   0  0  0  0  0
  -21.3984  -10.6485   17.7207 H   0  0  0  0  0
  -21.3064  -13.6711   17.4651 H   0  0  0  0  0
  -21.9805  -12.7207   18.8359 H   0  0  0  0  0
  -19.7007  -13.6361   19.2919 H   0  0  0  0  0
  -19.7726  -11.8420   19.3508 H   0  0  0  0  0
  -18.7537  -13.5507   17.0516 H   0  0  0  0  0
  -17.7674  -12.5422   18.1609 H   0  0  0  0  0
  -18.8733  -10.5252   17.3387 H   0  0  0  0  0
  -18.1655  -11.4418   15.9680 H   0  0  0  0  0
  -18.8433   -8.4091   15.0101 H   0  0  0  0  0
  -17.5288   -9.5366   12.5368 H   0  0  0  0  0
  -18.6849   -6.3978   14.2572 H   0  0  0  0  0
  -16.9154   -6.1997   14.2372 H   0  0  0  0  0
  -17.9218   -5.3326   13.0513 H   0  0  0  0  0
  -18.8388   -8.2340   11.0100 H   0  0  0  0  0
  -19.8215   -7.6618   12.3804 H   0  0  0  0  0
  -19.0604   -6.4877   11.2790 H   0  0  0  0  0
  -15.5632   -7.1873   12.3433 H   0  0  0  0  0
  -16.4170   -7.9673   10.9892 H   0  0  0  0  0
  -16.5814   -6.2140   11.2538 H   0  0  0  0  0
  -14.1173  -10.0194   15.5227 H   0  0  0  0  0
  -12.3703  -11.2961   13.9239 H   0  0  0  0  0
  -13.5645  -11.4141   11.7388 H   0  0  0  0  0
  -14.7598  -12.3422   15.4197 H   0  0  0  0  0
  -13.0947  -12.6263   15.7115 H   0  0  0  0  0
  -14.4735  -14.5300   14.3860 H   0  0  0  0  0
  -12.8809  -14.1838   13.8496 H   0  0  0  0  0
  -15.5605  -10.2968   11.6613 H   0  0  0  0  0
  -16.3232  -11.4476   12.7193 H   0  0  0  0  0
  -13.9530  -13.6599   11.8145 H   0  0  0  0  0
  -15.4979  -13.3518   12.6076 H   0  0  0  0  0
   -9.4645   -6.9905   12.6174 H   0  0  0  0  0
  -12.4607   -8.6425   15.9591 H   0  0  0  0  0
  -11.7079   -6.8924   13.6243 H   0  0  0  0  0
  -10.0547   -7.1947   16.0815 H   0  0  0  0  0
  -11.5814   -5.0349   15.4904 H   0  0  0  0  0
  -12.5526   -6.1518   16.4604 H   0  0  0  0  0
  -14.2610   -6.2583   14.6669 H   0  0  0  0  0
  -13.2677   -5.1259   13.6691 H   0  0  0  0  0
  -14.5364   -4.5086   16.3549 H   0  0  0  0  0
  -13.5575   -3.3926   15.3715 H   0  0  0  0  0
  -15.1326   -3.9635   14.7679 H   0  0  0  0  0
   -9.0131   -4.2508   12.7908 H   0  0  0  0  0
   -6.2223   -6.0045   12.4273 H   0  0  0  0  0
   -6.0535   -4.9568   12.1806 H   0  0  0  0  0
   -8.2568   -5.1429    9.9044 H   0  0  0  0  0
   -8.4241   -6.1812   10.1488 H   0  0  0  0  0
   -8.6949   -8.4302   14.6557 H   0  0  0  0  0
  4  1  1  0  0  0
  1  5  4  0  0  0
  1  7  4  0  0  0
  2  3  4  0  0  0
  7  2  4  0  0  0
  8  3  4  0  0  0
  4  6  2  0  0  0
  9  4  1  0  0  0
  5  8  4  0  0  0
 10  9  1  0  0  0
 11 10  1  0  0  0
 10 13  1  0  0  0
 11 12  2  0  0  0
 19 11  1  0  0  0
 13 14  1  0  0  0
 13 18  1  0  0  0
 14 15  1  0  0  0
 15 16  1  0  0  0
 17 16  1  0  0  0
 18 17  1  0  0  0
 20 19  1  0  0  0
 20 21  1  0  0  0
 25 20  1  0  0  0
 21 22  1  0  0  0
 21 23  1  0  0  0
 21 24  1  0  0  0
 25 26  2  0  0  0
 28 25  1  0  0  0
 27 29  2  0  0  0
 27 30  1  0  0  0
 38 27  1  0  0  0
 30 28  1  0  0  0
 28 35  1  0  0  0
 30 31  1  0  0  0
 31 32  1  0  0  0
 31 33  1  0  0  0
 32 35  1  0  0  0
 32 36  1  0  0  0
 33 34  1  0  0  0
 34 36  1  0  0  0
 44 37  1  0  0  0
 37 45  1  0  0  0
 39 38  1  0  0  0
 40 39  1  0  0  0
 39 41  1  0  0  0
 40 44  1  0  0  0
 40 48  1  0  0  0
 41 42  1  0  0  0
 42 43  1  0  0  0
 44 49  2  0  0  0
 45 46  1  0  0  0
 45 47  1  0  0  0
 46 47  1  0  0  0
  2 50  1  0  0  0
  3 51  1  0  0  0
  5 52  1  0  0  0
  9 53  1  0  0  0
 10 54  1  0  0  0
 13 55  1  0  0  0
 14 56  1  0  0  0
 14 57  1  0  0  0
 15 58  1  0  0  0
 15 59  1  0  0  0
 16 60  1  0  0  0
 16 61  1  0  0  0
 17 62  1  0  0  0
 17 63  1  0  0  0
 18 64  1  0  0  0
 18 65  1  0  0  0
 19 66  1  0  0  0
 20 67  1  0  0  0
 22 68  1  0  0  0
 22 69  1  0  0  0
 22 70  1  0  0  0
 23 71  1  0  0  0
 23 72  1  0  0  0
 23 73  1  0  0  0
 24 74  1  0  0  0
 24 75  1  0  0  0
 24 76  1  0  0  0
 30 77  1  0  0  0
 31 78  1  0  0  0
 32 79  1  0  0  0
 33 80  1  0  0  0
 33 81  1  0  0  0
 34 82  1  0  0  0
 34 83  1  0  0  0
 35 84  1  0  0  0
 35 85  1  0  0  0
 36 86  1  0  0  0
 36 87  1  0  0  0
 37 88  1  0  0  0
 38 89  1  0  0  0
 39 90  1  0  0  0
 40 91  1  0  0  0
 41 92  1  0  0  0
 41 93  1  0  0  0
 42 94  1  0  0  0
 42 95  1  0  0  0
 43 96  1  0  0  0
 43 97  1  0  0  0
 43 98  1  0  0  0
 45 99  1  0  0  0
 46100  1  0  0  0
 46101  1  0  0  0
 47102  1  0  0  0
 47103  1  0  0  0
 48104  1  0  0  0
M  END
$$$$
