4rux_ligand
  -I-interpret- 

 27 27  0  0  0  0  0  0  0  0999 V2000
   -5.5560    4.6420   14.9200 C   0  0  0  0  0
   -6.1200    3.4530   15.6310 C   0  0  0  0  0
   -5.3290    2.3870   15.8500 C   0  0  0  0  0
   -5.9580    0.9990   16.7160 S   0  0  0  0  0
   -5.4280    1.1170   18.0640 O   0  0  0  0  0
   -7.3760    1.1050   16.6060 O   0  0  0  0  0
   -5.4020   -0.3510   16.0360 N   0  0  0  0  0
   -3.9010    2.3690   15.4130 C   0  0  0  0  0
   -3.3940    3.4340   14.7770 C   0  0  0  0  0
   -4.2740    4.6240   14.5360 C   0  0  0  0  0
   -3.7880    5.7560   13.8930 O   0  0  0  0  0
   -2.4240    5.8000   13.5280 C   0  0  0  0  0
   -2.0740    7.2390   13.2220 C   0  0  0  0  0
   -1.9970    8.0640   14.4890 C   0  0  0  0  0
   -6.1809    5.5118   14.7173 H   0  0  0  0  0
   -7.1570    3.4503   15.9669 H   0  0  0  0  0
   -4.7762   -0.9646   16.5578 H   0  0  0  0  0
   -5.6757   -0.5924   15.0835 H   0  0  0  0  0
   -3.2767    1.4974   15.6096 H   0  0  0  0  0
   -2.3574    3.4352   14.4399 H   0  0  0  0  0
   -2.2455    5.1730   12.6545 H   0  0  0  0  0
   -1.8024    5.4237   14.3405 H   0  0  0  0  0
   -2.8498    7.6573   12.5807 H   0  0  0  0  0
   -1.1014    7.2639   12.7305 H   0  0  0  0  0
   -2.9617    8.0400   14.9959 H   0  0  0  0  0
   -1.2304    7.6505   15.1443 H   0  0  0  0  0
   -1.7437    9.0935   14.2359 H   0  0  0  0  0
  1  2  4  0  0  0
  1 10  4  0  0  0
  2  3  4  0  0  0
  3  4  1  0  0  0
  3  8  4  0  0  0
  4  5  2  0  0  0
  4  6  2  0  0  0
  4  7  1  0  0  0
  8  9  4  0  0  0
  9 10  4  0  0  0
 10 11  1  0  0  0
 11 12  1  0  0  0
 12 13  1  0  0  0
 13 14  1  0  0  0
  1 15  1  0  0  0
  2 16  1  0  0  0
  7 17  1  0  0  0
  7 18  1  0  0  0
  8 19  1  0  0  0
  9 20  1  0  0  0
 12 21  1  0  0  0
 12 22  1  0  0  0
 13 23  1  0  0  0
 13 24  1  0  0  0
 14 25  1  0  0  0
 14 26  1  0  0  0
 14 27  1  0  0  0
M  END
$$$$
