5hg1_ligand
  -I-interpret- 

 41 42  0  0  0  0  0  0  0  0999 V2000
   66.4630  -49.3970  -72.1390 C   0  0  0  0  0
   65.9480  -49.4130  -70.6980 C   0  0  0  0  0
   65.9670  -50.7830  -70.0660 C   0  0  0  0  0
   68.0660  -44.8230  -71.5150 C   0  0  0  0  0
   67.9720  -43.4670  -72.0480 C   0  0  0  0  0
   67.8730  -40.8180  -73.2170 C   0  0  0  0  0
   68.5890  -38.5430  -73.1250 C   0  0  0  0  0
   69.1110  -40.0360  -71.3160 C   0  0  0  0  0
   69.9870  -37.5220  -71.0520 Cl  0  0  0  0  0
   69.1710  -38.7810  -71.8910 C   0  0  0  0  0
   68.6550  -36.9670  -73.8440 Cl  0  0  0  0  0
   67.9410  -39.5640  -73.7940 C   0  0  0  0  0
   68.4280  -41.0650  -71.9600 C   0  0  0  0  0
   68.4170  -42.4130  -71.3900 C   0  0  0  0  0
   68.9180  -45.1680  -70.6790 O   0  0  0  0  0
   67.2410  -45.7000  -72.0820 N   0  0  0  0  0
   67.3010  -47.0860  -71.6650 C   0  0  0  0  0
   66.7460  -47.2520  -70.2560 C   0  0  0  0  0
   65.4550  -46.7430  -70.2210 O   0  0  0  0  0
   66.5430  -47.9690  -72.6500 C   0  0  0  0  0
   67.2350  -47.9370  -73.8840 O   0  0  0  0  0
   65.6130  -50.1570  -72.9880 O   0  0  0  0  0
   66.7980  -48.5900  -69.8930 O   0  0  0  0  0
   67.2750  -51.3250  -70.1160 O   0  0  0  0  0
   67.4577  -49.8427  -72.1480 H   0  0  0  0  0
   64.9174  -49.0607  -70.7415 H   0  0  0  0  0
   65.2877  -51.4378  -70.6117 H   0  0  0  0  0
   65.6537  -50.7009  -69.0252 H   0  0  0  0  0
   67.5167  -43.3194  -73.0273 H   0  0  0  0  0
   67.3776  -41.6279  -73.7524 H   0  0  0  0  0
   69.5981  -40.2207  -70.3586 H   0  0  0  0  0
   67.4875  -39.3818  -74.7683 H   0  0  0  0  0
   68.7932  -42.5527  -70.3766 H   0  0  0  0  0
   66.5782  -45.4015  -72.7975 H   0  0  0  0  0
   68.3457  -47.3968  -71.6545 H   0  0  0  0  0
   67.3446  -46.6980  -69.5329 H   0  0  0  0  0
   65.0966  -46.8433  -69.3361 H   0  0  0  0  0
   65.5246  -47.5997  -72.7706 H   0  0  0  0  0
   66.7750  -48.4875  -74.5219 H   0  0  0  0  0
   65.5631  -51.0594  -72.6642 H   0  0  0  0  0
   67.2751  -52.1957  -69.7116 H   0  0  0  0  0
  1  2  1  0  0  0
 20  1  1  0  0  0
  1 22  1  0  0  0
  2  3  1  0  0  0
  2 23  1  0  0  0
  3 24  1  0  0  0
  4  5  1  0  0  0
  4 15  2  0  0  0
 16  4  1  0  0  0
  5 14  2  0  0  0
  6 12  4  0  0  0
 13  6  4  0  0  0
 10  7  4  0  0  0
  7 11  1  0  0  0
 12  7  4  0  0  0
  8 10  4  0  0  0
 13  8  4  0  0  0
 10  9  1  0  0  0
 14 13  1  0  0  0
 17 16  1  0  0  0
 17 18  1  0  0  0
 17 20  1  0  0  0
 18 19  1  0  0  0
 18 23  1  0  0  0
 20 21  1  0  0  0
  1 25  1  0  0  0
  2 26  1  0  0  0
  3 27  1  0  0  0
  3 28  1  0  0  0
  5 29  1  0  0  0
  6 30  1  0  0  0
  8 31  1  0  0  0
 12 32  1  0  0  0
 14 33  1  0  0  0
 16 34  1  0  0  0
 17 35  1  0  0  0
 18 36  1  0  0  0
 19 37  1  0  0  0
 20 38  1  0  0  0
 21 39  1  0  0  0
 22 40  1  0  0  0
 24 41  1  0  0  0
M  END
$$$$
