2b7a_ligand
  -I-interpret- 

 38 41  0  0  0  0  0  0  0  0999 V2000
  117.7080   67.4770   10.8940 O   0  0  0  0  0
  117.2770   66.8780    9.8800 C   0  0  0  0  0
  118.0910   66.7430    8.7980 N   0  0  0  0  0
  117.6930   66.0990    7.6860 C   0  0  0  0  0
  116.4160   65.5460    7.5940 C   0  0  0  0  0
  115.5180   65.6330    8.6610 C   0  0  0  0  0
  114.2420   65.0750    8.5710 C   0  0  0  0  0
  115.9050   66.2890    9.8350 C   0  0  0  0  0
  114.9250   66.3790   10.9700 C   0  0  0  0  0
  115.2030   67.0080   12.1790 C   0  0  0  0  0
  114.2050   67.0160   13.1460 C   0  0  0  0  0
  114.4580   67.6720   14.4460 F   0  0  0  0  0
  112.9710   66.4030   12.8920 C   0  0  0  0  0
  112.7100   65.8180   11.7650 C   0  0  0  0  0
  113.5770   65.7640   10.8080 C   0  0  0  0  0
  113.3070   65.1380    9.5950 C   0  0  0  0  0
  112.1720   64.5120    9.2100 N   0  0  0  0  0
  112.4660   64.0890    7.9580 C   0  0  0  0  0
  113.7040   64.4150    7.5220 N   0  0  0  0  0
  111.4810   63.3400    7.0880 C   0  0  0  0  0
  110.3510   62.7540    7.9250 C   0  0  0  0  0
  112.1570   62.2180    6.3120 C   0  0  0  0  0
  110.8870   64.3320    6.0960 C   0  0  0  0  0
  119.0294   67.1413    8.8310 H   0  0  0  0  0
  118.3791   66.0080    6.8439 H   0  0  0  0  0
  116.1144   65.0391    6.6774 H   0  0  0  0  0
  116.1694   67.4780   12.3615 H   0  0  0  0  0
  112.2052   66.4185   13.6675 H   0  0  0  0  0
  111.7321   65.3588   11.6204 H   0  0  0  0  0
  110.7652   62.0638    8.6600 H   0  0  0  0  0
  109.8246   63.5594    8.4372 H   0  0  0  0  0
  109.6575   62.2210    7.2746 H   0  0  0  0  0
  112.9328   62.6372    5.6713 H   0  0  0  0  0
  112.6042   61.5121    7.0119 H   0  0  0  0  0
  111.4163   61.7042    5.6993 H   0  0  0  0  0
  110.3812   65.1295    6.6403 H   0  0  0  0  0
  111.6848   64.7559    5.4861 H   0  0  0  0  0
  110.1715   63.8179    5.4543 H   0  0  0  0  0
  1  2  2  0  0  0
  2  3  1  0  0  0
  2  8  1  0  0  0
  3  4  1  0  0  0
  4  5  2  0  0  0
  5  6  1  0  0  0
  6  7  4  0  0  0
  6  8  4  0  0  0
  7 16  4  0  0  0
  7 19  4  0  0  0
  8  9  4  0  0  0
  9 10  4  0  0  0
  9 15  4  0  0  0
 10 11  4  0  0  0
 11 12  1  0  0  0
 11 13  4  0  0  0
 13 14  4  0  0  0
 14 15  4  0  0  0
 15 16  4  0  0  0
 16 17  4  0  0  0
 17 18  4  0  0  0
 18 19  4  0  0  0
 18 20  1  0  0  0
 20 21  1  0  0  0
 20 22  1  0  0  0
 20 23  1  0  0  0
  3 24  1  0  0  0
  4 25  1  0  0  0
  5 26  1  0  0  0
 10 27  1  0  0  0
 13 28  1  0  0  0
 14 29  1  0  0  0
 21 30  1  0  0  0
 21 31  1  0  0  0
 21 32  1  0  0  0
 22 33  1  0  0  0
 22 34  1  0  0  0
 22 35  1  0  0  0
 23 36  1  0  0  0
 23 37  1  0  0  0
 23 38  1  0  0  0
M  END
$$$$
