2nq6_ligand
  -I-interpret- 

 38 39  0  0  0  0  0  0  0  0999 V2000
   46.6490   17.7760   36.4070 S   0  0  0  0  0
   46.5630   19.5820   34.7430 N   0  0  0  0  0
   45.0780   20.0020   36.4810 N   0  0  0  0  0
   43.4430   21.8760   37.4730 N   0  0  0  0  0
   44.2400   20.0750   40.5390 N   0  0  0  0  0
   47.6650   17.5820   35.1110 C   0  0  0  0  0
   47.4810   18.7030   34.2760 C   0  0  0  0  0
   46.0140   19.2520   35.8630 C   0  0  0  0  0
   44.8070   19.8850   37.7920 C   0  0  0  0  0
   43.9560   20.9590   38.3470 C   0  0  0  0  0
   42.6480   22.8880   37.8300 C   0  0  0  0  0
   42.3130   23.0380   39.1760 C   0  0  0  0  0
   42.7950   22.1450   40.1500 C   0  0  0  0  0
   43.6720   21.0260   39.7240 C   0  0  0  0  0
   44.1660   19.9120   41.8960 C   0  0  0  0  0
   44.9300   18.5210   43.8040 C   0  0  0  0  0
   45.8310   17.3250   43.7690 C   0  0  0  0  0
   43.4540   18.0670   44.2760 C   0  0  0  0  0
   45.6970   19.5330   44.6540 C   0  0  0  0  0
   45.2950   18.9690   38.4750 O   0  0  0  0  0
   43.5450   20.6400   42.5860 O   0  0  0  0  0
   44.8570   18.8740   42.4100 O   0  0  0  0  0
   44.5557   20.6845   35.9316 H   0  0  0  0  0
   44.8075   19.3795   40.0545 H   0  0  0  0  0
   48.3448   16.7477   34.9378 H   0  0  0  0  0
   48.0259   18.8483   33.3432 H   0  0  0  0  0
   42.2676   23.5845   37.0829 H   0  0  0  0  0
   41.6663   23.8618   39.4782 H   0  0  0  0  0
   42.5291   22.2726   41.1993 H   0  0  0  0  0
   45.8861   16.8839   44.7643 H   0  0  0  0  0
   45.4330   16.5923   43.0670 H   0  0  0  0  0
   46.8273   17.6315   43.4504 H   0  0  0  0  0
   43.0589   17.3333   43.5734 H   0  0  0  0  0
   43.5119   17.6249   45.2706 H   0  0  0  0  0
   42.7983   18.9374   44.3015 H   0  0  0  0  0
   45.8678   19.1164   45.6467 H   0  0  0  0  0
   46.6542   19.7517   44.1807 H   0  0  0  0  0
   45.1142   20.4502   44.7388 H   0  0  0  0  0
  1  6  4  0  0  0
  8  1  4  0  0  0
  2  7  4  0  0  0
  8  2  4  0  0  0
  3  8  1  0  0  0
  9  3  1  0  0  0
 10  4  4  0  0  0
  4 11  4  0  0  0
  5 14  1  0  0  0
 15  5  1  0  0  0
  7  6  4  0  0  0
 10  9  1  0  0  0
  9 20  2  0  0  0
 14 10  4  0  0  0
 12 11  4  0  0  0
 13 12  4  0  0  0
 14 13  4  0  0  0
 15 21  2  0  0  0
 22 15  1  0  0  0
 16 17  1  0  0  0
 16 18  1  0  0  0
 16 19  1  0  0  0
 16 22  1  0  0  0
  3 23  1  0  0  0
  5 24  1  0  0  0
  6 25  1  0  0  0
  7 26  1  0  0  0
 11 27  1  0  0  0
 12 28  1  0  0  0
 13 29  1  0  0  0
 17 30  1  0  0  0
 17 31  1  0  0  0
 17 32  1  0  0  0
 18 33  1  0  0  0
 18 34  1  0  0  0
 18 35  1  0  0  0
 19 36  1  0  0  0
 19 37  1  0  0  0
 19 38  1  0  0  0
M  END
$$$$
