6dj1_ligand
  -I-interpret- 

 94 97  0  0  0  0  0  0  0  0999 V2000
    5.1690   16.3660   63.7490 C   0  0  0  0  0
    6.9050   17.8280   62.7300 C   0  0  0  0  0
    7.9290   16.8830   63.2380 N   0  0  0  0  0
    7.6160   15.8750   64.0460 C   0  0  0  0  0
    6.2810   15.6640   64.3580 N   0  0  0  0  0
   14.9030   20.5570   61.6730 C   0  0  0  0  0
   16.1800   21.0410   61.5330 C   0  0  0  0  0
   16.5140   22.0890   60.6710 C   0  0  0  0  0
   15.5240   22.7110   59.9030 C   0  0  0  0  0
   14.2320   22.2350   60.0340 C   0  0  0  0  0
   13.9370   21.1300   60.8370 C   0  0  0  0  0
    8.4780   15.0970   64.5340 O   0  0  0  0  0
    9.3570   17.0790   62.8830 C   0  0  0  0  0
    9.8930   18.2830   63.6240 C   0  0  0  0  0
   10.6460   18.0430   64.7140 N   0  0  0  0  0
   11.1440   19.0920   65.6120 C   0  0  0  0  0
    9.5600   17.1780   61.3780 C   0  0  0  0  0
   11.0550   17.3980   61.1040 C   0  0  0  0  0
    9.1070   15.8860   60.6920 C   0  0  0  0  0
    9.5800   19.4040   63.1950 O   0  0  0  0  0
    7.2070   20.9410   66.8420 C   0  0  0  0  0
    6.2710   19.9210   66.7520 C   0  0  0  0  0
    6.7020   18.6020   66.7220 C   0  0  0  0  0
    8.0770   18.3380   66.8010 C   0  0  0  0  0
    9.0270   19.3410   66.8460 C   0  0  0  0  0
    8.5670   20.6610   66.9080 C   0  0  0  0  0
   10.3790   19.0760   66.9460 C   0  0  0  0  0
   12.6250   18.8120   65.8670 C   0  0  0  0  0
   13.4830   18.5890   64.6170 C   0  0  0  0  0
   13.7460   19.7990   63.7270 C   0  0  0  0  0
   14.4420   20.8770   64.4590 N   0  0  0  0  0
   13.8710   22.0720   64.6950 C   0  0  0  0  0
   14.8000   23.1450   65.2660 C   0  0  0  0  0
   16.0380   22.5870   65.7550 O   0  0  0  0  0
   16.8770   23.5730   66.1050 C   0  0  0  0  0
   14.7790   18.0320   64.9890 O   0  0  0  0  0
   14.5960   19.4570   62.4960 C   0  0  0  0  0
   12.6920   22.3170   64.4620 O   0  0  0  0  0
   16.8070   24.1500   67.3650 C   0  0  0  0  0
   17.7090   25.1670   67.6510 C   0  0  0  0  0
   18.6280   25.6400   66.7020 C   0  0  0  0  0
   18.6870   25.0210   65.4470 C   0  0  0  0  0
   17.8450   23.9250   65.1900 C   0  0  0  0  0
   17.8190   23.3160   63.9240 C   0  0  0  0  0
   15.8580   23.7900   68.3460 C   0  0  0  0  0
    5.6050   17.1050   62.4870 C   0  0  0  0  0
    4.7854   17.0947   64.4631 H   0  0  0  0  0
    4.4048   15.6374   63.4783 H   0  0  0  0  0
    7.2531   18.2613   61.7924 H   0  0  0  0  0
    6.7445   18.6120   63.4700 H   0  0  0  0  0
    6.0663   14.9637   65.0678 H   0  0  0  0  0
   16.9738   20.5846   62.1243 H   0  0  0  0  0
   17.5490   22.4227   60.5969 H   0  0  0  0  0
   15.7606   23.5353   59.2303 H   0  0  0  0  0
   13.4245   22.7338   59.4980 H   0  0  0  0  0
   12.9335   20.7051   60.8120 H   0  0  0  0  0
    9.9262   16.2033   63.1948 H   0  0  0  0  0
   10.8846   17.0748   64.9285 H   0  0  0  0  0
   11.0015   20.0718   65.1562 H   0  0  0  0  0
    8.9708   18.0068   60.9855 H   0  0  0  0  0
   11.3796   18.3201   61.5861 H   0  0  0  0  0
   11.6237   16.5581   61.5032 H   0  0  0  0  0
   11.2191   17.4714   60.0289 H   0  0  0  0  0
    9.6905   15.0488   61.0752 H   0  0  0  0  0
    8.0499   15.7182   60.8979 H   0  0  0  0  0
    9.2594   15.9746   59.6163 H   0  0  0  0  0
    6.8709   21.9777   66.8613 H   0  0  0  0  0
    5.2071   20.1533   66.7053 H   0  0  0  0  0
    5.9844   17.7858   66.6385 H   0  0  0  0  0
    8.4099   17.3004   66.8280 H   0  0  0  0  0
    9.2819   21.4776   67.0090 H   0  0  0  0  0
   10.8093   19.8631   67.5653 H   0  0  0  0  0
   10.4734   18.0685   67.3511 H   0  0  0  0  0
   12.6701   17.8870   66.4418 H   0  0  0  0  0
   13.0257   19.6960   66.3631 H   0  0  0  0  0
   12.8720   17.9094   64.0230 H   0  0  0  0  0
   12.7586   20.1310   63.4062 H   0  0  0  0  0
   15.3894   20.7093   64.7976 H   0  0  0  0  0
   14.2908   23.6263   66.1009 H   0  0  0  0  0
   15.0362   23.8496   64.4686 H   0  0  0  0  0
   15.3068   17.8969   64.1986 H   0  0  0  0  0
   15.5424   19.0598   62.8629 H   0  0  0  0  0
   14.0156   18.7595   61.8920 H   0  0  0  0  0
   17.7027   25.6124   68.6458 H   0  0  0  0  0
   19.2859   26.4764   66.9379 H   0  0  0  0  0
   19.3743   25.3830   64.6824 H   0  0  0  0  0
   17.9209   22.2369   64.0392 H   0  0  0  0  0
   16.8728   23.5425   63.4326 H   0  0  0  0  0
   18.6433   23.6978   63.3216 H   0  0  0  0  0
   14.8540   23.9694   67.9615 H   0  0  0  0  0
   15.9719   22.7337   68.5895 H   0  0  0  0  0
   16.0179   24.3900   69.2419 H   0  0  0  0  0
    4.8384   17.8308   62.2158 H   0  0  0  0  0
    5.7429   16.3841   61.6811 H   0  0  0  0  0
  5  1  1  0  0  0
 46  1  1  0  0  0
  3  2  1  0  0  0
  2 46  1  0  0  0
  3  4  1  0  0  0
 13  3  1  0  0  0
  4  5  1  0  0  0
  4 12  2  0  0  0
  6  7  4  0  0  0
  6 11  4  0  0  0
 37  6  1  0  0  0
  7  8  4  0  0  0
  8  9  4  0  0  0
 10  9  4  0  0  0
 11 10  4  0  0  0
 14 13  1  0  0  0
 13 17  1  0  0  0
 15 14  1  0  0  0
 14 20  2  0  0  0
 16 15  1  0  0  0
 16 27  1  0  0  0
 28 16  1  0  0  0
 17 18  1  0  0  0
 17 19  1  0  0  0
 21 22  4  0  0  0
 26 21  4  0  0  0
 23 22  4  0  0  0
 24 23  4  0  0  0
 25 24  4  0  0  0
 25 26  4  0  0  0
 27 25  1  0  0  0
 29 28  1  0  0  0
 30 29  1  0  0  0
 29 36  1  0  0  0
 30 31  1  0  0  0
 30 37  1  0  0  0
 31 32  1  0  0  0
 32 33  1  0  0  0
 32 38  2  0  0  0
 33 34  1  0  0  0
 34 35  1  0  0  0
 35 39  4  0  0  0
 35 43  4  0  0  0
 39 40  4  0  0  0
 39 45  1  0  0  0
 40 41  4  0  0  0
 41 42  4  0  0  0
 42 43  4  0  0  0
 43 44  1  0  0  0
  1 47  1  0  0  0
  1 48  1  0  0  0
  2 49  1  0  0  0
  2 50  1  0  0  0
  5 51  1  0  0  0
  7 52  1  0  0  0
  8 53  1  0  0  0
  9 54  1  0  0  0
 10 55  1  0  0  0
 11 56  1  0  0  0
 13 57  1  0  0  0
 15 58  1  0  0  0
 16 59  1  0  0  0
 17 60  1  0  0  0
 18 61  1  0  0  0
 18 62  1  0  0  0
 18 63  1  0  0  0
 19 64  1  0  0  0
 19 65  1  0  0  0
 19 66  1  0  0  0
 21 67  1  0  0  0
 22 68  1  0  0  0
 23 69  1  0  0  0
 24 70  1  0  0  0
 26 71  1  0  0  0
 27 72  1  0  0  0
 27 73  1  0  0  0
 28 74  1  0  0  0
 28 75  1  0  0  0
 29 76  1  0  0  0
 30 77  1  0  0  0
 31 78  1  0  0  0
 33 79  1  0  0  0
 33 80  1  0  0  0
 36 81  1  0  0  0
 37 82  1  0  0  0
 37 83  1  0  0  0
 40 84  1  0  0  0
 41 85  1  0  0  0
 42 86  1  0  0  0
 44 87  1  0  0  0
 44 88  1  0  0  0
 44 89  1  0  0  0
 45 90  1  0  0  0
 45 91  1  0  0  0
 45 92  1  0  0  0
 46 93  1  0  0  0
 46 94  1  0  0  0
M  END
$$$$
