5xpn_ligand
  -I-interpret- 

 82 85  0  0  0  0  0  0  0  0999 V2000
    8.1640   -2.1600   32.0470 O   0  0  0  0  0
    8.3940   -1.6080   30.8140 C   0  0  0  0  0
    9.0580   -2.3190   29.8050 C   0  0  0  0  0
    9.2620   -1.7220   28.5590 C   0  0  0  0  0
    7.9430   -0.3150   30.5580 C   0  0  0  0  0
    8.1450    0.2810   29.3180 C   0  0  0  0  0
    8.8140   -0.4230   28.3230 C   0  0  0  0  0
    9.0130    0.2450   27.0180 C   0  0  0  0  0
    7.7670    0.1540   26.3430 O   0  0  0  0  0
    7.8230   -0.7350   25.2300 C   0  0  0  0  0
    9.3470    1.7330   27.1940 C   0  0  0  0  0
   10.6700    2.0230   27.9050 C   0  0  0  0  0
   11.9110    1.9280   27.0070 C   0  0  0  0  0
   13.1130    2.4950   27.7740 C   0  0  0  0  0
   13.7960    1.4670   28.6630 C   0  0  0  0  0
   14.2160    3.1890   26.9650 C   0  0  0  0  0
   13.8100    4.5110   26.3280 C   0  0  0  0  0
   12.7210    4.3260   25.2660 C   0  0  0  0  0
   13.4160    5.6610   27.2600 C   0  0  0  0  0
   13.4650    7.0120   26.5180 C   0  0  0  0  0
   14.8100    7.2610   25.8120 C   0  0  0  0  0
   14.9280    2.4270   25.8370 C   0  0  0  0  0
   15.6890    3.5290   25.0900 C   0  0  0  0  0
   15.1680    4.8160   25.7310 C   0  0  0  0  0
   15.0400    6.0620   24.9140 C   0  0  0  0  0
   15.1030    6.0760   23.5630 C   0  0  0  0  0
   14.9290    7.2970   22.7780 C   0  0  0  0  0
   14.7610    7.3510   21.4340 C   0  0  0  0  0
   14.5310    8.7230   20.8270 C   0  0  0  0  0
   15.1610    8.8530   19.4380 C   0  0  0  0  0
   16.5990    8.8390   19.4800 O   0  0  0  0  0
   14.7400    6.1140   20.5630 C   0  0  0  0  0
   15.1050    6.3340   19.0890 C   0  0  0  0  0
   14.4640    5.3190   18.3220 O   0  0  0  0  0
   14.7000    7.6920   18.5950 C   0  0  0  0  0
   13.9860    7.8560   17.4910 C   0  0  0  0  0
    7.7005   -1.5258   32.5988 H   0  0  0  0  0
    9.4133   -3.3324   29.9918 H   0  0  0  0  0
    9.7727   -2.2729   27.7692 H   0  0  0  0  0
    7.4241    0.2376   31.3412 H   0  0  0  0  0
    7.7821    1.2911   29.1277 H   0  0  0  0  0
    9.8353   -0.2247   26.4783 H   0  0  0  0  0
    8.5692   -0.3792   24.5196 H   0  0  0  0  0
    8.0955   -1.7320   25.5763 H   0  0  0  0  0
    6.8470   -0.7712   24.7461 H   0  0  0  0  0
    8.5583    2.1599   27.8135 H   0  0  0  0  0
    9.4301    2.1559   26.1928 H   0  0  0  0  0
   10.7835    1.2709   28.6857 H   0  0  0  0  0
   10.6178    3.0492   28.2687 H   0  0  0  0  0
   11.7519    2.4979   26.0916 H   0  0  0  0  0
   12.0977    0.8879   26.7398 H   0  0  0  0  0
   12.6101    3.2698   28.3527 H   0  0  0  0  0
   13.0829    1.0927   29.3975 H   0  0  0  0  0
   14.1559    0.6405   28.0502 H   0  0  0  0  0
   14.6369    1.9337   29.1761 H   0  0  0  0  0
   14.9114    3.2958   27.7975 H   0  0  0  0  0
   13.0903    3.6678   24.4796 H   0  0  0  0  0
   11.8375    3.8839   25.7266 H   0  0  0  0  0
   12.4632    5.2952   24.8391 H   0  0  0  0  0
   14.1179    5.6931   28.0933 H   0  0  0  0  0
   12.3991    5.4924   27.6143 H   0  0  0  0  0
   13.3259    7.8018   27.2562 H   0  0  0  0  0
   12.6864    7.0007   25.7553 H   0  0  0  0  0
   15.6191    7.3743   26.5335 H   0  0  0  0  0
   14.7879    8.1864   25.2364 H   0  0  0  0  0
   14.2339    1.8869   25.1931 H   0  0  0  0  0
   15.5864    1.6432   26.2115 H   0  0  0  0  0
   15.5199    3.4990   24.0136 H   0  0  0  0  0
   16.7704    3.4250   25.1785 H   0  0  0  0  0
   15.9588    5.0746   26.4352 H   0  0  0  0  0
   15.2911    5.1392   23.0384 H   0  0  0  0  0
   14.9349    8.2433   23.3188 H   0  0  0  0  0
   14.9921    9.4644   21.4795 H   0  0  0  0  0
   13.4561    8.8743   20.7276 H   0  0  0  0  0
   14.8489    9.8103   19.0206 H   0  0  0  0  0
   16.9449    8.9229   18.5884 H   0  0  0  0  0
   13.7148    5.7440   20.5759 H   0  0  0  0  0
   15.4908    5.4365   20.9698 H   0  0  0  0  0
   16.1885    6.2786   18.9837 H   0  0  0  0  0
   14.6788    5.4372   17.3938 H   0  0  0  0  0
   13.7116    8.8587   17.1633 H   0  0  0  0  0
   13.6730    6.9882   16.9104 H   0  0  0  0  0
  1  2  1  0  0  0
  2  3  4  0  0  0
  2  5  4  0  0  0
  3  4  4  0  0  0
  4  7  4  0  0  0
  5  6  4  0  0  0
  6  7  4  0  0  0
  7  8  1  0  0  0
  8  9  1  0  0  0
  8 11  1  0  0  0
  9 10  1  0  0  0
 11 12  1  0  0  0
 12 13  1  0  0  0
 13 14  1  0  0  0
 14 15  1  0  0  0
 14 16  1  0  0  0
 16 17  1  0  0  0
 16 22  1  0  0  0
 17 18  1  0  0  0
 17 19  1  0  0  0
 17 24  1  0  0  0
 19 20  1  0  0  0
 20 21  1  0  0  0
 21 25  1  0  0  0
 22 23  1  0  0  0
 23 24  1  0  0  0
 24 25  1  0  0  0
 25 26  2  0  0  0
 26 27  1  0  0  0
 27 28  2  0  0  0
 28 29  1  0  0  0
 28 32  1  0  0  0
 29 30  1  0  0  0
 30 31  1  0  0  0
 30 35  1  0  0  0
 32 33  1  0  0  0
 33 34  1  0  0  0
 33 35  1  0  0  0
 35 36  2  0  0  0
  1 37  1  0  0  0
  3 38  1  0  0  0
  4 39  1  0  0  0
  5 40  1  0  0  0
  6 41  1  0  0  0
  8 42  1  0  0  0
 10 43  1  0  0  0
 10 44  1  0  0  0
 10 45  1  0  0  0
 11 46  1  0  0  0
 11 47  1  0  0  0
 12 48  1  0  0  0
 12 49  1  0  0  0
 13 50  1  0  0  0
 13 51  1  0  0  0
 14 52  1  0  0  0
 15 53  1  0  0  0
 15 54  1  0  0  0
 15 55  1  0  0  0
 16 56  1  0  0  0
 18 57  1  0  0  0
 18 58  1  0  0  0
 18 59  1  0  0  0
 19 60  1  0  0  0
 19 61  1  0  0  0
 20 62  1  0  0  0
 20 63  1  0  0  0
 21 64  1  0  0  0
 21 65  1  0  0  0
 22 66  1  0  0  0
 22 67  1  0  0  0
 23 68  1  0  0  0
 23 69  1  0  0  0
 24 70  1  0  0  0
 26 71  1  0  0  0
 27 72  1  0  0  0
 29 73  1  0  0  0
 29 74  1  0  0  0
 30 75  1  0  0  0
 31 76  1  0  0  0
 32 77  1  0  0  0
 32 78  1  0  0  0
 33 79  1  0  0  0
 34 80  1  0  0  0
 36 81  1  0  0  0
 36 82  1  0  0  0
M  END
$$$$
