2r3h_ligand
  -I-interpret- 

 31 33  0  0  0  0  0  0  0  0999 V2000
   -0.2280   30.4830    7.8410 C   0  0  0  0  0
    0.4500   29.2650    8.0110 N   0  0  0  0  0
    1.6890   29.3660    7.2990 C   0  0  0  0  0
    1.7920   30.5860    6.6620 N   0  0  0  0  0
    0.6420   31.2990    7.0400 C   0  0  0  0  0
    0.1480   28.1080    8.7120 C   0  0  0  0  0
    1.0660   27.0600    8.6860 C   0  0  0  0  0
    2.2670   27.0760    8.0280 N   0  0  0  0  0
    2.6020   28.2010    7.3410 C   0  0  0  0  0
    3.7900   28.3030    6.6450 N   0  0  0  0  0
    4.8130   27.2760    6.7850 C   0  0  0  0  0
    4.8740   26.3270    5.6150 C   0  0  0  0  0
    4.7030   24.9460    5.8130 C   0  0  0  0  0
    4.7650   24.0920    4.6930 C   0  0  0  0  0
    4.9920   24.5330    3.4300 N   0  0  0  0  0
    5.1530   25.8610    3.2610 C   0  0  0  0  0
    5.0980   26.7910    4.3180 C   0  0  0  0  0
   -1.5460   30.7980    8.4130 C   0  0  0  0  0
    0.4372   32.3330    6.7627 H   0  0  0  0  0
   -0.7844   28.0201    9.2697 H   0  0  0  0  0
    0.8072   26.1539    9.2338 H   0  0  0  0  0
    3.9518   29.1008    6.0304 H   0  0  0  0  0
    4.5702   26.6895    7.6711 H   0  0  0  0  0
    5.7774   27.7799    6.8495 H   0  0  0  0  0
    4.5263   24.5441    6.8107 H   0  0  0  0  0
    4.6233   23.0227    4.8497 H   0  0  0  0  0
    5.3353   26.2348    2.2535 H   0  0  0  0  0
    5.2283   27.8560    4.1258 H   0  0  0  0  0
   -2.2827   30.0876    8.0378 H   0  0  0  0  0
   -1.4946   30.7303    9.4997 H   0  0  0  0  0
   -1.8340   31.8087    8.1239 H   0  0  0  0  0
  1  2  4  0  0  0
  1  5  4  0  0  0
  1 18  1  0  0  0
  2  3  4  0  0  0
  2  6  4  0  0  0
  3  4  4  0  0  0
  3  9  4  0  0  0
  4  5  4  0  0  0
  6  7  4  0  0  0
  7  8  4  0  0  0
  8  9  4  0  0  0
  9 10  1  0  0  0
 10 11  1  0  0  0
 11 12  1  0  0  0
 12 13  4  0  0  0
 12 17  4  0  0  0
 13 14  4  0  0  0
 14 15  4  0  0  0
 15 16  4  0  0  0
 16 17  4  0  0  0
  5 19  1  0  0  0
  6 20  1  0  0  0
  7 21  1  0  0  0
 10 22  1  0  0  0
 11 23  1  0  0  0
 11 24  1  0  0  0
 13 25  1  0  0  0
 14 26  1  0  0  0
 16 27  1  0  0  0
 17 28  1  0  0  0
 18 29  1  0  0  0
 18 30  1  0  0  0
 18 31  1  0  0  0
M  END
$$$$
