### 
### Created by X-TOOL on Mon Sep 10 21:12:48 2018
### 

@<TRIPOS>MOLECULE
1joc_ligand
   30    30     1     0     0
SMALL
GAST_HUCK


@<TRIPOS>ATOM
      1 C1         30.0040   17.1000   10.6390 C.3       1 ITP         0.1459
      2 O1         28.9960   17.9910   11.1490 O.3       1 ITP        -0.2676
      3 C2         29.6480   15.6800   11.0510 C.3       1 ITP         0.1212
      4 O2         29.4800   15.6300   12.4800 O.3       1 ITP        -0.3858
      5 C3         30.7310   14.6940   10.6330 C.3       1 ITP         0.1459
      6 O3         30.3660   13.3990   11.0850 O.3       1 ITP        -0.2676
      7 C4         32.0830   15.0690   11.2280 C.3       1 ITP         0.1165
      8 O4         33.0840   14.1700   10.7450 O.3       1 ITP        -0.3861
      9 C5         32.4770   16.4900   10.8640 C.3       1 ITP         0.1125
     10 O5         33.6630   16.8180   11.5840 O.3       1 ITP        -0.3865
     11 C6         31.3720   17.5060   11.2020 C.3       1 ITP         0.1165
     12 O6         31.7240   18.7920   10.6780 O.3       1 ITP        -0.3861
     13 P1         27.7340   18.5010   10.2700 P.3       1 ITP         0.2013
     14 OP1        27.5730   19.9320   10.5990 O.co2     1 ITP        -0.5537
     15 OP2        26.5740   17.6920   10.6930 O.co2     1 ITP        -0.5537
     16 OP3        28.0880   18.2730    8.8360 O.co2     1 ITP        -0.5537
     17 P3         30.4040   12.1450   10.1020 P.3       1 ITP         0.2013
     18 O10        29.8750   11.0020   10.8720 O.co2     1 ITP        -0.5537
     19 O11        29.5600   12.4850    8.9370 O.co2     1 ITP        -0.5537
     20 O12        31.8330   11.9720    9.7440 O.co2     1 ITP        -0.5537
     21 H1         30.0322   17.1639    9.5412 H         1 ITP         0.0703
     22 H2         28.7031   15.3954   10.5651 H         1 ITP         0.0654
     23 H3         28.7822   16.2215   12.7366 H         1 ITP         0.2100
     24 H4         30.8111   14.6915    9.5359 H         1 ITP         0.0703
     25 H5         32.0214   14.9875   12.3232 H         1 ITP         0.0650
     26 H6         33.9257   14.4056   11.1171 H         1 ITP         0.2100
     27 H7         32.6793   16.5380    9.7838 H         1 ITP         0.0647
     28 H8         34.3554   16.2137   11.3436 H         1 ITP         0.2100
     29 H9         31.2906   17.5751   12.2968 H         1 ITP         0.0650
     30 H10        32.5439   19.0766   11.0644 H         1 ITP         0.2100
@<TRIPOS>BOND
     1    1    2 1  
     2    1    3 1  
     3    1   11 1  
     4    2   13 1  
     5    3    4 1  
     6    3    5 1  
     7    5    6 1  
     8    5    7 1  
     9    6   17 1  
    10    7    8 1  
    11    7    9 1  
    12    9   10 1  
    13    9   11 1  
    14   11   12 1  
    15   13   14 ar 
    16   13   15 ar 
    17   13   16 ar 
    18   17   18 ar 
    19   17   19 ar 
    20   17   20 ar 
    21    1   21 1  
    22    3   22 1  
    23    4   23 1  
    24    5   24 1  
    25    7   25 1  
    26    8   26 1  
    27    9   27 1  
    28   10   28 1  
    29   11   29 1  
    30   12   30 1  
@<TRIPOS>SUBSTRUCTURE
     1 ITP         1

