1joc_ligand
  -I-interpret- 

 34 34  0  0  0  0  0  0  0  0999 V2000
   30.0040   17.1000   10.6390 C   0  0  0  0  0
   28.9960   17.9910   11.1490 O   0  0  0  0  0
   29.6480   15.6800   11.0510 C   0  0  0  0  0
   29.4800   15.6300   12.4800 O   0  0  0  0  0
   30.7310   14.6940   10.6330 C   0  0  0  0  0
   30.3660   13.3990   11.0850 O   0  0  0  0  0
   32.0830   15.0690   11.2280 C   0  0  0  0  0
   33.0840   14.1700   10.7450 O   0  0  0  0  0
   32.4770   16.4900   10.8640 C   0  0  0  0  0
   33.6630   16.8180   11.5840 O   0  0  0  0  0
   31.3720   17.5060   11.2020 C   0  0  0  0  0
   31.7240   18.7920   10.6780 O   0  0  0  0  0
   27.7340   18.5010   10.2700 P   0  0  0  0  0
   27.5730   19.9320   10.5990 O   0  0  0  0  0
   26.5740   17.6920   10.6930 O   0  0  0  0  0
   28.0880   18.2730    8.8360 O   0  0  0  0  0
   30.4040   12.1450   10.1020 P   0  0  0  0  0
   29.8750   11.0020   10.8720 O   0  0  0  0  0
   29.5600   12.4850    8.9370 O   0  0  0  0  0
   31.8330   11.9720    9.7440 O   0  0  0  0  0
   30.0510   17.1545    9.5514 H   0  0  0  0  0
   28.7214   15.3986   10.5508 H   0  0  0  0  0
   28.7973   16.2517   12.7428 H   0  0  0  0  0
   30.8205   14.7149    9.5469 H   0  0  0  0  0
   32.0017   15.0011   12.3128 H   0  0  0  0  0
   32.8404   13.2696   10.9722 H   0  0  0  0  0
   32.6396   16.5405    9.7874 H   0  0  0  0  0
   33.9297   17.7145   11.3677 H   0  0  0  0  0
   31.2898   17.5371   12.2884 H   0  0  0  0  0
   31.0326   19.4231   10.8907 H   0  0  0  0  0
   28.3487   20.4158   10.3061 H   0  0  0  0  0
   28.8445   18.8166    8.6040 H   0  0  0  0  0
   29.9448   13.2311    8.4713 H   0  0  0  0  0
   32.1318   12.7365    9.2462 H   0  0  0  0  0
  1  2  1  0  0  0
  1  3  1  0  0  0
  1 11  1  0  0  0
  2 13  1  0  0  0
  3  4  1  0  0  0
  3  5  1  0  0  0
  5  6  1  0  0  0
  5  7  1  0  0  0
  6 17  1  0  0  0
  7  8  1  0  0  0
  7  9  1  0  0  0
  9 10  1  0  0  0
  9 11  1  0  0  0
 11 12  1  0  0  0
 13 14  1  0  0  0
 13 15  2  0  0  0
 13 16  1  0  0  0
 17 18  2  0  0  0
 17 19  1  0  0  0
 17 20  1  0  0  0
  1 21  1  0  0  0
  3 22  1  0  0  0
  4 23  1  0  0  0
  5 24  1  0  0  0
  7 25  1  0  0  0
  8 26  1  0  0  0
  9 27  1  0  0  0
 10 28  1  0  0  0
 11 29  1  0  0  0
 12 30  1  0  0  0
 14 31  1  0  0  0
 16 32  1  0  0  0
 19 33  1  0  0  0
 20 34  1  0  0  0
M  END
$$$$
