5w5o_ligand
  -I-interpret- 

 65 68  0  0  0  0  0  0  0  0999 V2000
    1.9150   15.1330   93.4610 C   0  0  0  0  0
    0.8090   14.2390   93.0800 C   0  0  0  0  0
   -1.4710   12.6140   92.4370 C   0  0  0  0  0
   -2.7200   12.5340   91.5190 C   0  0  0  0  0
    3.1950   18.2200   94.8570 C   0  0  0  0  0
   -4.7050   13.4110   93.0210 C   0  0  0  0  0
   -5.8020   14.1820   92.2290 C   0  0  0  0  0
   -6.1580   12.1070   90.8440 C   0  0  0  0  0
   -4.9750   11.3830   91.5570 C   0  0  0  0  0
    2.4720   18.6790   95.9710 C   0  0  0  0  0
    2.8350   19.8840   96.5920 C   0  0  0  0  0
    4.6410   20.1690   95.0370 C   0  0  0  0  0
    4.2920   18.9650   94.4050 C   0  0  0  0  0
   -8.0640   13.7040   91.2490 C   0  0  0  0  0
    1.7180   16.3040   93.9960 N   0  0  0  0  0
   -0.4430   14.6900   93.2930 C   0  0  0  0  0
   -0.5970   16.0810   93.8640 C   0  0  0  0  0
    0.5120   16.7960   94.1690 C   0  0  0  0  0
    2.8930   16.8830   94.2150 C   0  0  0  0  0
    3.8880   16.0260   93.8840 C   0  0  0  0  0
    3.1410   14.9160   93.3590 N   0  0  0  0  0
   -1.5290   13.9500   92.9830 O   0  0  0  0  0
   -4.0340   12.3280   92.2200 N   0  0  0  0  0
   -6.7600   13.1640   91.7110 N   0  0  0  0  0
    3.9080   20.5820   96.1220 N   0  0  0  0  0
    6.0090   21.1040   94.3950 Cl  0  0  0  0  0
    2.1340   20.3480   97.6560 N   0  0  0  0  0
   -2.1460   16.8990   94.1010 S   0  0  0  0  0
   -1.8960   18.3390   94.0810 O   0  0  0  0  0
   -3.1020   16.4090   93.1000 O   0  0  0  0  0
   -2.7570   16.4540   95.7640 C   0  0  0  0  0
   -1.8740   17.0220   96.9080 C   0  0  0  0  0
   -4.1620   17.0980   95.8640 C   0  0  0  0  0
   -2.8960   14.9250   95.9360 C   0  0  0  0  0
    0.9944   13.2568   92.6453 H   0  0  0  0  0
   -0.5445   12.4277   91.8939 H   0  0  0  0  0
   -1.4766   11.8483   93.2127 H   0  0  0  0  0
   -2.5745   11.6662   90.8757 H   0  0  0  0  0
   -2.7899   13.4950   91.0094 H   0  0  0  0  0
   -5.1903   12.9348   93.8730 H   0  0  0  0  0
   -3.9379   14.1319   93.3036 H   0  0  0  0  0
   -5.3602   14.7489   91.4095 H   0  0  0  0  0
   -6.3112   14.8991   92.8729 H   0  0  0  0  0
   -6.9271   11.3685   90.6177 H   0  0  0  0  0
   -5.7765   12.5803   89.9393 H   0  0  0  0  0
   -4.4164   10.8323   90.8002 H   0  0  0  0  0
   -5.3955   10.7361   92.3269 H   0  0  0  0  0
    1.6307   18.1002   96.3521 H   0  0  0  0  0
    4.8777   18.6079   93.5580 H   0  0  0  0  0
   -8.5616   14.2074   92.0779 H   0  0  0  0  0
   -7.8954   14.4142   90.4395 H   0  0  0  0  0
   -8.6887   12.8854   90.8917 H   0  0  0  0  0
    0.4014   17.8044   94.5678 H   0  0  0  0  0
    4.9664   16.1459   93.9879 H   0  0  0  0  0
    1.3364   19.8203   98.0106 H   0  0  0  0  0
    2.4043   21.2247   98.1017 H   0  0  0  0  0
   -0.8611   16.6312   96.8116 H   0  0  0  0  0
   -1.8528   18.1098   96.8429 H   0  0  0  0  0
   -2.2905   16.7223   97.8697 H   0  0  0  0  0
   -4.0747   18.1778   95.7437 H   0  0  0  0  0
   -4.8020   16.6943   95.0795 H   0  0  0  0  0
   -4.5946   16.8736   96.8390 H   0  0  0  0  0
   -3.6003   14.5402   95.1984 H   0  0  0  0  0
   -1.9234   14.4545   95.7916 H   0  0  0  0  0
   -3.2620   14.7053   96.9389 H   0  0  0  0  0
  2  1  4  0  0  0
  1 15  4  0  0  0
  1 21  4  0  0  0
 16  2  4  0  0  0
  3  4  1  0  0  0
 22  3  1  0  0  0
  4 23  1  0  0  0
  5 10  4  0  0  0
  5 13  4  0  0  0
 19  5  1  0  0  0
  6  7  1  0  0  0
 23  6  1  0  0  0
  7 24  1  0  0  0
  9  8  1  0  0  0
  8 24  1  0  0  0
 23  9  1  0  0  0
 10 11  4  0  0  0
 11 25  4  0  0  0
 11 27  1  0  0  0
 13 12  4  0  0  0
 12 25  4  0  0  0
 12 26  1  0  0  0
 24 14  1  0  0  0
 15 18  4  0  0  0
 15 19  4  0  0  0
 16 17  4  0  0  0
 16 22  1  0  0  0
 17 18  4  0  0  0
 17 28  1  0  0  0
 19 20  4  0  0  0
 20 21  4  0  0  0
 28 29  2  0  0  0
 28 30  2  0  0  0
 28 31  1  0  0  0
 31 32  1  0  0  0
 31 33  1  0  0  0
 31 34  1  0  0  0
  2 35  1  0  0  0
  3 36  1  0  0  0
  3 37  1  0  0  0
  4 38  1  0  0  0
  4 39  1  0  0  0
  6 40  1  0  0  0
  6 41  1  0  0  0
  7 42  1  0  0  0
  7 43  1  0  0  0
  8 44  1  0  0  0
  8 45  1  0  0  0
  9 46  1  0  0  0
  9 47  1  0  0  0
 10 48  1  0  0  0
 13 49  1  0  0  0
 14 50  1  0  0  0
 14 51  1  0  0  0
 14 52  1  0  0  0
 18 53  1  0  0  0
 20 54  1  0  0  0
 27 55  1  0  0  0
 27 56  1  0  0  0
 32 57  1  0  0  0
 32 58  1  0  0  0
 32 59  1  0  0  0
 33 60  1  0  0  0
 33 61  1  0  0  0
 33 62  1  0  0  0
 34 63  1  0  0  0
 34 64  1  0  0  0
 34 65  1  0  0  0
M  END
$$$$
