3dab_ligand
  -I-interpret- 

204207  0  0  0  0  0  0  0  0999 V2000
  -11.2660  -18.3480   11.4280 N   0  3  0  0  0
  -10.4630  -19.0260   10.3600 C   0  0  0  0  0
  -10.3070  -20.5700   10.2610 C   0  0  0  0  0
  -10.8440  -21.2840   11.1090 O   0  0  0  0  0
   -9.5600  -18.0800    9.5200 C   0  0  0  0  0
   -8.2320  -17.5250   10.1390 C   0  0  0  0  0
   -8.3810  -16.7390   11.4580 C   0  0  0  0  0
   -7.4670  -15.9420   11.7740 O   0  0  0  0  0
   -9.3790  -16.9080   12.1860 O   0  0  0  0  0
   -9.6210  -21.0760    9.2340 N   0  0  0  0  0
   -9.4420  -22.5230    9.0160 C   0  0  0  0  0
   -8.0280  -22.9620    9.3970 C   0  0  0  0  0
   -7.0550  -22.3540    8.9580 O   0  0  0  0  0
   -9.6600  -22.8940    7.5350 C   0  0  0  0  0
  -10.9910  -22.5270    7.1340 O   0  0  0  0  0
   -9.4570  -24.3860    7.3040 C   0  0  0  0  0
   -7.9070  -24.0170   10.2000 N   0  0  0  0  0
   -6.5840  -24.4570   10.6530 C   0  0  0  0  0
   -5.5710  -24.5590    9.5100 C   0  0  0  0  0
   -4.4820  -23.9990    9.5980 O   0  0  0  0  0
   -6.6250  -25.8030   11.3860 C   0  0  0  0  0
   -5.2560  -26.3330   11.6980 C   0  0  0  0  0
   -4.5320  -25.8300   12.7660 C   0  0  0  0  0
   -4.6530  -27.2780   10.8720 C   0  0  0  0  0
   -3.2480  -26.2920   13.0320 C   0  0  0  0  0
   -3.3680  -27.7340   11.1380 C   0  0  0  0  0
   -2.6750  -27.2420   12.2190 C   0  0  0  0  0
   -5.9270  -25.2840    8.4530 N   0  0  0  0  0
   -5.0010  -25.5240    7.3470 C   0  0  0  0  0
   -4.5860  -24.2240    6.6860 C   0  0  0  0  0
   -3.4180  -24.0500    6.3500 O   0  0  0  0  0
   -5.5960  -26.4780    6.3150 C   0  0  0  0  0
   -6.8140  -25.9660    5.8180 O   0  0  0  0  0
   -5.5320  -23.2990    6.5360 N   0  0  0  0  0
   -5.2260  -21.9810    5.9880 C   0  0  0  0  0
   -4.2540  -21.1840    6.8550 C   0  0  0  0  0
   -3.3640  -20.5430    6.3200 O   0  0  0  0  0
   -6.5070  -21.1780    5.7520 C   0  0  0  0  0
   -7.2910  -21.6800    4.5590 C   0  0  0  0  0
   -6.6940  -21.8360    3.4740 O   0  0  0  0  0
   -8.5060  -21.9150    4.7050 O   0  0  0  0  0
   -4.4100  -21.2320    8.1770 N   0  0  0  0  0
   -3.4570  -20.5790    9.0880 C   0  0  0  0  0
   -2.0890  -21.2720    9.0410 C   0  0  0  0  0
   -1.0310  -20.6220    9.0100 O   0  0  0  0  0
   -3.9880  -20.5660   10.5320 C   0  0  0  0  0
   -5.1260  -19.5760   10.8520 C   0  0  0  0  0
   -5.7050  -19.8250   12.2390 C   0  0  0  0  0
   -4.6870  -18.1190   10.7270 C   0  0  0  0  0
   -2.1200  -22.5980    9.0410 N   0  0  0  0  0
   -0.8920  -23.3840    9.0690 C   0  0  0  0  0
   -0.0330  -23.1290    7.8310 C   0  0  0  0  0
    1.1880  -22.9850    7.9250 O   0  0  0  0  0
   -1.2160  -24.8750    9.2090 C   0  0  0  0  0
    0.0050  -25.6690    9.4950 C   0  0  0  0  0
    0.7810  -26.3350    8.5920 C   0  0  0  0  0
    0.6230  -25.8480   10.7700 C   0  0  0  0  0
    1.8370  -26.9270    9.2280 N   0  0  0  0  0
    1.7630  -26.6600   10.5680 C   0  0  0  0  0
    0.3090  -25.4290   12.0690 C   0  0  0  0  0
    2.6040  -27.0440   11.6140 C   0  0  0  0  0
    1.1400  -25.8200   13.1120 C   0  0  0  0  0
    2.2790  -26.6140   12.8730 C   0  0  0  0  0
   -0.6840  -23.0320    6.6780 N   0  0  0  0  0
    0.0070  -22.7760    5.4120 C   0  0  0  0  0
    0.7710  -21.4540    5.3780 C   0  0  0  0  0
    1.7750  -21.3340    4.6610 O   0  0  0  0  0
   -0.9890  -22.8560    4.2570 C   0  0  0  0  0
   -1.4030  -24.2880    3.9380 C   0  0  0  0  0
   -2.5900  -24.3530    2.9830 C   0  0  0  0  0
    0.3260  -20.4860    6.1790 N   0  0  0  0  0
    0.9720  -19.1780    6.2780 C   0  0  0  0  0
    2.2920  -19.1970    7.0650 C   0  0  0  0  0
    3.0650  -18.2450    6.9770 O   0  0  0  0  0
    0.0160  -18.1690    6.9320 C   0  0  0  0  0
   -1.3120  -17.8990    6.2170 C   0  0  0  0  0
   -2.3110  -17.1820    7.1410 C   0  0  0  0  0
   -1.0810  -17.1010    4.9450 C   0  0  0  0  0
    2.5500  -20.2620    7.8310 N   0  0  0  0  0
    3.7740  -20.3530    8.6440 C   0  0  0  0  0
    5.0650  -20.4020    7.8070 C   0  0  0  0  0
    5.1870  -21.2080    6.8800 O   0  0  0  0  0
    3.7340  -21.5750    9.5820 C   0  0  0  0  0
    2.7310  -21.5610   10.7360 C   0  0  0  0  0
    2.8110  -22.8680   11.5090 C   0  0  0  0  0
    2.9440  -20.3830   11.6710 C   0  0  0  0  0
    6.0430  -19.5460    8.1450 N   0  0  0  0  0
    7.3280  -19.6180    7.4660 C   0  0  0  0  0
    8.1650  -20.8300    7.8930 C   0  0  0  0  0
    7.8490  -21.4900    8.8970 O   0  0  0  0  0
    8.0100  -18.3220    7.9020 C   0  0  0  0  0
    7.4430  -18.0440    9.2430 C   0  0  0  0  0
    6.0130  -18.4660    9.1510 C   0  0  0  0  0
    9.2100  -21.1200    7.1200 N   0  0  0  0  0
   10.2340  -22.0790    7.5330 C   0  0  0  0  0
   11.1830  -21.3850    8.5000 C   0  0  0  0  0
   11.4980  -21.9190    9.5620 O   0  0  0  0  0
   11.0200  -22.6120    6.3310 C   0  0  0  0  0
   10.2600  -23.6190    5.4910 C   0  0  0  0  0
   11.0640  -24.1260    4.3050 C   0  0  0  0  0
   10.4590  -24.3550    3.2410 O   0  0  0  0  0
   12.2950  -24.3000    4.4260 O   0  0  0  0  0
   11.6766  -20.1887    8.1931 O   0  0  0  0  0
  -11.2248  -17.3378   11.2930 H   0  0  0  0  0
  -12.2354  -18.6604   11.3728 H   0  0  0  0  0
  -10.8825  -18.5859   12.3427 H   0  0  0  0  0
  -11.2802  -19.4094    9.7490 H   0  0  0  0  0
  -10.1735  -17.1960    9.3463 H   0  0  0  0  0
   -9.2371  -18.6867    8.6740 H   0  0  0  0  0
   -7.8217  -16.8264    9.4098 H   0  0  0  0  0
   -7.6131  -18.3929   10.3668 H   0  0  0  0  0
   -6.7892  -15.9484   11.0942 H   0  0  0  0  0
   -9.1997  -20.4295    8.5669 H   0  0  0  0  0
  -10.1780  -23.0275    9.6420 H   0  0  0  0  0
   -8.9273  -22.3499    6.9390 H   0  0  0  0  0
  -11.1218  -22.7598    6.2119 H   0  0  0  0  0
   -8.4405  -24.6610    7.5856 H   0  0  0  0  0
  -10.1678  -24.9464    7.9113 H   0  0  0  0  0
   -9.6179  -24.6144    6.2504 H   0  0  0  0  0
   -8.7400  -24.5223   10.5019 H   0  0  0  0  0
   -6.2622  -23.6815   11.3481 H   0  0  0  0  0
   -7.1233  -26.5231   10.7369 H   0  0  0  0  0
   -7.1502  -25.6549   12.3296 H   0  0  0  0  0
   -4.9731  -25.0644   13.4043 H   0  0  0  0  0
   -5.1945  -27.6637   10.0082 H   0  0  0  0  0
   -2.6948  -25.9009   13.8858 H   0  0  0  0  0
   -2.9094  -28.4812   10.4903 H   0  0  0  0  0
   -1.6697  -27.6055   12.4320 H   0  0  0  0  0
   -6.8658  -25.6809    8.4132 H   0  0  0  0  0
   -4.1125  -25.9939    7.7688 H   0  0  0  0  0
   -5.7823  -27.4422    6.7880 H   0  0  0  0  0
   -4.8941  -26.5905    5.4887 H   0  0  0  0  0
   -7.1759  -26.5759    5.1709 H   0  0  0  0  0
   -6.4904  -23.5158    6.8097 H   0  0  0  0  0
   -4.7296  -22.1551    5.0333 H   0  0  0  0  0
   -6.2254  -20.1428    5.5591 H   0  0  0  0  0
   -7.1364  -21.2796    6.6361 H   0  0  0  0  0
   -5.7700  -21.5987    3.5815 H   0  0  0  0  0
   -5.2085  -21.7330    8.5667 H   0  0  0  0  0
   -3.3394  -19.5486    8.7527 H   0  0  0  0  0
   -3.1466  -20.2630   11.1552 H   0  0  0  0  0
   -4.4011  -21.5596   10.7056 H   0  0  0  0  0
   -5.9009  -19.7546   10.1065 H   0  0  0  0  0
   -6.1030  -20.8385   12.2886 H   0  0  0  0  0
   -4.9203  -19.7045   12.9859 H   0  0  0  0  0
   -6.5045  -19.1095   12.4314 H   0  0  0  0  0
   -3.8691  -17.9265   11.4213 H   0  0  0  0  0
   -4.3523  -17.9279    9.7074 H   0  0  0  0  0
   -5.5273  -17.4661   10.9633 H   0  0  0  0  0
   -3.0202  -23.0772    9.0210 H   0  0  0  0  0
   -0.3135  -23.0694    9.9376 H   0  0  0  0  0
   -1.6456  -25.2258    8.2707 H   0  0  0  0  0
   -1.9136  -25.0018   10.0369 H   0  0  0  0  0
    0.5876  -26.3876    7.5206 H   0  0  0  0  0
   -0.5680  -24.8098   12.2578 H   0  0  0  0  0
    3.4843  -27.6615   11.4358 H   0  0  0  0  0
    0.9071  -25.5078   14.1300 H   0  0  0  0  0
    2.9176  -26.8931   13.7111 H   0  0  0  0  0
   -1.6983  -23.1392    6.6736 H   0  0  0  0  0
    0.7652  -23.5522    5.3078 H   0  0  0  0  0
   -0.5092  -22.4403    3.3710 H   0  0  0  0  0
   -1.8836  -22.3049    4.5468 H   0  0  0  0  0
   -1.6951  -24.7697    4.8712 H   0  0  0  0  0
   -0.5585  -24.7838    3.4594 H   0  0  0  0  0
   -3.4447  -23.8479    3.4329 H   0  0  0  0  0
   -2.3280  -23.8618    2.0459 H   0  0  0  0  0
   -2.8427  -25.3956    2.7900 H   0  0  0  0  0
   -0.5014  -20.6656    6.7478 H   0  0  0  0  0
    1.2130  -18.8844    5.2563 H   0  0  0  0  0
    0.5481  -17.2177    6.9378 H   0  0  0  0  0
   -0.2497  -18.5964    7.8989 H   0  0  0  0  0
   -1.7476  -18.8606    5.9456 H   0  0  0  0  0
   -2.5077  -17.8043    8.0140 H   0  0  0  0  0
   -1.8892  -16.2290    7.4602 H   0  0  0  0  0
   -3.2416  -17.0064    6.6013 H   0  0  0  0  0
   -0.6135  -16.1486    5.1950 H   0  0  0  0  0
   -0.4279  -17.6638    4.2781 H   0  0  0  0  0
   -2.0364  -16.9201    4.4526 H   0  0  0  0  0
    1.8811  -21.0318    7.8527 H   0  0  0  0  0
    3.7965  -19.4345    9.2305 H   0  0  0  0  0
    4.7164  -21.6105   10.0529 H   0  0  0  0  0
    3.4383  -22.4138    8.9519 H   0  0  0  0  0
    1.7365  -21.4518   10.3034 H   0  0  0  0  0
    2.5797  -23.6981   10.8415 H   0  0  0  0  0
    3.8175  -22.9912   11.9088 H   0  0  0  0  0
    2.0929  -22.8483   12.3288 H   0  0  0  0  0
    3.9468  -20.4342   12.0952 H   0  0  0  0  0
    2.8310  -19.4532   11.1135 H   0  0  0  0  0
    2.2066  -20.4193   12.4729 H   0  0  0  0  0
    7.2139  -19.7303    6.3878 H   0  0  0  0  0
    7.8279  -17.5065    7.2020 H   0  0  0  0  0
    9.0955  -18.4174    7.9268 H   0  0  0  0  0
    7.9745  -18.5836   10.0269 H   0  0  0  0  0
    7.5380  -16.9921    9.5124 H   0  0  0  0  0
    5.6097  -18.7950   10.1087 H   0  0  0  0  0
    5.3508  -17.6475    8.8690 H   0  0  0  0  0
    9.2987  -20.6601    6.2139 H   0  0  0  0  0
    9.7486  -22.9286    8.0134 H   0  0  0  0  0
   11.9022  -23.1189    6.7220 H   0  0  0  0  0
   11.2436  -21.7601    5.6888 H   0  0  0  0  0
    9.3696  -23.1245    5.1028 H   0  0  0  0  0
   10.0273  -24.4741    6.1256 H   0  0  0  0  0
   12.5638  -24.0671    5.3177 H   0  0  0  0  0
   11.3367  -19.9131    7.3386 H   0  0  0  0  0
  2  1  1  0  0  0
  2  5  1  0  0  0
  3  2  1  0  0  0
  3  4  2  0  0  0
  5  6  1  0  0  0
  6  7  1  0  0  0
  7  9  2  0  0  0
  7  8  1  0  0  0
 11 10  1  0  0  0
 11 14  1  0  0  0
 12 11  1  0  0  0
 12 13  2  0  0  0
 14 16  1  0  0  0
 14 15  1  0  0  0
 10  3  1  0  0  0
 18 17  1  0  0  0
 18 21  1  0  0  0
 19 18  1  0  0  0
 19 20  2  0  0  0
 21 22  1  0  0  0
 22 23  4  0  0  0
 22 24  4  0  0  0
 24 26  4  0  0  0
 26 27  4  0  0  0
 25 27  4  0  0  0
 23 25  4  0  0  0
 17 12  1  0  0  0
 29 28  1  0  0  0
 29 32  1  0  0  0
 30 29  1  0  0  0
 30 31  2  0  0  0
 32 33  1  0  0  0
 28 19  1  0  0  0
 35 34  1  0  0  0
 35 38  1  0  0  0
 36 35  1  0  0  0
 36 37  2  0  0  0
 38 39  1  0  0  0
 39 40  1  0  0  0
 39 41  2  0  0  0
 34 30  1  0  0  0
 43 42  1  0  0  0
 43 46  1  0  0  0
 44 43  1  0  0  0
 44 45  2  0  0  0
 46 47  1  0  0  0
 47 48  1  0  0  0
 47 49  1  0  0  0
 42 36  1  0  0  0
 51 50  1  0  0  0
 51 54  1  0  0  0
 52 51  1  0  0  0
 52 53  2  0  0  0
 54 55  1  0  0  0
 55 56  4  0  0  0
 55 57  4  0  0  0
 57 60  4  0  0  0
 57 59  4  0  0  0
 59 61  4  0  0  0
 59 58  4  0  0  0
 56 58  4  0  0  0
 61 63  4  0  0  0
 62 63  4  0  0  0
 60 62  4  0  0  0
 50 44  1  0  0  0
 65 64  1  0  0  0
 65 68  1  0  0  0
 66 65  1  0  0  0
 66 67  2  0  0  0
 68 69  1  0  0  0
 69 70  1  0  0  0
 64 52  1  0  0  0
 72 71  1  0  0  0
 72 75  1  0  0  0
 73 72  1  0  0  0
 73 74  2  0  0  0
 75 76  1  0  0  0
 76 77  1  0  0  0
 76 78  1  0  0  0
 71 66  1  0  0  0
 80 79  1  0  0  0
 80 83  1  0  0  0
 81 80  1  0  0  0
 81 82  2  0  0  0
 83 84  1  0  0  0
 84 85  1  0  0  0
 84 86  1  0  0  0
 79 73  1  0  0  0
 89 88  1  0  0  0
 88 91  1  0  0  0
 88 87  1  0  0  0
 87 93  1  0  0  0
 93 92  1  0  0  0
 91 92  1  0  0  0
 89 90  2  0  0  0
 87 81  1  0  0  0
 94 95  1  0  0  0
 95 98  1  0  0  0
 95 96  1  0  0  0
 96 97  2  0  0  0
 98 99  1  0  0  0
 99100  1  0  0  0
100102  1  0  0  0
100101  2  0  0  0
 89 94  1  0  0  0
 96103  1  0  0  0
  1104  1  0  0  0
  1105  1  0  0  0
  1106  1  0  0  0
  2107  1  0  0  0
  5108  1  0  0  0
  5109  1  0  0  0
  6110  1  0  0  0
  6111  1  0  0  0
  8112  1  0  0  0
 10113  1  0  0  0
 11114  1  0  0  0
 14115  1  0  0  0
 15116  1  0  0  0
 16117  1  0  0  0
 16118  1  0  0  0
 16119  1  0  0  0
 17120  1  0  0  0
 18121  1  0  0  0
 21122  1  0  0  0
 21123  1  0  0  0
 23124  1  0  0  0
 24125  1  0  0  0
 25126  1  0  0  0
 26127  1  0  0  0
 27128  1  0  0  0
 28129  1  0  0  0
 29130  1  0  0  0
 32131  1  0  0  0
 32132  1  0  0  0
 33133  1  0  0  0
 34134  1  0  0  0
 35135  1  0  0  0
 38136  1  0  0  0
 38137  1  0  0  0
 40138  1  0  0  0
 42139  1  0  0  0
 43140  1  0  0  0
 46141  1  0  0  0
 46142  1  0  0  0
 47143  1  0  0  0
 48144  1  0  0  0
 48145  1  0  0  0
 48146  1  0  0  0
 49147  1  0  0  0
 49148  1  0  0  0
 49149  1  0  0  0
 50150  1  0  0  0
 51151  1  0  0  0
 54152  1  0  0  0
 54153  1  0  0  0
 56154  1  0  0  0
 60155  1  0  0  0
 61156  1  0  0  0
 62157  1  0  0  0
 63158  1  0  0  0
 64159  1  0  0  0
 65160  1  0  0  0
 68161  1  0  0  0
 68162  1  0  0  0
 69163  1  0  0  0
 69164  1  0  0  0
 70165  1  0  0  0
 70166  1  0  0  0
 70167  1  0  0  0
 71168  1  0  0  0
 72169  1  0  0  0
 75170  1  0  0  0
 75171  1  0  0  0
 76172  1  0  0  0
 77173  1  0  0  0
 77174  1  0  0  0
 77175  1  0  0  0
 78176  1  0  0  0
 78177  1  0  0  0
 78178  1  0  0  0
 79179  1  0  0  0
 80180  1  0  0  0
 83181  1  0  0  0
 83182  1  0  0  0
 84183  1  0  0  0
 85184  1  0  0  0
 85185  1  0  0  0
 85186  1  0  0  0
 86187  1  0  0  0
 86188  1  0  0  0
 86189  1  0  0  0
 88190  1  0  0  0
 91191  1  0  0  0
 91192  1  0  0  0
 92193  1  0  0  0
 92194  1  0  0  0
 93195  1  0  0  0
 93196  1  0  0  0
 94197  1  0  0  0
 95198  1  0  0  0
 98199  1  0  0  0
 98200  1  0  0  0
 99201  1  0  0  0
 99202  1  0  0  0
102203  1  0  0  0
103204  1  0  0  0
M  END
$$$$
