### 
### Created by X-TOOL on Mon Sep 10 21:12:58 2018
### 

@<TRIPOS>MOLECULE
3dab_ligand
  202   205     1     0     0
SMALL
GAST_HUCK


@<TRIPOS>ATOM
      1 N         -11.2660  -18.3480   11.4280 N.4       1 GLU         0.2380
      2 CA        -10.4630  -19.0260   10.3600 C.3       1 GLU         0.0665
      3 C         -10.3070  -20.5700   10.2610 C.2       1 GLU         0.2269
      4 O         -10.8440  -21.2840   11.1090 O.2       1 GLU        -0.3907
      5 CB         -9.5600  -18.0800    9.5200 C.3       1 GLU         0.0194
      6 CG         -8.2320  -17.5250   10.1390 C.3       1 GLU         0.0075
      7 CD         -8.3810  -16.7390   11.4580 C.2       1 GLU         0.0351
      8 OE1        -7.4670  -15.9420   11.7740 O.co2     1 GLU        -0.5690
      9 OE2        -9.3790  -16.9080   12.1860 O.co2     1 GLU        -0.5690
     10 N          -9.6210  -21.0760    9.2340 N.am      1 THR        -0.2586
     11 CA         -9.4420  -22.5230    9.0160 C.3       1 THR         0.1566
     12 C          -8.0280  -22.9620    9.3970 C.2       1 THR         0.2066
     13 O          -7.0550  -22.3540    8.9580 O.2       1 THR        -0.3943
     14 CB         -9.6600  -22.8940    7.5350 C.3       1 THR         0.0924
     15 OG1       -10.9910  -22.5270    7.1340 O.3       1 THR        -0.3874
     16 CG2        -9.4570  -24.3860    7.3040 C.3       1 THR        -0.0346
     17 N          -7.9070  -24.0170   10.2000 N.am      1 PHE        -0.2619
     18 CA         -6.5840  -24.4570   10.6530 C.3       1 PHE         0.1404
     19 C          -5.5710  -24.5590    9.5100 C.2       1 PHE         0.2060
     20 O          -4.4820  -23.9990    9.5980 O.2       1 PHE        -0.3942
     21 CB         -6.6250  -25.8030   11.3860 C.3       1 PHE         0.0214
     22 CG         -5.2560  -26.3330   11.6980 C.ar      1 PHE        -0.0386
     23 CD1        -4.5320  -25.8300   12.7660 C.ar      1 PHE        -0.0601
     24 CD2        -4.6530  -27.2780   10.8720 C.ar      1 PHE        -0.0601
     25 CE1        -3.2480  -26.2920   13.0320 C.ar      1 PHE        -0.0686
     26 CE2        -3.3680  -27.7340   11.1380 C.ar      1 PHE        -0.0686
     27 CZ         -2.6750  -27.2420   12.2190 C.ar      1 PHE        -0.0687
     28 N          -5.9270  -25.2840    8.4530 N.am      1 SER        -0.2614
     29 CA         -5.0010  -25.5240    7.3470 C.3       1 SER         0.1539
     30 C          -4.5860  -24.2240    6.6860 C.2       1 SER         0.2063
     31 O          -3.4180  -24.0500    6.3500 O.2       1 SER        -0.3943
     32 CB         -5.5960  -26.4780    6.3150 C.3       1 SER         0.0843
     33 OG         -6.8140  -25.9660    5.8180 O.3       1 SER        -0.3903
     34 N          -5.5320  -23.2990    6.5360 N.am      1 ASP        -0.2621
     35 CA         -5.2260  -21.9810    5.9880 C.3       1 ASP         0.1423
     36 C          -4.2540  -21.1840    6.8550 C.2       1 ASP         0.2056
     37 O          -3.3640  -20.5430    6.3200 O.2       1 ASP        -0.3943
     38 CB         -6.5070  -21.1780    5.7520 C.3       1 ASP         0.0406
     39 CG         -7.2910  -21.6800    4.5590 C.2       1 ASP         0.0393
     40 OD1        -6.6940  -21.8360    3.4740 O.co2     1 ASP        -0.5688
     41 OD2        -8.5060  -21.9150    4.7050 O.co2     1 ASP        -0.5688
     42 N          -4.4100  -21.2320    8.1770 N.am      1 LEU        -0.2636
     43 CA         -3.4570  -20.5790    9.0880 C.3       1 LEU         0.1312
     44 C          -2.0890  -21.2720    9.0410 C.2       1 LEU         0.2040
     45 O          -1.0310  -20.6220    9.0100 O.2       1 LEU        -0.3944
     46 CB         -3.9880  -20.5660   10.5320 C.3       1 LEU        -0.0101
     47 CG         -5.1260  -19.5760   10.8520 C.3       1 LEU        -0.0425
     48 CD1        -5.7050  -19.8250   12.2390 C.3       1 LEU        -0.0625
     49 CD2        -4.6870  -18.1190   10.7270 C.3       1 LEU        -0.0625
     50 N          -2.1200  -22.5980    9.0410 N.am      1 TRP        -0.2627
     51 CA         -0.8920  -23.3840    9.0690 C.3       1 TRP         0.1352
     52 C          -0.0330  -23.1290    7.8310 C.2       1 TRP         0.2052
     53 O           1.1880  -22.9850    7.9250 O.2       1 TRP        -0.3942
     54 CB         -1.2160  -24.8750    9.2090 C.3       1 TRP         0.0042
     55 CG          0.0050  -25.6690    9.4950 C.2       1 TRP        -0.0418
     56 CD1         0.7810  -26.3350    8.5920 C.2       1 TRP         0.0167
     57 CD2         0.6230  -25.8480   10.7700 C.ar      1 TRP        -0.0214
     58 NE1         1.8370  -26.9270    9.2280 N.pl3     1 TRP        -0.2890
     59 CE2         1.7630  -26.6600   10.5680 C.ar      1 TRP         0.0603
     60 CE3         0.3090  -25.4290   12.0690 C.ar      1 TRP        -0.0747
     61 CZ2         2.6040  -27.0440   11.6140 C.ar      1 TRP        -0.0443
     62 CZ3         1.1400  -25.8200   13.1120 C.ar      1 TRP        -0.0792
     63 CH2         2.2790  -26.6140   12.8730 C.ar      1 TRP        -0.0768
     64 N          -0.6840  -23.0320    6.6780 N.am      1 LYS        -0.2636
     65 CA          0.0070  -22.7760    5.4120 C.3       1 LYS         0.1310
     66 C           0.7710  -21.4540    5.3780 C.2       1 LYS         0.2039
     67 O           1.7750  -21.3340    4.6610 O.2       1 LYS        -0.3944
     68 CB         -0.9890  -22.8560    4.2570 C.3       1 LYS        -0.0126
     69 CG         -1.4030  -24.2880    3.9380 C.3       1 LYS        -0.0517
     70 CD         -2.5900  -24.3530    2.9830 C.3       1 LYS        -0.0651
     71 N           0.3260  -20.4860    6.1790 N.am      1 LEU        -0.2637
     72 CA          0.9720  -19.1780    6.2780 C.3       1 LEU         0.1312
     73 C           2.2920  -19.1970    7.0650 C.2       1 LEU         0.2039
     74 O           3.0650  -18.2450    6.9770 O.2       1 LEU        -0.3944
     75 CB          0.0160  -18.1690    6.9320 C.3       1 LEU        -0.0101
     76 CG         -1.3120  -17.8990    6.2170 C.3       1 LEU        -0.0425
     77 CD1        -2.3110  -17.1820    7.1410 C.3       1 LEU        -0.0625
     78 CD2        -1.0810  -17.1010    4.9450 C.3       1 LEU        -0.0625
     79 N           2.5500  -20.2620    7.8310 N.am      1 LEU        -0.2637
     80 CA          3.7740  -20.3530    8.6440 C.3       1 LEU         0.1314
     81 C           5.0650  -20.4020    7.8070 C.2       1 LEU         0.2064
     82 O           5.1870  -21.2080    6.8800 O.2       1 LEU        -0.3942
     83 CB          3.7340  -21.5750    9.5820 C.3       1 LEU        -0.0101
     84 CG          2.7310  -21.5610   10.7360 C.3       1 LEU        -0.0425
     85 CD1         2.8110  -22.8680   11.5090 C.3       1 LEU        -0.0625
     86 CD2         2.9440  -20.3830   11.6710 C.3       1 LEU        -0.0625
     87 N           6.0430  -19.5460    8.1450 N.am      1 PRO        -0.2498
     88 CA          7.3280  -19.6180    7.4660 C.3       1 PRO         0.1338
     89 C           8.1650  -20.8300    7.8930 C.2       1 PRO         0.2042
     90 O           7.8490  -21.4900    8.8970 O.2       1 PRO        -0.3944
     91 CB          8.0100  -18.3220    7.9020 C.3       1 PRO        -0.0104
     92 CG          7.4430  -18.0440    9.2430 C.3       1 PRO        -0.0281
     93 CD          6.0130  -18.4660    9.1510 C.3       1 PRO         0.0369
     94 N           9.2100  -21.1200    7.1200 N.am      1 GLU        -0.2622
     95 CA         10.2340  -22.0790    7.5330 C.3       1 GLU         0.1435
     96 C          11.1830  -21.3850    8.5000 C.2       1 GLU         0.2572
     97 O          11.4980  -21.9190    9.5620 O.2       1 GLU        -0.3680
     98 CB         11.0200  -22.6120    6.3310 C.3       1 GLU         0.0005
     99 CG         10.2600  -23.6190    5.4910 C.3       1 GLU         0.0045
    100 CD         11.0640  -24.1260    4.3050 C.2       1 GLU         0.0350
    101 OE1        10.4590  -24.3550    3.2410 O.co2     1 GLU        -0.5690
    102 OE2        12.2950  -24.3000    4.4260 O.co2     1 GLU        -0.5690
    103 O1         11.6766  -20.1887    8.1931 O.3       1 GLU        -0.2910
    104 H1        -11.2260  -17.3495   11.2956 H         1 GLU         0.2015
    105 H2        -10.8879  -18.5823   12.3325 H         1 GLU         0.2015
    106 H3        -12.2243  -18.6559   11.3744 H         1 GLU         0.2015
    107 H4        -11.2887  -19.0142    9.6333 H         1 GLU         0.1099
    108 H5        -10.1747  -17.2088    9.2495 H         1 GLU         0.0363
    109 H6         -9.2821  -18.6298    8.6087 H         1 GLU         0.0363
    110 H7         -7.7686  -16.8563    9.3987 H         1 GLU         0.0434
    111 H8         -7.5658  -18.3794   10.3292 H         1 GLU         0.0434
    112 H9         -9.2080  -20.4422    8.5800 H         1 THR         0.1885
    113 H10       -10.1709  -23.0643    9.6371 H         1 THR         0.0826
    114 H11        -8.9343  -22.3392    6.9222 H         1 THR         0.0639
    115 H12       -11.1186  -21.5966    7.2777 H         1 THR         0.2101
    116 H13        -9.6192  -24.6178    6.2410 H         1 THR         0.0257
    117 H14       -10.1738  -24.9527    7.9163 H         1 THR         0.0257
    118 H15        -8.4315  -24.6648    7.5877 H         1 THR         0.0257
    119 H16        -8.7237  -24.5124   10.4960 H         1 PHE         0.1885
    120 H17        -6.2180  -23.6988   11.3610 H         1 PHE         0.0823
    121 H18        -7.1493  -26.5333   10.7522 H         1 PHE         0.0474
    122 H19        -7.1759  -25.6737   12.3293 H         1 PHE         0.0474
    123 H20        -4.9707  -25.0686   13.4008 H         1 PHE         0.0557
    124 H21        -5.1915  -27.6616   10.0130 H         1 PHE         0.0557
    125 H22        -2.6978  -25.9030   13.8812 H         1 PHE         0.0599
    126 H23        -2.9120  -28.4771   10.4939 H         1 PHE         0.0599
    127 H24        -1.6753  -27.6035   12.4308 H         1 PHE         0.0559
    128 H25        -6.8474  -25.6731    8.4139 H         1 SER         0.1884
    129 H26        -4.0985  -25.9960    7.7626 H         1 SER         0.0823
    130 H27        -5.7788  -27.4547    6.7869 H         1 SER         0.0606
    131 H28        -4.8873  -26.5998    5.4826 H         1 SER         0.0606
    132 H29        -6.6582  -25.1233    5.4081 H         1 SER         0.2097
    133 H30        -6.4716  -23.5116    6.8043 H         1 ASP         0.1884
    134 H31        -4.7428  -22.1376    5.0123 H         1 ASP         0.0819
    135 H32        -6.2375  -20.1255    5.5800 H         1 ASP         0.0478
    136 H33        -7.1408  -21.2526    6.6479 H         1 ASP         0.0478
    137 H34        -5.1928  -21.7232    8.5590 H         1 LEU         0.1883
    138 H35        -3.3285  -19.5375    8.7581 H         1 LEU         0.0800
    139 H36        -3.1431  -20.3250   11.1938 H         1 LEU         0.0315
    140 H37        -4.3550  -21.5777   10.7594 H         1 LEU         0.0315
    141 H38        -5.9259  -19.7472   10.1166 H         1 LEU         0.0298
    142 H39        -6.5120  -19.1035   12.4343 H         1 LEU         0.0232
    143 H40        -4.9141  -19.7036   12.9938 H         1 LEU         0.0232
    144 H41        -6.1071  -20.8476   12.2904 H         1 LEU         0.0232
    145 H42        -4.2702  -17.9464    9.7237 H         1 LEU         0.0232
    146 H43        -3.9204  -17.9007   11.4850 H         1 LEU         0.0232
    147 H44        -5.5541  -17.4602   10.8821 H         1 LEU         0.0232
    148 H45        -3.0025  -23.0678    9.0214 H         1 TRP         0.1884
    149 H46        -0.3121  -23.0758    9.9515 H         1 TRP         0.0815
    150 H47        -1.6647  -25.2336    8.2709 H         1 TRP         0.0397
    151 H48        -1.9320  -25.0100   10.0330 H         1 TRP         0.0397
    152 H49         0.5878  -26.3875    7.5216 H         1 TRP         0.0795
    153 H50         2.5718  -27.4855    8.7707 H         1 TRP         0.2216
    154 H51        -0.5631  -24.8132   12.2567 H         1 TRP         0.0540
    155 H52         3.4795  -27.6581   11.4367 H         1 TRP         0.0541
    156 H53         0.9084  -25.5095   14.1244 H         1 TRP         0.0510
    157 H54         2.9140  -26.8915   13.7065 H         1 TRP         0.0530
    158 H55        -1.6785  -23.1371    6.6737 H         1 LYS         0.1883
    159 H56         0.7466  -23.5788    5.2762 H         1 LYS         0.0800
    160 H57        -0.5263  -22.4153    3.3616 H         1 LYS         0.0312
    161 H58        -1.8874  -22.2812    4.5261 H         1 LYS         0.0312
    162 H59        -1.6766  -24.7935    4.8759 H         1 LYS         0.0265
    163 H60        -0.5502  -24.8075    3.4767 H         1 LYS         0.0265
    164 H61        -2.8460  -25.4048    2.7874 H         1 LYS         0.0230
    165 H62        -2.3269  -23.8576    2.0368 H         1 LYS         0.0230
    166 H63        -3.4534  -23.8436    3.4359 H         1 LYS         0.0230
    167 H64        -0.4852  -20.6620    6.7367 H         1 LEU         0.1883
    168 H65         1.1945  -18.8383    5.2557 H         1 LEU         0.0800
    169 H66         0.5499  -17.2106    7.0116 H         1 LEU         0.0315
    170 H67        -0.2203  -18.5419    7.9395 H         1 LEU         0.0315
    171 H68        -1.7485  -18.8687    5.9358 H         1 LEU         0.0298
    172 H69        -3.2506  -17.0042    6.5974 H         1 LEU         0.0232
    173 H70        -1.8865  -16.2199    7.4638 H         1 LEU         0.0232
    174 H71        -2.5104  -17.8091    8.0225 H         1 LEU         0.0232
    175 H72        -0.3644  -17.6340    4.3028 H         1 LEU         0.0232
    176 H73        -0.6770  -16.1106    5.2017 H         1 LEU         0.0232
    177 H74        -2.0342  -16.9806    4.4094 H         1 LEU         0.0232
    178 H75         1.8943  -21.0167    7.8523 H         1 LEU         0.1883
    179 H76         3.8169  -19.4476    9.2672 H         1 LEU         0.0800
    180 H77         4.7366  -21.6833   10.0213 H         1 LEU         0.0315
    181 H78         3.5079  -22.4556    8.9628 H         1 LEU         0.0315
    182 H79         1.7219  -21.4735   10.3070 H         1 LEU         0.0298
    183 H80         2.0867  -22.8494   12.3367 H         1 LEU         0.0232
    184 H81         3.8264  -22.9935   11.9131 H         1 LEU         0.0232
    185 H82         2.5777  -23.7066   10.8365 H         1 LEU         0.0232
    186 H83         2.8836  -19.4453   11.0990 H         1 LEU         0.0232
    187 H84         3.9353  -20.4625   12.1410 H         1 LEU         0.0232
    188 H85         2.1674  -20.3880   12.4500 H         1 LEU         0.0232
    189 H86         7.1875  -19.6446    6.3753 H         1 PRO         0.0802
    190 H87         7.7773  -17.5049    7.2034 H         1 PRO         0.0313
    191 H88         9.1003  -18.4556    7.9599 H         1 PRO         0.0313
    192 H89         7.9694  -18.6259   10.0139 H         1 PRO         0.0287
    193 H90         7.5157  -16.9721    9.4792 H         1 PRO         0.0287
    194 H91         5.6491  -18.8394   10.1196 H         1 PRO         0.0524
    195 H92         5.3769  -17.6332    8.8166 H         1 PRO         0.0524
    196 H93         9.2970  -20.6691    6.2317 H         1 GLU         0.1885
    197 H94         9.7487  -22.9248    8.0420 H         1 GLU         0.0817
    198 H95        11.9358  -23.0943    6.7036 H         1 GLU         0.0331
    199 H96        11.2892  -21.7602    5.6892 H         1 GLU         0.0331
    200 H97         9.3429  -23.1418    5.1152 H         1 GLU         0.0433
    201 H98         9.9933  -24.4763    6.1265 H         1 GLU         0.0433
    202 H99        11.4163  -19.5603    8.8563 H         1 GLU         0.2540
@<TRIPOS>BOND
     1    2    1 1  
     2    2    5 1  
     3    3    2 1  
     4    3    4 2  
     5    5    6 1  
     6    6    7 1  
     7    7    9 ar 
     8    7    8 ar 
     9   11   10 1  
    10   11   14 1  
    11   12   11 1  
    12   12   13 2  
    13   14   16 1  
    14   14   15 1  
    15   10    3 am 
    16   18   17 1  
    17   18   21 1  
    18   19   18 1  
    19   19   20 2  
    20   21   22 1  
    21   22   23 ar 
    22   22   24 ar 
    23   24   26 ar 
    24   26   27 ar 
    25   25   27 ar 
    26   23   25 ar 
    27   17   12 am 
    28   29   28 1  
    29   29   32 1  
    30   30   29 1  
    31   30   31 2  
    32   32   33 1  
    33   28   19 am 
    34   35   34 1  
    35   35   38 1  
    36   36   35 1  
    37   36   37 2  
    38   38   39 1  
    39   39   40 ar 
    40   39   41 ar 
    41   34   30 am 
    42   43   42 1  
    43   43   46 1  
    44   44   43 1  
    45   44   45 2  
    46   46   47 1  
    47   47   48 1  
    48   47   49 1  
    49   42   36 am 
    50   51   50 1  
    51   51   54 1  
    52   52   51 1  
    53   52   53 2  
    54   54   55 1  
    55   55   56 2  
    56   55   57 1  
    57   57   60 ar 
    58   57   59 ar 
    59   59   61 ar 
    60   59   58 1  
    61   56   58 1  
    62   61   63 ar 
    63   62   63 ar 
    64   60   62 ar 
    65   50   44 am 
    66   65   64 1  
    67   65   68 1  
    68   66   65 1  
    69   66   67 2  
    70   68   69 1  
    71   69   70 1  
    72   64   52 am 
    73   72   71 1  
    74   72   75 1  
    75   73   72 1  
    76   73   74 2  
    77   75   76 1  
    78   76   77 1  
    79   76   78 1  
    80   71   66 am 
    81   80   79 1  
    82   80   83 1  
    83   81   80 1  
    84   81   82 2  
    85   83   84 1  
    86   84   85 1  
    87   84   86 1  
    88   79   73 am 
    89   89   88 1  
    90   88   91 1  
    91   88   87 1  
    92   87   93 1  
    93   93   92 1  
    94   91   92 1  
    95   89   90 2  
    96   87   81 am 
    97   94   95 1  
    98   95   98 1  
    99   95   96 1  
   100   96   97 2  
   101   98   99 1  
   102   99  100 1  
   103  100  102 ar 
   104  100  101 ar 
   105   89   94 am 
   106   96  103 1  
   107    1  104 1  
   108    1  105 1  
   109    1  106 1  
   110    2  107 1  
   111    5  108 1  
   112    5  109 1  
   113    6  110 1  
   114    6  111 1  
   115   10  112 1  
   116   11  113 1  
   117   14  114 1  
   118   15  115 1  
   119   16  116 1  
   120   16  117 1  
   121   16  118 1  
   122   17  119 1  
   123   18  120 1  
   124   21  121 1  
   125   21  122 1  
   126   23  123 1  
   127   24  124 1  
   128   25  125 1  
   129   26  126 1  
   130   27  127 1  
   131   28  128 1  
   132   29  129 1  
   133   32  130 1  
   134   32  131 1  
   135   33  132 1  
   136   34  133 1  
   137   35  134 1  
   138   38  135 1  
   139   38  136 1  
   140   42  137 1  
   141   43  138 1  
   142   46  139 1  
   143   46  140 1  
   144   47  141 1  
   145   48  142 1  
   146   48  143 1  
   147   48  144 1  
   148   49  145 1  
   149   49  146 1  
   150   49  147 1  
   151   50  148 1  
   152   51  149 1  
   153   54  150 1  
   154   54  151 1  
   155   56  152 1  
   156   58  153 1  
   157   60  154 1  
   158   61  155 1  
   159   62  156 1  
   160   63  157 1  
   161   64  158 1  
   162   65  159 1  
   163   68  160 1  
   164   68  161 1  
   165   69  162 1  
   166   69  163 1  
   167   70  164 1  
   168   70  165 1  
   169   70  166 1  
   170   71  167 1  
   171   72  168 1  
   172   75  169 1  
   173   75  170 1  
   174   76  171 1  
   175   77  172 1  
   176   77  173 1  
   177   77  174 1  
   178   78  175 1  
   179   78  176 1  
   180   78  177 1  
   181   79  178 1  
   182   80  179 1  
   183   83  180 1  
   184   83  181 1  
   185   84  182 1  
   186   85  183 1  
   187   85  184 1  
   188   85  185 1  
   189   86  186 1  
   190   86  187 1  
   191   86  188 1  
   192   88  189 1  
   193   91  190 1  
   194   91  191 1  
   195   92  192 1  
   196   92  193 1  
   197   93  194 1  
   198   93  195 1  
   199   94  196 1  
   200   95  197 1  
   201   98  198 1  
   202   98  199 1  
   203   99  200 1  
   204   99  201 1  
   205  103  202 1  
@<TRIPOS>SUBSTRUCTURE
     1 GLU         1

