2vin_ligand
  -I-interpret- 

 31 31  0  0  0  0  0  0  0  0999 V2000
   31.5240    3.8010   28.2230 C   0  0  0  0  0
   32.6170    4.7730   27.8010 C   0  0  0  0  0
   33.0070    4.3980   26.4000 N   0  3  0  0  0
   32.1320    6.2200   27.8620 C   0  0  0  0  0
   30.9340    6.3530   27.0450 O   0  0  0  0  0
   30.0970    7.4110   27.3030 C   0  0  0  0  0
   28.9130    7.1980   28.0380 C   0  0  0  0  0
   28.5620    5.8270   28.5530 C   0  0  0  0  0
   28.0790    8.2770   28.2890 C   0  0  0  0  0
   28.3930    9.5360   27.8170 C   0  0  0  0  0
   29.5500    9.7460   27.0920 C   0  0  0  0  0
   30.4180    8.6960   26.8250 C   0  0  0  0  0
   31.6810    8.9340   26.0370 C   0  0  0  0  0
   31.2192    4.0209   29.2462 H   0  0  0  0  0
   30.6679    3.9073   27.5567 H   0  0  0  0  0
   31.9050    2.7813   28.1672 H   0  0  0  0  0
   33.4693    4.7079   28.4774 H   0  0  0  0  0
   33.3267    3.4295   26.3850 H   0  0  0  0  0
   32.1999    4.5005   25.7847 H   0  0  0  0  0
   33.7583    5.0102   26.0821 H   0  0  0  0  0
   32.9095    6.8846   27.4853 H   0  0  0  0  0
   31.9051    6.4885   28.8937 H   0  0  0  0  0
   28.4705    5.1375   27.7138 H   0  0  0  0  0
   29.3470    5.4809   29.2253 H   0  0  0  0  0
   27.6154    5.8739   29.0913 H   0  0  0  0  0
   27.1656    8.1297   28.8652 H   0  0  0  0  0
   27.7223   10.3713   28.0182 H   0  0  0  0  0
   29.7836   10.7458   26.7261 H   0  0  0  0  0
   32.5439    8.6646   26.6460 H   0  0  0  0  0
   31.6658    8.3219   25.1352 H   0  0  0  0  0
   31.7432    9.9869   25.7620 H   0  0  0  0  0
  1  2  1  0  0  0
  2  3  1  0  0  0
  2  4  1  0  0  0
  4  5  1  0  0  0
  5  6  1  0  0  0
  6  7  4  0  0  0
  6 12  4  0  0  0
  7  8  1  0  0  0
  7  9  4  0  0  0
  9 10  4  0  0  0
 10 11  4  0  0  0
 11 12  4  0  0  0
 12 13  1  0  0  0
  1 14  1  0  0  0
  1 15  1  0  0  0
  1 16  1  0  0  0
  2 17  1  0  0  0
  3 18  1  0  0  0
  3 19  1  0  0  0
  3 20  1  0  0  0
  4 21  1  0  0  0
  4 22  1  0  0  0
  8 23  1  0  0  0
  8 24  1  0  0  0
  8 25  1  0  0  0
  9 26  1  0  0  0
 10 27  1  0  0  0
 11 28  1  0  0  0
 13 29  1  0  0  0
 13 30  1  0  0  0
 13 31  1  0  0  0
M  END
$$$$
