3dda_ligand
  -I-interpret- 

108107  0  0  0  0  0  0  0  0999 V2000
   26.2710   28.0530   52.9480 N   0  3  0  0  0
   26.3510   26.5610   52.8830 C   0  0  0  0  0
   25.1100   26.0210   53.5810 C   0  0  0  0  0
   24.8770   26.2850   54.7610 O   0  0  0  0  0
   27.6240   26.0760   53.5750 C   0  0  0  0  0
   28.1040   24.7230   53.1170 C   0  0  0  0  0
   29.6090   24.5770   53.2650 C   0  0  0  0  0
   30.1650   24.7890   54.3470 O   0  0  0  0  0
   30.2750   24.2050   52.1780 N   0  0  0  0  0
   24.3100   25.2710   52.8370 N   0  0  0  0  0
   23.0660   24.7230   53.3500 C   0  0  0  0  0
   23.1730   24.0660   54.7230 C   0  0  0  0  0
   22.3270   24.3310   55.6030 O   0  0  0  0  0
   22.5020   23.7250   52.3440 C   0  0  0  0  0
   21.0920   23.2950   52.6370 C   0  0  0  0  0
   20.7020   22.1430   51.7420 C   0  0  0  0  0
   21.4480   20.9270   52.0520 N   0  0  0  0  0
   21.2420   20.1860   53.1360 C   0  0  0  0  0
   20.3100   20.5350   54.0120 N   0  0  0  0  0
   21.9700   19.1000   53.3510 N   0  0  0  0  0
   24.1940   23.2260   54.9220 N   0  0  0  0  0
   24.3500   22.5300   56.2110 C   0  0  0  0  0
   25.8140   22.2600   56.5750 C   0  0  0  0  0
   26.7230   22.3660   55.7500 O   0  0  0  0  0
   23.5960   21.2130   56.2060 C   0  0  0  0  0
   26.0330   21.9200   57.8390 N   0  0  0  0  0
   27.3610   21.6350   58.3980 C   0  0  0  0  0
   28.0940   20.4260   57.8050 C   0  0  0  0  0
   29.3010   20.3260   57.9490 O   0  0  0  0  0
   27.2510   21.3840   59.9160 C   0  0  0  0  0
   26.7220   20.0640   60.1510 O   0  0  0  0  0
   26.3370   22.4160   60.5350 C   0  0  0  0  0
   27.3480   19.5160   57.1710 N   0  0  0  0  0
   27.8460   18.2730   56.5450 C   0  0  0  0  0
   27.0270   17.0730   57.0180 C   0  0  0  0  0
   27.1050   15.9840   56.4580 O   0  0  0  0  0
   29.3160   18.0130   56.8870 C   0  0  0  0  0
   30.3250   18.6420   55.9100 C   0  0  0  0  0
   30.1350   18.0910   54.4900 C   0  0  0  0  0
   31.1010   18.7580   53.5150 C   0  0  0  0  0
   30.9010   18.1850   52.1550 N   0  3  0  0  0
   26.2900   17.2760   58.0980 N   0  0  0  0  0
   25.4600   16.2280   58.6770 C   0  0  0  0  0
   24.0440   16.7800   58.7760 C   0  0  0  0  0
   23.4100   16.5890   59.8380 O   0  0  0  0  0
   25.9580   15.8450   60.0870 C   0  0  0  0  0
   27.4190   16.2110   60.3600 C   0  0  0  0  0
   28.3960   14.8910   61.1390 S   0  0  0  0  0
   27.1130   13.9710   62.0590 C   0  0  0  0  0
   23.5380   17.4240   57.7590 N   0  0  0  0  0
   25.4187   28.3671   52.4839 H   0  0  0  0  0
   26.2572   28.3494   53.9239 H   0  0  0  0  0
   27.0827   28.4565   52.4803 H   0  0  0  0  0
   26.3891   26.2094   51.8520 H   0  0  0  0  0
   27.3985   25.9926   54.6381 H   0  0  0  0  0
   28.4105   26.7921   53.3368 H   0  0  0  0  0
   27.8512   24.6091   52.0629 H   0  0  0  0  0
   27.6242   23.9630   53.7337 H   0  0  0  0  0
   31.2870   24.0837   52.2165 H   0  0  0  0  0
   29.7745   24.0406   51.3046 H   0  0  0  0  0
   24.5762   25.0719   51.8727 H   0  0  0  0  0
   22.3975   25.5732   53.4856 H   0  0  0  0  0
   23.1279   22.8336   52.3862 H   0  0  0  0  0
   22.4956   24.2150   51.3704 H   0  0  0  0  0
   20.4183   24.1323   52.4550 H   0  0  0  0  0
   21.0246   22.9773   53.6775 H   0  0  0  0  0
   20.9233   22.4235   50.7122 H   0  0  0  0  0
   19.6422   21.9389   51.8943 H   0  0  0  0  0
   22.1708   20.6281   51.3973 H   0  0  0  0  0
   20.1564   19.9685   54.8462 H   0  0  0  0  0
   19.7465   21.3700   53.8517 H   0  0  0  0  0
   22.6921   18.8296   52.6832 H   0  0  0  0  0
   24.8703   23.0658   54.1754 H   0  0  0  0  0
   23.9360   23.2012   56.9635 H   0  0  0  0  0
   22.5365   21.4030   56.0342 H   0  0  0  0  0
   23.9856   20.5758   55.4121 H   0  0  0  0  0
   23.7262   20.7176   57.1681 H   0  0  0  0  0
   25.2280   21.8523   58.4618 H   0  0  0  0  0
   27.9430   22.5211   58.1444 H   0  0  0  0  0
   28.2400   21.4611   60.3678 H   0  0  0  0  0
   26.6548   19.9110   61.0964 H   0  0  0  0  0
   26.7444   23.4118   60.3603 H   0  0  0  0  0
   25.3482   22.3420   60.0822 H   0  0  0  0  0
   26.2614   22.2360   61.6074 H   0  0  0  0  0
   26.3455   19.6953   57.1141 H   0  0  0  0  0
   27.7480   18.4018   55.4671 H   0  0  0  0  0
   29.4651   16.9340   56.8458 H   0  0  0  0  0
   29.4985   18.4614   57.8636 H   0  0  0  0  0
   31.3334   18.4006   56.2461 H   0  0  0  0  0
   30.1662   19.7202   55.8903 H   0  0  0  0  0
   29.1140   18.2955   54.1678 H   0  0  0  0  0
   30.3311   17.0188   54.5003 H   0  0  0  0  0
   32.1266   18.5806   53.8386 H   0  0  0  0  0
   30.9117   19.8312   53.4904 H   0  0  0  0  0
   31.5459   18.6297   51.5018 H   0  0  0  0  0
   31.0796   17.1811   52.1807 H   0  0  0  0  0
   29.9409   18.3531   51.8543 H   0  0  0  0  0
   26.3034   18.1955   58.5392 H   0  0  0  0  0
   25.5001   15.3343   58.0542 H   0  0  0  0  0
   25.8775   14.7613   60.1722 H   0  0  0  0  0
   25.3497   16.3976   60.8031 H   0  0  0  0  0
   27.4123   17.0529   61.0522 H   0  0  0  0  0
   27.8802   16.4213   59.3950 H   0  0  0  0  0
   26.6376   14.6359   62.7801 H   0  0  0  0  0
   26.3650   13.5963   61.3603 H   0  0  0  0  0
   27.5737   13.1339   62.5835 H   0  0  0  0  0
   22.5892   17.7948   57.8110 H   0  0  0  0  0
   24.0915   17.5563   56.9125 H   0  0  0  0  0
  1  2  1  0  0  0
  2  3  1  0  0  0
  2  5  1  0  0  0
  3  4  2  0  0  0
  3 10  1  0  0  0
  5  6  1  0  0  0
  6  7  1  0  0  0
  7  8  2  0  0  0
  7  9  1  0  0  0
 10 11  1  0  0  0
 11 12  1  0  0  0
 11 14  1  0  0  0
 12 13  2  0  0  0
 12 21  1  0  0  0
 14 15  1  0  0  0
 15 16  1  0  0  0
 16 17  1  0  0  0
 17 18  1  0  0  0
 18 19  1  0  0  0
 18 20  2  0  0  0
 21 22  1  0  0  0
 22 23  1  0  0  0
 22 25  1  0  0  0
 23 24  2  0  0  0
 23 26  1  0  0  0
 26 27  1  0  0  0
 27 28  1  0  0  0
 27 30  1  0  0  0
 28 29  2  0  0  0
 28 33  1  0  0  0
 30 31  1  0  0  0
 30 32  1  0  0  0
 33 34  1  0  0  0
 34 35  1  0  0  0
 34 37  1  0  0  0
 35 36  2  0  0  0
 35 42  1  0  0  0
 37 38  1  0  0  0
 38 39  1  0  0  0
 39 40  1  0  0  0
 40 41  1  0  0  0
 42 43  1  0  0  0
 43 44  1  0  0  0
 43 46  1  0  0  0
 44 45  2  0  0  0
 44 50  1  0  0  0
 46 47  1  0  0  0
 47 48  1  0  0  0
 48 49  1  0  0  0
  1 51  1  0  0  0
  1 52  1  0  0  0
  1 53  1  0  0  0
  2 54  1  0  0  0
  5 55  1  0  0  0
  5 56  1  0  0  0
  6 57  1  0  0  0
  6 58  1  0  0  0
  9 59  1  0  0  0
  9 60  1  0  0  0
 10 61  1  0  0  0
 11 62  1  0  0  0
 14 63  1  0  0  0
 14 64  1  0  0  0
 15 65  1  0  0  0
 15 66  1  0  0  0
 16 67  1  0  0  0
 16 68  1  0  0  0
 17 69  1  0  0  0
 19 70  1  0  0  0
 19 71  1  0  0  0
 20 72  1  0  0  0
 21 73  1  0  0  0
 22 74  1  0  0  0
 25 75  1  0  0  0
 25 76  1  0  0  0
 25 77  1  0  0  0
 26 78  1  0  0  0
 27 79  1  0  0  0
 30 80  1  0  0  0
 31 81  1  0  0  0
 32 82  1  0  0  0
 32 83  1  0  0  0
 32 84  1  0  0  0
 33 85  1  0  0  0
 34 86  1  0  0  0
 37 87  1  0  0  0
 37 88  1  0  0  0
 38 89  1  0  0  0
 38 90  1  0  0  0
 39 91  1  0  0  0
 39 92  1  0  0  0
 40 93  1  0  0  0
 40 94  1  0  0  0
 41 95  1  0  0  0
 41 96  1  0  0  0
 41 97  1  0  0  0
 42 98  1  0  0  0
 43 99  1  0  0  0
 46100  1  0  0  0
 46101  1  0  0  0
 47102  1  0  0  0
 47103  1  0  0  0
 49104  1  0  0  0
 49105  1  0  0  0
 49106  1  0  0  0
 50107  1  0  0  0
 50108  1  0  0  0
M  END
$$$$
