### 
### Created by X-TOOL on Mon Sep 10 21:12:57 2018
### 

@<TRIPOS>MOLECULE
3dda_ligand
  109   108     1     0     0
SMALL
GAST_HUCK


@<TRIPOS>ATOM
      1 N          26.2710   28.0530   52.9480 N.4       1 GLN         0.2380
      2 CA         26.3510   26.5610   52.8830 C.3       1 GLN         0.0671
      3 C          25.1100   26.0210   53.5810 C.2       1 GLN         0.2269
      4 O          24.8770   26.2850   54.7610 O.2       1 GLN        -0.3907
      5 CB         27.6240   26.0760   53.5750 C.3       1 GLN         0.0247
      6 CG         28.1040   24.7230   53.1170 C.3       1 GLN         0.0443
      7 CD         29.6090   24.5770   53.2650 C.2       1 GLN         0.1738
      8 OE1        30.1650   24.7890   54.3470 O.2       1 GLN        -0.3973
      9 NE2        30.2750   24.2050   52.1780 N.am      1 GLN        -0.3009
     10 N          24.3100   25.2710   52.8370 N.am      1 ARG        -0.2610
     11 CA         23.0660   24.7230   53.3500 C.3       1 ARG         0.1312
     12 C          23.1730   24.0660   54.7230 C.2       1 ARG         0.2039
     13 O          22.3270   24.3310   55.6030 O.2       1 ARG        -0.3944
     14 CB         22.5020   23.7250   52.3440 C.3       1 ARG        -0.0092
     15 CG         21.0920   23.2950   52.6370 C.3       1 ARG        -0.0156
     16 CD         20.7020   22.1430   51.7420 C.3       1 ARG         0.0627
     17 NE         21.4480   20.9270   52.0520 N.pl3     1 ARG        -0.2723
     18 CZ         21.2420   20.1860   53.1360 C.cat     1 ARG         0.2882
     19 NH1        20.3100   20.5350   54.0120 N.pl3     1 ARG        -0.2849
     20 NH2        21.9700   19.1000   53.3510 N.pl3     1 ARG        -0.2849
     21 N          24.1940   23.2260   54.9220 N.am      1 ALA        -0.2640
     22 CA         24.3500   22.5300   56.2110 C.3       1 ALA         0.1282
     23 C          25.8140   22.2600   56.5750 C.2       1 ALA         0.2037
     24 O          26.7230   22.3660   55.7500 O.2       1 ALA        -0.3944
     25 CB         23.5960   21.2130   56.2060 C.3       1 ALA        -0.0244
     26 N          26.0330   21.9200   57.8390 N.am      1 THR        -0.2613
     27 CA         27.3610   21.6350   58.3980 C.3       1 THR         0.1565
     28 C          28.0940   20.4260   57.8050 C.2       1 THR         0.2065
     29 O          29.3010   20.3260   57.9490 O.2       1 THR        -0.3943
     30 CB         27.2510   21.3840   59.9160 C.3       1 THR         0.0924
     31 OG1        26.7220   20.0640   60.1510 O.3       1 THR        -0.3874
     32 CG2        26.3370   22.4160   60.5350 C.3       1 THR        -0.0346
     33 N          27.3480   19.5160   57.1710 N.am      1 LYS        -0.2637
     34 CA         27.8460   18.2730   56.5450 C.3       1 LYS         0.1310
     35 C          27.0270   17.0730   57.0180 C.2       1 LYS         0.2039
     36 O          27.1050   15.9840   56.4580 O.2       1 LYS        -0.3944
     37 CB         29.3160   18.0130   56.8870 C.3       1 LYS        -0.0122
     38 CG         30.3250   18.6420   55.9100 C.3       1 LYS        -0.0440
     39 CD         30.1350   18.0910   54.4900 C.3       1 LYS        -0.0124
     40 CE         31.1010   18.7580   53.5150 C.3       1 LYS        -0.0354
     41 NZ         30.9010   18.1850   52.1550 N.4       1 LYS         0.2185
     42 N          26.2900   17.2760   58.0980 N.am      1 MET        -0.2637
     43 CA         25.4600   16.2280   58.6770 C.3       1 MET         0.1314
     44 C          24.0440   16.7800   58.7760 C.2       1 MET         0.1992
     45 O          23.4100   16.5890   59.8380 O.2       1 MET        -0.3947
     46 CB         25.9580   15.8450   60.0870 C.3       1 MET        -0.0034
     47 CG         27.4190   16.2110   60.3600 C.3       1 MET        -0.0024
     48 SD         28.3960   14.8910   61.1390 S.3       1 MET        -0.1639
     49 CE         27.1130   13.9710   62.0590 C.3       1 MET        -0.0181
     50 N          23.5380   17.4240   57.7590 N.am      1 NH2        -0.2990
     51 H1         27.0778   28.4528   52.4949 H         1 GLN         0.2015
     52 H2         26.2472   28.3466   53.9120 H         1 GLN         0.2015
     53 H3         25.4341   28.3653   52.4809 H         1 GLN         0.2015
     54 H4         26.3618   26.2302   51.8340 H         1 GLN         0.1100
     55 H5         27.4295   26.0242   54.6564 H         1 GLN         0.0370
     56 H6         28.4217   26.8080   53.3806 H         1 GLN         0.0370
     57 H7         27.8360   24.5899   52.0585 H         1 GLN         0.0506
     58 H8         27.6102   23.9472   53.7206 H         1 GLN         0.0506
     59 H9         31.2680   24.0923   52.2141 H         1 GLN         0.1814
     60 H10        29.7835   24.0376   51.3233 H         1 GLN         0.1814
     61 H11        24.5710   25.0758   51.8916 H         1 ARG         0.1884
     62 H12        22.3556   25.5576   53.4436 H         1 ARG         0.0800
     63 H13        23.1438   22.8316   52.3455 H         1 ARG         0.0313
     64 H14        22.5222   24.1894   51.3470 H         1 ARG         0.0313
     65 H15        20.4101   24.1398   52.4599 H         1 ARG         0.0301
     66 H16        21.0193   22.9793   53.6882 H         1 ARG         0.0301
     67 H17        20.9001   22.4234   50.6970 H         1 ARG         0.0689
     68 H18        19.6282   21.9423   51.8705 H         1 ARG         0.0689
     69 H19        22.1779   20.6251   51.3909 H         1 ARG         0.2642
     70 H20        20.1513   19.9600   54.8517 H         1 ARG         0.2615
     71 H21        19.7447   21.3812   53.8529 H         1 ARG         0.2615
     72 H22        22.6955   18.8240   52.6740 H         1 ARG         0.2615
     73 H23        21.8104   18.5318   54.1952 H         1 ARG         0.2615
     74 H24        24.8570   23.0689   54.1900 H         1 ALA         0.1883
     75 H25        23.9194   23.1746   56.9914 H         1 ALA         0.0797
     76 H26        23.7266   20.7120   57.1766 H         1 ALA         0.0277
     77 H27        23.9883   20.5689   55.4052 H         1 ALA         0.0277
     78 H28        22.5266   21.4034   56.0327 H         1 ALA         0.0277
     79 H29        25.2438   21.8536   58.4496 H         1 THR         0.1884
     80 H30        27.9843   22.5248   58.2254 H         1 THR         0.0826
     81 H31        28.2493   21.4622   60.3713 H         1 THR         0.0639
     82 H32        26.6555   19.9126   61.0865 H         1 THR         0.2101
     83 H33        26.2599   22.2354   61.6173 H         1 THR         0.0257
     84 H34        25.3387   22.3424   60.0789 H         1 THR         0.0257
     85 H35        26.7471   23.4215   60.3594 H         1 THR         0.0257
     86 H36        26.3652   19.6918   57.1152 H         1 LYS         0.1883
     87 H37        27.7468   18.3696   55.4538 H         1 LYS         0.0800
     88 H38        29.4788   16.9252   56.8942 H         1 LYS         0.0312
     89 H39        29.5114   18.4197   57.8902 H         1 LYS         0.0312
     90 H40        31.3456   18.4133   56.2506 H         1 LYS         0.0269
     91 H41        30.1791   19.7322   55.8950 H         1 LYS         0.0269
     92 H42        29.1026   18.2844   54.1635 H         1 LYS         0.0317
     93 H43        30.3206   17.0068   54.4962 H         1 LYS         0.0317
     94 H44        32.1358   18.5772   53.8414 H         1 LYS         0.0813
     95 H45        30.9083   19.8407   53.4896 H         1 LYS         0.0813
     96 H46        31.5379   18.6238   51.5086 H         1 LYS         0.1994
     97 H47        29.9525   18.3506   51.8567 H         1 LYS         0.1994
     98 H48        31.0773   17.1928   52.1791 H         1 LYS         0.1994
     99 H49        26.3031   18.1775   58.5306 H         1 MET         0.1883
    100 H50        25.4761   15.3388   58.0297 H         1 MET         0.0800
    101 H51        25.8470   14.7573   60.2079 H         1 MET         0.0320
    102 H52        25.3293   16.3623   60.8267 H         1 MET         0.0320
    103 H53        27.4349   17.0875   61.0245 H         1 MET         0.0378
    104 H54        27.8931   16.4688   59.4015 H         1 MET         0.0378
    105 H55        27.5768   13.1259   62.5888 H         1 MET         0.0340
    106 H56        26.3575   13.5922   61.3549 H         1 MET         0.0340
    107 H57        26.6325   14.6410   62.7871 H         1 MET         0.0340
    108 H58        22.6094   17.7912   57.8116 H         1 NH2         0.1815
    109 H59        24.0791   17.5500   56.9275 H         1 NH2         0.1815
@<TRIPOS>BOND
     1    1    2 1  
     2    2    3 1  
     3    2    5 1  
     4    3    4 2  
     5    3   10 am 
     6    5    6 1  
     7    6    7 1  
     8    7    8 2  
     9    7    9 am 
    10   10   11 1  
    11   11   12 1  
    12   11   14 1  
    13   12   13 2  
    14   12   21 am 
    15   14   15 1  
    16   15   16 1  
    17   16   17 1  
    18   17   18 ar 
    19   18   19 ar 
    20   18   20 ar 
    21   21   22 1  
    22   22   23 1  
    23   22   25 1  
    24   23   24 2  
    25   23   26 am 
    26   26   27 1  
    27   27   28 1  
    28   27   30 1  
    29   28   29 2  
    30   28   33 am 
    31   30   31 1  
    32   30   32 1  
    33   33   34 1  
    34   34   35 1  
    35   34   37 1  
    36   35   36 2  
    37   35   42 am 
    38   37   38 1  
    39   38   39 1  
    40   39   40 1  
    41   40   41 1  
    42   42   43 1  
    43   43   44 1  
    44   43   46 1  
    45   44   45 2  
    46   44   50 am 
    47   46   47 1  
    48   47   48 1  
    49   48   49 1  
    50    1   51 1  
    51    1   52 1  
    52    1   53 1  
    53    2   54 1  
    54    5   55 1  
    55    5   56 1  
    56    6   57 1  
    57    6   58 1  
    58    9   59 1  
    59    9   60 1  
    60   10   61 1  
    61   11   62 1  
    62   14   63 1  
    63   14   64 1  
    64   15   65 1  
    65   15   66 1  
    66   16   67 1  
    67   16   68 1  
    68   17   69 1  
    69   19   70 1  
    70   19   71 1  
    71   20   72 1  
    72   20   73 1  
    73   21   74 1  
    74   22   75 1  
    75   25   76 1  
    76   25   77 1  
    77   25   78 1  
    78   26   79 1  
    79   27   80 1  
    80   30   81 1  
    81   31   82 1  
    82   32   83 1  
    83   32   84 1  
    84   32   85 1  
    85   33   86 1  
    86   34   87 1  
    87   37   88 1  
    88   37   89 1  
    89   38   90 1  
    90   38   91 1  
    91   39   92 1  
    92   39   93 1  
    93   40   94 1  
    94   40   95 1  
    95   41   96 1  
    96   41   97 1  
    97   41   98 1  
    98   42   99 1  
    99   43  100 1  
   100   46  101 1  
   101   46  102 1  
   102   47  103 1  
   103   47  104 1  
   104   49  105 1  
   105   49  106 1  
   106   49  107 1  
   107   50  108 1  
   108   50  109 1  
@<TRIPOS>SUBSTRUCTURE
     1 GLN         1

