5xhr_ligand
  -I-interpret- 

 44 45  0  0  0  0  0  0  0  0999 V2000
   21.5500   88.2910   96.3380 O   0  0  0  0  0
   22.7500   88.0390   96.3900 C   0  0  0  0  0
   23.4450   87.8810   98.6880 N   0  3  0  0  0
   22.7070   88.8290   99.5440 C   0  0  0  0  0
   21.8550   88.0540  100.5140 C   0  0  0  0  0
   20.7850   88.5770  100.9080 O   0  0  0  0  0
   22.2400   86.9180  100.8720 O   0  0  0  0  0
   23.7380   89.7390  100.2190 C   0  0  0  0  0
   24.3980   88.9830  101.3620 C   0  0  0  0  0
   23.1280   91.0530  100.6950 C   0  0  0  0  0
   24.9320   90.0280   98.9520 S   0  0  0  0  0
   24.4650   88.6610   97.9340 C   0  0  0  0  0
   23.7700   89.0910   96.6630 C   0  0  0  0  0
   24.1440   89.6280   94.2180 C   0  0  0  0  0
   25.2370   89.8230   93.1750 C   0  0  0  0  0
   24.7680   89.1560   95.5220 C   0  0  0  0  0
   25.7800   90.0790   95.9380 O   0  0  0  0  0
   24.7860   90.5720   91.9450 C   0  0  0  0  0
   25.4700   91.0820   90.8260 C   0  0  0  0  0
   24.6070   91.7220   89.9100 C   0  0  0  0  0
   23.2640   91.7010   90.2890 C   0  0  0  0  0
   23.1020   90.9470   91.8160 S   0  0  0  0  0
   23.0806   87.0125   96.2314 H   0  0  0  0  0
   22.8083   87.4104   98.0450 H   0  0  0  0  0
   23.8933   87.1618   99.2556 H   0  0  0  0  0
   22.0243   89.4620   98.9771 H   0  0  0  0  0
   20.6891   89.4454  100.5101 H   0  0  0  0  0
   24.7802   88.0310  100.9935 H   0  0  0  0  0
   25.2207   89.5762  101.7611 H   0  0  0  0  0
   23.6644   88.8019  102.1476 H   0  0  0  0  0
   23.9148   91.6948  101.0914 H   0  0  0  0  0
   22.6397   91.5501   99.8568 H   0  0  0  0  0
   22.3950   90.8500  101.4758 H   0  0  0  0  0
   25.3724   88.1105   97.6854 H   0  0  0  0  0
   23.3185   90.0782   96.7610 H   0  0  0  0  0
   23.4324   88.8820   93.8642 H   0  0  0  0  0
   23.6262   90.5728   94.3834 H   0  0  0  0  0
   25.5552   88.8320   92.8513 H   0  0  0  0  0
   26.0267   90.4125   93.6408 H   0  0  0  0  0
   25.1622   88.1601   95.3199 H   0  0  0  0  0
   26.4423   90.1585   95.2476 H   0  0  0  0  0
   26.5468   90.9928   90.6823 H   0  0  0  0  0
   24.9578   92.1900   88.9902 H   0  0  0  0  0
   22.4408   92.1049   89.6997 H   0  0  0  0  0
  2  1  2  0  0  0
 13  2  1  0  0  0
  3  4  1  0  0  0
 12  3  1  0  0  0
  4  5  1  0  0  0
  8  4  1  0  0  0
  5  6  1  0  0  0
  5  7  2  0  0  0
  8  9  1  0  0  0
  8 10  1  0  0  0
 11  8  1  0  0  0
 12 11  1  0  0  0
 13 12  1  0  0  0
 16 13  1  0  0  0
 14 15  1  0  0  0
 14 16  1  0  0  0
 15 18  1  0  0  0
 16 17  1  0  0  0
 18 19  4  0  0  0
 18 22  4  0  0  0
 19 20  4  0  0  0
 20 21  4  0  0  0
 21 22  4  0  0  0
  2 23  1  0  0  0
  3 24  1  0  0  0
  3 25  1  0  0  0
  4 26  1  0  0  0
  6 27  1  0  0  0
  9 28  1  0  0  0
  9 29  1  0  0  0
  9 30  1  0  0  0
 10 31  1  0  0  0
 10 32  1  0  0  0
 10 33  1  0  0  0
 12 34  1  0  0  0
 13 35  1  0  0  0
 14 36  1  0  0  0
 14 37  1  0  0  0
 15 38  1  0  0  0
 15 39  1  0  0  0
 16 40  1  0  0  0
 17 41  1  0  0  0
 19 42  1  0  0  0
 20 43  1  0  0  0
 21 44  1  0  0  0
M  END
$$$$
