3ppq_ligand
  -I-interpret- 

 21 20  0  0  0  0  0  0  0  0999 V2000
   28.9040   30.8410    8.9780 C   0  0  0  0  0
   30.0830   29.8850    8.7660 C   0  0  0  0  0
   29.5410   28.0580   10.0290 C   0  0  0  0  0
   30.9910   27.8090    8.2280 C   0  0  0  0  0
   28.7450   27.9100    7.8140 C   0  0  0  0  0
   28.0600   30.8920    8.0910 O   0  0  0  0  0
   29.7910   28.4470    8.6650 N   0  3  0  0  0
   29.3378   31.8395    9.0325 H   0  0  0  0  0
   28.3824   30.4771    9.8632 H   0  0  0  0  0
   30.7080   29.9932    9.6525 H   0  0  0  0  0
   30.5129   30.1626    7.8036 H   0  0  0  0  0
   28.5746   28.4500   10.3459 H   0  0  0  0  0
   29.5344   26.9703   10.0999 H   0  0  0  0  0
   30.3256   28.4604   10.6698 H   0  0  0  0  0
   30.8912   26.7300    8.3463 H   0  0  0  0  0
   31.1656   28.0461    7.1785 H   0  0  0  0  0
   31.8292   28.1654    8.8267 H   0  0  0  0  0
   28.9688   28.1447    6.7734 H   0  0  0  0  0
   28.6943   26.8286    7.9411 H   0  0  0  0  0
   27.7891   28.3548    8.0907 H   0  0  0  0  0
   27.3771   31.5205    8.3364 H   0  0  0  0  0
  1  2  1  0  0  0
  1  6  1  0  0  0
  2  7  1  0  0  0
  7  3  1  0  0  0
  7  4  1  0  0  0
  7  5  1  0  0  0
  1  8  1  0  0  0
  1  9  1  0  0  0
  2 10  1  0  0  0
  2 11  1  0  0  0
  3 12  1  0  0  0
  3 13  1  0  0  0
  3 14  1  0  0  0
  4 15  1  0  0  0
  4 16  1  0  0  0
  4 17  1  0  0  0
  5 18  1  0  0  0
  5 19  1  0  0  0
  5 20  1  0  0  0
  6 21  1  0  0  0
M  END
$$$$
