8hvp_ligand
  -I-interpret- 

135134  0  0  0  0  0  0  0  0999 V2000
    1.0020    5.2560    2.4530 N   0  3  0  0  0
    1.9820    6.3160    2.8350 C   0  0  0  0  0
    1.9240    6.5840    4.3480 C   0  0  0  0  0
    2.5670    7.4940    4.9040 O   0  0  0  0  0
    1.9220    7.4940    1.8420 C   0  0  0  0  0
    0.8530    8.5550    2.1100 C   0  0  0  0  0
    3.2670    8.1640    1.5910 C   0  0  0  0  0
    1.2300    5.7170    5.0550 N   0  0  0  0  0
    1.1380    5.7310    6.5190 C   0  0  0  0  0
    1.9960    4.5750    7.0750 C   0  0  0  0  0
    1.7090    3.4520    6.5870 O   0  0  0  0  0
   -0.3420    5.5850    6.8640 C   0  0  0  0  0
   -0.4610    4.6260    7.9200 O   0  0  0  0  0
    2.9620    4.7350    7.9850 N   0  0  0  0  0
    3.7350    3.6010    8.5290 C   0  0  0  0  0
    3.3780    3.2620    9.9960 C   0  0  0  0  0
    3.0680    4.1750   10.7400 O   0  0  0  0  0
    5.2580    3.7560    8.4280 C   0  0  0  0  0
    5.7550    4.8040    9.3600 C   0  0  0  0  0
    7.1520    4.7760    9.9120 C   0  0  0  0  0
    7.5000    5.7540   10.6080 O   0  0  0  0  0
    7.9060    3.7010    9.6510 N   0  0  0  0  0
    3.4640    1.9910   10.3560 N   0  0  0  0  0
    3.1540    1.3520   11.6200 C   0  0  0  0  0
    4.0790    0.2790   12.1810 C   0  0  0  0  0
    3.9390   -0.9260   11.9130 O   0  0  0  0  0
    1.7830    0.6110   11.5390 C   0  0  0  0  0
    0.7950    1.7170   11.2240 C   0  0  0  0  0
    0.3930    1.8520   10.0760 O   0  0  0  0  0
    0.5960    2.4920   12.3000 N   0  0  0  0  0
    6.9900    1.4400   11.3230 C   0  0  0  0  0
    9.0020    1.8760   12.5150 C   0  0  0  0  0
    7.8610    0.8620   12.4180 C   0  0  0  0  0
    7.1630    0.7720   13.7870 C   0  0  0  0  0
    5.9040   -0.1010   13.8140 C   0  0  0  0  0
    5.4650   -0.6750   15.1370 C   0  0  0  0  0
    4.8810    0.7220   13.1260 N   0  0  0  0  0
    5.3690    0.2520   16.1900 O   0  0  0  0  0
    4.3100   -1.6420   15.1090 C   0  0  0  0  0
    4.5670   -2.9080   15.9400 C   0  0  0  0  0
    3.2690   -3.7610   15.8890 C   0  0  0  0  0
    3.4780   -5.2770   15.9020 C   0  0  0  0  0
    2.3420   -3.4570   17.0470 C   0  0  0  0  0
    5.8300   -3.6840   15.5510 C   0  0  0  0  0
    6.2810   -3.7280   14.3740 O   0  0  0  0  0
    6.4270   -4.3430   16.5120 N   0  0  0  0  0
    7.5510   -5.2490   16.2610 C   0  0  0  0  0
    7.2490   -6.4450   17.1810 C   0  0  0  0  0
    7.0220   -6.1860   18.3730 O   0  0  0  0  0
    9.0100   -4.7480   16.3510 C   0  0  0  0  0
   10.0030   -5.6580   15.5650 C   0  0  0  0  0
    9.6280   -4.8870   17.7930 C   0  0  0  0  0
    9.3410   -6.7070   14.6340 C   0  0  0  0  0
    7.1640   -7.6510   16.6710 N   0  0  0  0  0
    6.9320   -8.7560   17.6470 C   0  0  0  0  0
    8.0450   -9.7880   17.3970 C   0  0  0  0  0
    8.5500   -9.8630   16.2470 O   0  0  0  0  0
    5.4770   -9.1940   17.7100 C   0  0  0  0  0
    4.5750   -8.2120   18.4850 C   0  0  0  0  0
    4.8010   -9.5690   16.3970 C   0  0  0  0  0
    8.2990  -10.5400   18.3650 O   0  0  0  0  0
    1.0548    5.0922    1.4476 H   0  0  0  0  0
    1.2238    4.3941    2.9513 H   0  0  0  0  0
    0.0603    5.5603    2.7001 H   0  0  0  0  0
    3.0164    5.9935    2.7163 H   0  0  0  0  0
    1.6119    6.9804    0.9319 H   0  0  0  0  0
    1.1337    9.1384    2.9869 H   0  0  0  0  0
    0.7713    9.2132    1.2450 H   0  0  0  0  0
   -0.1051    8.0667    2.2883 H   0  0  0  0  0
    3.1879    8.8218    0.7255 H   0  0  0  0  0
    3.5502    8.7470    2.4674 H   0  0  0  0  0
    4.0218    7.4009    1.4012 H   0  0  0  0  0
    0.7234    4.9883    4.5522 H   0  0  0  0  0
    1.5161    6.6519    6.9629 H   0  0  0  0  0
   -0.9001    5.2512    5.9893 H   0  0  0  0  0
   -0.7499    6.5448    7.1809 H   0  0  0  0  0
   -1.3866    4.5200    8.1517 H   0  0  0  0  0
    3.1731    5.6764    8.3161 H   0  0  0  0  0
    3.4336    2.7791    7.8795 H   0  0  0  0  0
    5.5112    4.0482    7.4089 H   0  0  0  0  0
    5.7227    2.8062    8.6926 H   0  0  0  0  0
    5.1270    4.6825   10.2426 H   0  0  0  0  0
    5.7336    5.7135    8.7597 H   0  0  0  0  0
    8.8495    3.6349   10.0329 H   0  0  0  0  0
    7.5370    2.9480    9.0703 H   0  0  0  0  0
    3.8021    1.3611    9.6285 H   0  0  0  0  0
    3.2219    2.2213   12.2741 H   0  0  0  0  0
    1.5389    0.0858   12.4624 H   0  0  0  0  0
    1.7798   -0.1766   10.7855 H   0  0  0  0  0
    0.0333    3.3391   12.2213 H   0  0  0  0  0
    1.0073    2.2344   13.1972 H   0  0  0  0  0
    6.1064    0.8146   11.1952 H   0  0  0  0  0
    6.6853    2.4498   11.5978 H   0  0  0  0  0
    7.5533    1.4702   10.3903 H   0  0  0  0  0
    9.5160    1.9355   11.5557 H   0  0  0  0  0
    8.5961    2.8543   12.7724 H   0  0  0  0  0
    9.7042    1.5583   13.2858 H   0  0  0  0  0
    8.1542   -0.1605   12.1801 H   0  0  0  0  0
    6.8512    1.7831   14.0490 H   0  0  0  0  0
    7.8761    0.3182   14.4752 H   0  0  0  0  0
    6.1069   -1.0465   13.3111 H   0  0  0  0  0
    6.3241   -1.3042   15.3699 H   0  0  0  0  0
    4.7924    1.6993   13.4042 H   0  0  0  0  0
    5.0849   -0.2000   16.9878 H   0  0  0  0  0
    4.1590   -1.9491   14.0741 H   0  0  0  0  0
    3.4430   -1.1362   15.5339 H   0  0  0  0  0
    4.7886   -2.6211   16.9679 H   0  0  0  0  0
    2.8406   -3.4740   14.9287 H   0  0  0  0  0
    4.0729   -5.5679   15.0362 H   0  0  0  0  0
    3.9996   -5.5628   16.8154 H   0  0  0  0  0
    2.5098   -5.7763   15.8636 H   0  0  0  0  0
    2.8530   -3.6710   17.9857 H   0  0  0  0  0
    2.0590   -2.4048   17.0176 H   0  0  0  0  0
    1.4490   -4.0771   16.9684 H   0  0  0  0  0
    6.0979   -4.2214   17.4698 H   0  0  0  0  0
    7.5757   -5.4625   15.1924 H   0  0  0  0  0
    8.9227   -3.7240   15.9878 H   0  0  0  0  0
   10.5731   -6.2148   16.3087 H   0  0  0  0  0
   10.5922   -5.0000   14.9263 H   0  0  0  0  0
    9.0358   -4.3042   18.4984 H   0  0  0  0  0
    9.6212   -5.9357   18.0903 H   0  0  0  0  0
   10.6533   -4.5170   17.7847 H   0  0  0  0  0
    8.7124   -7.3716   15.2267 H   0  0  0  0  0
    8.7308   -6.1962   13.8891 H   0  0  0  0  0
   10.1162   -7.2879   14.1342 H   0  0  0  0  0
    7.2511   -7.8227   15.6693 H   0  0  0  0  0
    7.0368   -8.4616   18.6913 H   0  0  0  0  0
    8.1853   -9.1692   15.6927 H   0  0  0  0  0
    5.5759  -10.1288   18.2619 H   0  0  0  0  0
    4.9350   -8.1215   19.5098 H   0  0  0  0  0
    4.6031   -7.2357   18.0011 H   0  0  0  0  0
    3.5516   -8.5872   18.4899 H   0  0  0  0  0
    4.8171   -8.7119   15.7238 H   0  0  0  0  0
    5.3352  -10.4019   15.9397 H   0  0  0  0  0
    3.7689   -9.8606   16.5915 H   0  0  0  0  0
  2  1  1  0  0  0
  2  5  1  0  0  0
  3  2  1  0  0  0
  3  4  2  0  0  0
  5  7  1  0  0  0
  5  6  1  0  0  0
  9  8  1  0  0  0
  9 12  1  0  0  0
 10  9  1  0  0  0
 10 11  2  0  0  0
 12 13  1  0  0  0
  8  3  1  0  0  0
 15 14  1  0  0  0
 15 18  1  0  0  0
 16 15  1  0  0  0
 16 17  2  0  0  0
 18 19  1  0  0  0
 19 20  1  0  0  0
 20 22  1  0  0  0
 20 21  2  0  0  0
 14 10  1  0  0  0
 24 23  1  0  0  0
 24 27  1  0  0  0
 25 24  1  0  0  0
 25 26  2  0  0  0
 27 28  1  0  0  0
 28 30  1  0  0  0
 28 29  2  0  0  0
 23 16  1  0  0  0
 46 47  1  0  0  0
 47 50  1  0  0  0
 47 48  1  0  0  0
 48 49  2  0  0  0
 50 52  1  0  0  0
 50 51  1  0  0  0
 51 53  1  0  0  0
 54 55  1  0  0  0
 55 58  1  0  0  0
 55 56  1  0  0  0
 56 57  1  0  0  0
 56 61  2  0  0  0
 58 60  1  0  0  0
 58 59  1  0  0  0
 48 54  1  0  0  0
 33 31  1  0  0  0
 34 33  1  0  0  0
 35 34  1  0  0  0
 36 35  1  0  0  0
 35 37  1  0  0  0
 36 38  1  0  0  0
 39 36  1  0  0  0
 37 25  1  0  0  0
 40 39  1  0  0  0
 40 41  1  0  0  0
 44 40  1  0  0  0
 41 42  1  0  0  0
 41 43  1  0  0  0
 44 45  2  0  0  0
 44 46  1  0  0  0
 33 32  1  0  0  0
  1 62  1  0  0  0
  1 63  1  0  0  0
  1 64  1  0  0  0
  2 65  1  0  0  0
  5 66  1  0  0  0
  6 67  1  0  0  0
  6 68  1  0  0  0
  6 69  1  0  0  0
  7 70  1  0  0  0
  7 71  1  0  0  0
  7 72  1  0  0  0
  8 73  1  0  0  0
  9 74  1  0  0  0
 12 75  1  0  0  0
 12 76  1  0  0  0
 13 77  1  0  0  0
 14 78  1  0  0  0
 15 79  1  0  0  0
 18 80  1  0  0  0
 18 81  1  0  0  0
 19 82  1  0  0  0
 19 83  1  0  0  0
 22 84  1  0  0  0
 22 85  1  0  0  0
 23 86  1  0  0  0
 24 87  1  0  0  0
 27 88  1  0  0  0
 27 89  1  0  0  0
 30 90  1  0  0  0
 30 91  1  0  0  0
 31 92  1  0  0  0
 31 93  1  0  0  0
 31 94  1  0  0  0
 32 95  1  0  0  0
 32 96  1  0  0  0
 32 97  1  0  0  0
 33 98  1  0  0  0
 34 99  1  0  0  0
 34100  1  0  0  0
 35101  1  0  0  0
 36102  1  0  0  0
 37103  1  0  0  0
 38104  1  0  0  0
 39105  1  0  0  0
 39106  1  0  0  0
 40107  1  0  0  0
 41108  1  0  0  0
 42109  1  0  0  0
 42110  1  0  0  0
 42111  1  0  0  0
 43112  1  0  0  0
 43113  1  0  0  0
 43114  1  0  0  0
 46115  1  0  0  0
 47116  1  0  0  0
 50117  1  0  0  0
 51118  1  0  0  0
 51119  1  0  0  0
 52120  1  0  0  0
 52121  1  0  0  0
 52122  1  0  0  0
 53123  1  0  0  0
 53124  1  0  0  0
 53125  1  0  0  0
 54126  1  0  0  0
 55127  1  0  0  0
 57128  1  0  0  0
 58129  1  0  0  0
 59130  1  0  0  0
 59131  1  0  0  0
 59132  1  0  0  0
 60133  1  0  0  0
 60134  1  0  0  0
 60135  1  0  0  0
M  END
$$$$
