6ei4_ligand
  -I-interpret- 

 45 47  0  0  0  0  0  0  0  0999 V2000
   -0.4230  -16.7360   15.1390 C   0  0  0  0  0
    0.5950  -15.7880   14.9930 C   0  0  0  0  0
   -0.1300  -18.1060   15.0170 C   0  0  0  0  0
    1.8910  -16.2010   14.7280 C   0  0  0  0  0
    1.1580  -18.5130   14.7540 C   0  0  0  0  0
    2.1800  -17.5620   14.6080 C   0  0  0  0  0
   -1.2500  -19.1550   15.1770 C   0  0  0  0  0
   -3.3470  -21.0370   14.7380 C   0  0  0  0  0
   -2.2010  -20.6190   13.8050 C   0  0  0  0  0
   -3.9660  -18.5260   14.5740 C   0  0  0  0  0
   -2.7150  -18.4790   13.6630 C   0  0  0  0  0
   -5.7160  -20.2760   15.3060 C   0  0  0  0  0
   -6.7830  -19.1280   15.4530 C   0  0  0  0  0
   -8.4580  -18.0110   16.7720 C   0  0  0  0  0
   -7.5280  -19.0110   16.6400 C   0  0  0  0  0
   -8.6690  -17.0930   15.7040 C   0  0  0  0  0
   -7.9300  -17.2120   14.5300 C   0  0  0  0  0
   -6.9890  -18.2270   14.4030 C   0  0  0  0  0
   -7.2960  -20.0010   17.7840 C   0  0  0  0  0
    2.8960  -15.2670   14.5840 F   0  0  0  0  0
   -1.8310  -19.3760   13.9760 N   0  3  0  0  0
   -4.3330  -19.9540   14.8710 N   0  0  0  0  0
   -6.0210  -21.4160   15.5470 O   0  0  0  0  0
   -1.4430  -16.4130   15.3473 H   0  0  0  0  0
    0.3693  -14.7258   15.0875 H   0  0  0  0  0
    1.3848  -19.5749   14.6590 H   0  0  0  0  0
    3.1999  -17.8860   14.4008 H   0  0  0  0  0
   -1.9964  -18.7870   15.8810 H   0  0  0  0  0
   -0.8266  -20.0859   15.5541 H   0  0  0  0  0
   -2.9354  -21.2606   15.7222 H   0  0  0  0  0
   -3.8412  -21.9128   14.3174 H   0  0  0  0  0
   -2.5534  -20.7226   12.7788 H   0  0  0  0  0
   -1.3435  -21.2544   14.0266 H   0  0  0  0  0
   -4.7986  -18.0403   14.0651 H   0  0  0  0  0
   -3.7482  -18.0099   15.5090 H   0  0  0  0  0
   -2.2526  -17.4991   13.7813 H   0  0  0  0  0
   -3.0392  -18.6724   12.6405 H   0  0  0  0  0
   -9.0343  -17.9194   17.6926 H   0  0  0  0  0
   -9.4080  -16.2983   15.8055 H   0  0  0  0  0
   -8.0892  -16.5100   13.7115 H   0  0  0  0  0
   -6.4107  -18.3211   13.4839 H   0  0  0  0  0
   -7.5066  -21.0123   17.4360 H   0  0  0  0  0
   -6.2589  -19.9373   18.1132 H   0  0  0  0  0
   -7.9579  -19.7560   18.6147 H   0  0  0  0  0
   -1.1033  -19.2459   13.2732 H   0  0  0  0  0
  1  2  4  0  0  0
  3  1  4  0  0  0
  2  4  4  0  0  0
  3  5  4  0  0  0
  7  3  1  0  0  0
  6  4  4  0  0  0
  4 20  1  0  0  0
  5  6  4  0  0  0
 21  7  1  0  0  0
  8  9  1  0  0  0
 22  8  1  0  0  0
  9 21  1  0  0  0
 10 11  1  0  0  0
 22 10  1  0  0  0
 11 21  1  0  0  0
 12 13  1  0  0  0
 12 22  1  0  0  0
 12 23  2  0  0  0
 13 15  4  0  0  0
 13 18  4  0  0  0
 15 14  4  0  0  0
 14 16  4  0  0  0
 15 19  1  0  0  0
 16 17  4  0  0  0
 17 18  4  0  0  0
  1 24  1  0  0  0
  2 25  1  0  0  0
  5 26  1  0  0  0
  6 27  1  0  0  0
  7 28  1  0  0  0
  7 29  1  0  0  0
  8 30  1  0  0  0
  8 31  1  0  0  0
  9 32  1  0  0  0
  9 33  1  0  0  0
 10 34  1  0  0  0
 10 35  1  0  0  0
 11 36  1  0  0  0
 11 37  1  0  0  0
 14 38  1  0  0  0
 16 39  1  0  0  0
 17 40  1  0  0  0
 18 41  1  0  0  0
 19 42  1  0  0  0
 19 43  1  0  0  0
 19 44  1  0  0  0
 21 45  1  0  0  0
M  END
$$$$
