4rww_ligand
  -I-interpret- 

 68 74  0  0  0  0  0  0  0  0999 V2000
   59.7810   74.0240  -87.8770 P   0  0  0  0  0
   59.2200   73.4190  -86.6290 O   0  0  0  0  0
   60.9150   75.0240  -87.8200 O   0  0  0  0  0
   58.6440   74.7680  -88.7320 O   0  0  0  0  0
   57.3730   74.1040  -88.9500 C   0  0  0  0  0
   56.4560   75.0190  -89.7280 C   0  0  0  0  0
   56.1990   76.2010  -88.9960 O   0  0  0  0  0
   57.0340   75.5140  -91.0460 C   0  0  0  0  0
   56.8820   74.4940  -92.0320 O   0  0  0  0  0
   56.3110   76.8140  -91.3340 C   0  0  0  0  0
   55.2740   76.6680  -92.2980 O   0  0  0  0  0
   55.6910   77.0620  -89.9740 C   0  0  0  0  0
   55.7950   78.4100  -89.5790 N   0  0  0  0  0
   54.7220   79.2080  -89.2090 C   0  0  0  0  0
   55.1510   80.3930  -88.7350 N   0  0  0  0  0
   56.5100   80.2740  -88.7870 C   0  0  0  0  0
   57.5690   81.1860  -88.4280 C   0  0  0  0  0
   57.2750   82.4130  -87.9730 N   0  0  0  0  0
   58.8240   80.7590  -88.6150 N   0  0  0  0  0
   59.1000   79.5320  -89.0250 C   0  0  0  0  0
   58.2090   78.6310  -89.4410 N   0  0  0  0  0
   56.8980   78.9730  -89.2690 C   0  0  0  0  0
   57.9910   74.2830  -93.1730 P   0  0  0  0  0
   58.4360   75.5820  -93.7190 O   0  0  0  0  0
   57.4580   73.2410  -94.1480 O   0  0  0  0  0
   59.2580   73.6410  -92.3970 O   0  0  0  0  0
   59.2440   72.3340  -91.8230 C   0  0  0  0  0
   60.5710   72.1280  -91.1510 C   0  0  0  0  0
   61.6340   72.1950  -92.1210 O   0  0  0  0  0
   60.9120   73.1610  -90.0990 C   0  0  0  0  0
   60.2730   72.8290  -88.8700 O   0  0  0  0  0
   62.4370   73.0600  -90.0160 C   0  0  0  0  0
   62.8360   71.9040  -89.2700 O   0  0  0  0  0
   62.7730   72.8040  -91.4730 C   0  0  0  0  0
   63.0300   74.0500  -92.1930 N   0  0  0  0  0
   62.1360   74.9580  -92.7600 C   0  0  0  0  0
   62.7960   75.9420  -93.4120 N   0  0  0  0  0
   64.1320   75.8120  -93.0470 C   0  0  0  0  0
   65.3320   76.5150  -93.4440 C   0  0  0  0  0
   65.2470   77.6500  -94.1910 N   0  0  0  0  0
   66.5080   75.9990  -93.0570 N   0  0  0  0  0
   66.5470   74.8780  -92.3200 C   0  0  0  0  0
   65.4690   74.1310  -91.9760 N   0  0  0  0  0
   64.2630   74.5630  -92.3650 C   0  0  0  0  0
   61.1408   75.3011  -88.7109 H   0  0  0  0  0
   56.9181   73.8639  -87.9890 H   0  0  0  0  0
   57.5342   73.1851  -89.5136 H   0  0  0  0  0
   55.5718   74.4085  -89.9110 H   0  0  0  0  0
   58.1049   75.7164  -91.0292 H   0  0  0  0  0
   56.9576   77.5941  -91.7358 H   0  0  0  0  0
   54.8508   77.5175  -92.4423 H   0  0  0  0  0
   54.6290   76.8390  -90.0770 H   0  0  0  0  0
   53.6751   78.9157  -89.2908 H   0  0  0  0  0
   56.3015   82.7028  -87.8803 H   0  0  0  0  0
   58.0250   83.0563  -87.7197 H   0  0  0  0  0
   60.1476   79.2309  -89.0226 H   0  0  0  0  0
   57.2062   72.4509  -93.6642 H   0  0  0  0  0
   59.0829   71.5792  -92.5927 H   0  0  0  0  0
   58.4311   72.2404  -91.1029 H   0  0  0  0  0
   60.4815   71.1530  -90.6719 H   0  0  0  0  0
   60.5795   74.1735  -90.3278 H   0  0  0  0  0
   62.9082   73.9238  -89.5470 H   0  0  0  0  0
   63.7944   71.8637  -89.2327 H   0  0  0  0  0
   63.6578   72.1677  -91.4937 H   0  0  0  0  0
   61.0509   74.8844  -92.6874 H   0  0  0  0  0
   64.3344   78.0078  -94.4729 H   0  0  0  0  0
   66.0959   78.1425  -94.4687 H   0  0  0  0  0
   67.5229   74.5413  -91.9702 H   0  0  0  0  0
  1  2  2  0  0  0
  1  3  1  0  0  0
  1  4  1  0  0  0
  1 31  1  0  0  0
  4  5  1  0  0  0
  5  6  1  0  0  0
  6  7  1  0  0  0
  6  8  1  0  0  0
  7 12  1  0  0  0
  8  9  1  0  0  0
  8 10  1  0  0  0
  9 23  1  0  0  0
 10 11  1  0  0  0
 10 12  1  0  0  0
 12 13  1  0  0  0
 13 14  4  0  0  0
 13 22  4  0  0  0
 14 15  4  0  0  0
 15 16  4  0  0  0
 16 17  4  0  0  0
 16 22  4  0  0  0
 17 18  1  0  0  0
 17 19  4  0  0  0
 19 20  4  0  0  0
 20 21  4  0  0  0
 21 22  4  0  0  0
 23 24  2  0  0  0
 23 25  1  0  0  0
 23 26  1  0  0  0
 26 27  1  0  0  0
 27 28  1  0  0  0
 28 29  1  0  0  0
 28 30  1  0  0  0
 29 34  1  0  0  0
 30 31  1  0  0  0
 30 32  1  0  0  0
 32 33  1  0  0  0
 32 34  1  0  0  0
 34 35  1  0  0  0
 35 36  4  0  0  0
 35 44  4  0  0  0
 36 37  4  0  0  0
 37 38  4  0  0  0
 38 39  4  0  0  0
 38 44  4  0  0  0
 39 40  1  0  0  0
 39 41  4  0  0  0
 41 42  4  0  0  0
 42 43  4  0  0  0
 43 44  4  0  0  0
  3 45  1  0  0  0
  5 46  1  0  0  0
  5 47  1  0  0  0
  6 48  1  0  0  0
  8 49  1  0  0  0
 10 50  1  0  0  0
 11 51  1  0  0  0
 12 52  1  0  0  0
 14 53  1  0  0  0
 18 54  1  0  0  0
 18 55  1  0  0  0
 20 56  1  0  0  0
 25 57  1  0  0  0
 27 58  1  0  0  0
 27 59  1  0  0  0
 28 60  1  0  0  0
 30 61  1  0  0  0
 32 62  1  0  0  0
 33 63  1  0  0  0
 34 64  1  0  0  0
 36 65  1  0  0  0
 40 66  1  0  0  0
 40 67  1  0  0  0
 42 68  1  0  0  0
M  END
$$$$
