6n3y_ligand
  -I-interpret- 

 55 59  0  0  0  0  0  0  0  0999 V2000
  -29.8800    4.4000  -35.0150 O   0  0  0  0  0
  -29.1990    4.6430  -33.9980 C   0  0  0  0  0
  -27.8610    4.7230  -34.0480 N   0  0  0  0  0
  -27.0970    4.9810  -32.9790 C   0  0  0  0  0
  -25.7490    5.0440  -33.1390 N   0  0  0  0  0
  -27.6410    5.2050  -31.7590 N   0  0  0  0  0
  -28.9820    5.1530  -31.5700 C   0  0  0  0  0
  -29.8590    4.8640  -32.7090 C   0  0  0  0  0
  -31.1270    4.8710  -32.2560 N   0  0  0  0  0
  -31.0700    5.1490  -30.9260 C   0  0  0  0  0
  -29.7940    5.3000  -30.5230 N   0  0  0  0  0
  -29.3720    5.6660  -29.1750 C   0  0  0  0  0
  -29.7270    4.6360  -28.2940 O   0  0  0  0  0
  -30.1040    6.9050  -28.6570 C   0  0  0  0  0
  -29.5240    8.1120  -29.1140 O   0  0  0  0  0
  -30.0400    6.7120  -27.1380 C   0  0  0  0  0
  -28.9140    7.4130  -26.6090 O   0  0  0  0  0
  -29.8670    5.1950  -26.9660 C   0  0  0  0  0
  -31.0110    4.5110  -26.2760 C   0  0  0  0  0
  -30.7100    4.3160  -24.9070 O   0  0  0  0  0
  -31.6440    4.7160  -23.8900 C   0  0  0  0  0
  -32.7280    4.1620  -23.8400 O   0  0  0  0  0
  -31.2150    5.6850  -23.0930 N   0  0  0  0  0
  -32.0700    6.6900  -22.5110 C   0  0  0  0  0
  -32.5140    7.8010  -23.4570 C   0  0  0  0  0
  -33.9850    8.0220  -23.1880 C   0  0  0  0  0
  -35.0250    7.8240  -24.0890 C   0  0  0  0  0
  -34.5730    8.4320  -21.9920 C   0  0  0  0  0
  -34.0010    8.7640  -20.7630 C   0  0  0  0  0
  -34.8250    9.1560  -19.7100 C   0  0  0  0  0
  -36.2080    9.2140  -19.9000 C   0  0  0  0  0
  -36.7670    8.8830  -21.1340 C   0  0  0  0  0
  -35.9460    8.4870  -22.1870 C   0  0  0  0  0
  -36.1970    8.1130  -23.4670 N   0  0  0  0  0
  -25.3373    4.8960  -34.0604 H   0  0  0  0  0
  -27.0311    5.4164  -30.9692 H   0  0  0  0  0
  -31.9394    5.2376  -30.2745 H   0  0  0  0  0
  -28.2988    5.8508  -29.2209 H   0  0  0  0  0
  -31.1278    6.9963  -29.0196 H   0  0  0  0  0
  -30.0180    8.8563  -28.7625 H   0  0  0  0  0
  -30.9194    7.0911  -26.6174 H   0  0  0  0  0
  -28.8790    7.2886  -25.6577 H   0  0  0  0  0
  -28.9973    5.0324  -26.3294 H   0  0  0  0  0
  -31.1827    3.5422  -26.7450 H   0  0  0  0  0
  -31.9019    5.1333  -26.3603 H   0  0  0  0  0
  -30.2185    5.7219  -22.8782 H   0  0  0  0  0
  -31.4932    7.1681  -21.7193 H   0  0  0  0  0
  -32.9757    6.1775  -22.1868 H   0  0  0  0  0
  -32.3423    7.5233  -24.4969 H   0  0  0  0  0
  -31.9423    8.7133  -23.2871 H   0  0  0  0  0
  -34.9177    7.4923  -25.1217 H   0  0  0  0  0
  -32.9204    8.7171  -20.6282 H   0  0  0  0  0
  -34.3931    9.4159  -18.7435 H   0  0  0  0  0
  -36.8547    9.5202  -19.0777 H   0  0  0  0  0
  -37.8467    8.9342  -21.2744 H   0  0  0  0  0
  1  2  2  0  0  0
  2  3  1  0  0  0
  2  8  1  0  0  0
  3  4  4  0  0  0
  4  5  2  0  0  0
  4  6  1  0  0  0
  6  7  1  0  0  0
  7  8  4  0  0  0
  7 11  4  0  0  0
  8  9  4  0  0  0
  9 10  4  0  0  0
 10 11  4  0  0  0
 11 12  1  0  0  0
 12 13  1  0  0  0
 12 14  1  0  0  0
 13 18  1  0  0  0
 14 15  1  0  0  0
 14 16  1  0  0  0
 16 17  1  0  0  0
 16 18  1  0  0  0
 18 19  1  0  0  0
 19 20  1  0  0  0
 20 21  1  0  0  0
 21 22  2  0  0  0
 21 23  1  0  0  0
 23 24  1  0  0  0
 24 25  1  0  0  0
 25 26  1  0  0  0
 26 27  4  0  0  0
 26 28  4  0  0  0
 27 34  4  0  0  0
 28 29  4  0  0  0
 28 33  4  0  0  0
 29 30  4  0  0  0
 30 31  4  0  0  0
 31 32  4  0  0  0
 32 33  4  0  0  0
 33 34  4  0  0  0
  5 35  1  0  0  0
  6 36  1  0  0  0
 10 37  1  0  0  0
 12 38  1  0  0  0
 14 39  1  0  0  0
 15 40  1  0  0  0
 16 41  1  0  0  0
 17 42  1  0  0  0
 18 43  1  0  0  0
 19 44  1  0  0  0
 19 45  1  0  0  0
 23 46  1  0  0  0
 24 47  1  0  0  0
 24 48  1  0  0  0
 25 49  1  0  0  0
 25 50  1  0  0  0
 27 51  1  0  0  0
 29 52  1  0  0  0
 30 53  1  0  0  0
 31 54  1  0  0  0
 32 55  1  0  0  0
M  END
$$$$
