4cku_ligand
  -I-interpret- 

102105  0  0  0  0  0  0  0  0999 V2000
   -0.2670  -12.4920  -45.2110 O   0  0  0  0  0
   -0.4520  -13.4140  -45.9530 C   0  0  0  0  0
    0.4710  -14.5830  -45.9840 C   0  0  0  0  0
    0.7970  -15.1360  -47.2230 C   0  0  0  0  0
    0.9710  -15.1180  -44.8070 C   0  0  0  0  0
    1.8080  -16.2240  -44.9000 C   0  0  0  0  0
    2.3230  -16.7880  -43.7400 N   0  0  0  0  0
    1.7500  -17.9640  -43.1310 C   0  0  0  0  0
    2.7760  -19.0500  -43.4130 C   0  0  0  0  0
    4.2280  -18.5610  -43.2740 C   0  0  0  0  0
    4.3840  -17.3530  -42.3660 C   0  0  0  0  0
    3.4970  -16.1240  -43.0510 S   0  0  0  0  0
    4.3130  -15.3550  -43.9450 O   0  0  0  0  0
    2.8810  -15.3390  -42.0130 O   0  0  0  0  0
    2.1530  -16.7640  -46.1260 C   0  0  0  0  0
    1.6560  -16.2190  -47.2820 C   0  0  0  0  0
    2.0190  -16.8260  -48.5910 C   0  0  0  0  0
    3.0220  -16.3410  -49.4210 N   0  0  0  0  0
    3.8130  -17.4640  -49.9820 C   0  0  0  0  0
    3.4370  -17.7710  -51.4140 C   0  0  0  0  0
    4.1610  -19.0260  -51.8750 C   0  0  0  0  0
    3.9580  -15.4230  -48.7020 C   0  0  0  0  0
    3.9340  -14.0390  -49.3290 C   0  0  0  0  0
    4.5620  -13.0280  -48.3790 C   0  0  0  0  0
    1.3740  -17.8040  -48.9100 O   0  0  0  0  0
   -1.5280  -13.4610  -46.7920 N   0  0  0  0  0
   -2.4510  -12.3040  -46.8040 C   0  0  0  0  0
   -2.6840  -12.0070  -48.2690 C   0  0  0  0  0
   -1.3650  -11.5730  -48.9030 C   0  0  0  0  0
   -0.6960  -12.3720  -49.8280 C   0  0  0  0  0
    0.5360  -11.9720  -50.3660 C   0  0  0  0  0
    1.0420  -10.7390  -49.9830 C   0  0  0  0  0
    0.3550   -9.9510  -49.0760 C   0  0  0  0  0
   -0.8590  -10.3830  -48.5110 C   0  0  0  0  0
   -3.7600  -12.7310  -46.1070 C   0  0  0  0  0
   -4.6680  -11.6250  -46.1490 O   0  0  0  0  0
   -3.5210  -13.0400  -44.6190 C   0  0  0  0  0
   -4.7960  -13.5230  -44.0200 N   0  3  0  0  0
   -4.7750  -13.5220  -42.5260 C   0  0  0  0  0
   -4.9500  -12.0980  -42.0310 C   0  0  0  0  0
   -5.9550  -14.3830  -42.0630 C   0  0  0  0  0
   -3.5130  -14.1830  -41.9650 C   0  0  0  0  0
   -2.9500  -15.3440  -42.4950 C   0  0  0  0  0
   -1.7850  -15.9840  -41.9760 C   0  0  0  0  0
   -1.2120  -15.4340  -40.8280 C   0  0  0  0  0
   -1.7980  -14.3000  -40.2740 C   0  0  0  0  0
   -2.9190  -13.6940  -40.8410 C   0  0  0  0  0
   -1.3220  -13.6790  -39.1470 O   0  0  0  0  0
    0.0800  -13.4700  -38.9340 C   0  0  0  0  0
    0.3778  -14.7176  -48.1381 H   0  0  0  0  0
    0.7160  -14.6853  -43.8396 H   0  0  0  0  0
    0.7667  -18.2051  -43.5349 H   0  0  0  0  0
    1.5649  -17.8327  -42.0649 H   0  0  0  0  0
    2.6349  -19.3790  -44.4425 H   0  0  0  0  0
    2.6239  -19.8460  -42.6841 H   0  0  0  0  0
    4.5685  -18.2674  -44.2669 H   0  0  0  0  0
    4.8043  -19.3749  -42.8340 H   0  0  0  0  0
    5.4324  -17.0701  -42.2720 H   0  0  0  0  0
    4.0288  -17.5746  -41.3596 H   0  0  0  0  0
    2.8210  -17.6241  -46.1732 H   0  0  0  0  0
    3.6130  -18.3517  -49.3819 H   0  0  0  0  0
    4.8652  -17.1800  -49.9619 H   0  0  0  0  0
    3.7233  -16.9338  -52.0506 H   0  0  0  0  0
    2.3606  -17.9298  -51.4792 H   0  0  0  0  0
    5.2374  -18.8679  -51.8089 H   0  0  0  0  0
    3.8757  -19.8632  -51.2380 H   0  0  0  0  0
    3.8871  -19.2434  -52.9074 H   0  0  0  0  0
    4.9691  -15.8246  -48.7697 H   0  0  0  0  0
    3.6465  -15.3450  -47.6604 H   0  0  0  0  0
    2.9013  -13.7523  -49.5274 H   0  0  0  0  0
    4.5000  -14.0566  -50.2604 H   0  0  0  0  0
    3.9993  -13.0101  -47.4457 H   0  0  0  0  0
    5.5943  -13.3137  -48.1769 H   0  0  0  0  0
    4.5404  -12.0390  -48.8368 H   0  0  0  0  0
   -1.6909  -14.2692  -47.3925 H   0  0  0  0  0
   -2.0654  -11.4259  -46.2859 H   0  0  0  0  0
   -3.4207  -11.2100  -48.3702 H   0  0  0  0  0
   -3.0571  -12.8999  -48.7706 H   0  0  0  0  0
   -1.1358  -13.3201  -50.1375 H   0  0  0  0  0
    1.0787  -12.6103  -51.0633 H   0  0  0  0  0
    1.9866  -10.3883  -50.3988 H   0  0  0  0  0
    0.7613   -8.9794  -48.7947 H   0  0  0  0  0
   -1.3795   -9.7716  -47.7738 H   0  0  0  0  0
   -4.1451  -13.6157  -46.6140 H   0  0  0  0  0
   -5.4905  -11.8711  -45.7194 H   0  0  0  0  0
   -3.1876  -12.1396  -44.1031 H   0  0  0  0  0
   -2.7518  -13.8058  -44.5191 H   0  0  0  0  0
   -4.9401  -14.4845  -44.3285 H   0  0  0  0  0
   -5.5395  -12.8930  -44.3211 H   0  0  0  0  0
   -4.1367  -11.4800  -42.4113 H   0  0  0  0  0
   -5.9029  -11.7057  -42.3863 H   0  0  0  0  0
   -4.9357  -12.0892  -40.9411 H   0  0  0  0  0
   -6.8848  -13.9541  -42.4367 H   0  0  0  0  0
   -5.8387  -15.3951  -42.4505 H   0  0  0  0  0
   -5.9780  -14.4101  -40.9736 H   0  0  0  0  0
   -3.4322  -15.7923  -43.3637 H   0  0  0  0  0
   -1.3602  -16.8656  -42.4560 H   0  0  0  0  0
   -0.3269  -15.8821  -40.3765 H   0  0  0  0  0
   -3.3323  -12.8020  -40.3703 H   0  0  0  0  0
    0.5913  -14.4325  -38.9189 H   0  0  0  0  0
    0.4813  -12.8566  -39.7407 H   0  0  0  0  0
    0.2297  -12.9625  -37.9810 H   0  0  0  0  0
  1  2  2  0  0  0
  2  3  1  0  0  0
  2 26  1  0  0  0
  3  4  4  0  0  0
  3  5  4  0  0  0
  4 16  4  0  0  0
  5  6  4  0  0  0
  6  7  1  0  0  0
  6 15  4  0  0  0
  7  8  1  0  0  0
  7 12  1  0  0  0
  8  9  1  0  0  0
  9 10  1  0  0  0
 10 11  1  0  0  0
 11 12  1  0  0  0
 12 13  2  0  0  0
 12 14  2  0  0  0
 15 16  4  0  0  0
 16 17  1  0  0  0
 17 18  1  0  0  0
 17 25  2  0  0  0
 18 19  1  0  0  0
 18 22  1  0  0  0
 19 20  1  0  0  0
 20 21  1  0  0  0
 22 23  1  0  0  0
 23 24  1  0  0  0
 26 27  1  0  0  0
 27 28  1  0  0  0
 27 35  1  0  0  0
 28 29  1  0  0  0
 29 30  4  0  0  0
 29 34  4  0  0  0
 30 31  4  0  0  0
 31 32  4  0  0  0
 32 33  4  0  0  0
 33 34  4  0  0  0
 35 36  1  0  0  0
 35 37  1  0  0  0
 37 38  1  0  0  0
 38 39  1  0  0  0
 39 40  1  0  0  0
 39 41  1  0  0  0
 39 42  1  0  0  0
 42 43  4  0  0  0
 42 47  4  0  0  0
 43 44  4  0  0  0
 44 45  4  0  0  0
 45 46  4  0  0  0
 46 47  4  0  0  0
 46 48  1  0  0  0
 48 49  1  0  0  0
  4 50  1  0  0  0
  5 51  1  0  0  0
  8 52  1  0  0  0
  8 53  1  0  0  0
  9 54  1  0  0  0
  9 55  1  0  0  0
 10 56  1  0  0  0
 10 57  1  0  0  0
 11 58  1  0  0  0
 11 59  1  0  0  0
 15 60  1  0  0  0
 19 61  1  0  0  0
 19 62  1  0  0  0
 20 63  1  0  0  0
 20 64  1  0  0  0
 21 65  1  0  0  0
 21 66  1  0  0  0
 21 67  1  0  0  0
 22 68  1  0  0  0
 22 69  1  0  0  0
 23 70  1  0  0  0
 23 71  1  0  0  0
 24 72  1  0  0  0
 24 73  1  0  0  0
 24 74  1  0  0  0
 26 75  1  0  0  0
 27 76  1  0  0  0
 28 77  1  0  0  0
 28 78  1  0  0  0
 30 79  1  0  0  0
 31 80  1  0  0  0
 32 81  1  0  0  0
 33 82  1  0  0  0
 34 83  1  0  0  0
 35 84  1  0  0  0
 36 85  1  0  0  0
 37 86  1  0  0  0
 37 87  1  0  0  0
 38 88  1  0  0  0
 38 89  1  0  0  0
 40 90  1  0  0  0
 40 91  1  0  0  0
 40 92  1  0  0  0
 41 93  1  0  0  0
 41 94  1  0  0  0
 41 95  1  0  0  0
 43 96  1  0  0  0
 44 97  1  0  0  0
 45 98  1  0  0  0
 47 99  1  0  0  0
 49100  1  0  0  0
 49101  1  0  0  0
 49102  1  0  0  0
M  END
$$$$
