3qd3_ligand
  -I-interpret- 

 61 64  0  0  0  0  0  0  0  0999 V2000
  -40.6660   16.4550   12.7750 C   0  0  0  0  0
  -41.8590   17.0570   12.4210 C   0  0  0  0  0
  -42.8460   15.0070   11.6940 C   0  0  0  0  0
  -44.4420   18.3530   11.9070 C   0  0  0  0  0
  -40.5730   15.0820   12.5770 C   0  0  0  0  0
  -42.9360   16.3710   11.8880 C   0  0  0  0  0
  -41.6550   14.4070   12.0490 C   0  0  0  0  0
  -44.1760   17.0560   11.5220 C   0  0  0  0  0
  -45.6630   18.8970   11.5510 C   0  0  0  0  0
  -39.5730   14.0880   12.7780 C   0  0  0  0  0
  -46.2440   16.9380   10.5330 C   0  0  0  0  0
  -50.2420   21.6380   12.2420 C   0  0  0  0  0
  -46.8400   22.4720   13.1470 C   0  0  0  0  0
  -45.6190   21.7220   13.6720 C   0  0  0  0  0
  -47.0210   20.9300   11.2520 C   0  0  0  0  0
  -47.7830   21.5260   12.4210 C   0  0  0  0  0
  -44.9120   20.9990   12.5490 C   0  0  0  0  0
  -44.3720   22.0000   11.5600 C   0  0  0  0  0
  -52.8060   21.8810   13.4010 C   0  0  0  0  0
  -53.3910   23.2460   11.4280 C   0  0  0  0  0
  -52.8950   20.8590   11.1140 C   0  0  0  0  0
  -52.5490   22.0890   11.9220 C   0  0  0  0  0
  -45.0780   16.3410   10.8320 N   0  0  0  0  0
  -46.5750   18.1870   10.8750 N   0  0  0  0  0
  -40.0080   12.8800   12.3970 N   0  0  0  0  0
  -41.2670   13.0950   11.9680 N   0  0  0  0  0
  -45.9870   20.2100   11.9740 N   0  0  0  0  0
  -38.3390   14.3720   13.2870 N   0  0  0  0  0
  -47.2060   16.2170    9.8180 N   0  0  0  0  0
  -49.0020   22.2040   12.0420 N   0  0  0  0  0
  -50.4770   20.5740   12.7930 O   0  0  0  0  0
  -51.1890   22.4510   11.7000 O   0  0  0  0  0
  -39.8376   17.0294   13.1896 H   0  0  0  0  0
  -41.9568   18.1323   12.5701 H   0  0  0  0  0
  -43.6749   14.4323   11.2808 H   0  0  0  0  0
  -43.7129   18.9316   12.4742 H   0  0  0  0  0
  -46.5074   23.2408   12.4496 H   0  0  0  0  0
  -47.3686   22.9171   13.9900 H   0  0  0  0  0
  -45.9459   20.9905   14.4111 H   0  0  0  0  0
  -44.9300   22.4393   14.1179 H   0  0  0  0  0
  -46.6472   21.6612   10.5352 H   0  0  0  0  0
  -47.6235   20.3111   10.5871 H   0  0  0  0  0
  -48.1084   20.7115   13.0682 H   0  0  0  0  0
  -44.0581   20.3969   12.8595 H   0  0  0  0  0
  -45.1955   22.5856   11.1513 H   0  0  0  0  0
  -43.6680   22.6627   12.0633 H   0  0  0  0  0
  -43.8634   21.4731   10.7527 H   0  0  0  0  0
  -52.5395   22.7868   13.9457 H   0  0  0  0  0
  -53.8616   21.6588   13.5573 H   0  0  0  0  0
  -52.2011   21.0484   13.7600 H   0  0  0  0  0
  -54.4454   23.0209   11.5885 H   0  0  0  0  0
  -53.1233   24.1489   11.9768 H   0  0  0  0  0
  -53.2085   23.3983   10.3642 H   0  0  0  0  0
  -52.2871   20.0202   11.4531 H   0  0  0  0  0
  -53.9504   20.6224   11.2488 H   0  0  0  0  0
  -52.6961   21.0507   10.0596 H   0  0  0  0  0
  -38.1005   15.3305   13.5415 H   0  0  0  0  0
  -37.6552   13.6257   13.4130 H   0  0  0  0  0
  -47.0159   15.2561    9.5335 H   0  0  0  0  0
  -48.0976   16.6521    9.5811 H   0  0  0  0  0
  -48.9424   23.1280   11.6142 H   0  0  0  0  0
  2  1  4  0  0  0
  1  5  4  0  0  0
  6  2  4  0  0  0
  6  3  4  0  0  0
  3  7  4  0  0  0
  4  8  4  0  0  0
  9  4  4  0  0  0
  7  5  4  0  0  0
  5 10  4  0  0  0
  8  6  1  0  0  0
  7 26  4  0  0  0
  8 23  4  0  0  0
  9 24  4  0  0  0
 27  9  1  0  0  0
 10 25  4  0  0  0
 10 28  1  0  0  0
 11 23  4  0  0  0
 24 11  4  0  0  0
 11 29  1  0  0  0
 12 30  1  0  0  0
 12 31  2  0  0  0
 32 12  1  0  0  0
 13 14  1  0  0  0
 16 13  1  0  0  0
 14 17  1  0  0  0
 16 15  1  0  0  0
 15 27  1  0  0  0
 30 16  1  0  0  0
 17 18  1  0  0  0
 27 17  1  0  0  0
 22 19  1  0  0  0
 22 20  1  0  0  0
 22 21  1  0  0  0
 22 32  1  0  0  0
 25 26  4  0  0  0
  1 33  1  0  0  0
  2 34  1  0  0  0
  3 35  1  0  0  0
  4 36  1  0  0  0
 13 37  1  0  0  0
 13 38  1  0  0  0
 14 39  1  0  0  0
 14 40  1  0  0  0
 15 41  1  0  0  0
 15 42  1  0  0  0
 16 43  1  0  0  0
 17 44  1  0  0  0
 18 45  1  0  0  0
 18 46  1  0  0  0
 18 47  1  0  0  0
 19 48  1  0  0  0
 19 49  1  0  0  0
 19 50  1  0  0  0
 20 51  1  0  0  0
 20 52  1  0  0  0
 20 53  1  0  0  0
 21 54  1  0  0  0
 21 55  1  0  0  0
 21 56  1  0  0  0
 28 57  1  0  0  0
 28 58  1  0  0  0
 29 59  1  0  0  0
 29 60  1  0  0  0
 30 61  1  0  0  0
M  END
$$$$
