### 
### Created by X-TOOL on Mon Sep 10 21:13:20 2018
### 

@<TRIPOS>MOLECULE
4um9_ligand
  186   186     1     0     0
SMALL
GAST_HUCK


@<TRIPOS>ATOM
      1 C          39.0810   32.2950   80.2240 C.2       1 ACE         0.1717
      2 O          38.2350   32.2700   79.3300 O.2       1 ACE        -0.3830
      3 N          39.7980   33.3760   80.5130 N.am      1 HIS        -0.2660
      4 CA         40.7170   33.9680   79.5480 C.3       1 HIS         0.1371
      5 C          42.0370   34.3760   80.2000 C.2       1 HIS         0.2054
      6 O          42.1640   35.4760   80.7390 O.2       1 HIS        -0.3942
      7 CB         40.0760   35.1780   78.8700 C.3       1 HIS         0.0147
      8 CG         40.9590   35.8340   77.8560 C.2       1 HIS        -0.0027
      9 ND1        41.5100   35.1470   76.7970 N.2       1 HIS        -0.3252
     10 CD2        41.3940   37.1110   77.7450 C.2       1 HIS         0.0291
     11 CE1        42.2440   35.9740   76.0730 C.2       1 HIS         0.0907
     12 NE2        42.1910   37.1720   76.6270 N.pl3     1 HIS        -0.2752
     13 N          43.0170   33.4810   80.1410 N.am      1 GLY        -0.2663
     14 CA         44.3210   33.7290   80.7250 C.3       1 GLY         0.1201
     15 C          45.2060   32.5020   80.6310 C.2       1 GLY         0.2007
     16 O          44.7920   31.4700   80.1040 O.2       1 GLY        -0.3947
     17 N          46.4250   32.6100   81.1470 N.am      1 ARG        -0.2640
     18 CA         47.3730   31.5010   81.1020 C.3       1 ARG         0.1311
     19 C          47.3030   30.6380   82.3660 C.2       1 ARG         0.2037
     20 O          47.5810   31.1090   83.4690 O.2       1 ARG        -0.3944
     21 CB         48.7930   32.0310   80.8950 C.3       1 ARG        -0.0092
     22 CG         49.7580   31.0090   80.3220 C.3       1 ARG        -0.0156
     23 CD         51.1010   31.6370   79.9880 C.3       1 ARG         0.0627
     24 NE         51.9690   30.7190   79.2550 N.pl3     1 ARG        -0.2723
     25 CZ         53.2970   30.7680   79.2830 C.cat     1 ARG         0.2882
     26 NH1        53.9090   31.6890   80.0150 N.pl3     1 ARG        -0.2849
     27 NH2        54.0140   29.8970   78.5860 N.pl3     1 ARG        -0.2849
     28 N          46.9270   29.3740   82.1930 N.am      1 GLY        -0.2664
     29 CA         46.7320   28.4590   83.3040 C.3       1 GLY         0.1201
     30 C          45.2880   28.3900   83.7720 C.2       1 GLY         0.2008
     31 O          44.4450   29.1580   83.3130 O.2       1 GLY        -0.3947
     32 N          45.0050   27.4720   84.6930 N.am      1 ASP        -0.2624
     33 CA         43.6560   27.3020   85.2330 C.3       1 ASP         0.1423
     34 C          43.3020   28.4270   86.2080 C.2       1 ASP         0.2056
     35 O          42.1260   28.7310   86.4230 O.2       1 ASP        -0.3943
     36 CB         43.5220   25.9360   85.9150 C.3       1 ASP         0.0406
     37 CG         42.1180   25.6710   86.4340 C.2       1 ASP         0.0393
     38 OD1        41.2270   25.3550   85.6170 O.co2     1 ASP        -0.5688
     39 OD2        41.9040   25.7630   87.6600 O.co2     1 ASP        -0.5688
     40 N          44.3280   29.0320   86.8020 N.am      1 LEU        -0.2636
     41 CA         44.1510   30.1500   87.7260 C.3       1 LEU         0.1312
     42 C          44.1620   31.5080   87.0270 C.2       1 LEU         0.2037
     43 O          44.2130   32.5430   87.6880 O.2       1 LEU        -0.3944
     44 CB         45.2350   30.1310   88.8030 C.3       1 LEU        -0.0101
     45 CG         45.1780   28.9990   89.8240 C.3       1 LEU        -0.0425
     46 CD1        46.3790   29.0680   90.7490 C.3       1 LEU        -0.0625
     47 CD2        43.8820   29.0770   90.6130 C.3       1 LEU        -0.0625
     48 N          44.1210   31.4970   85.6970 N.am      1 GLY        -0.2664
     49 CA         44.2090   32.7130   84.9010 C.3       1 GLY         0.1201
     50 C          43.1780   33.7900   85.2030 C.2       1 GLY         0.2007
     51 O          43.5320   34.9590   85.3710 O.2       1 GLY        -0.3947
     52 N          41.9050   33.4060   85.2610 N.am      1 ARG        -0.2640
     53 CA         40.8360   34.3590   85.5400 C.3       1 ARG         0.1311
     54 C          40.9510   34.9520   86.9430 C.2       1 ARG         0.2039
     55 O          40.7960   36.1590   87.1270 O.2       1 ARG        -0.3944
     56 CB         39.4670   33.6940   85.3740 C.3       1 ARG        -0.0092
     57 CG         39.2150   33.1070   83.9920 C.3       1 ARG        -0.0156
     58 CD         38.0580   33.8060   83.2860 C.3       1 ARG         0.0627
     59 NE         38.3980   35.1630   82.8640 N.pl3     1 ARG        -0.2723
     60 CZ         37.5790   35.9640   82.1870 C.cat     1 ARG         0.2882
     61 NH1        36.3660   35.5460   81.8530 N.pl3     1 ARG        -0.2849
     62 NH2        37.9730   37.1830   81.8430 N.pl3     1 ARG        -0.2849
     63 N          41.2300   34.1010   87.9270 N.am      1 LEU        -0.2637
     64 CA         41.2970   34.5380   89.3190 C.3       1 LEU         0.1312
     65 C          42.5480   35.3550   89.6000 C.2       1 LEU         0.2039
     66 O          42.5540   36.2140   90.4810 O.2       1 LEU        -0.3944
     67 CB         41.2520   33.3350   90.2630 C.3       1 LEU        -0.0101
     68 CG         39.8780   32.7760   90.6280 C.3       1 LEU        -0.0425
     69 CD1        40.0320   31.6040   91.5740 C.3       1 LEU        -0.0625
     70 CD2        39.0120   33.8520   91.2590 C.3       1 LEU        -0.0625
     71 N          43.6080   35.0790   88.8500 N.am      1 LYS        -0.2637
     72 CA         44.8610   35.8040   88.9990 C.3       1 LYS         0.1310
     73 C          44.7070   37.2300   88.4800 C.2       1 LYS         0.2039
     74 O          45.4050   38.1450   88.9200 O.2       1 LYS        -0.3944
     75 CB         45.9830   35.0720   88.2660 C.3       1 LYS        -0.0122
     76 CG         47.3740   35.5830   88.5620 C.3       1 LYS        -0.0440
     77 CD         48.4060   34.7000   87.8890 C.3       1 LYS        -0.0124
     78 CE         48.2950   33.2690   88.3910 C.3       1 LYS        -0.0354
     79 NZ         49.3410   32.3940   87.7990 N.4       1 LYS         0.2185
     80 N          43.7850   37.4020   87.5360 N.am      1 LYS        -0.2637
     81 CA         43.4750   38.7120   86.9730 C.3       1 LYS         0.1306
     82 C          42.3420   39.3930   87.7400 C.2       1 LYS         0.1992
     83 O          41.3590   38.7550   88.1110 O.2       1 LYS        -0.3947
     84 CB         43.1140   38.5860   85.4900 C.3       1 LYS        -0.0122
     85 CG         44.2710   38.1280   84.6080 C.3       1 LYS        -0.0440
     86 CD         43.9000   38.1520   83.1310 C.3       1 LYS        -0.0124
     87 CE         45.0830   37.7610   82.2570 C.3       1 LYS        -0.0354
     88 NZ         44.7530   37.8190   80.8060 N.4       1 LYS         0.2185
     89 N7         42.4880   40.6920   87.9800 N.am      1 NHH        -0.2990
     90 H          39.2496   31.3894   80.8049 H         1 ACE         0.1545
     91 H          39.7048   33.7946   81.4164 H         1 HIS         0.1893
     92 H          40.9342   33.2134   78.7777 H         1 HIS         0.0819
     93 H          39.8258   35.9184   79.6441 H         1 HIS         0.0420
     94 H          39.1551   34.8476   78.3673 H         1 HIS         0.0420
     95 H          41.1569   37.9355   78.4158 H         1 HIS         0.0729
     96 H          42.7982   35.7123   75.1728 H         1 HIS         0.1199
     97 H          42.6692   38.0148   76.2779 H         1 HIS         0.2361
     98 H          42.8504   32.6095   79.6797 H         1 GLY         0.1881
     99 H          44.1945   33.9998   81.7836 H         1 GLY         0.0763
    100 H          44.8021   34.5603   80.1888 H         1 GLY         0.0763
    101 H          46.6996   33.4705   81.5761 H         1 ARG         0.1883
    102 H          47.1127   30.8655   80.2427 H         1 ARG         0.0800
    103 H          49.1820   32.3660   81.8678 H         1 ARG         0.0313
    104 H          48.7455   32.8862   80.2048 H         1 ARG         0.0313
    105 H          49.3247   30.5831   79.4050 H         1 ARG         0.0301
    106 H          49.9116   30.2088   81.0610 H         1 ARG         0.0301
    107 H          51.6004   31.9258   80.9246 H         1 ARG         0.0689
    108 H          50.9307   32.5323   79.3720 H         1 ARG         0.0689
    109 H          51.5245   29.9885   78.6809 H         1 ARG         0.2642
    110 H          54.9380   31.7285   80.0380 H         1 ARG         0.2615
    111 H          53.3554   32.3648   80.5606 H         1 ARG         0.2615
    112 H          53.5421   29.1803   78.0163 H         1 ARG         0.2615
    113 H          55.0428   29.9372   78.6143 H         1 ARG         0.2615
    114 H          46.7727   29.0410   81.2628 H         1 GLY         0.1881
    115 H          47.3574   28.7916   84.1456 H         1 GLY         0.0763
    116 H          47.0463   27.4532   82.9887 H         1 GLY         0.0763
    117 H          45.7381   26.8793   85.0267 H         1 ASP         0.1884
    118 H          42.9446   27.3400   84.3949 H         1 ASP         0.0819
    119 H          44.2229   25.8958   86.7618 H         1 ASP         0.0478
    120 H          43.7810   25.1530   85.1871 H         1 ASP         0.0478
    121 H          45.2546   28.7094   86.6087 H         1 LEU         0.1883
    122 H          43.1730   30.0282   88.2146 H         1 LEU         0.0800
    123 H          45.1701   31.0798   89.3558 H         1 LEU         0.0315
    124 H          46.2079   30.0693   88.2934 H         1 LEU         0.0315
    125 H          45.2044   28.0388   89.2880 H         1 LEU         0.0298
    126 H          46.3265   28.2475   91.4798 H         1 LEU         0.0232
    127 H          46.3786   30.0318   91.2792 H         1 LEU         0.0232
    128 H          47.3024   28.9746   90.1586 H         1 LEU         0.0232
    129 H          43.0281   29.0251   89.9215 H         1 LEU         0.0232
    130 H          43.8471   30.0261   91.1680 H         1 LEU         0.0232
    131 H          43.8324   28.2363   91.3207 H         1 LEU         0.0232
    132 H          44.0261   30.6199   85.2261 H         1 GLY         0.1881
    133 H          44.0992   32.4305   83.8436 H         1 GLY         0.0763
    134 H          45.2061   33.1484   85.0626 H         1 GLY         0.0763
    135 H          41.6764   32.4442   85.1102 H         1 ARG         0.1883
    136 H          40.9147   35.1805   84.8127 H         1 ARG         0.0800
    137 H          38.6918   34.4485   85.5736 H         1 ARG         0.0313
    138 H          39.3873   32.8822   86.1120 H         1 ARG         0.0313
    139 H          38.9758   32.0384   84.0965 H         1 ARG         0.0301
    140 H          40.1249   33.2214   83.3845 H         1 ARG         0.0301
    141 H          37.2020   33.8549   83.9751 H         1 ARG         0.0689
    142 H          37.7806   33.2194   82.3978 H         1 ARG         0.0689
    143 H          39.3322   35.5229   83.1063 H         1 ARG         0.2642
    144 H          35.7333   36.1673   81.3290 H         1 ARG         0.2615
    145 H          36.0563   34.6000   82.1175 H         1 ARG         0.2615
    146 H          38.9146   37.5117   82.1005 H         1 ARG         0.2615
    147 H          37.3374   37.8008   81.3184 H         1 ARG         0.2615
    148 H          41.3977   33.1397   87.7084 H         1 LEU         0.1883
    149 H          40.4203   35.1716   89.5189 H         1 LEU         0.0800
    150 H          41.7461   33.6325   91.1997 H         1 LEU         0.0315
    151 H          41.8228   32.5228   89.7892 H         1 LEU         0.0315
    152 H          39.3860   32.4251   89.7089 H         1 LEU         0.0298
    153 H          39.0387   31.2078   91.8316 H         1 LEU         0.0232
    154 H          40.5428   31.9365   92.4897 H         1 LEU         0.0232
    155 H          40.6263   30.8162   91.0881 H         1 LEU         0.0232
    156 H          38.9092   34.6960   90.5610 H         1 LEU         0.0232
    157 H          39.4818   34.2015   92.1902 H         1 LEU         0.0232
    158 H          38.0177   33.4381   91.4827 H         1 LEU         0.0232
    159 H          43.5438   34.3537   88.1645 H         1 LYS         0.1883
    160 H          45.1156   35.8487   90.0682 H         1 LYS         0.0800
    161 H          45.8058   35.1696   87.1848 H         1 LYS         0.0312
    162 H          45.9412   34.0101   88.5500 H         1 LYS         0.0312
    163 H          47.5412   35.5747   89.6492 H         1 LYS         0.0269
    164 H          47.4723   36.6112   88.1837 H         1 LYS         0.0269
    165 H          49.4120   35.0846   88.1128 H         1 LYS         0.0317
    166 H          48.2410   34.7154   86.8016 H         1 LYS         0.0317
    167 H          47.3049   32.8728   88.1214 H         1 LYS         0.0813
    168 H          48.4057   33.2659   89.4854 H         1 LYS         0.0813
    169 H          49.2355   31.4566   88.1543 H         1 LYS         0.1994
    170 H          50.2527   32.7461   88.0456 H         1 LYS         0.1994
    171 H          49.2440   32.3859   86.7957 H         1 LYS         0.1994
    172 H          43.2858   36.6034   87.1998 H         1 LYS         0.1883
    173 H          44.3728   39.3418   87.0577 H         1 LYS         0.0800
    174 H          42.7738   39.5688   85.1318 H         1 LYS         0.0312
    175 H          42.2958   37.8572   85.3936 H         1 LYS         0.0312
    176 H          44.5481   37.1012   84.8889 H         1 LYS         0.0269
    177 H          45.1291   38.7968   84.7705 H         1 LYS         0.0269
    178 H          43.5743   39.1671   82.8598 H         1 LYS         0.0317
    179 H          43.0765   37.4439   82.9569 H         1 LYS         0.0317
    180 H          45.3870   36.7347   82.5105 H         1 LYS         0.0813
    181 H          45.9159   38.4506   82.4588 H         1 LYS         0.0813
    182 H          45.5620   37.5534   80.2666 H         1 LYS         0.1994
    183 H          44.4792   38.7576   80.5609 H         1 LYS         0.1994
    184 H          43.9945   37.1852   80.6083 H         1 LYS         0.1994
    185 H          41.7789   41.1913   88.4779 H         1 NHH         0.1815
    186 H          43.3070   41.1701   87.6627 H         1 NHH         0.1815
@<TRIPOS>BOND
     1    1    2 2  
     2    1    3 am 
     3    3    4 1  
     4    4    5 1  
     5    4    7 1  
     6    5    6 2  
     7    5   13 am 
     8    7    8 1  
     9    8    9 1  
    10    8   10 2  
    11    9   11 2  
    12   10   12 1  
    13   11   12 1  
    14   13   14 1  
    15   14   15 1  
    16   15   16 2  
    17   15   17 am 
    18   17   18 1  
    19   18   19 1  
    20   18   21 1  
    21   19   20 2  
    22   19   28 am 
    23   21   22 1  
    24   22   23 1  
    25   23   24 1  
    26   24   25 ar 
    27   25   26 ar 
    28   25   27 ar 
    29   28   29 1  
    30   29   30 1  
    31   30   31 2  
    32   30   32 am 
    33   32   33 1  
    34   33   34 1  
    35   33   36 1  
    36   34   35 2  
    37   34   40 am 
    38   36   37 1  
    39   37   38 ar 
    40   37   39 ar 
    41   40   41 1  
    42   41   42 1  
    43   41   44 1  
    44   42   43 2  
    45   42   48 am 
    46   44   45 1  
    47   45   46 1  
    48   45   47 1  
    49   48   49 1  
    50   49   50 1  
    51   50   51 2  
    52   50   52 am 
    53   52   53 1  
    54   53   54 1  
    55   53   56 1  
    56   54   55 2  
    57   54   63 am 
    58   56   57 1  
    59   57   58 1  
    60   58   59 1  
    61   59   60 ar 
    62   60   61 ar 
    63   60   62 ar 
    64   63   64 1  
    65   64   65 1  
    66   64   67 1  
    67   65   66 2  
    68   65   71 am 
    69   67   68 1  
    70   68   69 1  
    71   68   70 1  
    72   71   72 1  
    73   72   73 1  
    74   72   75 1  
    75   73   74 2  
    76   73   80 am 
    77   75   76 1  
    78   76   77 1  
    79   77   78 1  
    80   78   79 1  
    81   80   81 1  
    82   81   82 1  
    83   81   84 1  
    84   82   83 2  
    85   82   89 am 
    86   84   85 1  
    87   85   86 1  
    88   86   87 1  
    89   87   88 1  
    90    1   90 1  
    91    3   91 1  
    92    4   92 1  
    93    7   93 1  
    94    7   94 1  
    95   10   95 1  
    96   11   96 1  
    97   12   97 1  
    98   13   98 1  
    99   14   99 1  
   100   14  100 1  
   101   17  101 1  
   102   18  102 1  
   103   21  103 1  
   104   21  104 1  
   105   22  105 1  
   106   22  106 1  
   107   23  107 1  
   108   23  108 1  
   109   24  109 1  
   110   26  110 1  
   111   26  111 1  
   112   27  112 1  
   113   27  113 1  
   114   28  114 1  
   115   29  115 1  
   116   29  116 1  
   117   32  117 1  
   118   33  118 1  
   119   36  119 1  
   120   36  120 1  
   121   40  121 1  
   122   41  122 1  
   123   44  123 1  
   124   44  124 1  
   125   45  125 1  
   126   46  126 1  
   127   46  127 1  
   128   46  128 1  
   129   47  129 1  
   130   47  130 1  
   131   47  131 1  
   132   48  132 1  
   133   49  133 1  
   134   49  134 1  
   135   52  135 1  
   136   53  136 1  
   137   56  137 1  
   138   56  138 1  
   139   57  139 1  
   140   57  140 1  
   141   58  141 1  
   142   58  142 1  
   143   59  143 1  
   144   61  144 1  
   145   61  145 1  
   146   62  146 1  
   147   62  147 1  
   148   63  148 1  
   149   64  149 1  
   150   67  150 1  
   151   67  151 1  
   152   68  152 1  
   153   69  153 1  
   154   69  154 1  
   155   69  155 1  
   156   70  156 1  
   157   70  157 1  
   158   70  158 1  
   159   71  159 1  
   160   72  160 1  
   161   75  161 1  
   162   75  162 1  
   163   76  163 1  
   164   76  164 1  
   165   77  165 1  
   166   77  166 1  
   167   78  167 1  
   168   78  168 1  
   169   79  169 1  
   170   79  170 1  
   171   79  171 1  
   172   80  172 1  
   173   81  173 1  
   174   84  174 1  
   175   84  175 1  
   176   85  176 1  
   177   85  177 1  
   178   86  178 1  
   179   86  179 1  
   180   87  180 1  
   181   87  181 1  
   182   88  182 1  
   183   88  183 1  
   184   88  184 1  
   185   89  185 1  
   186   89  186 1  
@<TRIPOS>SUBSTRUCTURE
     1 ACE         1

