4um9_ligand
  -I-interpret- 

184184  0  0  0  0  0  0  0  0999 V2000
   39.0810   32.2950   80.2240 C   0  0  0  0  0
   38.2350   32.2700   79.3300 O   0  0  0  0  0
   39.7980   33.3760   80.5130 N   0  0  0  0  0
   40.7170   33.9680   79.5480 C   0  0  0  0  0
   42.0370   34.3760   80.2000 C   0  0  0  0  0
   42.1640   35.4760   80.7390 O   0  0  0  0  0
   40.0760   35.1780   78.8700 C   0  0  0  0  0
   40.9590   35.8340   77.8560 C   0  0  0  0  0
   41.5100   35.1470   76.7970 N   0  0  0  0  0
   41.3940   37.1110   77.7450 C   0  0  0  0  0
   42.2440   35.9740   76.0730 C   0  0  0  0  0
   42.1910   37.1720   76.6270 N   0  0  0  0  0
   43.0170   33.4810   80.1410 N   0  0  0  0  0
   44.3210   33.7290   80.7250 C   0  0  0  0  0
   45.2060   32.5020   80.6310 C   0  0  0  0  0
   44.7920   31.4700   80.1040 O   0  0  0  0  0
   46.4250   32.6100   81.1470 N   0  0  0  0  0
   47.3730   31.5010   81.1020 C   0  0  0  0  0
   47.3030   30.6380   82.3660 C   0  0  0  0  0
   47.5810   31.1090   83.4690 O   0  0  0  0  0
   48.7930   32.0310   80.8950 C   0  0  0  0  0
   49.7580   31.0090   80.3220 C   0  0  0  0  0
   51.1010   31.6370   79.9880 C   0  0  0  0  0
   51.9690   30.7190   79.2550 N   0  0  0  0  0
   53.2970   30.7680   79.2830 C   0  0  0  0  0
   53.9090   31.6890   80.0150 N   0  0  0  0  0
   54.0140   29.8970   78.5860 N   0  0  0  0  0
   46.9270   29.3740   82.1930 N   0  0  0  0  0
   46.7320   28.4590   83.3040 C   0  0  0  0  0
   45.2880   28.3900   83.7720 C   0  0  0  0  0
   44.4450   29.1580   83.3130 O   0  0  0  0  0
   45.0050   27.4720   84.6930 N   0  0  0  0  0
   43.6560   27.3020   85.2330 C   0  0  0  0  0
   43.3020   28.4270   86.2080 C   0  0  0  0  0
   42.1260   28.7310   86.4230 O   0  0  0  0  0
   43.5220   25.9360   85.9150 C   0  0  0  0  0
   42.1180   25.6710   86.4340 C   0  0  0  0  0
   41.2270   25.3550   85.6170 O   0  0  0  0  0
   41.9040   25.7630   87.6600 O   0  0  0  0  0
   44.3280   29.0320   86.8020 N   0  0  0  0  0
   44.1510   30.1500   87.7260 C   0  0  0  0  0
   44.1620   31.5080   87.0270 C   0  0  0  0  0
   44.2130   32.5430   87.6880 O   0  0  0  0  0
   45.2350   30.1310   88.8030 C   0  0  0  0  0
   45.1780   28.9990   89.8240 C   0  0  0  0  0
   46.3790   29.0680   90.7490 C   0  0  0  0  0
   43.8820   29.0770   90.6130 C   0  0  0  0  0
   44.1210   31.4970   85.6970 N   0  0  0  0  0
   44.2090   32.7130   84.9010 C   0  0  0  0  0
   43.1780   33.7900   85.2030 C   0  0  0  0  0
   43.5320   34.9590   85.3710 O   0  0  0  0  0
   41.9050   33.4060   85.2610 N   0  0  0  0  0
   40.8360   34.3590   85.5400 C   0  0  0  0  0
   40.9510   34.9520   86.9430 C   0  0  0  0  0
   40.7960   36.1590   87.1270 O   0  0  0  0  0
   39.4670   33.6940   85.3740 C   0  0  0  0  0
   39.2150   33.1070   83.9920 C   0  0  0  0  0
   38.0580   33.8060   83.2860 C   0  0  0  0  0
   38.3980   35.1630   82.8640 N   0  0  0  0  0
   37.5790   35.9640   82.1870 C   0  0  0  0  0
   36.3660   35.5460   81.8530 N   0  0  0  0  0
   37.9730   37.1830   81.8430 N   0  0  0  0  0
   41.2300   34.1010   87.9270 N   0  0  0  0  0
   41.2970   34.5380   89.3190 C   0  0  0  0  0
   42.5480   35.3550   89.6000 C   0  0  0  0  0
   42.5540   36.2140   90.4810 O   0  0  0  0  0
   41.2520   33.3350   90.2630 C   0  0  0  0  0
   39.8780   32.7760   90.6280 C   0  0  0  0  0
   40.0320   31.6040   91.5740 C   0  0  0  0  0
   39.0120   33.8520   91.2590 C   0  0  0  0  0
   43.6080   35.0790   88.8500 N   0  0  0  0  0
   44.8610   35.8040   88.9990 C   0  0  0  0  0
   44.7070   37.2300   88.4800 C   0  0  0  0  0
   45.4050   38.1450   88.9200 O   0  0  0  0  0
   45.9830   35.0720   88.2660 C   0  0  0  0  0
   47.3740   35.5830   88.5620 C   0  0  0  0  0
   48.4060   34.7000   87.8890 C   0  0  0  0  0
   48.2950   33.2690   88.3910 C   0  0  0  0  0
   49.3410   32.3940   87.7990 N   0  3  0  0  0
   43.7850   37.4020   87.5360 N   0  0  0  0  0
   43.4750   38.7120   86.9730 C   0  0  0  0  0
   42.3420   39.3930   87.7400 C   0  0  0  0  0
   41.3590   38.7550   88.1110 O   0  0  0  0  0
   43.1140   38.5860   85.4900 C   0  0  0  0  0
   44.2710   38.1280   84.6080 C   0  0  0  0  0
   43.9000   38.1520   83.1310 C   0  0  0  0  0
   45.0830   37.7610   82.2570 C   0  0  0  0  0
   44.7530   37.8190   80.8060 N   0  3  0  0  0
   42.4880   40.6920   87.9800 N   0  0  0  0  0
   39.2498   31.3886   80.8054 H   0  0  0  0  0
   39.7029   33.8030   81.4344 H   0  0  0  0  0
   40.9332   33.2078   78.7973 H   0  0  0  0  0
   39.8663   35.9143   79.6459 H   0  0  0  0  0
   39.1851   34.8269   78.3492 H   0  0  0  0  0
   41.1567   37.9362   78.4164 H   0  0  0  0  0
   42.7987   35.7120   75.1720 H   0  0  0  0  0
   42.8470   32.5921   79.6705 H   0  0  0  0  0
   44.1886   33.9828   81.7768 H   0  0  0  0  0
   44.7971   34.5440   80.1798 H   0  0  0  0  0
   46.7051   33.4877   81.5846 H   0  0  0  0  0
   47.1003   30.8659   80.2592 H   0  0  0  0  0
   49.1747   32.3219   81.8737 H   0  0  0  0  0
   48.7302   32.8516   80.1803 H   0  0  0  0  0
   49.3285   30.6046   79.4054 H   0  0  0  0  0
   49.9172   30.2291   81.0666 H   0  0  0  0  0
   51.5958   31.8995   80.9231 H   0  0  0  0  0
   50.9217   32.5099   79.3604 H   0  0  0  0  0
   51.5288   29.9955   78.6864 H   0  0  0  0  0
   54.9280   31.7258   80.0406 H   0  0  0  0  0
   53.3607   32.3606   80.5524 H   0  0  0  0  0
   53.5467   29.1849   78.0248 H   0  0  0  0  0
   46.7696   29.0344   81.2442 H   0  0  0  0  0
   47.3342   28.8179   84.1387 H   0  0  0  0  0
   47.0193   27.4629   82.9674 H   0  0  0  0  0
   45.7527   26.8675   85.0334 H   0  0  0  0  0
   42.9526   27.3485   84.4017 H   0  0  0  0  0
   44.2011   25.9208   86.7675 H   0  0  0  0  0
   43.7543   25.1698   85.1754 H   0  0  0  0  0
   41.5968   25.3416   84.7312 H   0  0  0  0  0
   45.2731   28.7029   86.6048 H   0  0  0  0  0
   43.1679   30.0191   88.1781 H   0  0  0  0  0
   45.1049   31.0515   89.3721 H   0  0  0  0  0
   46.1790   30.0058   88.2726 H   0  0  0  0  0
   45.2056   28.0434   89.3004 H   0  0  0  0  0
   47.2933   28.9754   90.1628 H   0  0  0  0  0
   46.3775   30.0234   91.2737 H   0  0  0  0  0
   46.3259   28.2546   91.4726 H   0  0  0  0  0
   43.8319   30.0335   91.1334 H   0  0  0  0  0
   43.0367   28.9886   89.9305 H   0  0  0  0  0
   43.8508   28.2647   91.3392 H   0  0  0  0  0
   44.0242   30.6024   85.2167 H   0  0  0  0  0
   44.0410   32.4125   83.8668 H   0  0  0  0  0
   45.1816   33.1522   85.1229 H   0  0  0  0  0
   41.6718   32.4250   85.1072 H   0  0  0  0  0
   40.9362   35.1718   84.8207 H   0  0  0  0  0
   38.7150   34.4665   85.5349 H   0  0  0  0  0
   39.4247   32.8683   86.0843 H   0  0  0  0  0
   38.9614   32.0532   84.1070 H   0  0  0  0  0
   40.1152   33.2410   83.3921 H   0  0  0  0  0
   37.2258   33.8703   83.9870 H   0  0  0  0  0
   37.8096   33.2290   82.3952 H   0  0  0  0  0
   39.3231   35.5194   83.1039 H   0  0  0  0  0
   36.0593   34.6091   82.1150 H   0  0  0  0  0
   37.3435   37.7948   81.3235 H   0  0  0  0  0
   38.9054   37.5085   82.0980 H   0  0  0  0  0
   41.4011   33.1205   87.7040 H   0  0  0  0  0
   40.4295   35.1742   89.4945 H   0  0  0  0  0
   41.6863   33.6815   91.2008 H   0  0  0  0  0
   41.7660   32.5302   89.7374 H   0  0  0  0  0
   39.3879   32.4343   89.7164 H   0  0  0  0  0
   40.6210   30.8241   91.0914 H   0  0  0  0  0
   40.5383   31.9348   92.4808 H   0  0  0  0  0
   39.0472   31.2123   91.8285 H   0  0  0  0  0
   39.4949   34.2210   92.1638 H   0  0  0  0  0
   38.8833   34.6730   90.5537 H   0  0  0  0  0
   38.0384   33.4316   91.5108 H   0  0  0  0  0
   43.5425   34.3392   88.1508 H   0  0  0  0  0
   45.1214   35.8529   90.0563 H   0  0  0  0  0
   45.8125   35.2194   87.1995 H   0  0  0  0  0
   45.9510   34.0336   88.5957 H   0  0  0  0  0
   47.5389   35.5695   89.6394 H   0  0  0  0  0
   47.4704   36.6001   88.1821 H   0  0  0  0  0
   49.4010   35.0796   88.1213 H   0  0  0  0  0
   48.2327   34.7113   86.8129 H   0  0  0  0  0
   47.3187   32.8794   88.1027 H   0  0  0  0  0
   48.4248   33.2744   89.4732 H   0  0  0  0  0
   49.2333   31.4458   88.1592 H   0  0  0  0  0
   49.2418   32.3866   86.7839 H   0  0  0  0  0
   50.2630   32.7513   88.0492 H   0  0  0  0  0
   43.2758   36.5874   87.1931 H   0  0  0  0  0
   44.3651   39.3342   87.0669 H   0  0  0  0  0
   42.8153   39.5756   85.1442 H   0  0  0  0  0
   42.3289   37.8340   85.4106 H   0  0  0  0  0
   44.5253   37.1038   84.8808 H   0  0  0  0  0
   45.1091   38.8077   84.7619 H   0  0  0  0  0
   43.5930   39.1640   82.8668 H   0  0  0  0  0
   43.0942   37.4372   82.9641 H   0  0  0  0  0
   45.3611   36.7357   82.5011 H   0  0  0  0  0
   45.8937   38.4638   82.4490 H   0  0  0  0  0
   45.5723   37.5500   80.2612 H   0  0  0  0  0
   43.9854   37.1774   80.6072 H   0  0  0  0  0
   44.4761   38.7692   80.5592 H   0  0  0  0  0
   41.7667   41.2004   88.4915 H   0  0  0  0  0
   43.3214   41.1806   87.6527 H   0  0  0  0  0
  1  2  2  0  0  0
  1  3  1  0  0  0
  3  4  1  0  0  0
  4  5  1  0  0  0
  4  7  1  0  0  0
  5  6  2  0  0  0
  5 13  1  0  0  0
  7  8  1  0  0  0
  8  9  4  0  0  0
  8 10  4  0  0  0
  9 11  4  0  0  0
 10 12  4  0  0  0
 11 12  4  0  0  0
 13 14  1  0  0  0
 14 15  1  0  0  0
 15 16  2  0  0  0
 15 17  1  0  0  0
 17 18  1  0  0  0
 18 19  1  0  0  0
 18 21  1  0  0  0
 19 20  2  0  0  0
 19 28  1  0  0  0
 21 22  1  0  0  0
 22 23  1  0  0  0
 23 24  1  0  0  0
 24 25  1  0  0  0
 25 26  1  0  0  0
 25 27  2  0  0  0
 28 29  1  0  0  0
 29 30  1  0  0  0
 30 31  2  0  0  0
 30 32  1  0  0  0
 32 33  1  0  0  0
 33 34  1  0  0  0
 33 36  1  0  0  0
 34 35  2  0  0  0
 34 40  1  0  0  0
 36 37  1  0  0  0
 37 38  1  0  0  0
 37 39  2  0  0  0
 40 41  1  0  0  0
 41 42  1  0  0  0
 41 44  1  0  0  0
 42 43  2  0  0  0
 42 48  1  0  0  0
 44 45  1  0  0  0
 45 46  1  0  0  0
 45 47  1  0  0  0
 48 49  1  0  0  0
 49 50  1  0  0  0
 50 51  2  0  0  0
 50 52  1  0  0  0
 52 53  1  0  0  0
 53 54  1  0  0  0
 53 56  1  0  0  0
 54 55  2  0  0  0
 54 63  1  0  0  0
 56 57  1  0  0  0
 57 58  1  0  0  0
 58 59  1  0  0  0
 59 60  1  0  0  0
 60 61  2  0  0  0
 60 62  1  0  0  0
 63 64  1  0  0  0
 64 65  1  0  0  0
 64 67  1  0  0  0
 65 66  2  0  0  0
 65 71  1  0  0  0
 67 68  1  0  0  0
 68 69  1  0  0  0
 68 70  1  0  0  0
 71 72  1  0  0  0
 72 73  1  0  0  0
 72 75  1  0  0  0
 73 74  2  0  0  0
 73 80  1  0  0  0
 75 76  1  0  0  0
 76 77  1  0  0  0
 77 78  1  0  0  0
 78 79  1  0  0  0
 80 81  1  0  0  0
 81 82  1  0  0  0
 81 84  1  0  0  0
 82 83  2  0  0  0
 82 89  1  0  0  0
 84 85  1  0  0  0
 85 86  1  0  0  0
 86 87  1  0  0  0
 87 88  1  0  0  0
  1 90  1  0  0  0
  3 91  1  0  0  0
  4 92  1  0  0  0
  7 93  1  0  0  0
  7 94  1  0  0  0
 10 95  1  0  0  0
 11 96  1  0  0  0
 13 97  1  0  0  0
 14 98  1  0  0  0
 14 99  1  0  0  0
 17100  1  0  0  0
 18101  1  0  0  0
 21102  1  0  0  0
 21103  1  0  0  0
 22104  1  0  0  0
 22105  1  0  0  0
 23106  1  0  0  0
 23107  1  0  0  0
 24108  1  0  0  0
 26109  1  0  0  0
 26110  1  0  0  0
 27111  1  0  0  0
 28112  1  0  0  0
 29113  1  0  0  0
 29114  1  0  0  0
 32115  1  0  0  0
 33116  1  0  0  0
 36117  1  0  0  0
 36118  1  0  0  0
 38119  1  0  0  0
 40120  1  0  0  0
 41121  1  0  0  0
 44122  1  0  0  0
 44123  1  0  0  0
 45124  1  0  0  0
 46125  1  0  0  0
 46126  1  0  0  0
 46127  1  0  0  0
 47128  1  0  0  0
 47129  1  0  0  0
 47130  1  0  0  0
 48131  1  0  0  0
 49132  1  0  0  0
 49133  1  0  0  0
 52134  1  0  0  0
 53135  1  0  0  0
 56136  1  0  0  0
 56137  1  0  0  0
 57138  1  0  0  0
 57139  1  0  0  0
 58140  1  0  0  0
 58141  1  0  0  0
 59142  1  0  0  0
 61143  1  0  0  0
 62144  1  0  0  0
 62145  1  0  0  0
 63146  1  0  0  0
 64147  1  0  0  0
 67148  1  0  0  0
 67149  1  0  0  0
 68150  1  0  0  0
 69151  1  0  0  0
 69152  1  0  0  0
 69153  1  0  0  0
 70154  1  0  0  0
 70155  1  0  0  0
 70156  1  0  0  0
 71157  1  0  0  0
 72158  1  0  0  0
 75159  1  0  0  0
 75160  1  0  0  0
 76161  1  0  0  0
 76162  1  0  0  0
 77163  1  0  0  0
 77164  1  0  0  0
 78165  1  0  0  0
 78166  1  0  0  0
 79167  1  0  0  0
 79168  1  0  0  0
 79169  1  0  0  0
 80170  1  0  0  0
 81171  1  0  0  0
 84172  1  0  0  0
 84173  1  0  0  0
 85174  1  0  0  0
 85175  1  0  0  0
 86176  1  0  0  0
 86177  1  0  0  0
 87178  1  0  0  0
 87179  1  0  0  0
 88180  1  0  0  0
 88181  1  0  0  0
 88182  1  0  0  0
 89183  1  0  0  0
 89184  1  0  0  0
M  END
$$$$
