5cav_ligand
  -I-interpret- 

 59 62  0  0  0  0  0  0  0  0999 V2000
  -49.7640   -1.3820  -21.5290 C   0  0  0  0  0
  -52.9230    0.9730  -19.4470 C   0  0  0  0  0
  -53.8650    1.9770  -19.6830 C   0  0  0  0  0
  -54.1440    1.2900  -21.8900 C   0  0  0  0  0
  -53.1900    0.2710  -21.7430 C   0  0  0  0  0
  -52.5580    0.0910  -20.4990 C   0  0  0  0  0
  -50.8730   -1.8900  -20.6000 C   0  0  0  0  0
  -51.7820   -2.8800  -21.3390 C   0  0  0  0  0
  -51.4150   -0.3720  -18.6440 C   0  0  0  0  0
  -50.0430   -0.0170  -16.5540 C   0  0  0  0  0
  -50.4680   -1.0090  -17.6410 C   0  0  0  0  0
  -52.2060    0.6240  -18.3580 N   0  0  0  0  0
  -54.4320    2.0920  -20.8680 N   0  0  0  0  0
  -51.6060   -0.7710  -19.9510 N   0  0  0  0  0
  -49.0110   -0.3920  -20.8910 F   0  0  0  0  0
  -48.9130   -2.4550  -21.8220 F   0  0  0  0  0
  -50.3060   -0.8570  -22.7080 F   0  0  0  0  0
  -54.8200    1.5940  -23.0790 N   0  0  0  0  0
  -54.9520    0.8260  -24.2280 C   0  0  0  0  0
  -56.1270    0.9370  -24.9910 C   0  0  0  0  0
  -56.2470    0.1510  -26.1290 C   0  0  0  0  0
  -55.2470   -0.6600  -26.4730 N   0  0  0  0  0
  -54.1420   -0.7650  -25.7270 C   0  0  0  0  0
  -53.9860    0.0030  -24.6460 N   0  0  0  0  0
  -53.1050   -1.6170  -26.1060 N   0  0  0  0  0
  -52.2620   -2.2180  -25.0550 C   0  0  0  0  0
  -50.8370   -2.3070  -25.6240 C   0  0  0  0  0
  -50.8480   -3.0610  -26.9750 C   0  0  0  0  0
  -51.9230   -2.5240  -27.9540 C   0  0  0  0  0
  -53.2910   -2.4940  -27.2760 C   0  0  0  0  0
  -51.6420   -1.2060  -28.3330 F   0  0  0  0  0
  -49.5470   -2.9420  -27.5760 O   0  0  0  0  0
  -48.7300   -4.1190  -27.6160 C   0  0  0  0  0
  -51.1150   -2.1340  -17.0390 O   0  0  0  0  0
  -54.1326    2.6685  -18.8841 H   0  0  0  0  0
  -52.9411   -0.3750  -22.5849 H   0  0  0  0  0
  -50.4162   -2.4427  -19.7791 H   0  0  0  0  0
  -52.4868   -3.3203  -20.6337 H   0  0  0  0  0
  -52.3294   -2.3543  -22.1214 H   0  0  0  0  0
  -51.1735   -3.6665  -21.7853 H   0  0  0  0  0
  -49.5358    0.8303  -17.0154 H   0  0  0  0  0
  -50.9254    0.3336  -16.0188 H   0  0  0  0  0
  -49.3664   -0.5115  -15.8570 H   0  0  0  0  0
  -49.5692   -1.3249  -18.1707 H   0  0  0  0  0
  -55.2782    2.5049  -23.1038 H   0  0  0  0  0
  -56.9226    1.6217  -24.6972 H   0  0  0  0  0
  -57.1513    0.1968  -26.7359 H   0  0  0  0  0
  -52.6315   -3.2059  -24.7801 H   0  0  0  0  0
  -52.2802   -1.6110  -24.1498 H   0  0  0  0  0
  -50.2042   -2.8464  -24.9192 H   0  0  0  0  0
  -50.4515   -1.2995  -25.7805 H   0  0  0  0  0
  -51.0962   -4.1032  -26.7744 H   0  0  0  0  0
  -51.9213   -3.1856  -28.8203 H   0  0  0  0  0
  -54.0694   -2.1244  -27.9435 H   0  0  0  0  0
  -53.6266   -3.4907  -26.9897 H   0  0  0  0  0
  -48.5493   -4.4690  -26.5997 H   0  0  0  0  0
  -49.2420   -4.8960  -28.1836 H   0  0  0  0  0
  -47.7795   -3.8839  -28.0950 H   0  0  0  0  0
  -50.5213   -2.5411  -16.4038 H   0  0  0  0  0
  7  1  1  0  0  0
  1 15  1  0  0  0
  1 16  1  0  0  0
  1 17  1  0  0  0
  2  3  4  0  0  0
  2  6  4  0  0  0
 12  2  4  0  0  0
  3 13  4  0  0  0
  5  4  4  0  0  0
 13  4  4  0  0  0
  4 18  1  0  0  0
  6  5  4  0  0  0
  6 14  4  0  0  0
  7  8  1  0  0  0
 14  7  1  0  0  0
  9 11  1  0  0  0
  9 12  4  0  0  0
  9 14  4  0  0  0
 11 10  1  0  0  0
 11 34  1  0  0  0
 18 19  1  0  0  0
 19 20  4  0  0  0
 19 24  4  0  0  0
 20 21  4  0  0  0
 21 22  4  0  0  0
 22 23  4  0  0  0
 23 24  4  0  0  0
 23 25  1  0  0  0
 25 26  1  0  0  0
 25 30  1  0  0  0
 26 27  1  0  0  0
 27 28  1  0  0  0
 28 29  1  0  0  0
 28 32  1  0  0  0
 29 30  1  0  0  0
 29 31  1  0  0  0
 32 33  1  0  0  0
  3 35  1  0  0  0
  5 36  1  0  0  0
  7 37  1  0  0  0
  8 38  1  0  0  0
  8 39  1  0  0  0
  8 40  1  0  0  0
 10 41  1  0  0  0
 10 42  1  0  0  0
 10 43  1  0  0  0
 11 44  1  0  0  0
 18 45  1  0  0  0
 20 46  1  0  0  0
 21 47  1  0  0  0
 26 48  1  0  0  0
 26 49  1  0  0  0
 27 50  1  0  0  0
 27 51  1  0  0  0
 28 52  1  0  0  0
 29 53  1  0  0  0
 30 54  1  0  0  0
 30 55  1  0  0  0
 33 56  1  0  0  0
 33 57  1  0  0  0
 33 58  1  0  0  0
 34 59  1  0  0  0
M  END
$$$$
