6do1_ligand
  -I-interpret- 

142144  0  0  0  0  0  0  0  0999 V2000
   25.3740   32.0900    8.2740 N   0  3  0  0  0
   26.4820   33.0210    8.3960 C   0  0  0  0  0
   26.4550   33.9970    9.6000 C   0  0  0  0  0
   26.0280   33.6100   10.7270 O   0  0  0  0  0
   25.7560   30.8270    7.6870 C   0  0  0  0  0
   26.9060   35.2250    9.3690 N   0  0  0  0  0
   26.8420   36.2840   10.3690 C   0  0  0  0  0
   25.5950   37.1310   10.1370 C   0  0  0  0  0
   25.3520   37.5940    9.0230 O   0  0  0  0  0
   28.1070   37.1430   10.3130 C   0  0  0  0  0
   28.0440   38.4370   11.1060 C   0  0  0  0  0
   28.3830   38.2290   12.5730 C   0  0  0  0  0
   29.1180   39.3640   13.1270 N   0  0  0  0  0
   28.5660   40.5280   13.4590 C   0  0  0  0  0
   29.3180   41.5020   13.9520 N   0  0  0  0  0
   27.2640   40.7230   13.2970 N   0  0  0  0  0
   24.8040   37.3280   11.1870 N   0  0  0  0  0
   23.5360   38.0440   11.0940 C   0  0  0  0  0
   23.6700   39.3670   11.8390 C   0  0  0  0  0
   23.6890   39.3980   13.0760 O   0  0  0  0  0
   22.3720   37.2080   11.6440 C   0  0  0  0  0
   21.0650   37.9570   11.4810 C   0  0  0  0  0
   22.3050   35.8660   10.9290 C   0  0  0  0  0
   23.7570   40.4600   11.0810 N   0  0  0  0  0
   23.9510   41.8080   11.6190 C   0  0  0  0  0
   22.5840   42.4330   11.8740 C   0  0  0  0  0
   22.0210   43.1170   11.0200 O   0  0  0  0  0
   24.7830   42.6420   10.6540 C   0  0  0  0  0
   25.2750   43.9690   11.1920 C   0  0  0  0  0
   24.4860   45.1090   11.1040 C   0  0  0  0  0
   26.5310   44.0860   11.7750 C   0  0  0  0  0
   24.9300   46.3260   11.5850 C   0  0  0  0  0
   26.9840   45.3010   12.2610 C   0  0  0  0  0
   26.1770   46.4170   12.1630 C   0  0  0  0  0
   26.6140   47.6310   12.6420 O   0  0  0  0  0
   22.0500   42.2120   13.0810 N   0  0  0  0  0
   20.6920   42.6510   13.4040 C   0  0  0  0  0
   20.6150   44.1130   13.8080 C   0  0  0  0  0
   19.5170   44.6030   14.1070 O   0  0  0  0  0
   20.0810   41.8080   14.5420 C   0  0  0  0  0
   20.6660   42.2150   15.9010 C   0  0  0  0  0
   20.2910   40.3260   14.2770 C   0  0  0  0  0
   22.0490   41.6640   16.1920 C   0  0  0  0  0
   21.7320   44.8280   13.8130 N   0  0  0  0  0
   21.7430   46.1970   14.2960 C   0  0  0  0  0
   21.1850   47.1540   13.2440 C   0  0  0  0  0
   21.3020   46.8980   12.0430 O   0  0  0  0  0
   23.1590   46.6090   14.6700 C   0  0  0  0  0
   23.7960   45.7100   15.6820 C   0  0  0  0  0
   23.4540   45.7330   17.0170 N   0  0  0  0  0
   24.7420   44.7500   15.5520 C   0  0  0  0  0
   24.1700   44.8340   17.6670 C   0  0  0  0  0
   24.9590   44.2230   16.8020 N   0  0  0  0  0
   20.5570   48.2540   13.6780 N   0  0  0  0  0
   19.9880   49.2110   12.7080 C   0  0  0  0  0
   20.9590   49.6560   11.6250 C   0  0  0  0  0
   20.6050   49.6520   10.4390 O   0  0  0  0  0
   19.5530   50.3800   13.6000 C   0  0  0  0  0
   19.2770   49.7680   14.9220 C   0  0  0  0  0
   20.2070   48.5930   15.0690 C   0  0  0  0  0
   22.1730   50.0500   11.9970 N   0  0  0  0  0
   23.1740   50.4380   11.0120 C   0  0  0  0  0
   24.5020   49.7550   11.3170 C   0  0  0  0  0
   24.7520   49.3390   12.4490 O   0  0  0  0  0
   23.3310   51.9710   10.9670 C   0  0  0  0  0
   24.2060   52.4010    9.7890 C   0  0  0  0  0
   23.9090   52.4910   12.2760 C   0  0  0  0  0
   24.3680   53.8940    9.6850 C   0  0  0  0  0
   25.3610   49.6000   10.4480 O   0  0  0  0  0
   24.6768   32.5167    7.6639 H   0  0  0  0  0
   25.0232   31.9015    9.2130 H   0  0  0  0  0
   26.4424   33.6477    7.5051 H   0  0  0  0  0
   27.3721   32.4067    8.5319 H   0  0  0  0  0
   26.1552   30.9984    6.6873 H   0  0  0  0  0
   26.5175   30.3548    8.3077 H   0  0  0  0  0
   24.8826   30.1779    7.6245 H   0  0  0  0  0
   27.3125   35.4350    8.4574 H   0  0  0  0  0
   26.7817   35.8404   11.3628 H   0  0  0  0  0
   28.2506   37.4218    9.2691 H   0  0  0  0  0
   28.9097   36.5476   10.7480 H   0  0  0  0  0
   27.0265   38.8229   11.0447 H   0  0  0  0  0
   28.7732   39.1288   10.6844 H   0  0  0  0  0
   29.0099   37.3413   12.6570 H   0  0  0  0  0
   27.4510   38.1210   13.1278 H   0  0  0  0  0
   30.1224   39.2565   13.2688 H   0  0  0  0  0
   30.3202   41.3591   14.0769 H   0  0  0  0  0
   26.8469   41.6184   13.5513 H   0  0  0  0  0
   26.6799   39.9775   12.9181 H   0  0  0  0  0
   25.0951   36.9640   12.0943 H   0  0  0  0  0
   23.3074   38.2366   10.0458 H   0  0  0  0  0
   22.5404   37.0295   12.7060 H   0  0  0  0  0
   21.1170   38.8990   12.0269 H   0  0  0  0  0
   20.8920   38.1575   10.4236 H   0  0  0  0  0
   20.2491   37.3515   11.8756 H   0  0  0  0  0
   22.1537   36.0313    9.8623 H   0  0  0  0  0
   23.2385   35.3254   11.0854 H   0  0  0  0  0
   21.4750   35.2836   11.3291 H   0  0  0  0  0
   23.6844   40.3513   10.0694 H   0  0  0  0  0
   24.4967   41.7661   12.5616 H   0  0  0  0  0
   24.1364   42.8721    9.8072 H   0  0  0  0  0
   25.6709   42.0536   10.4228 H   0  0  0  0  0
   23.4986   45.0423   10.6472 H   0  0  0  0  0
   27.1704   43.2065   11.8510 H   0  0  0  0  0
   24.2965   47.2096   11.5074 H   0  0  0  0  0
   27.9709   45.3758   12.7178 H   0  0  0  0  0
   27.4943   47.5299   13.0114 H   0  0  0  0  0
   22.6006   41.7278   13.7901 H   0  0  0  0  0
   20.1258   42.5144   12.4826 H   0  0  0  0  0
   19.0083   41.9992   14.5731 H   0  0  0  0  0
   19.9994   41.8136   16.6644 H   0  0  0  0  0
   20.7543   43.3014   15.8939 H   0  0  0  0  0
   19.8107   40.0547   13.3369 H   0  0  0  0  0
   21.3590   40.1172   14.2144 H   0  0  0  0  0
   19.8534   39.7472   15.0904 H   0  0  0  0  0
   22.0149   40.5746   16.1786 H   0  0  0  0  0
   22.7464   42.0163   15.4320 H   0  0  0  0  0
   22.3760   42.0065   17.1738 H   0  0  0  0  0
   22.5973   44.4093   13.4720 H   0  0  0  0  0
   21.1072   46.2492   15.1798 H   0  0  0  0  0
   23.1050   47.6063   15.1065 H   0  0  0  0  0
   23.7634   46.5618   13.7641 H   0  0  0  0  0
   25.2383   44.4513   14.6287 H   0  0  0  0  0
   24.1186   44.6306   18.7366 H   0  0  0  0  0
   19.1775   48.7654   12.1312 H   0  0  0  0  0
   18.6775   50.8911   13.1995 H   0  0  0  0  0
   20.3222   51.1497   13.6626 H   0  0  0  0  0
   18.2376   49.4464   14.9876 H   0  0  0  0  0
   19.4403   50.4902   15.7219 H   0  0  0  0  0
   21.0826   48.8268   15.6747 H   0  0  0  0  0
   19.7458   47.7593   15.5985 H   0  0  0  0  0
   22.4077   50.0812   12.9891 H   0  0  0  0  0
   22.8411   50.1123   10.0265 H   0  0  0  0  0
   22.3403   52.4041   10.8288 H   0  0  0  0  0
   23.7221   52.0567    8.8750 H   0  0  0  0  0
   25.1963   51.9708    9.9386 H   0  0  0  0  0
   23.2410   52.2284   13.0964 H   0  0  0  0  0
   24.8873   52.0407   12.4440 H   0  0  0  0  0
   24.0110   53.5748   12.2215 H   0  0  0  0  0
   23.3894   54.3562    9.5552 H   0  0  0  0  0
   24.8319   54.2722   10.5960 H   0  0  0  0  0
   24.9996   54.1309    8.8288 H   0  0  0  0  0
   25.0447   49.9650    9.6183 H   0  0  0  0  0
  1  2  1  0  0  0
  1  5  1  0  0  0
  2  3  1  0  0  0
  3  4  2  0  0  0
  3  6  1  0  0  0
  6  7  1  0  0  0
  7  8  1  0  0  0
  7 10  1  0  0  0
  8  9  2  0  0  0
  8 17  1  0  0  0
 10 11  1  0  0  0
 11 12  1  0  0  0
 12 13  1  0  0  0
 13 14  1  0  0  0
 14 15  2  0  0  0
 14 16  1  0  0  0
 17 18  1  0  0  0
 18 19  1  0  0  0
 18 21  1  0  0  0
 19 20  2  0  0  0
 19 24  1  0  0  0
 21 22  1  0  0  0
 21 23  1  0  0  0
 24 25  1  0  0  0
 25 26  1  0  0  0
 25 28  1  0  0  0
 26 27  2  0  0  0
 26 36  1  0  0  0
 28 29  1  0  0  0
 29 30  4  0  0  0
 29 31  4  0  0  0
 30 32  4  0  0  0
 31 33  4  0  0  0
 32 34  4  0  0  0
 33 34  4  0  0  0
 34 35  1  0  0  0
 36 37  1  0  0  0
 37 38  1  0  0  0
 37 40  1  0  0  0
 38 39  2  0  0  0
 38 44  1  0  0  0
 40 41  1  0  0  0
 40 42  1  0  0  0
 41 43  1  0  0  0
 44 45  1  0  0  0
 45 46  1  0  0  0
 45 48  1  0  0  0
 46 47  2  0  0  0
 46 54  1  0  0  0
 48 49  1  0  0  0
 49 50  4  0  0  0
 49 51  4  0  0  0
 50 52  4  0  0  0
 51 53  4  0  0  0
 52 53  4  0  0  0
 54 55  1  0  0  0
 54 60  1  0  0  0
 55 56  1  0  0  0
 55 58  1  0  0  0
 56 57  2  0  0  0
 56 61  1  0  0  0
 58 59  1  0  0  0
 59 60  1  0  0  0
 61 62  1  0  0  0
 62 63  1  0  0  0
 62 65  1  0  0  0
 63 64  2  0  0  0
 63 69  1  0  0  0
 65 66  1  0  0  0
 65 67  1  0  0  0
 66 68  1  0  0  0
  1 70  1  0  0  0
  1 71  1  0  0  0
  2 72  1  0  0  0
  2 73  1  0  0  0
  5 74  1  0  0  0
  5 75  1  0  0  0
  5 76  1  0  0  0
  6 77  1  0  0  0
  7 78  1  0  0  0
 10 79  1  0  0  0
 10 80  1  0  0  0
 11 81  1  0  0  0
 11 82  1  0  0  0
 12 83  1  0  0  0
 12 84  1  0  0  0
 13 85  1  0  0  0
 15 86  1  0  0  0
 16 87  1  0  0  0
 16 88  1  0  0  0
 17 89  1  0  0  0
 18 90  1  0  0  0
 21 91  1  0  0  0
 22 92  1  0  0  0
 22 93  1  0  0  0
 22 94  1  0  0  0
 23 95  1  0  0  0
 23 96  1  0  0  0
 23 97  1  0  0  0
 24 98  1  0  0  0
 25 99  1  0  0  0
 28100  1  0  0  0
 28101  1  0  0  0
 30102  1  0  0  0
 31103  1  0  0  0
 32104  1  0  0  0
 33105  1  0  0  0
 35106  1  0  0  0
 36107  1  0  0  0
 37108  1  0  0  0
 40109  1  0  0  0
 41110  1  0  0  0
 41111  1  0  0  0
 42112  1  0  0  0
 42113  1  0  0  0
 42114  1  0  0  0
 43115  1  0  0  0
 43116  1  0  0  0
 43117  1  0  0  0
 44118  1  0  0  0
 45119  1  0  0  0
 48120  1  0  0  0
 48121  1  0  0  0
 51122  1  0  0  0
 52123  1  0  0  0
 55124  1  0  0  0
 58125  1  0  0  0
 58126  1  0  0  0
 59127  1  0  0  0
 59128  1  0  0  0
 60129  1  0  0  0
 60130  1  0  0  0
 61131  1  0  0  0
 62132  1  0  0  0
 65133  1  0  0  0
 66134  1  0  0  0
 66135  1  0  0  0
 67136  1  0  0  0
 67137  1  0  0  0
 67138  1  0  0  0
 68139  1  0  0  0
 68140  1  0  0  0
 68141  1  0  0  0
 69142  1  0  0  0
M  END
$$$$
