### 
### Created by X-TOOL on Mon Aug  2 16:11:59 2021
### 

@<TRIPOS>MOLECULE
6do1_ligand
  143   145     1     0     0
SMALL
GAST_HUCK


@<TRIPOS>ATOM
      1 N          25.3740   32.0900    8.2740 N.4       1 SAR         0.2418
      2 CA         26.4820   33.0210    8.3960 C.3       1 SAR         0.0560
      3 C          26.4550   33.9970    9.6000 C.2       1 SAR         0.2237
      4 O          26.0280   33.6100   10.7270 O.2       1 SAR        -0.3910
      5 CN         25.7560   30.8270    7.6870 C.3       1 SAR        -0.0431
      6 N          26.9060   35.2250    9.3690 N.am      1 SAR        -0.2613
      7 CA         26.8420   36.2840   10.3690 C.3       1 SAR         0.1312
      8 C          25.5950   37.1310   10.1370 C.2       1 SAR         0.2039
      9 O          25.3520   37.5940    9.0230 O.2       1 SAR        -0.3944
     10 CB         28.1070   37.1430   10.3130 C.3       1 SAR        -0.0092
     11 CG         28.0440   38.4370   11.1060 C.3       1 SAR        -0.0156
     12 CD         28.3830   38.2290   12.5730 C.3       1 SAR         0.0627
     13 NE         29.1180   39.3640   13.1270 N.pl3     1 SAR        -0.2723
     14 CZ         28.5660   40.5280   13.4590 C.cat     1 SAR         0.2882
     15 NH1        29.3180   41.5020   13.9520 N.pl3     1 SAR        -0.2849
     16 NH2        27.2640   40.7230   13.2970 N.pl3     1 SAR        -0.2849
     17 N          24.8040   37.3280   11.1870 N.am      1 SAR        -0.2635
     18 CA         23.5360   38.0440   11.0940 C.3       1 SAR         0.1333
     19 C          23.6700   39.3670   11.8390 C.2       1 SAR         0.2043
     20 O          23.6890   39.3980   13.0760 O.2       1 SAR        -0.3944
     21 CB         22.3720   37.2080   11.6440 C.3       1 SAR        -0.0063
     22 CG1        21.0650   37.9570   11.4810 C.3       1 SAR        -0.0584
     23 CG2        22.3050   35.8660   10.9290 C.3       1 SAR        -0.0584
     24 N          23.7570   40.4600   11.0810 N.am      1 SAR        -0.2621
     25 CA         23.9510   41.8080   11.6190 C.3       1 SAR         0.1390
     26 C          22.5840   42.4330   11.8740 C.2       1 SAR         0.2057
     27 O          22.0210   43.1170   11.0200 O.2       1 SAR        -0.3942
     28 CB         24.7830   42.6420   10.6540 C.3       1 SAR         0.0163
     29 CG         25.2750   43.9690   11.1920 C.ar      1 SAR        -0.0493
     30 CD1        24.4860   45.1090   11.1040 C.ar      1 SAR        -0.0685
     31 CD2        26.5310   44.0860   11.7750 C.ar      1 SAR        -0.0685
     32 CE1        24.9300   46.3260   11.5850 C.ar      1 SAR        -0.0398
     33 CE2        26.9840   45.3010   12.2610 C.ar      1 SAR        -0.0398
     34 CZ         26.1770   46.4170   12.1630 C.ar      1 SAR         0.0805
     35 OH         26.6140   47.6310   12.6420 O.3       1 SAR        -0.3376
     36 N          22.0500   42.2120   13.0810 N.am      1 SAR        -0.2633
     37 CA         20.6920   42.6510   13.4040 C.3       1 SAR         0.1335
     38 C          20.6150   44.1130   13.8080 C.2       1 SAR         0.2043
     39 O          19.5170   44.6030   14.1070 O.2       1 SAR        -0.3944
     40 CB         20.0810   41.8080   14.5420 C.3       1 SAR        -0.0037
     41 CG1        20.6660   42.2150   15.9010 C.3       1 SAR        -0.0491
     42 CG2        20.2910   40.3260   14.2770 C.3       1 SAR        -0.0582
     43 CD1        22.0490   41.6640   16.1920 C.3       1 SAR        -0.0648
     44 N          21.7320   44.8280   13.8130 N.am      1 SAR        -0.2625
     45 CA         21.7430   46.1970   14.2960 C.3       1 SAR         0.1371
     46 C          21.1850   47.1540   13.2440 C.2       1 SAR         0.2079
     47 O          21.3020   46.8980   12.0430 O.2       1 SAR        -0.3940
     48 CB         23.1590   46.6090   14.6700 C.3       1 SAR         0.0145
     49 CG         23.7960   45.7100   15.6820 C.2       1 SAR        -0.0027
     50 ND1        23.4540   45.7330   17.0170 N.2       1 SAR        -0.3252
     51 CD2        24.7420   44.7500   15.5520 C.2       1 SAR         0.0291
     52 CE1        24.1700   44.8340   17.6670 C.2       1 SAR         0.0907
     53 NE2        24.9590   44.2230   16.8020 N.pl3     1 SAR        -0.2752
     54 N          20.5570   48.2540   13.6780 N.am      1 SAR        -0.2497
     55 CA         19.9880   49.2110   12.7080 C.3       1 SAR         0.1337
     56 C          20.9590   49.6560   11.6250 C.2       1 SAR         0.2036
     57 O          20.6050   49.6520   10.4390 O.2       1 SAR        -0.3944
     58 CB         19.5530   50.3800   13.6000 C.3       1 SAR        -0.0104
     59 CG         19.2770   49.7680   14.9220 C.3       1 SAR        -0.0281
     60 CD         20.2070   48.5930   15.0690 C.3       1 SAR         0.0369
     61 N          22.1730   50.0500   11.9970 N.am      1 SAR        -0.2692
     62 CA         23.1740   50.4380   11.0120 C.3       1 SAR         0.0969
     63 C          24.5020   49.7550   11.3170 C.2       1 SAR         0.0604
     64 O          24.7520   49.3390   12.4490 O.co2     1 SAR        -0.5666
     65 CB         23.3310   51.9710   10.9670 C.3       1 SAR        -0.0092
     66 CG1        24.2060   52.4010    9.7890 C.3       1 SAR        -0.0497
     67 CG2        23.9090   52.4910   12.2760 C.3       1 SAR        -0.0588
     68 CD1        24.3680   53.8940    9.6850 C.3       1 SAR        -0.0649
     69 OXT        25.3610   49.6000   10.4480 O.co2     1 SAR        -0.5666
     70 H1         24.6639   32.5107    7.6954 H         1 SAR         0.2029
     71 H2         24.9988   31.9159    9.1932 H         1 SAR         0.2029
     72 H3         26.5079   33.6273    7.4786 H         1 SAR         0.1062
     73 H4         27.4059   32.4287    8.4703 H         1 SAR         0.1062
     74 H5         24.8753   30.1710    7.6234 H         1 SAR         0.0777
     75 H6         26.5245   30.3494    8.3125 H         1 SAR         0.0777
     76 H7         26.1590   30.9986    6.6780 H         1 SAR         0.0777
     77 H8         27.3045   35.4308    8.4752 H         1 SAR         0.1884
     78 H9         26.7752   35.8257   11.3667 H         1 SAR         0.0800
     79 H10        28.2994   37.3977    9.2604 H         1 SAR         0.0313
     80 H11        28.9428   36.5443   10.7041 H         1 SAR         0.0313
     81 H12        27.0264   38.8482   11.0326 H         1 SAR         0.0301
     82 H13        28.7604   39.1518   10.6749 H         1 SAR         0.0301
     83 H14        28.9999   37.3236   12.6709 H         1 SAR         0.0689
     84 H15        27.4489   38.0993   13.1393 H         1 SAR         0.0689
     85 H16        30.1322   39.2554   13.2702 H         1 SAR         0.2642
     86 H17        28.8903   42.4031   14.2089 H         1 SAR         0.2615
     87 H18        30.3300   41.3577   14.0781 H         1 SAR         0.2615
     88 H19        26.6742   39.9702   12.9144 H         1 SAR         0.2615
     89 H20        26.8428   41.6272   13.5538 H         1 SAR         0.2615
     90 H21        25.0894   36.9711   12.0765 H         1 SAR         0.1883
     91 H22        23.3309   38.2568   10.0345 H         1 SAR         0.0802
     92 H23        22.5430   37.0278   12.7156 H         1 SAR         0.0343
     93 H24        20.2407   37.3469   11.8789 H         1 SAR         0.0234
     94 H25        20.8892   38.1599   10.4143 H         1 SAR         0.0234
     95 H26        21.1162   38.9079   12.0316 H         1 SAR         0.0234
     96 H27        23.2598   35.3347   11.0562 H         1 SAR         0.0234
     97 H28        22.1167   36.0302    9.8578 H         1 SAR         0.0234
     98 H29        21.4902   35.2631   11.3563 H         1 SAR         0.0234
     99 H30        23.6858   40.3534   10.0892 H         1 SAR         0.1885
    100 H31        24.4916   41.7391   12.5745 H         1 SAR         0.0821
    101 H32        24.1679   42.8446    9.7648 H         1 SAR         0.0453
    102 H33        25.6620   42.0476   10.3642 H         1 SAR         0.0453
    103 H34        23.5040   45.0427   10.6497 H         1 SAR         0.0530
    104 H35        27.1669   43.2114   11.8506 H         1 SAR         0.0530
    105 H36        24.3000   47.2048   11.5078 H         1 SAR         0.0525
    106 H37        27.9654   45.3754   12.7152 H         1 SAR         0.0525
    107 H38        25.9429   48.2876   12.4969 H         1 SAR         0.2458
    108 H39        22.5898   41.7373   13.7762 H         1 SAR         0.1883
    109 H40        20.0784   42.5135   12.5015 H         1 SAR         0.0803
    110 H41        18.9982   42.0003   14.5669 H         1 SAR         0.0345
    111 H42        19.9840   41.8588   16.6871 H         1 SAR         0.0267
    112 H43        20.7219   43.3131   15.9339 H         1 SAR         0.0267
    113 H44        19.8625   40.0642   13.2983 H         1 SAR         0.0235
    114 H45        19.7944   39.7389   15.0635 H         1 SAR         0.0235
    115 H46        21.3680   40.1024   14.2773 H         1 SAR         0.0235
    116 H47        22.3801   42.0090   17.1826 H         1 SAR         0.0230
    117 H48        22.7538   42.0189   15.4257 H         1 SAR         0.0230
    118 H49        22.0160   40.5646   16.1788 H         1 SAR         0.0230
    119 H50        22.5804   44.4175   13.4787 H         1 SAR         0.1885
    120 H51        21.1096   46.2555   15.1934 H         1 SAR         0.0817
    121 H52        23.1275   47.6287   15.0814 H         1 SAR         0.0420
    122 H53        23.7760   46.5999   13.7594 H         1 SAR         0.0420
    123 H54        25.2379   44.4516   14.6295 H         1 SAR         0.0729
    124 H55        24.1186   44.6307   18.7356 H         1 SAR         0.1199
    125 H56        25.6282   43.4733   17.0278 H         1 SAR         0.2361
    126 H57        19.1126   48.7630   12.2151 H         1 SAR         0.0802
    127 H58        18.6474   50.8577   13.1979 H         1 SAR         0.0313
    128 H59        20.3570   51.1265   13.6793 H         1 SAR         0.0313
    129 H60        18.2314   49.4299   14.9703 H         1 SAR         0.0287
    130 H61        19.4634   50.4991   15.7225 H         1 SAR         0.0287
    131 H62        21.1032   48.8706   15.6433 H         1 SAR         0.0524
    132 H63        19.7009   47.7507   15.5634 H         1 SAR         0.0524
    133 H64        22.4031   50.0806   12.9697 H         1 SAR         0.1875
    134 H65        22.8334   50.1006   10.0220 H         1 SAR         0.0729
    135 H66        22.3328   52.4130   10.8318 H         1 SAR         0.0338
    136 H67        23.7464   52.0336    8.8596 H         1 SAR         0.0267
    137 H68        25.2015   51.9489    9.9095 H         1 SAR         0.0267
    138 H69        23.2682   52.1731   13.1117 H         1 SAR         0.0234
    139 H70        23.9542   53.5897   12.2461 H         1 SAR         0.0234
    140 H71        24.9221   52.0860   12.4161 H         1 SAR         0.0234
    141 H72        25.0052   54.1344    8.8212 H         1 SAR         0.0230
    142 H73        24.8361   54.2769   10.6038 H         1 SAR         0.0230
    143 H74        23.3811   54.3617    9.5539 H         1 SAR         0.0230
@<TRIPOS>BOND
     1    1    2 1  
     2    1    5 1  
     3    2    3 1  
     4    3    4 2  
     5    3    6 am 
     6    6    7 1  
     7    7    8 1  
     8    7   10 1  
     9    8    9 2  
    10    8   17 am 
    11   10   11 1  
    12   11   12 1  
    13   12   13 1  
    14   13   14 ar 
    15   14   15 ar 
    16   14   16 ar 
    17   17   18 1  
    18   18   19 1  
    19   18   21 1  
    20   19   20 2  
    21   19   24 am 
    22   21   22 1  
    23   21   23 1  
    24   24   25 1  
    25   25   26 1  
    26   25   28 1  
    27   26   27 2  
    28   26   36 am 
    29   28   29 1  
    30   29   30 ar 
    31   29   31 ar 
    32   30   32 ar 
    33   31   33 ar 
    34   32   34 ar 
    35   33   34 ar 
    36   34   35 1  
    37   36   37 1  
    38   37   38 1  
    39   37   40 1  
    40   38   39 2  
    41   38   44 am 
    42   40   41 1  
    43   40   42 1  
    44   41   43 1  
    45   44   45 1  
    46   45   46 1  
    47   45   48 1  
    48   46   47 2  
    49   46   54 am 
    50   48   49 1  
    51   49   50 1  
    52   49   51 2  
    53   50   52 2  
    54   51   53 1  
    55   52   53 1  
    56   54   55 1  
    57   54   60 1  
    58   55   56 1  
    59   55   58 1  
    60   56   57 2  
    61   56   61 am 
    62   58   59 1  
    63   59   60 1  
    64   61   62 1  
    65   62   63 1  
    66   62   65 1  
    67   63   64 ar 
    68   63   69 ar 
    69   65   66 1  
    70   65   67 1  
    71   66   68 1  
    72    1   70 1  
    73    1   71 1  
    74    2   72 1  
    75    2   73 1  
    76    5   74 1  
    77    5   75 1  
    78    5   76 1  
    79    6   77 1  
    80    7   78 1  
    81   10   79 1  
    82   10   80 1  
    83   11   81 1  
    84   11   82 1  
    85   12   83 1  
    86   12   84 1  
    87   13   85 1  
    88   15   86 1  
    89   15   87 1  
    90   16   88 1  
    91   16   89 1  
    92   17   90 1  
    93   18   91 1  
    94   21   92 1  
    95   22   93 1  
    96   22   94 1  
    97   22   95 1  
    98   23   96 1  
    99   23   97 1  
   100   23   98 1  
   101   24   99 1  
   102   25  100 1  
   103   28  101 1  
   104   28  102 1  
   105   30  103 1  
   106   31  104 1  
   107   32  105 1  
   108   33  106 1  
   109   35  107 1  
   110   36  108 1  
   111   37  109 1  
   112   40  110 1  
   113   41  111 1  
   114   41  112 1  
   115   42  113 1  
   116   42  114 1  
   117   42  115 1  
   118   43  116 1  
   119   43  117 1  
   120   43  118 1  
   121   44  119 1  
   122   45  120 1  
   123   48  121 1  
   124   48  122 1  
   125   51  123 1  
   126   52  124 1  
   127   53  125 1  
   128   55  126 1  
   129   58  127 1  
   130   58  128 1  
   131   59  129 1  
   132   59  130 1  
   133   60  131 1  
   134   60  132 1  
   135   61  133 1  
   136   62  134 1  
   137   65  135 1  
   138   66  136 1  
   139   66  137 1  
   140   67  138 1  
   141   67  139 1  
   142   67  140 1  
   143   68  141 1  
   144   68  142 1  
   145   68  143 1  
@<TRIPOS>SUBSTRUCTURE
     1 SAR         1

