1c5s_ligand
  -I-interpret- 

 20 21  0  0  0  0  0  0  0  0999 V2000
   46.0670   18.1780   54.2560 C   0  0  0  0  0
   45.8750   19.2150   53.3870 C   0  0  0  0  0
   46.5760   18.4090   55.4250 N   0  0  0  0  0
   45.7310   17.0050   53.8170 N   0  0  0  0  0
   45.0680   18.9640   51.7180 S   0  0  0  0  0
   45.2060   20.6700   51.2840 C   0  0  0  0  0
   45.8110   21.3380   52.3400 C   0  0  0  0  0
   46.1700   20.5660   53.4500 C   0  0  0  0  0
   44.8030   21.3060   50.1230 C   0  0  0  0  0
   45.0050   22.6670   49.9900 C   0  0  0  0  0
   45.6130   23.3700   51.0240 C   0  0  0  0  0
   46.0110   22.7070   52.1910 C   0  0  0  0  0
   46.8306   19.3601   55.6915 H   0  0  0  0  0
   45.8625   16.1830   54.4064 H   0  0  0  0  0
   45.3352   16.9044   52.8823 H   0  0  0  0  0
   46.6572   21.0059   54.3202 H   0  0  0  0  0
   44.3307   20.7390   49.3208 H   0  0  0  0  0
   44.6907   23.1840   49.0833 H   0  0  0  0  0
   45.7806   24.4425   50.9255 H   0  0  0  0  0
   46.4844   23.2713   52.9945 H   0  0  0  0  0
  1  4  1  0  0  0
  1  3  2  0  0  0
  1  2  1  0  0  0
  2  8  4  0  0  0
  2  5  4  0  0  0
  5  6  4  0  0  0
  6  9  4  0  0  0
  6  7  4  0  0  0
  7 12  4  0  0  0
  7  8  4  0  0  0
 12 11  4  0  0  0
 11 10  4  0  0  0
 10  9  4  0  0  0
  3 13  1  0  0  0
  4 14  1  0  0  0
  4 15  1  0  0  0
  8 16  1  0  0  0
  9 17  1  0  0  0
 10 18  1  0  0  0
 11 19  1  0  0  0
 12 20  1  0  0  0
M  END
$$$$
