2j83_ligand
  -I-interpret- 

 63 64  0  0  0  0  0  0  0  0999 V2000
   25.7170   48.9420   99.0180 C   0  0  0  0  0
   24.9690   47.6350   99.2020 C   0  0  0  0  0
   27.1960   48.6780   98.6970 C   0  0  0  0  0
   29.4320   47.2100   99.3910 C   0  0  0  0  0
   30.6700   47.7160   99.7270 C   0  0  0  0  0
   31.6250   46.9970   99.0330 C   0  0  0  0  0
   31.0940   46.0040   98.2180 C   0  0  0  0  0
   25.0010   49.8430   97.9940 C   0  0  0  0  0
   23.5370   50.0930   98.3930 C   0  0  0  0  0
   22.6700   50.6100   97.2500 C   0  0  0  0  0
   22.6350   52.1330   97.2330 C   0  0  0  0  0
   21.2470   50.0750   97.3190 C   0  0  0  0  0
   25.7030   51.1740   97.8650 C   0  0  0  0  0
   27.0760   52.6360   96.4240 C   0  0  0  0  0
   26.3740   53.9710   96.3550 C   0  0  0  0  0
   26.8040   56.3670   96.7760 C   0  0  0  0  0
   27.9710   52.4180   95.1970 C   0  0  0  0  0
   28.9160   51.2690   95.4920 C   0  0  0  0  0
   30.0460   51.4740   96.2880 C   0  0  0  0  0
   30.9100   50.4170   96.5760 C   0  0  0  0  0
   30.6390   49.1460   96.0680 C   0  0  0  0  0
   29.5120   48.9330   95.2690 C   0  0  0  0  0
   28.6530   50.0000   94.9850 C   0  0  0  0  0
   24.3680   47.4860  100.3700 N   0  0  0  0  0
   26.1770   51.4980   96.6530 N   0  0  0  0  0
   26.9600   54.9510   97.0540 N   0  0  0  0  0
   24.9120   46.7780   98.3290 O   0  0  0  0  0
   23.7010   46.2970  100.6560 O   0  0  0  0  0
   25.7880   51.9040   98.8450 O   0  0  0  0  0
   25.3450   54.1150   95.7130 O   0  0  0  0  0
   27.9600   47.8540  100.0630 S   0  0  0  0  0
   29.3420   45.8920   98.2710 S   0  0  0  0  0
   25.7109   49.5001   99.9543 H   0  0  0  0  0
   27.7026   49.6260   98.5158 H   0  0  0  0  0
   27.2679   48.0505   97.8086 H   0  0  0  0  0
   30.8615   48.5374  100.4175 H   0  0  0  0  0
   32.6944   47.1906   99.1170 H   0  0  0  0  0
   31.7110   45.3518   97.6000 H   0  0  0  0  0
   25.0265   49.3199   97.0380 H   0  0  0  0  0
   23.5371   50.8550   99.1724 H   0  0  0  0  0
   23.1189   49.1387   98.7134 H   0  0  0  0  0
   23.1274   50.2470   96.3296 H   0  0  0  0  0
   22.2238   52.4962   98.1749 H   0  0  0  0  0
   23.6470   52.5170   97.1047 H   0  0  0  0  0
   22.0092   52.4716   96.4073 H   0  0  0  0  0
   21.2664   48.9866   97.2640 H   0  0  0  0  0
   20.7890   50.3845   98.2584 H   0  0  0  0  0
   20.6700   50.4721   96.4838 H   0  0  0  0  0
   27.7103   52.6784   97.3094 H   0  0  0  0  0
   27.1560   56.5787   95.7664 H   0  0  0  0  0
   25.7517   56.6386   96.8597 H   0  0  0  0  0
   27.3875   56.9434   97.4939 H   0  0  0  0  0
   28.5395   53.3234   94.9844 H   0  0  0  0  0
   27.3592   52.1835   94.3259 H   0  0  0  0  0
   30.2540   52.4669   96.6868 H   0  0  0  0  0
   31.7920   50.5832   97.1945 H   0  0  0  0  0
   31.3085   48.3163   96.2950 H   0  0  0  0  0
   29.3035   47.9406   94.8693 H   0  0  0  0  0
   27.7728   49.8365   94.3632 H   0  0  0  0  0
   24.3926   48.2381  101.0585 H   0  0  0  0  0
   25.9003   50.9278   95.8538 H   0  0  0  0  0
   27.5576   54.6840   97.8363 H   0  0  0  0  0
   23.3216   46.3480  101.5364 H   0  0  0  0  0
  1  2  1  0  0  0
  1  3  1  0  0  0
  8  1  1  0  0  0
  2 24  1  0  0  0
  2 27  2  0  0  0
  3 31  1  0  0  0
  4  5  4  0  0  0
 31  4  1  0  0  0
  4 32  4  0  0  0
  5  6  4  0  0  0
  7  6  4  0  0  0
 32  7  4  0  0  0
  8  9  1  0  0  0
 13  8  1  0  0  0
  9 10  1  0  0  0
 10 11  1  0  0  0
 10 12  1  0  0  0
 25 13  1  0  0  0
 13 29  2  0  0  0
 14 15  1  0  0  0
 14 17  1  0  0  0
 14 25  1  0  0  0
 15 26  1  0  0  0
 15 30  2  0  0  0
 26 16  1  0  0  0
 17 18  1  0  0  0
 18 19  4  0  0  0
 18 23  4  0  0  0
 19 20  4  0  0  0
 20 21  4  0  0  0
 21 22  4  0  0  0
 22 23  4  0  0  0
 24 28  1  0  0  0
  1 33  1  0  0  0
  3 34  1  0  0  0
  3 35  1  0  0  0
  5 36  1  0  0  0
  6 37  1  0  0  0
  7 38  1  0  0  0
  8 39  1  0  0  0
  9 40  1  0  0  0
  9 41  1  0  0  0
 10 42  1  0  0  0
 11 43  1  0  0  0
 11 44  1  0  0  0
 11 45  1  0  0  0
 12 46  1  0  0  0
 12 47  1  0  0  0
 12 48  1  0  0  0
 14 49  1  0  0  0
 16 50  1  0  0  0
 16 51  1  0  0  0
 16 52  1  0  0  0
 17 53  1  0  0  0
 17 54  1  0  0  0
 19 55  1  0  0  0
 20 56  1  0  0  0
 21 57  1  0  0  0
 22 58  1  0  0  0
 23 59  1  0  0  0
 24 60  1  0  0  0
 25 61  1  0  0  0
 26 62  1  0  0  0
 28 63  1  0  0  0
M  END
$$$$
