5nk2_ligand
  -I-interpret- 

 57 60  0  0  0  0  0  0  0  0999 V2000
  -80.5730  -13.9630   10.2240 F   0  0  0  0  0
  -81.5090  -14.2060   11.0130 C   0  0  0  0  0
  -80.9290  -14.2490   12.4260 C   0  0  0  0  0
  -80.6760  -15.6370   12.8290 N   0  3  0  0  0
  -81.9790  -16.3130   12.8970 C   0  0  0  0  0
  -82.7170  -16.3210   11.5570 C   0  0  0  0  0
  -81.8610  -15.6110   10.5300 C   0  0  0  0  0
  -82.4850  -15.5850    9.1770 N   0  0  0  0  0
  -83.7130  -15.1180    8.8680 C   0  0  0  0  0
  -84.5020  -14.6260    9.6720 O   0  0  0  0  0
  -84.0630  -15.2240    7.5180 C   0  0  0  0  0
  -85.4030  -15.2130    7.1200 C   0  0  0  0  0
  -83.0720  -15.3360    6.5560 C   0  0  0  0  0
  -83.4220  -15.4240    5.2150 C   0  0  0  0  0
  -84.7590  -15.4230    4.8240 C   0  0  0  0  0
  -85.7690  -15.3350    5.7770 C   0  0  0  0  0
  -87.0440  -15.3170    5.3270 N   0  0  0  0  0
  -88.0910  -15.8690    5.9760 C   0  0  0  0  0
  -88.1340  -16.6690    7.4670 S   0  0  0  0  0
  -89.3480  -15.8550    5.4860 N   0  0  0  0  0
  -90.2810  -16.4620    6.2650 C   0  0  0  0  0
  -89.8140  -16.9800    7.4140 C   0  0  0  0  0
  -90.4840  -17.6420    8.3980 C   0  0  0  0  0
  -89.8700  -17.9660    9.4180 O   0  0  0  0  0
  -91.8140  -17.9090    8.2390 N   0  0  0  0  0
  -92.4900  -18.5520    9.2440 C   0  0  0  0  0
  -92.5920  -19.9440    9.2580 C   0  0  0  0  0
  -91.8510  -20.9370    8.0220 Cl  0  0  0  0  0
  -93.2920  -20.5850   10.2840 C   0  0  0  0  0
  -93.8960  -19.8410   11.2970 C   0  0  0  0  0
  -93.8070  -18.4480   11.2700 C   0  0  0  0  0
  -93.1060  -17.8020   10.2510 C   0  0  0  0  0
  -93.0420  -16.4070   10.2510 C   0  0  0  0  0
  -82.3441  -13.5059   11.0351 H   0  0  0  0  0
  -81.6425  -13.8014   13.1179 H   0  0  0  0  0
  -79.9897  -13.6962   12.4427 H   0  0  0  0  0
  -80.2068  -15.6688   13.7341 H   0  0  0  0  0
  -80.0649  -16.1009   12.1568 H   0  0  0  0  0
  -82.5971  -15.7726   13.6140 H   0  0  0  0  0
  -81.8016  -17.3491   13.1852 H   0  0  0  0  0
  -83.6751  -15.8112   11.6579 H   0  0  0  0  0
  -82.9011  -17.3478   11.2408 H   0  0  0  0  0
  -80.9398  -16.1838   10.4239 H   0  0  0  0  0
  -81.9285  -15.9573    8.4076 H   0  0  0  0  0
  -86.1813  -15.1067    7.8757 H   0  0  0  0  0
  -82.0227  -15.3549    6.8504 H   0  0  0  0  0
  -82.6404  -15.4948    4.4586 H   0  0  0  0  0
  -85.0151  -15.4915    3.7667 H   0  0  0  0  0
  -87.2271  -14.8548    4.4364 H   0  0  0  0  0
  -91.3310  -16.5243    5.9792 H   0  0  0  0  0
  -92.2979  -17.6338    7.3843 H   0  0  0  0  0
  -93.3662  -21.6724   10.2924 H   0  0  0  0  0
  -94.4326  -20.3424   12.1024 H   0  0  0  0  0
  -94.2890  -17.8603   12.0512 H   0  0  0  0  0
  -91.9996  -16.0924   10.3018 H   0  0  0  0  0
  -93.4944  -16.0238    9.3363 H   0  0  0  0  0
  -93.5822  -16.0198   11.1149 H   0  0  0  0  0
  1  2  1  0  0  0
  2  3  1  0  0  0
  2  7  1  0  0  0
  3  4  1  0  0  0
  4  5  1  0  0  0
  5  6  1  0  0  0
  6  7  1  0  0  0
  7  8  1  0  0  0
  8  9  1  0  0  0
  9 10  2  0  0  0
  9 11  1  0  0  0
 11 12  4  0  0  0
 11 13  4  0  0  0
 12 16  4  0  0  0
 13 14  4  0  0  0
 14 15  4  0  0  0
 15 16  4  0  0  0
 16 17  1  0  0  0
 17 18  1  0  0  0
 18 19  4  0  0  0
 18 20  4  0  0  0
 19 22  4  0  0  0
 20 21  4  0  0  0
 21 22  4  0  0  0
 22 23  1  0  0  0
 23 24  2  0  0  0
 23 25  1  0  0  0
 25 26  1  0  0  0
 26 27  4  0  0  0
 26 32  4  0  0  0
 27 28  1  0  0  0
 27 29  4  0  0  0
 29 30  4  0  0  0
 30 31  4  0  0  0
 31 32  4  0  0  0
 32 33  1  0  0  0
  2 34  1  0  0  0
  3 35  1  0  0  0
  3 36  1  0  0  0
  4 37  1  0  0  0
  4 38  1  0  0  0
  5 39  1  0  0  0
  5 40  1  0  0  0
  6 41  1  0  0  0
  6 42  1  0  0  0
  7 43  1  0  0  0
  8 44  1  0  0  0
 12 45  1  0  0  0
 13 46  1  0  0  0
 14 47  1  0  0  0
 15 48  1  0  0  0
 17 49  1  0  0  0
 21 50  1  0  0  0
 25 51  1  0  0  0
 29 52  1  0  0  0
 30 53  1  0  0  0
 31 54  1  0  0  0
 33 55  1  0  0  0
 33 56  1  0  0  0
 33 57  1  0  0  0
M  END
$$$$
