4c38_ligand
  -I-interpret- 

 30 32  0  0  0  0  0  0  0  0999 V2000
   25.3730  -10.0670    0.3840 C   0  0  0  0  0
   25.8080   -9.9270    1.6940 C   0  0  0  0  0
   27.1880   -9.9400    1.9150 C   0  0  0  0  0
   27.9490   -9.8450    3.0870 N   0  0  0  0  0
   27.3900   -9.6140    4.4350 C   0  0  0  0  0
   27.0230  -10.8920    5.1240 C   0  0  0  0  0
   29.2620   -9.9450    2.6850 C   0  0  0  0  0
   29.4150  -10.0820    1.3810 N   0  0  0  0  0
   28.1150  -10.0860    0.8760 C   0  0  0  0  0
   27.5380  -10.1960   -0.3900 C   0  0  0  0  0
   26.2260  -10.1940   -0.6570 N   0  0  0  0  0
   30.3930  -10.0390    3.6180 C   0  0  0  0  0
   31.7730  -10.0340    3.2140 C   0  0  0  0  0
   32.2430   -9.8250    1.9810 N   0  0  0  0  0
   32.5260  -10.2290    4.2660 N   0  0  0  0  0
   31.6400  -10.3700    5.3290 O   0  0  0  0  0
   23.9130  -10.0780    0.0470 C   0  0  0  0  0
   30.3190  -10.2440    4.9110 N   0  0  0  0  0
   25.1026   -9.8116    2.5169 H   0  0  0  0  0
   26.4855   -9.0153    4.3282 H   0  0  0  0  0
   28.1493   -9.1121    5.0348 H   0  0  0  0  0
   26.2745  -11.4199    4.5331 H   0  0  0  0  0
   27.9112  -11.5152    5.2282 H   0  0  0  0  0
   26.6171  -10.6679    6.1105 H   0  0  0  0  0
   28.2165  -10.2922   -1.2376 H   0  0  0  0  0
   31.5968   -9.6461    1.2124 H   0  0  0  0  0
   33.2481   -9.8443    1.8082 H   0  0  0  0  0
   23.4285  -10.9069    0.5631 H   0  0  0  0  0
   23.4614   -9.1377    0.3631 H   0  0  0  0  0
   23.7908  -10.1974   -1.0295 H   0  0  0  0  0
  1  2  4  0  0  0
  1 11  4  0  0  0
  1 17  1  0  0  0
  2  3  4  0  0  0
  3  4  4  0  0  0
  3  9  4  0  0  0
  4  5  1  0  0  0
  4  7  4  0  0  0
  5  6  1  0  0  0
  7  8  4  0  0  0
  7 12  1  0  0  0
  8  9  4  0  0  0
  9 10  4  0  0  0
 10 11  4  0  0  0
 12 13  4  0  0  0
 12 18  4  0  0  0
 13 14  1  0  0  0
 13 15  4  0  0  0
 15 16  4  0  0  0
 16 18  4  0  0  0
  2 19  1  0  0  0
  5 20  1  0  0  0
  5 21  1  0  0  0
  6 22  1  0  0  0
  6 23  1  0  0  0
  6 24  1  0  0  0
 10 25  1  0  0  0
 14 26  1  0  0  0
 14 27  1  0  0  0
 17 28  1  0  0  0
 17 29  1  0  0  0
 17 30  1  0  0  0
M  END
$$$$
