6mla_ligand
  -I-interpret- 

 27 26  0  0  0  0  0  0  0  0999 V2000
   13.9300    1.3140  -11.9840 N   0  3  0  0  0
   13.8360    2.0440  -10.7250 C   0  0  0  0  0
   14.4610    1.2540   -9.5870 C   0  0  0  0  0
   14.7690    0.0750   -9.7420 O   0  0  0  0  0
   12.3740    2.3690  -10.3970 C   0  0  0  0  0
   11.4230    1.1880  -10.5730 C   0  0  0  0  0
    9.9610    1.5260  -10.2100 C   0  0  0  0  0
    9.0400    0.4240  -10.5170 N   0  0  0  0  0
    7.7810    0.3350  -10.0800 C   0  0  0  0  0
    7.2830    1.2870   -9.3040 N   0  0  0  0  0
    7.0130   -0.7100  -10.4190 N   0  0  0  0  0
   14.6770    1.7620   -8.4800 O   0  0  0  0  0
   14.9087    1.1078  -12.1838 H   0  0  0  0  0
   13.4058    0.4421  -11.9101 H   0  0  0  0  0
   13.5410    1.8833  -12.7356 H   0  0  0  0  0
   14.3876    2.9771  -10.8398 H   0  0  0  0  0
   12.0528    3.1493  -11.0870 H   0  0  0  0  0
   12.3349    2.6631   -9.3481 H   0  0  0  0  0
   11.7546    0.3940   -9.9039 H   0  0  0  0  0
   11.4445    0.9001  -11.6241 H   0  0  0  0  0
    9.6587    2.3925  -10.7982 H   0  0  0  0  0
    9.9146    1.7160   -9.1377 H   0  0  0  0  0
    9.3881   -0.3304  -11.1087 H   0  0  0  0  0
    7.8609    2.0855   -9.0417 H   0  0  0  0  0
    6.0527   -0.7684  -10.0801 H   0  0  0  0  0
    7.3889   -1.4468  -11.0159 H   0  0  0  0  0
   14.3938    2.6792   -8.4893 H   0  0  0  0  0
  1  2  1  0  0  0
  2  3  1  0  0  0
  2  5  1  0  0  0
  3  4  2  0  0  0
  3 12  1  0  0  0
  5  6  1  0  0  0
  6  7  1  0  0  0
  7  8  1  0  0  0
  8  9  1  0  0  0
  9 10  2  0  0  0
  9 11  1  0  0  0
  1 13  1  0  0  0
  1 14  1  0  0  0
  1 15  1  0  0  0
  2 16  1  0  0  0
  5 17  1  0  0  0
  5 18  1  0  0  0
  6 19  1  0  0  0
  6 20  1  0  0  0
  7 21  1  0  0  0
  7 22  1  0  0  0
  8 23  1  0  0  0
 10 24  1  0  0  0
 11 25  1  0  0  0
 11 26  1  0  0  0
 12 27  1  0  0  0
M  END
$$$$
