3hha_ligand
  -I-interpret- 

 57 58  0  0  0  0  0  0  0  0999 V2000
   10.4590    7.7320   -4.0550 O   0  0  0  0  0
    9.6140    8.3290   -3.4140 C   0  0  0  0  0
    9.9840    9.4890   -2.6100 C   0  0  0  0  0
   11.0890    9.5940   -1.8590 N   0  0  0  0  0
   12.0990    8.5490   -1.6440 C   0  0  0  0  0
   11.1630   10.7170   -1.2900 N   0  0  0  0  0
   10.0990   11.4470   -1.6510 C   0  0  0  0  0
    9.8960   12.8510   -1.1560 C   0  0  0  0  0
    8.4040   13.0760   -1.0190 C   0  0  0  0  0
   10.5180   13.0400    0.2430 C   0  0  0  0  0
   10.5880   13.7860   -2.1540 C   0  0  0  0  0
    9.3220   10.6830   -2.5060 C   0  0  0  0  0
    8.3080    7.9420   -3.4430 N   0  0  0  0  0
    7.8390    6.7970   -4.2280 C   0  0  0  0  0
    6.7820    7.2940   -5.1770 C   0  0  0  0  0
    6.6310    6.5970   -6.3190 N   0  0  0  0  0
    5.6730    6.9440   -7.3600 C   0  0  0  0  0
    4.4900    6.0440   -7.3950 C   0  0  0  0  0
    3.5990    6.1240   -8.3420 N   0  0  0  0  0
    6.0810    8.2590   -4.9430 O   0  0  0  0  0
    7.2590    5.7310   -3.3040 C   0  0  0  0  0
    8.2400    5.3090   -2.2150 C   0  0  0  0  0
    9.5770    4.9950   -2.5240 C   0  0  0  0  0
   10.4730    4.6700   -1.5230 C   0  0  0  0  0
    7.8070    5.2600   -0.9190 C   0  0  0  0  0
    8.6890    4.9000    0.0910 C   0  0  0  0  0
    8.1830    4.8240    1.5110 C   0  0  0  0  0
   10.0210    4.6150   -0.2200 C   0  0  0  0  0
   11.6283    7.6795   -1.1852 H   0  0  0  0  0
   12.5353    8.2647   -2.6016 H   0  0  0  0  0
   12.8801    8.9303   -0.9863 H   0  0  0  0  0
    7.9269   12.9417   -1.9898 H   0  0  0  0  0
    7.9934   12.3585   -0.3086 H   0  0  0  0  0
    8.2221   14.0891   -0.6604 H   0  0  0  0  0
   10.0482   12.3504    0.9443 H   0  0  0  0  0
   11.5879   12.8375    0.1939 H   0  0  0  0  0
   10.3558   14.0652    0.5758 H   0  0  0  0  0
   11.6498   13.5442   -2.2003 H   0  0  0  0  0
   10.1415   13.6575   -3.1400 H   0  0  0  0  0
   10.4630   14.8189   -1.8290 H   0  0  0  0  0
    8.3883   10.9695   -2.9899 H   0  0  0  0  0
    7.6289    8.4710   -2.8959 H   0  0  0  0  0
    8.6649    6.3500   -4.7813 H   0  0  0  0  0
    7.2219    5.7783   -6.4636 H   0  0  0  0  0
    6.1827    6.8552   -8.3194 H   0  0  0  0  0
    5.3137    7.9522   -7.1539 H   0  0  0  0  0
    4.3652    5.2991   -6.6091 H   0  0  0  0  0
    3.7036    6.8165   -9.0835 H   0  0  0  0  0
    7.0259    4.8531   -3.9065 H   0  0  0  0  0
    6.3765    6.1487   -2.8194 H   0  0  0  0  0
    9.9087    5.0083   -3.5622 H   0  0  0  0  0
   11.5166    4.4611   -1.7581 H   0  0  0  0  0
    6.7718    5.5030   -0.6793 H   0  0  0  0  0
    7.8039    5.8003    1.8130 H   0  0  0  0  0
    7.3819    4.0873    1.5709 H   0  0  0  0  0
    8.9991    4.5297    2.1709 H   0  0  0  0  0
   10.7131    4.3454    0.5778 H   0  0  0  0  0
  1  2  2  0  0  0
  2  3  1  0  0  0
  2 13  1  0  0  0
  3  4  4  0  0  0
  3 12  4  0  0  0
  4  5  1  0  0  0
  4  6  4  0  0  0
  6  7  4  0  0  0
  7  8  1  0  0  0
  7 12  4  0  0  0
  8  9  1  0  0  0
  8 10  1  0  0  0
  8 11  1  0  0  0
 13 14  1  0  0  0
 14 15  1  0  0  0
 14 21  1  0  0  0
 15 16  1  0  0  0
 15 20  2  0  0  0
 16 17  1  0  0  0
 17 18  1  0  0  0
 18 19  2  0  0  0
 21 22  1  0  0  0
 22 23  4  0  0  0
 22 25  4  0  0  0
 23 24  4  0  0  0
 24 28  4  0  0  0
 25 26  4  0  0  0
 26 27  1  0  0  0
 26 28  4  0  0  0
  5 29  1  0  0  0
  5 30  1  0  0  0
  5 31  1  0  0  0
  9 32  1  0  0  0
  9 33  1  0  0  0
  9 34  1  0  0  0
 10 35  1  0  0  0
 10 36  1  0  0  0
 10 37  1  0  0  0
 11 38  1  0  0  0
 11 39  1  0  0  0
 11 40  1  0  0  0
 12 41  1  0  0  0
 13 42  1  0  0  0
 14 43  1  0  0  0
 16 44  1  0  0  0
 17 45  1  0  0  0
 17 46  1  0  0  0
 18 47  1  0  0  0
 19 48  1  0  0  0
 21 49  1  0  0  0
 21 50  1  0  0  0
 23 51  1  0  0  0
 24 52  1  0  0  0
 25 53  1  0  0  0
 27 54  1  0  0  0
 27 55  1  0  0  0
 27 56  1  0  0  0
 28 57  1  0  0  0
M  END
$$$$
