### 
### Created by X-TOOL on Mon Sep 10 21:12:59 2018
### 

@<TRIPOS>MOLECULE
3hha_ligand
   57    58     1     0     0
SMALL
GAST_HUCK


@<TRIPOS>ATOM
      1 O18        10.4590    7.7320   -4.0550 O.2       1 NOW        -0.3812
      2 C17         9.6140    8.3290   -3.4140 C.2       1 NOW         0.2402
      3 C19         9.9840    9.4890   -2.6100 C.2       1 NOW         0.1801
      4 N23        11.0890    9.5940   -1.8590 N.pl3     1 NOW        -0.1563
      5 C24        12.0990    8.5490   -1.6440 C.3       1 NOW         0.0743
      6 N22        11.1630   10.7170   -1.2900 N.2       1 NOW        -0.1461
      7 C21        10.0990   11.4470   -1.6510 C.2       1 NOW         0.0357
      8 C25         9.8960   12.8510   -1.1560 C.3       1 NOW        -0.0318
      9 C28         8.4040   13.0760   -1.0190 C.3       1 NOW        -0.0806
     10 C27        10.5180   13.0400    0.2430 C.3       1 NOW        -0.0806
     11 C26        10.5880   13.7860   -2.1540 C.3       1 NOW        -0.0806
     12 C20         9.3220   10.6830   -2.5060 C.2       1 NOW        -0.0090
     13 N16         8.3080    7.9420   -3.4430 N.am      1 NOW        -0.2607
     14 C9          7.8390    6.7970   -4.2280 C.3       1 NOW         0.1400
     15 C10         6.7820    7.2940   -5.1770 C.2       1 NOW         0.2066
     16 N12         6.6310    6.5970   -6.3190 N.am      1 NOW        -0.2650
     17 C13         5.6730    6.9440   -7.3600 C.3       1 NOW         0.0897
     18 C14         4.4900    6.0440   -7.3950 C.2       1 NOW         0.0176
     19 N15         3.5990    6.1240   -8.3420 N.2       1 NOW        -0.3621
     20 O11         6.0810    8.2590   -4.9430 O.2       1 NOW        -0.3941
     21 C8          7.2590    5.7310   -3.3040 C.3       1 NOW         0.0198
     22 C5          8.2400    5.3090   -2.2150 C.ar      1 NOW        -0.0454
     23 C3          9.5770    4.9950   -2.5240 C.ar      1 NOW        -0.0670
     24 C1         10.4730    4.6700   -1.5230 C.ar      1 NOW        -0.0752
     25 C6          7.8070    5.2600   -0.9190 C.ar      1 NOW        -0.0592
     26 C4          8.6890    4.9000    0.0910 C.ar      1 NOW        -0.0529
     27 C7          8.1830    4.8240    1.5110 C.3       1 NOW        -0.0327
     28 C2         10.0210    4.6150   -0.2200 C.ar      1 NOW        -0.0675
     29 H1         12.8879    8.9326   -0.9803 H         1 NOW         0.0637
     30 H2         12.5402    8.2612   -2.6097 H         1 NOW         0.0637
     31 H3         11.6253    7.6709   -1.1810 H         1 NOW         0.0637
     32 H4          8.2191   14.0982   -0.6571 H         1 NOW         0.0147
     33 H5          7.9883   12.3525   -0.3022 H         1 NOW         0.0147
     34 H6          7.9213   12.9408   -1.9981 H         1 NOW         0.0147
     35 H7         11.6053   12.8841    0.1849 H         1 NOW         0.0147
     36 H8         10.0799   12.3110    0.9406 H         1 NOW         0.0147
     37 H9         10.3124   14.0596    0.6010 H         1 NOW         0.0147
     38 H10        10.1442   13.6509   -3.1514 H         1 NOW         0.0147
     39 H11        11.6613   13.5488   -2.1951 H         1 NOW         0.0147
     40 H12        10.4551   14.8293   -1.8318 H         1 NOW         0.0147
     41 H13         8.3891   10.9692   -2.9895 H         1 NOW         0.0542
     42 H14         7.6422    8.4606   -2.9066 H         1 NOW         0.1877
     43 H15         8.6768    6.3676   -4.7968 H         1 NOW         0.0823
     44 H16         7.2103    5.7943   -6.4608 H         1 NOW         0.1894
     45 H17         6.1813    6.8904   -8.3341 H         1 NOW         0.0803
     46 H18         5.3241    7.9723   -7.1846 H         1 NOW         0.0803
     47 H19         4.3653    5.2998   -6.6098 H         1 NOW         0.1222
     48 H20         2.8062    5.5015   -8.3420 H         1 NOW         0.1054
     49 H21         6.9967    4.8476   -3.9047 H         1 NOW         0.0473
     50 H22         6.3528    6.1323   -2.8268 H         1 NOW         0.0473
     51 H23         9.9069    5.0082   -3.5565 H         1 NOW         0.0499
     52 H24        11.5109    4.4623   -1.7568 H         1 NOW         0.0582
     53 H25         6.7775    5.5017   -0.6807 H         1 NOW         0.0494
     54 H26         9.0058    4.5271    2.1780 H         1 NOW         0.0390
     55 H27         7.3744    4.0808    1.5729 H         1 NOW         0.0390
     56 H28         7.8001    5.8087    1.8170 H         1 NOW         0.0390
     57 H29        10.7093    4.3469    0.5734 H         1 NOW         0.0499
@<TRIPOS>BOND
     1    1    2 2  
     2    2    3 1  
     3    2   13 am 
     4    3    4 1  
     5    3   12 2  
     6    4    5 1  
     7    4    6 1  
     8    6    7 2  
     9    7    8 1  
    10    7   12 1  
    11    8    9 1  
    12    8   10 1  
    13    8   11 1  
    14   13   14 1  
    15   14   15 1  
    16   14   21 1  
    17   15   16 am 
    18   15   20 2  
    19   16   17 1  
    20   17   18 1  
    21   18   19 2  
    22   21   22 1  
    23   22   23 ar 
    24   22   25 ar 
    25   23   24 ar 
    26   24   28 ar 
    27   25   26 ar 
    28   26   27 1  
    29   26   28 ar 
    30    5   29 1  
    31    5   30 1  
    32    5   31 1  
    33    9   32 1  
    34    9   33 1  
    35    9   34 1  
    36   10   35 1  
    37   10   36 1  
    38   10   37 1  
    39   11   38 1  
    40   11   39 1  
    41   11   40 1  
    42   12   41 1  
    43   13   42 1  
    44   14   43 1  
    45   16   44 1  
    46   17   45 1  
    47   17   46 1  
    48   18   47 1  
    49   19   48 1  
    50   21   49 1  
    51   21   50 1  
    52   23   51 1  
    53   24   52 1  
    54   25   53 1  
    55   27   54 1  
    56   27   55 1  
    57   27   56 1  
    58   28   57 1  
@<TRIPOS>SUBSTRUCTURE
     1 NOW         1

