### 
### Created by X-TOOL on Mon Sep 10 21:13:18 2018
### 

@<TRIPOS>MOLECULE
4nuf_ligand
  258   259     1     0     0
SMALL
GAST_HUCK


@<TRIPOS>ATOM
      1 N         -10.6650   23.9870  -93.8330 N.4       1 MET         0.2379
      2 CA         -9.4150   23.8970  -93.0820 C.3       1 MET         0.0658
      3 C          -8.8480   25.2740  -92.7440 C.2       1 MET         0.2268
      4 O          -7.8340   25.3820  -92.0550 O.2       1 MET        -0.3907
      5 CB         -8.3750   23.1040  -93.8860 C.3       1 MET         0.0168
      6 CG         -7.0240   22.9280  -93.1820 C.3       1 MET         0.0007
      7 SD         -6.0740   21.4230  -93.6450 S.3       1 MET        -0.1638
      8 CE         -4.4290   22.1050  -93.8970 C.3       1 MET        -0.0181
      9 N          -9.5020   26.3240  -93.2270 N.am      1 HIS        -0.2598
     10 CA         -9.0280   27.6750  -92.9850 C.3       1 HIS         0.1370
     11 C         -10.0770   28.4880  -92.2160 C.2       1 HIS         0.2054
     12 O         -11.1130   27.9580  -91.7950 O.2       1 HIS        -0.3942
     13 CB         -8.6660   28.3400  -94.3350 C.3       1 HIS         0.0145
     14 CG         -7.6310   29.4240  -94.2300 C.2       1 HIS        -0.0027
     15 ND1        -7.9530   30.7660  -94.2180 N.2       1 HIS        -0.3252
     16 CD2        -6.2840   29.3610  -94.0930 C.2       1 HIS         0.0291
     17 CE1        -6.8510   31.4810  -94.0750 C.2       1 HIS         0.0907
     18 NE2        -5.8240   30.6530  -93.9960 N.pl3     1 HIS        -0.2752
     19 N          -9.7670   29.7700  -92.0270 N.am      1 ARG        -0.2636
     20 CA        -10.6020   30.7300  -91.3100 C.3       1 ARG         0.1311
     21 C         -11.1860   30.2110  -90.0000 C.2       1 ARG         0.2039
     22 O         -12.3590   30.4460  -89.7080 O.2       1 ARG        -0.3944
     23 CB        -11.7240   31.2290  -92.2200 C.3       1 ARG        -0.0092
     24 CG        -12.6890   30.1570  -92.6600 C.3       1 ARG        -0.0156
     25 CD        -13.6620   30.7050  -93.6890 C.3       1 ARG         0.0627
     26 NE        -12.9710   31.0930  -94.9130 N.pl3     1 ARG        -0.2723
     27 CZ        -13.4300   30.8470  -96.1340 C.cat     1 ARG         0.2882
     28 NH1       -12.7300   31.2330  -97.1940 N.pl3     1 ARG        -0.2849
     29 NH2       -14.5870   30.2140  -96.2910 N.pl3     1 ARG        -0.2849
     30 N         -10.3650   29.5180  -89.2100 N.am      1 VAL        -0.2635
     31 CA        -10.8130   28.9760  -87.9220 C.3       1 VAL         0.1333
     32 C         -10.9830   30.1320  -86.9490 C.2       1 VAL         0.2042
     33 O         -11.6970   30.0320  -85.9540 O.2       1 VAL        -0.3944
     34 CB         -9.7990   27.9400  -87.3290 C.3       1 VAL        -0.0063
     35 CG1        -8.4980   28.6070  -86.9670 C.3       1 VAL        -0.0584
     36 CG2       -10.3940   27.2710  -86.1010 C.3       1 VAL        -0.0584
     37 N         -10.3150   31.2320  -87.2600 N.am      1 SER        -0.2616
     38 CA        -10.3960   32.4330  -86.4560 C.3       1 SER         0.1539
     39 C         -11.8440   32.9050  -86.2920 C.2       1 SER         0.2062
     40 O         -12.3470   33.0310  -85.1770 O.2       1 SER        -0.3943
     41 CB         -9.5890   33.5330  -87.1230 C.3       1 SER         0.0843
     42 OG        -10.0210   34.8050  -86.6850 O.3       1 SER        -0.3903
     43 N         -12.5070   33.1770  -87.4110 N.am      1 ALA        -0.2639
     44 CA        -13.8860   33.6490  -87.3790 C.3       1 ALA         0.1282
     45 C         -14.7830   32.6710  -86.6370 C.2       1 ALA         0.2036
     46 O         -15.7440   33.0580  -85.9650 O.2       1 ALA        -0.3944
     47 CB        -14.4040   33.8500  -88.7960 C.3       1 ALA        -0.0244
     48 N         -14.4650   31.3940  -86.7600 N.am      1 ALA        -0.2640
     49 CA        -15.2530   30.3790  -86.1010 C.3       1 ALA         0.1282
     50 C         -15.1180   30.4850  -84.5810 C.2       1 ALA         0.2036
     51 O         -16.1090   30.5040  -83.8550 O.2       1 ALA        -0.3944
     52 CB        -14.8150   29.0180  -86.5810 C.3       1 ALA        -0.0244
     53 N         -13.8840   30.5710  -84.1040 N.am      1 LEU        -0.2637
     54 CA        -13.6290   30.6610  -82.6740 C.3       1 LEU         0.1312
     55 C         -14.3480   31.8550  -82.0320 C.2       1 LEU         0.2039
     56 O         -14.9830   31.7430  -80.9750 O.2       1 LEU        -0.3944
     57 CB        -12.1130   30.7510  -82.4390 C.3       1 LEU        -0.0101
     58 CG        -11.2700   29.5350  -82.8720 C.3       1 LEU        -0.0425
     59 CD1        -9.8160   29.8890  -82.8750 C.3       1 LEU        -0.0625
     60 CD2       -11.5010   28.3640  -81.9310 C.3       1 LEU        -0.0625
     61 N         -14.2640   33.0020  -82.6890 N.am      1 GLU        -0.2636
     62 CA        -14.8780   34.2160  -82.1620 C.3       1 GLU         0.1325
     63 C         -16.3820   34.0600  -81.9990 C.2       1 GLU         0.2040
     64 O         -16.9740   34.5390  -81.0230 O.2       1 GLU        -0.3944
     65 CB        -14.5620   35.3890  -83.0840 C.3       1 GLU        -0.0008
     66 CG        -14.9970   36.7380  -82.5430 C.3       1 GLU         0.0044
     67 CD        -14.5000   37.9040  -83.3920 C.2       1 GLU         0.0350
     68 OE1       -14.6440   39.0630  -82.9450 O.co2     1 GLU        -0.5690
     69 OE2       -13.9670   37.6680  -84.5010 O.co2     1 GLU        -0.5690
     70 N         -16.9840   33.3820  -82.9710 N.am      1 GLU        -0.2636
     71 CA        -18.4200   33.1330  -82.9890 C.3       1 GLU         0.1325
     72 C         -18.8120   32.0920  -81.9420 C.2       1 GLU         0.2040
     73 O         -19.8100   32.2360  -81.2480 O.2       1 GLU        -0.3944
     74 CB        -18.8350   32.6460  -84.3850 C.3       1 GLU        -0.0008
     75 CG        -20.3020   32.2330  -84.5300 C.3       1 GLU         0.0044
     76 CD        -21.2720   33.4160  -84.5650 C.2       1 GLU         0.0350
     77 OE1       -20.9320   34.4510  -85.1810 O.co2     1 GLU        -0.5690
     78 OE2       -22.3830   33.3080  -83.9960 O.co2     1 GLU        -0.5690
     79 N         -17.9960   31.0580  -81.8150 N.am      1 ALA        -0.2640
     80 CA        -18.3000   29.9910  -80.8960 C.3       1 ALA         0.1282
     81 C         -18.1460   30.3930  -79.4590 C.2       1 ALA         0.2037
     82 O         -18.8460   29.8670  -78.6010 O.2       1 ALA        -0.3944
     83 CB        -17.4250   28.8000  -81.1860 C.3       1 ALA        -0.0244
     84 N         -17.2340   31.3260  -79.1920 N.am      1 ASN        -0.2616
     85 CA        -16.9740   31.7450  -77.8160 C.3       1 ASN         0.1476
     86 C         -17.8540   32.9020  -77.3610 C.2       1 ASN         0.2063
     87 O         -17.6860   33.4240  -76.2630 O.2       1 ASN        -0.3942
     88 CB        -15.4840   32.0770  -77.6260 C.3       1 ASN         0.0773
     89 CG        -15.0590   32.0810  -76.1470 C.2       1 ASN         0.1780
     90 OD1       -15.2920   31.1120  -75.4240 O.2       1 ASN        -0.3970
     91 ND2       -14.4270   33.1710  -75.7050 N.am      1 ASN        -0.3007
     92 N         -18.8050   33.2870  -78.2020 N.am      1 LYS        -0.2636
     93 CA        -19.7250   34.3590  -77.8580 C.3       1 LYS         0.1310
     94 C         -20.5010   34.0630  -76.5700 C.2       1 LYS         0.2039
     95 O         -20.8670   34.9830  -75.8360 O.2       1 LYS        -0.3944
     96 CB        -20.7200   34.5700  -78.9900 C.3       1 LYS        -0.0122
     97 CG        -20.1860   35.3750  -80.1520 C.3       1 LYS        -0.0440
     98 CD        -21.2210   35.4760  -81.2750 C.3       1 LYS        -0.0124
     99 CE        -20.7800   36.4640  -82.3760 C.3       1 LYS        -0.0354
    100 NZ        -19.4310   36.1600  -82.9840 N.4       1 LYS         0.2185
    101 N         -20.7610   32.7860  -76.2980 N.am      1 VAL        -0.2635
    102 CA        -21.5120   32.4100  -75.1060 C.3       1 VAL         0.1333
    103 C         -20.9220   32.9240  -73.8080 C.2       1 VAL         0.2043
    104 O         -21.5980   32.8920  -72.7810 O.2       1 VAL        -0.3944
    105 CB        -21.6470   30.8830  -74.9660 C.3       1 VAL        -0.0063
    106 CG1       -22.5170   30.3350  -76.0610 C.3       1 VAL        -0.0584
    107 CG2       -20.2890   30.2370  -75.0260 C.3       1 VAL        -0.0584
    108 N         -19.6660   33.3750  -73.8460 N.am      1 PHE        -0.2619
    109 CA        -18.9760   33.8970  -72.6590 C.3       1 PHE         0.1404
    110 C         -19.0290   35.4250  -72.5580 C.2       1 PHE         0.2055
    111 O         -18.3300   36.0210  -71.7390 O.2       1 PHE        -0.3942
    112 CB        -17.5000   33.4580  -72.6320 C.3       1 PHE         0.0214
    113 CG        -17.2920   32.0150  -72.2590 C.ar      1 PHE        -0.0386
    114 CD1       -17.4950   31.0020  -73.1890 C.ar      1 PHE        -0.0601
    115 CD2       -16.9070   31.6660  -70.9680 C.ar      1 PHE        -0.0601
    116 CE1       -17.3230   29.6580  -72.8430 C.ar      1 PHE        -0.0686
    117 CE2       -16.7330   30.3240  -70.6090 C.ar      1 PHE        -0.0686
    118 CZ        -16.9420   29.3190  -71.5510 C.ar      1 PHE        -0.0687
    119 N         -19.8500   36.0570  -73.3900 N.am      1 LEU        -0.2669
    120 CA        -19.9810   37.5100  -73.3690 C.3       1 LEU         0.1228
    121 C         -21.1690   37.9150  -72.5020 C.2       1 LEU         0.2149
    122 O         -21.0100   38.5440  -71.4570 O.co2     1 LEU        -0.4120
    123 CB        -20.1870   38.0400  -74.7880 C.3       1 LEU        -0.0132
    124 CG        -19.0980   37.6740  -75.7950 C.3       1 LEU        -0.0430
    125 CD1       -19.3950   38.3320  -77.1480 C.3       1 LEU        -0.0625
    126 CD2       -17.7400   38.1210  -75.2530 C.3       1 LEU        -0.0625
    127 H         -11.0034   23.0591  -94.0345 H         1 MET         0.2015
    128 H         -10.5032   24.4806  -94.6968 H         1 MET         0.2015
    129 H         -11.3508   24.4832  -93.2858 H         1 MET         0.2015
    130 H          -9.6165   23.3644  -92.1409 H         1 MET         0.1098
    131 H          -8.2010   23.6307  -94.8359 H         1 MET         0.0354
    132 H          -8.7880   22.1053  -94.0907 H         1 MET         0.0354
    133 H          -7.2098   22.8903  -92.0985 H         1 MET         0.0380
    134 H          -6.4034   23.8051  -93.4174 H         1 MET         0.0380
    135 H          -3.7382   21.2990  -94.1855 H         1 MET         0.0340
    136 H          -4.0788   22.5718  -92.9646 H         1 MET         0.0340
    137 H          -4.4638   22.8612  -94.6951 H         1 MET         0.0340
    138 H         -10.3329   26.1822  -93.7651 H         1 HIS         0.1886
    139 H          -8.1179   27.6221  -92.3695 H         1 HIS         0.0817
    140 H          -9.5813   28.7772  -94.7606 H         1 HIS         0.0420
    141 H          -8.2827   27.5616  -95.0111 H         1 HIS         0.0420
    142 H          -5.6790   28.4559  -94.0650 H         1 HIS         0.0729
    143 H          -6.7981   32.5678  -94.0299 H         1 HIS         0.1199
    144 H          -4.8388   30.9306  -93.8805 H         1 HIS         0.2361
    145 H          -8.9005   30.0984  -92.4030 H         1 ARG         0.1883
    146 H          -9.9620   31.5888  -91.0592 H         1 ARG         0.0800
    147 H         -11.2682   31.6718  -93.1179 H         1 ARG         0.0313
    148 H         -12.2901   32.0006  -91.6776 H         1 ARG         0.0313
    149 H         -13.2517   29.7961  -91.7864 H         1 ARG         0.0301
    150 H         -12.1255   29.3228  -93.1034 H         1 ARG         0.0301
    151 H         -14.1702   31.5856  -93.2692 H         1 ARG         0.0689
    152 H         -14.4064   29.9309  -93.9271 H         1 ARG         0.0689
    153 H         -12.0721   31.5881  -94.8248 H         1 ARG         0.2642
    154 H         -13.0844   31.0431  -98.1423 H         1 ARG         0.2615
    155 H         -11.8325   31.7224  -97.0681 H         1 ARG         0.2615
    156 H         -15.1271   29.9161  -95.4661 H         1 ARG         0.2615
    157 H         -14.9441   30.0210  -97.2376 H         1 ARG         0.2615
    158 H          -9.4212   29.3640  -89.5024 H         1 VAL         0.1883
    159 H         -11.7817   28.4751  -88.0660 H         1 VAL         0.0802
    160 H          -9.5994   27.1708  -88.0895 H         1 VAL         0.0343
    161 H          -7.8051   27.8592  -86.5538 H         1 VAL         0.0234
    162 H          -8.6834   29.3893  -86.2163 H         1 VAL         0.0234
    163 H          -8.0552   29.0596  -87.8665 H         1 VAL         0.0234
    164 H         -11.3435   26.7859  -86.3716 H         1 VAL         0.0234
    165 H         -10.5773   28.0276  -85.3238 H         1 VAL         0.0234
    166 H          -9.6920   26.5153  -85.7188 H         1 VAL         0.0234
    167 H          -9.7365   31.2332  -88.0757 H         1 SER         0.1884
    168 H          -9.9752   32.2240  -85.4614 H         1 SER         0.0823
    169 H          -9.7167   33.4640  -88.2134 H         1 SER         0.0606
    170 H          -8.5262   33.4056  -86.8695 H         1 SER         0.0606
    171 H          -9.5049   35.4781  -87.1129 H         1 SER         0.2097
    172 H         -12.0510   33.0555  -88.2926 H         1 ALA         0.1883
    173 H         -13.9115   34.6149  -86.8533 H         1 ALA         0.0797
    174 H         -15.4442   34.2058  -88.7591 H         1 ALA         0.0277
    175 H         -14.3622   32.8952  -89.3406 H         1 ALA         0.0277
    176 H         -13.7800   34.5943  -89.3124 H         1 ALA         0.0277
    177 H         -13.6745   31.1293  -87.3123 H         1 ALA         0.1883
    178 H         -16.3102   30.5246  -86.3675 H         1 ALA         0.0797
    179 H         -15.4136   28.2426  -86.0806 H         1 ALA         0.0277
    180 H         -13.7512   28.8702  -86.3433 H         1 ALA         0.0277
    181 H         -14.9608   28.9485  -87.6691 H         1 ALA         0.0277
    182 H         -13.1124   30.5741  -84.7401 H         1 LEU         0.1883
    183 H         -14.0038   29.7429  -82.1980 H         1 LEU         0.0800
    184 H         -11.9514   30.9014  -81.3614 H         1 LEU         0.0315
    185 H         -11.7419   31.6270  -82.9912 H         1 LEU         0.0315
    186 H         -11.5693   29.2406  -83.8887 H         1 LEU         0.0298
    187 H          -9.2262   29.0139  -83.1853 H         1 LEU         0.0232
    188 H          -9.5114   30.1965  -81.8638 H         1 LEU         0.0232
    189 H          -9.6416   30.7167  -83.5781 H         1 LEU         0.0232
    190 H         -12.5693   28.1020  -81.9272 H         1 LEU         0.0232
    191 H         -11.1884   28.6436  -80.9141 H         1 LEU         0.0232
    192 H         -10.9126   27.4990  -82.2707 H         1 LEU         0.0232
    193 H         -13.7724   33.0364  -83.5592 H         1 GLU         0.1883
    194 H         -14.4450   34.4214  -81.1719 H         1 GLU         0.0801
    195 H         -15.0725   35.2211  -84.0438 H         1 GLU         0.0330
    196 H         -13.4745   35.4168  -83.2470 H         1 GLU         0.0330
    197 H         -14.6008   36.8520  -81.5232 H         1 GLU         0.0433
    198 H         -16.0962   36.7674  -82.5148 H         1 GLU         0.0433
    199 H         -16.4276   33.0274  -83.7224 H         1 GLU         0.1883
    200 H         -18.9453   34.0733  -82.7657 H         1 GLU         0.0801
    201 H         -18.2114   31.7764  -84.6398 H         1 GLU         0.0330
    202 H         -18.6398   33.4592  -85.0995 H         1 GLU         0.0330
    203 H         -20.5681   31.5905  -83.6777 H         1 GLU         0.0433
    204 H         -20.4124   31.6653  -85.4657 H         1 GLU         0.0433
    205 H         -17.1601   31.0169  -82.3623 H         1 ALA         0.1883
    206 H         -19.3488   29.6995  -81.0540 H         1 ALA         0.0797
    207 H         -17.6628   27.9900  -80.4808 H         1 ALA         0.0277
    208 H         -16.3685   29.0852  -81.0741 H         1 ALA         0.0277
    209 H         -17.6046   28.4548  -82.2149 H         1 ALA         0.0277
    210 H         -16.7212   31.7447  -79.9415 H         1 ASN         0.1885
    211 H         -17.2084   30.8882  -77.1672 H         1 ASN         0.0826
    212 H         -15.2886   33.0727  -78.0507 H         1 ASN         0.0551
    213 H         -14.8852   31.3258  -78.1619 H         1 ASN         0.0551
    214 H         -14.1295   33.2245  -74.7518 H         1 ASN         0.1814
    215 H         -14.2512   33.9339  -76.3272 H         1 ASN         0.1814
    216 H         -18.8906   32.8318  -79.0883 H         1 LYS         0.1883
    217 H         -19.1440   35.2818  -77.7136 H         1 LYS         0.0800
    218 H         -21.5972   35.0944  -78.5831 H         1 LYS         0.0312
    219 H         -21.0254   33.5830  -79.3675 H         1 LYS         0.0312
    220 H         -19.2804   34.8867  -80.5412 H         1 LYS         0.0269
    221 H         -19.9354   36.3874  -79.8025 H         1 LYS         0.0269
    222 H         -22.1752   35.8203  -80.8495 H         1 LYS         0.0317
    223 H         -21.3573   34.4810  -81.7238 H         1 LYS         0.0317
    224 H         -20.7404   37.4721  -81.9377 H         1 LYS         0.0813
    225 H         -21.5317   36.4424  -83.1787 H         1 LYS         0.0813
    226 H         -19.2181   36.8472  -83.6900 H         1 LYS         0.1994
    227 H         -19.4499   35.2432  -83.4025 H         1 LYS         0.1994
    228 H         -18.7248   36.1868  -82.2653 H         1 LYS         0.1994
    229 H         -20.4364   32.0739  -76.9205 H         1 VAL         0.1883
    230 H         -22.5193   32.8389  -75.2131 H         1 VAL         0.0802
    231 H         -22.1093   30.6543  -73.9944 H         1 VAL         0.0343
    232 H         -22.6045   29.2443  -75.9485 H         1 VAL         0.0234
    233 H         -22.0677   30.5680  -77.0376 H         1 VAL         0.0234
    234 H         -23.5159   30.7913  -75.9987 H         1 VAL         0.0234
    235 H         -19.6551   30.6408  -74.2228 H         1 VAL         0.0234
    236 H         -19.8250   30.4486  -76.0007 H         1 VAL         0.0234
    237 H         -20.3943   29.1495  -74.8983 H         1 VAL         0.0234
    238 H         -19.1755   33.3567  -74.7172 H         1 PHE         0.1885
    239 H         -19.4786   33.4794  -71.7741 H         1 PHE         0.0823
    240 H         -16.9674   34.0835  -71.9005 H         1 PHE         0.0474
    241 H         -17.0735   33.6204  -73.6328 H         1 PHE         0.0474
    242 H         -17.7917   31.2582  -74.1996 H         1 PHE         0.0557
    243 H         -16.7397   32.4431  -70.2310 H         1 PHE         0.0557
    244 H         -17.4868   28.8820  -73.5819 H         1 PHE         0.0599
    245 H         -16.4358   30.0670  -69.5987 H         1 PHE         0.0599
    246 H         -16.8081   28.2787  -71.2773 H         1 PHE         0.0559
    247 H         -20.3890   35.5260  -74.0438 H         1 LEU         0.1876
    248 H         -19.0624   37.9468  -72.9503 H         1 LEU         0.0751
    249 O1        -22.3342   37.5995  -72.8629 O.co2     1 LEU        -0.4120
    250 H         -20.2431   39.1372  -74.7344 H         1 LEU         0.0309
    251 H         -21.1416   37.6419  -75.1625 H         1 LEU         0.0309
    252 H         -19.0849   36.5823  -75.9291 H         1 LEU         0.0297
    253 H         -18.6069   38.0638  -77.8670 H         1 LEU         0.0232
    254 H         -19.4234   39.4248  -77.0259 H         1 LEU         0.0232
    255 H         -20.3676   37.9793  -77.5216 H         1 LEU         0.0232
    256 H         -17.5538   37.6346  -74.2841 H         1 LEU         0.0232
    257 H         -17.7392   39.2131  -75.1212 H         1 LEU         0.0232
    258 H         -16.9500   37.8369  -75.9637 H         1 LEU         0.0232
@<TRIPOS>BOND
     1    1    2 1  
     2    2    3 1  
     3    2    5 1  
     4    3    4 2  
     5    3    9 am 
     6    5    6 1  
     7    6    7 1  
     8    7    8 1  
     9    9   10 1  
    10   10   11 1  
    11   10   13 1  
    12   11   12 2  
    13   11   19 am 
    14   13   14 1  
    15   14   15 1  
    16   14   16 2  
    17   15   17 2  
    18   16   18 1  
    19   17   18 1  
    20   19   20 1  
    21   20   21 1  
    22   20   23 1  
    23   21   22 2  
    24   21   30 am 
    25   23   24 1  
    26   24   25 1  
    27   25   26 1  
    28   26   27 ar 
    29   27   28 ar 
    30   27   29 ar 
    31   30   31 1  
    32   31   32 1  
    33   31   34 1  
    34   32   33 2  
    35   32   37 am 
    36   34   35 1  
    37   34   36 1  
    38   37   38 1  
    39   38   39 1  
    40   38   41 1  
    41   39   40 2  
    42   39   43 am 
    43   41   42 1  
    44   43   44 1  
    45   44   45 1  
    46   44   47 1  
    47   45   46 2  
    48   45   48 am 
    49   48   49 1  
    50   49   50 1  
    51   49   52 1  
    52   50   51 2  
    53   50   53 am 
    54   53   54 1  
    55   54   55 1  
    56   54   57 1  
    57   55   56 2  
    58   55   61 am 
    59   57   58 1  
    60   58   59 1  
    61   58   60 1  
    62   61   62 1  
    63   62   63 1  
    64   62   65 1  
    65   63   64 2  
    66   63   70 am 
    67   65   66 1  
    68   66   67 1  
    69   67   68 ar 
    70   67   69 ar 
    71   70   71 1  
    72   71   72 1  
    73   71   74 1  
    74   72   73 2  
    75   72   79 am 
    76   74   75 1  
    77   75   76 1  
    78   76   77 ar 
    79   76   78 ar 
    80   79   80 1  
    81   80   81 1  
    82   80   83 1  
    83   81   82 2  
    84   81   84 am 
    85   84   85 1  
    86   85   86 1  
    87   85   88 1  
    88   86   87 2  
    89   86   92 am 
    90   88   89 1  
    91   89   90 2  
    92   89   91 am 
    93   92   93 1  
    94   93   94 1  
    95   93   96 1  
    96   94   95 2  
    97   94  101 am 
    98   96   97 1  
    99   97   98 1  
   100   98   99 1  
   101   99  100 1  
   102  101  102 1  
   103  102  103 1  
   104  102  105 1  
   105  103  104 2  
   106  103  108 am 
   107  105  106 1  
   108  105  107 1  
   109  108  109 1  
   110  109  110 1  
   111  109  112 1  
   112  110  111 2  
   113  110  119 am 
   114  112  113 1  
   115  113  114 ar 
   116  113  115 ar 
   117  114  116 ar 
   118  115  117 ar 
   119  116  118 ar 
   120  117  118 ar 
   121  119  120 1  
   122  120  121 1  
   123  120  123 1  
   124  121  122 ar 
   125  123  124 1  
   126  124  125 1  
   127  124  126 1  
   128    1  127 1  
   129    1  128 1  
   130    1  129 1  
   131    2  130 1  
   132    5  131 1  
   133    5  132 1  
   134    6  133 1  
   135    6  134 1  
   136    8  135 1  
   137    8  136 1  
   138    8  137 1  
   139    9  138 1  
   140   10  139 1  
   141   13  140 1  
   142   13  141 1  
   143   16  142 1  
   144   17  143 1  
   145   18  144 1  
   146   19  145 1  
   147   20  146 1  
   148   23  147 1  
   149   23  148 1  
   150   24  149 1  
   151   24  150 1  
   152   25  151 1  
   153   25  152 1  
   154   26  153 1  
   155   28  154 1  
   156   28  155 1  
   157   29  156 1  
   158   29  157 1  
   159   30  158 1  
   160   31  159 1  
   161   34  160 1  
   162   35  161 1  
   163   35  162 1  
   164   35  163 1  
   165   36  164 1  
   166   36  165 1  
   167   36  166 1  
   168   37  167 1  
   169   38  168 1  
   170   41  169 1  
   171   41  170 1  
   172   42  171 1  
   173   43  172 1  
   174   44  173 1  
   175   47  174 1  
   176   47  175 1  
   177   47  176 1  
   178   48  177 1  
   179   49  178 1  
   180   52  179 1  
   181   52  180 1  
   182   52  181 1  
   183   53  182 1  
   184   54  183 1  
   185   57  184 1  
   186   57  185 1  
   187   58  186 1  
   188   59  187 1  
   189   59  188 1  
   190   59  189 1  
   191   60  190 1  
   192   60  191 1  
   193   60  192 1  
   194   61  193 1  
   195   62  194 1  
   196   65  195 1  
   197   65  196 1  
   198   66  197 1  
   199   66  198 1  
   200   70  199 1  
   201   71  200 1  
   202   74  201 1  
   203   74  202 1  
   204   75  203 1  
   205   75  204 1  
   206   79  205 1  
   207   80  206 1  
   208   83  207 1  
   209   83  208 1  
   210   83  209 1  
   211   84  210 1  
   212   85  211 1  
   213   88  212 1  
   214   88  213 1  
   215   91  214 1  
   216   91  215 1  
   217   92  216 1  
   218   93  217 1  
   219   96  218 1  
   220   96  219 1  
   221   97  220 1  
   222   97  221 1  
   223   98  222 1  
   224   98  223 1  
   225   99  224 1  
   226   99  225 1  
   227  100  226 1  
   228  100  227 1  
   229  100  228 1  
   230  101  229 1  
   231  102  230 1  
   232  105  231 1  
   233  106  232 1  
   234  106  233 1  
   235  106  234 1  
   236  107  235 1  
   237  107  236 1  
   238  107  237 1  
   239  108  238 1  
   240  109  239 1  
   241  112  240 1  
   242  112  241 1  
   243  114  242 1  
   244  115  243 1  
   245  116  244 1  
   246  117  245 1  
   247  118  246 1  
   248  119  247 1  
   249  120  248 1  
   250  121  249 ar 
   251  123  250 1  
   252  123  251 1  
   253  124  252 1  
   254  125  253 1  
   255  125  254 1  
   256  125  255 1  
   257  126  256 1  
   258  126  257 1  
   259  126  258 1  
@<TRIPOS>SUBSTRUCTURE
     1 MET         1

