4nuf_ligand
  -I-interpret- 

259260  0  0  0  0  0  0  0  0999 V2000
  -10.6650   23.9870  -93.8330 N   0  3  0  0  0
   -9.4150   23.8970  -93.0820 C   0  0  0  0  0
   -8.8480   25.2740  -92.7440 C   0  0  0  0  0
   -7.8340   25.3820  -92.0550 O   0  0  0  0  0
   -8.3750   23.1040  -93.8860 C   0  0  0  0  0
   -7.0240   22.9280  -93.1820 C   0  0  0  0  0
   -6.0740   21.4230  -93.6450 S   0  0  0  0  0
   -4.4290   22.1050  -93.8970 C   0  0  0  0  0
   -9.5020   26.3240  -93.2270 N   0  0  0  0  0
   -9.0280   27.6750  -92.9850 C   0  0  0  0  0
  -10.0770   28.4880  -92.2160 C   0  0  0  0  0
  -11.1130   27.9580  -91.7950 O   0  0  0  0  0
   -8.6660   28.3400  -94.3350 C   0  0  0  0  0
   -7.6310   29.4240  -94.2300 C   0  0  0  0  0
   -7.9530   30.7660  -94.2180 N   0  0  0  0  0
   -6.2840   29.3610  -94.0930 C   0  0  0  0  0
   -6.8510   31.4810  -94.0750 C   0  0  0  0  0
   -5.8240   30.6530  -93.9960 N   0  0  0  0  0
   -9.7670   29.7700  -92.0270 N   0  0  0  0  0
  -10.6020   30.7300  -91.3100 C   0  0  0  0  0
  -11.1860   30.2110  -90.0000 C   0  0  0  0  0
  -12.3590   30.4460  -89.7080 O   0  0  0  0  0
  -11.7240   31.2290  -92.2200 C   0  0  0  0  0
  -12.6890   30.1570  -92.6600 C   0  0  0  0  0
  -13.6620   30.7050  -93.6890 C   0  0  0  0  0
  -12.9710   31.0930  -94.9130 N   0  0  0  0  0
  -13.4300   30.8470  -96.1340 C   0  0  0  0  0
  -12.7300   31.2330  -97.1940 N   0  0  0  0  0
  -14.5870   30.2140  -96.2910 N   0  0  0  0  0
  -10.3650   29.5180  -89.2100 N   0  0  0  0  0
  -10.8130   28.9760  -87.9220 C   0  0  0  0  0
  -10.9830   30.1320  -86.9490 C   0  0  0  0  0
  -11.6970   30.0320  -85.9540 O   0  0  0  0  0
   -9.7990   27.9400  -87.3290 C   0  0  0  0  0
   -8.4980   28.6070  -86.9670 C   0  0  0  0  0
  -10.3940   27.2710  -86.1010 C   0  0  0  0  0
  -10.3150   31.2320  -87.2600 N   0  0  0  0  0
  -10.3960   32.4330  -86.4560 C   0  0  0  0  0
  -11.8440   32.9050  -86.2920 C   0  0  0  0  0
  -12.3470   33.0310  -85.1770 O   0  0  0  0  0
   -9.5890   33.5330  -87.1230 C   0  0  0  0  0
  -10.0210   34.8050  -86.6850 O   0  0  0  0  0
  -12.5070   33.1770  -87.4110 N   0  0  0  0  0
  -13.8860   33.6490  -87.3790 C   0  0  0  0  0
  -14.7830   32.6710  -86.6370 C   0  0  0  0  0
  -15.7440   33.0580  -85.9650 O   0  0  0  0  0
  -14.4040   33.8500  -88.7960 C   0  0  0  0  0
  -14.4650   31.3940  -86.7600 N   0  0  0  0  0
  -15.2530   30.3790  -86.1010 C   0  0  0  0  0
  -15.1180   30.4850  -84.5810 C   0  0  0  0  0
  -16.1090   30.5040  -83.8550 O   0  0  0  0  0
  -14.8150   29.0180  -86.5810 C   0  0  0  0  0
  -13.8840   30.5710  -84.1040 N   0  0  0  0  0
  -13.6290   30.6610  -82.6740 C   0  0  0  0  0
  -14.3480   31.8550  -82.0320 C   0  0  0  0  0
  -14.9830   31.7430  -80.9750 O   0  0  0  0  0
  -12.1130   30.7510  -82.4390 C   0  0  0  0  0
  -11.2700   29.5350  -82.8720 C   0  0  0  0  0
   -9.8160   29.8890  -82.8750 C   0  0  0  0  0
  -11.5010   28.3640  -81.9310 C   0  0  0  0  0
  -14.2640   33.0020  -82.6890 N   0  0  0  0  0
  -14.8780   34.2160  -82.1620 C   0  0  0  0  0
  -16.3820   34.0600  -81.9990 C   0  0  0  0  0
  -16.9740   34.5390  -81.0230 O   0  0  0  0  0
  -14.5620   35.3890  -83.0840 C   0  0  0  0  0
  -14.9970   36.7380  -82.5430 C   0  0  0  0  0
  -14.5000   37.9040  -83.3920 C   0  0  0  0  0
  -14.6440   39.0630  -82.9450 O   0  0  0  0  0
  -13.9670   37.6680  -84.5010 O   0  0  0  0  0
  -16.9840   33.3820  -82.9710 N   0  0  0  0  0
  -18.4200   33.1330  -82.9890 C   0  0  0  0  0
  -18.8120   32.0920  -81.9420 C   0  0  0  0  0
  -19.8100   32.2360  -81.2480 O   0  0  0  0  0
  -18.8350   32.6460  -84.3850 C   0  0  0  0  0
  -20.3020   32.2330  -84.5300 C   0  0  0  0  0
  -21.2720   33.4160  -84.5650 C   0  0  0  0  0
  -20.9320   34.4510  -85.1810 O   0  0  0  0  0
  -22.3830   33.3080  -83.9960 O   0  0  0  0  0
  -17.9960   31.0580  -81.8150 N   0  0  0  0  0
  -18.3000   29.9910  -80.8960 C   0  0  0  0  0
  -18.1460   30.3930  -79.4590 C   0  0  0  0  0
  -18.8460   29.8670  -78.6010 O   0  0  0  0  0
  -17.4250   28.8000  -81.1860 C   0  0  0  0  0
  -17.2340   31.3260  -79.1920 N   0  0  0  0  0
  -16.9740   31.7450  -77.8160 C   0  0  0  0  0
  -17.8540   32.9020  -77.3610 C   0  0  0  0  0
  -17.6860   33.4240  -76.2630 O   0  0  0  0  0
  -15.4840   32.0770  -77.6260 C   0  0  0  0  0
  -15.0590   32.0810  -76.1470 C   0  0  0  0  0
  -15.2920   31.1120  -75.4240 O   0  0  0  0  0
  -14.4270   33.1710  -75.7050 N   0  0  0  0  0
  -18.8050   33.2870  -78.2020 N   0  0  0  0  0
  -19.7250   34.3590  -77.8580 C   0  0  0  0  0
  -20.5010   34.0630  -76.5700 C   0  0  0  0  0
  -20.8670   34.9830  -75.8360 O   0  0  0  0  0
  -20.7200   34.5700  -78.9900 C   0  0  0  0  0
  -20.1860   35.3750  -80.1520 C   0  0  0  0  0
  -21.2210   35.4760  -81.2750 C   0  0  0  0  0
  -20.7800   36.4640  -82.3760 C   0  0  0  0  0
  -19.4310   36.1600  -82.9840 N   0  3  0  0  0
  -20.7610   32.7860  -76.2980 N   0  0  0  0  0
  -21.5120   32.4100  -75.1060 C   0  0  0  0  0
  -20.9220   32.9240  -73.8080 C   0  0  0  0  0
  -21.5980   32.8920  -72.7810 O   0  0  0  0  0
  -21.6470   30.8830  -74.9660 C   0  0  0  0  0
  -22.5170   30.3350  -76.0610 C   0  0  0  0  0
  -20.2890   30.2370  -75.0260 C   0  0  0  0  0
  -19.6660   33.3750  -73.8460 N   0  0  0  0  0
  -18.9760   33.8970  -72.6590 C   0  0  0  0  0
  -19.0290   35.4250  -72.5580 C   0  0  0  0  0
  -18.3300   36.0210  -71.7390 O   0  0  0  0  0
  -17.5000   33.4580  -72.6320 C   0  0  0  0  0
  -17.2920   32.0150  -72.2590 C   0  0  0  0  0
  -17.4950   31.0020  -73.1890 C   0  0  0  0  0
  -16.9070   31.6660  -70.9680 C   0  0  0  0  0
  -17.3230   29.6580  -72.8430 C   0  0  0  0  0
  -16.7330   30.3240  -70.6090 C   0  0  0  0  0
  -16.9420   29.3190  -71.5510 C   0  0  0  0  0
  -19.8500   36.0570  -73.3900 N   0  0  0  0  0
  -19.9810   37.5100  -73.3690 C   0  0  0  0  0
  -21.1690   37.9150  -72.5020 C   0  0  0  0  0
  -21.0100   38.5440  -71.4570 O   0  0  0  0  0
  -20.1870   38.0400  -74.7880 C   0  0  0  0  0
  -19.0980   37.6740  -75.7950 C   0  0  0  0  0
  -19.3950   38.3320  -77.1480 C   0  0  0  0  0
  -17.7400   38.1210  -75.2530 C   0  0  0  0  0
  -22.3342   37.5995  -72.8629 O   0  0  0  0  0
  -11.3487   24.5152  -93.2908 H   0  0  0  0  0
  -10.4939   24.4603  -94.7202 H   0  0  0  0  0
  -11.0220   23.0481  -94.0104 H   0  0  0  0  0
   -9.6365   23.3846  -92.1458 H   0  0  0  0  0
   -8.1862   23.6638  -94.8020 H   0  0  0  0  0
   -8.7856   22.1063  -94.0412 H   0  0  0  0  0
   -7.2397   22.8415  -92.1171 H   0  0  0  0  0
   -6.4111   23.7814  -93.4721 H   0  0  0  0  0
   -4.4649   22.8541  -94.6880 H   0  0  0  0  0
   -4.0832   22.5673  -92.9724 H   0  0  0  0  0
   -3.7455   21.3055  -94.1828 H   0  0  0  0  0
  -10.3495   26.1794  -93.7759 H   0  0  0  0  0
   -8.1322   27.6412  -92.3649 H   0  0  0  0  0
   -9.5756   28.8003  -94.7208 H   0  0  0  0  0
   -8.2523   27.5616  -94.9761 H   0  0  0  0  0
   -5.6785   28.4551  -94.0650 H   0  0  0  0  0
   -6.7980   32.5688  -94.0299 H   0  0  0  0  0
   -8.8832   30.1049  -92.4106 H   0  0  0  0  0
   -9.9373   31.5481  -91.0327 H   0  0  0  0  0
  -11.2544   31.6268  -93.1196 H   0  0  0  0  0
  -12.2962   31.9620  -91.6513 H   0  0  0  0  0
  -13.2503   29.8089  -91.7929 H   0  0  0  0  0
  -12.1268   29.3368  -93.1066 H   0  0  0  0  0
  -14.1512   31.5850  -93.2715 H   0  0  0  0  0
  -14.3877   29.9283  -93.9302 H   0  0  0  0  0
  -12.0808   31.5832  -94.8257 H   0  0  0  0  0
  -11.8412   31.7177  -97.0693 H   0  0  0  0  0
  -14.9407   30.0228  -97.2284 H   0  0  0  0  0
  -15.1219   29.9190  -95.4741 H   0  0  0  0  0
   -9.4023   29.3609  -89.5082 H   0  0  0  0  0
  -11.7553   28.4514  -88.0798 H   0  0  0  0  0
   -9.6000   27.1854  -88.0900 H   0  0  0  0  0
   -8.0603   29.0550  -87.8591 H   0  0  0  0  0
   -8.6831   29.3819  -86.2231 H   0  0  0  0  0
   -7.8123   27.8651  -86.5577 H   0  0  0  0  0
  -10.6151   28.0274  -85.3480 H   0  0  0  0  0
  -11.3125   26.7544  -86.3794 H   0  0  0  0  0
   -9.6797   26.5531  -85.6979 H   0  0  0  0  0
   -9.7249   31.2332  -88.0920 H   0  0  0  0  0
   -9.9972   32.2070  -85.4671 H   0  0  0  0  0
   -9.7270   33.4663  -88.2022 H   0  0  0  0  0
   -8.5385   33.4080  -86.8605 H   0  0  0  0  0
   -9.4995   35.4852  -87.1174 H   0  0  0  0  0
  -12.0418   33.0531  -88.3103 H   0  0  0  0  0
  -13.9038   34.6012  -86.8488 H   0  0  0  0  0
  -13.7849   34.5876  -89.3066 H   0  0  0  0  0
  -14.3621   32.9033  -89.3345 H   0  0  0  0  0
  -15.4347   34.2026  -88.7581 H   0  0  0  0  0
  -13.6587   31.1240  -87.3234 H   0  0  0  0  0
  -16.3038   30.5271  -86.3500 H   0  0  0  0  0
  -14.9599   28.9504  -87.6592 H   0  0  0  0  0
  -13.7608   28.8728  -86.3450 H   0  0  0  0  0
  -15.4089   28.2506  -86.0845 H   0  0  0  0  0
  -13.0969   30.5742  -84.7528 H   0  0  0  0  0
  -14.0257   29.7643  -82.1980 H   0  0  0  0  0
  -11.9817   30.8378  -81.3604 H   0  0  0  0  0
  -11.7651   31.5877  -83.0447 H   0  0  0  0  0
  -11.5758   29.2494  -83.8785 H   0  0  0  0  0
   -9.6445   30.7093  -83.5720 H   0  0  0  0  0
   -9.5154   30.1936  -81.8725 H   0  0  0  0  0
   -9.2327   29.0211  -83.1826 H   0  0  0  0  0
  -11.2154   28.6510  -80.9190 H   0  0  0  0  0
  -12.5555   28.0884  -81.9480 H   0  0  0  0  0
  -10.8972   27.5158  -82.2535 H   0  0  0  0  0
  -13.7626   33.0371  -83.5766 H   0  0  0  0  0
  -14.4622   34.4068  -81.1727 H   0  0  0  0  0
  -15.1067   35.2239  -84.0136 H   0  0  0  0  0
  -13.4790   35.4233  -83.2020 H   0  0  0  0  0
  -14.5749   36.8488  -81.5442 H   0  0  0  0  0
  -16.0867   36.7633  -82.5466 H   0  0  0  0  0
  -13.9546   36.7203  -84.6536 H   0  0  0  0  0
  -16.4164   33.0203  -83.7375 H   0  0  0  0  0
  -18.9353   34.0636  -82.7514 H   0  0  0  0  0
  -18.2402   31.7566  -84.5929 H   0  0  0  0  0
  -18.6799   33.4838  -85.0648 H   0  0  0  0  0
  -20.5578   31.6267  -83.6611 H   0  0  0  0  0
  -20.3997   31.7026  -85.4772 H   0  0  0  0  0
  -22.4477   32.4432  -83.5843 H   0  0  0  0  0
  -17.1434   31.0160  -82.3733 H   0  0  0  0  0
  -19.3491   29.7356  -81.0455 H   0  0  0  0  0
  -17.6039   28.4590  -82.2057 H   0  0  0  0  0
  -16.3785   29.0839  -81.0748 H   0  0  0  0  0
  -17.6615   27.9981  -80.4866 H   0  0  0  0  0
  -16.7109   31.7531  -79.9565 H   0  0  0  0  0
  -17.2353   30.8999  -77.1790 H   0  0  0  0  0
  -15.3105   33.0759  -78.0263 H   0  0  0  0  0
  -14.9028   31.3105  -78.1387 H   0  0  0  0  0
  -14.1173   33.2226  -74.7345 H   0  0  0  0  0
  -14.2540   33.9520  -76.3378 H   0  0  0  0  0
  -18.8923   32.8227  -79.1060 H   0  0  0  0  0
  -19.1272   35.2565  -77.6993 H   0  0  0  0  0
  -21.5608   35.1266  -78.5760 H   0  0  0  0  0
  -20.9771   33.5838  -79.3766 H   0  0  0  0  0
  -19.2971   34.8783  -80.5409 H   0  0  0  0  0
  -19.9527   36.3804  -79.8016 H   0  0  0  0  0
  -22.1563   35.8363  -80.8467 H   0  0  0  0  0
  -21.3342   34.4900  -81.7256 H   0  0  0  0  0
  -20.7073   37.4478  -81.9123 H   0  0  0  0  0
  -21.5147   36.3972  -83.1784 H   0  0  0  0  0
  -19.2167   36.8560  -83.6982 H   0  0  0  0  0
  -18.7173   36.1873  -82.2558 H   0  0  0  0  0
  -19.4514   35.2321  -83.4071 H   0  0  0  0  0
  -20.4299   32.0597  -76.9330 H   0  0  0  0  0
  -22.4833   32.8798  -75.2605 H   0  0  0  0  0
  -22.1071   30.6613  -74.0031 H   0  0  0  0  0
  -23.5064   30.7879  -75.9982 H   0  0  0  0  0
  -22.0707   30.5666  -77.0281 H   0  0  0  0  0
  -22.6029   29.2542  -75.9485 H   0  0  0  0  0
  -19.8194   30.4694  -75.9818 H   0  0  0  0  0
  -19.6704   30.6184  -74.2136 H   0  0  0  0  0
  -20.3971   29.1570  -74.9259 H   0  0  0  0  0
  -19.1656   33.3563  -74.7346 H   0  0  0  0  0
  -19.5101   33.4773  -71.8065 H   0  0  0  0  0
  -16.9990   34.0612  -71.8749 H   0  0  0  0  0
  -17.1071   33.5893  -73.6402 H   0  0  0  0  0
  -17.7933   31.2596  -74.2052 H   0  0  0  0  0
  -16.7388   32.4474  -70.2269 H   0  0  0  0  0
  -17.4877   28.8777  -73.5860 H   0  0  0  0  0
  -16.4342   30.0656  -69.5931 H   0  0  0  0  0
  -16.8073   28.2730  -71.2758 H   0  0  0  0  0
  -20.3998   35.5154  -74.0569 H   0  0  0  0  0
  -19.0674   37.9355  -72.9539 H   0  0  0  0  0
  -20.1875   39.1275  -74.7148 H   0  0  0  0  0
  -21.1104   37.5915  -75.1545 H   0  0  0  0  0
  -19.0774   36.5942  -75.9426 H   0  0  0  0  0
  -20.3590   37.9818  -77.5171 H   0  0  0  0  0
  -19.4229   39.4148  -77.0257 H   0  0  0  0  0
  -18.6135   38.0655  -77.8595 H   0  0  0  0  0
  -17.7489   39.2001  -75.0994 H   0  0  0  0  0
  -17.5456   37.6193  -74.3050 H   0  0  0  0  0
  -16.9608   37.8611  -75.9696 H   0  0  0  0  0
  -22.2915   37.1159  -73.6911 H   0  0  0  0  0
  1  2  1  0  0  0
  2  3  1  0  0  0
  2  5  1  0  0  0
  3  4  2  0  0  0
  3  9  1  0  0  0
  5  6  1  0  0  0
  6  7  1  0  0  0
  7  8  1  0  0  0
  9 10  1  0  0  0
 10 11  1  0  0  0
 10 13  1  0  0  0
 11 12  2  0  0  0
 11 19  1  0  0  0
 13 14  1  0  0  0
 14 15  4  0  0  0
 14 16  4  0  0  0
 15 17  4  0  0  0
 16 18  4  0  0  0
 17 18  4  0  0  0
 19 20  1  0  0  0
 20 21  1  0  0  0
 20 23  1  0  0  0
 21 22  2  0  0  0
 21 30  1  0  0  0
 23 24  1  0  0  0
 24 25  1  0  0  0
 25 26  1  0  0  0
 26 27  1  0  0  0
 27 28  2  0  0  0
 27 29  1  0  0  0
 30 31  1  0  0  0
 31 32  1  0  0  0
 31 34  1  0  0  0
 32 33  2  0  0  0
 32 37  1  0  0  0
 34 35  1  0  0  0
 34 36  1  0  0  0
 37 38  1  0  0  0
 38 39  1  0  0  0
 38 41  1  0  0  0
 39 40  2  0  0  0
 39 43  1  0  0  0
 41 42  1  0  0  0
 43 44  1  0  0  0
 44 45  1  0  0  0
 44 47  1  0  0  0
 45 46  2  0  0  0
 45 48  1  0  0  0
 48 49  1  0  0  0
 49 50  1  0  0  0
 49 52  1  0  0  0
 50 51  2  0  0  0
 50 53  1  0  0  0
 53 54  1  0  0  0
 54 55  1  0  0  0
 54 57  1  0  0  0
 55 56  2  0  0  0
 55 61  1  0  0  0
 57 58  1  0  0  0
 58 59  1  0  0  0
 58 60  1  0  0  0
 61 62  1  0  0  0
 62 63  1  0  0  0
 62 65  1  0  0  0
 63 64  2  0  0  0
 63 70  1  0  0  0
 65 66  1  0  0  0
 66 67  1  0  0  0
 67 68  2  0  0  0
 67 69  1  0  0  0
 70 71  1  0  0  0
 71 72  1  0  0  0
 71 74  1  0  0  0
 72 73  2  0  0  0
 72 79  1  0  0  0
 74 75  1  0  0  0
 75 76  1  0  0  0
 76 77  2  0  0  0
 76 78  1  0  0  0
 79 80  1  0  0  0
 80 81  1  0  0  0
 80 83  1  0  0  0
 81 82  2  0  0  0
 81 84  1  0  0  0
 84 85  1  0  0  0
 85 86  1  0  0  0
 85 88  1  0  0  0
 86 87  2  0  0  0
 86 92  1  0  0  0
 88 89  1  0  0  0
 89 90  2  0  0  0
 89 91  1  0  0  0
 92 93  1  0  0  0
 93 94  1  0  0  0
 93 96  1  0  0  0
 94 95  2  0  0  0
 94101  1  0  0  0
 96 97  1  0  0  0
 97 98  1  0  0  0
 98 99  1  0  0  0
 99100  1  0  0  0
101102  1  0  0  0
102103  1  0  0  0
102105  1  0  0  0
103104  2  0  0  0
103108  1  0  0  0
105106  1  0  0  0
105107  1  0  0  0
108109  1  0  0  0
109110  1  0  0  0
109112  1  0  0  0
110111  2  0  0  0
110119  1  0  0  0
112113  1  0  0  0
113114  4  0  0  0
113115  4  0  0  0
114116  4  0  0  0
115117  4  0  0  0
116118  4  0  0  0
117118  4  0  0  0
119120  1  0  0  0
120121  1  0  0  0
120123  1  0  0  0
121122  2  0  0  0
123124  1  0  0  0
124125  1  0  0  0
124126  1  0  0  0
121127  1  0  0  0
  1128  1  0  0  0
  1129  1  0  0  0
  1130  1  0  0  0
  2131  1  0  0  0
  5132  1  0  0  0
  5133  1  0  0  0
  6134  1  0  0  0
  6135  1  0  0  0
  8136  1  0  0  0
  8137  1  0  0  0
  8138  1  0  0  0
  9139  1  0  0  0
 10140  1  0  0  0
 13141  1  0  0  0
 13142  1  0  0  0
 16143  1  0  0  0
 17144  1  0  0  0
 19145  1  0  0  0
 20146  1  0  0  0
 23147  1  0  0  0
 23148  1  0  0  0
 24149  1  0  0  0
 24150  1  0  0  0
 25151  1  0  0  0
 25152  1  0  0  0
 26153  1  0  0  0
 28154  1  0  0  0
 29155  1  0  0  0
 29156  1  0  0  0
 30157  1  0  0  0
 31158  1  0  0  0
 34159  1  0  0  0
 35160  1  0  0  0
 35161  1  0  0  0
 35162  1  0  0  0
 36163  1  0  0  0
 36164  1  0  0  0
 36165  1  0  0  0
 37166  1  0  0  0
 38167  1  0  0  0
 41168  1  0  0  0
 41169  1  0  0  0
 42170  1  0  0  0
 43171  1  0  0  0
 44172  1  0  0  0
 47173  1  0  0  0
 47174  1  0  0  0
 47175  1  0  0  0
 48176  1  0  0  0
 49177  1  0  0  0
 52178  1  0  0  0
 52179  1  0  0  0
 52180  1  0  0  0
 53181  1  0  0  0
 54182  1  0  0  0
 57183  1  0  0  0
 57184  1  0  0  0
 58185  1  0  0  0
 59186  1  0  0  0
 59187  1  0  0  0
 59188  1  0  0  0
 60189  1  0  0  0
 60190  1  0  0  0
 60191  1  0  0  0
 61192  1  0  0  0
 62193  1  0  0  0
 65194  1  0  0  0
 65195  1  0  0  0
 66196  1  0  0  0
 66197  1  0  0  0
 69198  1  0  0  0
 70199  1  0  0  0
 71200  1  0  0  0
 74201  1  0  0  0
 74202  1  0  0  0
 75203  1  0  0  0
 75204  1  0  0  0
 78205  1  0  0  0
 79206  1  0  0  0
 80207  1  0  0  0
 83208  1  0  0  0
 83209  1  0  0  0
 83210  1  0  0  0
 84211  1  0  0  0
 85212  1  0  0  0
 88213  1  0  0  0
 88214  1  0  0  0
 91215  1  0  0  0
 91216  1  0  0  0
 92217  1  0  0  0
 93218  1  0  0  0
 96219  1  0  0  0
 96220  1  0  0  0
 97221  1  0  0  0
 97222  1  0  0  0
 98223  1  0  0  0
 98224  1  0  0  0
 99225  1  0  0  0
 99226  1  0  0  0
100227  1  0  0  0
100228  1  0  0  0
100229  1  0  0  0
101230  1  0  0  0
102231  1  0  0  0
105232  1  0  0  0
106233  1  0  0  0
106234  1  0  0  0
106235  1  0  0  0
107236  1  0  0  0
107237  1  0  0  0
107238  1  0  0  0
108239  1  0  0  0
109240  1  0  0  0
112241  1  0  0  0
112242  1  0  0  0
114243  1  0  0  0
115244  1  0  0  0
116245  1  0  0  0
117246  1  0  0  0
118247  1  0  0  0
119248  1  0  0  0
120249  1  0  0  0
123250  1  0  0  0
123251  1  0  0  0
124252  1  0  0  0
125253  1  0  0  0
125254  1  0  0  0
125255  1  0  0  0
126256  1  0  0  0
126257  1  0  0  0
126258  1  0  0  0
127259  1  0  0  0
M  END
$$$$
