2fx8_ligand
  -I-interpret- 

222226  0  0  0  0  0  0  0  0999 V2000
   23.6440   30.4400   65.8360 N   0  3  0  0  0
   23.1890   29.0230   65.6590 C   0  0  0  0  0
   22.8190   28.4370   67.0180 C   0  0  0  0  0
   23.6100   28.4760   67.9500 O   0  0  0  0  0
   24.3050   28.1780   65.0240 C   0  0  0  0  0
   23.8440   26.7600   64.6600 C   0  0  0  0  0
   22.8080   26.2860   65.1280 O   0  0  0  0  0
   24.6260   26.0810   63.8320 N   0  0  0  0  0
   21.6060   27.9170   67.1230 N   0  0  0  0  0
   21.1330   27.3120   68.3600 C   0  0  0  0  0
   22.0990   26.2040   68.7730 C   0  0  0  0  0
   22.4640   26.0840   69.9470 O   0  0  0  0  0
   19.7310   26.7200   68.1470 C   0  0  0  0  0
   19.0870   26.1630   69.3980 C   0  0  0  0  0
   18.4810   26.8750   70.4000 C   0  0  0  0  0
   18.9670   24.7770   69.7630 C   0  0  0  0  0
   17.9870   26.0170   71.3570 N   0  0  0  0  0
   18.2720   24.7270   70.9940 C   0  0  0  0  0
   19.3790   23.5740   69.1680 C   0  0  0  0  0
   17.9770   23.5200   71.6430 C   0  0  0  0  0
   19.0850   22.3710   69.8130 C   0  0  0  0  0
   18.3900   22.3570   71.0390 C   0  0  0  0  0
   22.5220   25.4090   67.7940 N   0  0  0  0  0
   23.4370   24.2930   68.0440 C   0  0  0  0  0
   24.8180   24.6480   68.6010 C   0  0  0  0  0
   25.5870   23.7520   68.9550 O   0  0  0  0  0
   23.5860   23.4420   66.7790 C   0  0  0  0  0
   22.3250   22.7160   66.4030 C   0  0  0  0  0
   21.4160   23.2840   65.5170 C   0  0  0  0  0
   22.0000   21.5060   67.0130 C   0  0  0  0  0
   20.2040   22.6640   65.2490 C   0  0  0  0  0
   20.7850   20.8770   66.7530 C   0  0  0  0  0
   19.8830   21.4590   65.8680 C   0  0  0  0  0
   25.1310   25.9420   68.6810 N   0  0  0  0  0
   26.4160   26.3870   69.2380 C   0  0  0  0  0
   26.3080   26.8150   70.7020 C   0  0  0  0  0
   27.3200   26.9410   71.3980 O   0  0  0  0  0
   26.9690   27.5950   68.4770 C   0  0  0  0  0
   27.4480   27.2520   67.0950 C   0  0  0  0  0
   27.9590   26.1300   66.8940 O   0  0  0  0  0
   27.3320   28.1210   66.2120 O   0  0  0  0  0
   25.0910   27.0540   71.1710 N   0  0  0  0  0
   24.9100   27.5390   72.5310 C   0  0  0  0  0
   25.4790   26.7010   73.6680 C   0  0  0  0  0
   26.0430   27.2620   74.6120 O   0  0  0  0  0
   23.4260   27.8120   72.8280 C   0  0  0  0  0
   22.8620   28.7780   71.7810 C   0  0  0  0  0
   23.2780   28.4110   74.2470 C   0  0  0  0  0
   21.4200   29.1170   71.9960 C   0  0  0  0  0
   25.3400   25.3770   73.5970 N   0  0  0  0  0
   25.8430   24.5330   74.6740 C   0  0  0  0  0
   27.3510   24.5770   74.7560 C   0  0  0  0  0
   27.9310   24.3070   75.8050 O   0  0  0  0  0
   25.3630   23.0560   74.5440 C   0  0  0  0  0
   25.6210   22.5680   73.2220 O   0  0  0  0  0
   23.8780   22.9630   74.8410 C   0  0  0  0  0
   27.9930   24.9330   73.6530 N   0  0  0  0  0
   29.4390   25.0190   73.6580 C   0  0  0  0  0
   29.8690   26.2420   74.4690 C   0  0  0  0  0
   30.7200   26.1450   75.3460 O   0  0  0  0  0
   29.9810   25.1160   72.2330 C   0  0  0  0  0
   31.4980   25.2260   72.2020 C   0  0  0  0  0
   32.0520   26.2810   71.8770 O   0  0  0  0  0
   32.1800   24.1390   72.5630 N   0  0  0  0  0
   29.2720   27.3920   74.1690 N   0  0  0  0  0
   29.5860   28.6280   74.8830 C   0  0  0  0  0
   29.3130   28.3610   76.3580 C   0  0  0  0  0
   30.0440   28.8110   77.2350 O   0  0  0  0  0
   28.6900   29.7630   74.3790 C   0  0  0  0  0
   31.0520   29.0000   74.6770 C   0  0  0  0  0
   28.2560   27.6020   76.6150 N   0  0  0  0  0
   27.8540   27.2670   77.9720 C   0  0  0  0  0
   28.8730   26.3610   78.6560 C   0  0  0  0  0
   29.1610   26.5020   79.8470 O   0  0  0  0  0
   26.4920   26.5820   77.9360 C   0  0  0  0  0
   25.8860   26.1930   79.2810 C   0  0  0  0  0
   25.7360   27.4380   80.1700 C   0  0  0  0  0
   24.5410   25.5210   79.0330 C   0  0  0  0  0
   29.4160   25.4290   77.8820 N   0  0  0  0  0
   30.4040   24.4830   78.3720 C   0  0  0  0  0
   31.7420   25.1600   78.6610 C   0  0  0  0  0
   32.4830   24.7440   79.5520 O   0  0  0  0  0
   30.5960   23.3850   77.3370 C   0  0  0  0  0
   31.7680   22.5090   77.5990 C   0  0  0  0  0
   31.8480   21.4800   78.4940 C   0  0  0  0  0
   33.0420   22.5880   76.9610 C   0  0  0  0  0
   33.0950   20.9120   78.4510 N   0  0  0  0  0
   33.8500   21.5740   77.5170 C   0  0  0  0  0
   33.5810   23.4210   75.9690 C   0  0  0  0  0
   35.1730   21.3670   77.1140 C   0  0  0  0  0
   34.8960   23.2160   75.5670 C   0  0  0  0  0
   35.6770   22.1960   76.1400 C   0  0  0  0  0
   32.0540   26.2010   77.8990 N   0  0  0  0  0
   33.3080   26.9210   78.0800 C   0  0  0  0  0
   33.2590   27.8690   79.2670 C   0  0  0  0  0
   34.2790   28.4240   79.6670 O   0  0  0  0  0
   33.6590   27.7020   76.8160 C   0  0  0  0  0
   33.9510   26.8230   75.6220 C   0  0  0  0  0
   34.5340   27.6480   74.5060 C   0  0  0  0  0
   35.6250   28.4830   74.9980 N   0  0  0  0  0
   36.3500   29.2920   74.2340 C   0  0  0  0  0
   37.3220   30.0160   74.7730 N   0  0  0  0  0
   36.1050   29.3730   72.9320 N   0  0  0  0  0
   32.0690   28.0580   79.8240 N   0  0  0  0  0
   31.9070   28.9340   80.9770 C   0  0  0  0  0
   32.4340   28.2050   82.2090 C   0  0  0  0  0
   31.6370   27.9540   83.1390 O   0  0  0  0  0
   30.4270   29.3030   81.1690 C   0  0  0  0  0
   29.8150   30.0570   79.9890 C   0  0  0  0  0
   30.4380   31.4360   79.8240 C   0  0  0  0  0
   30.0640   32.0830   78.5660 N   0  0  0  0  0
   30.6170   31.8110   77.3850 C   0  0  0  0  0
   31.5760   30.8990   77.2910 N   0  0  0  0  0
   30.2190   32.4600   76.2960 N   0  0  0  0  0
   33.6430   27.8830   82.2220 O   0  0  0  0  0
   22.8933   30.9867   66.2578 H   0  0  0  0  0
   24.4631   30.4595   66.4436 H   0  0  0  0  0
   23.8842   30.8348   64.9267 H   0  0  0  0  0
   22.3200   29.0102   65.0011 H   0  0  0  0  0
   25.1119   28.0901   65.7515 H   0  0  0  0  0
   24.6169   28.6737   64.1047 H   0  0  0  0  0
   24.3775   25.1297   63.5607 H   0  0  0  0  0
   25.4761   26.5100   63.4663 H   0  0  0  0  0
   20.9850   27.9409   66.3141 H   0  0  0  0  0
   21.0838   28.0697   69.1420 H   0  0  0  0  0
   19.8382   25.8908   67.4477 H   0  0  0  0  0
   19.0932   27.5305   67.7942 H   0  0  0  0  0
   18.4017   27.9616   70.4344 H   0  0  0  0  0
   19.9181   23.5790   68.2206 H   0  0  0  0  0
   17.4400   23.5046   72.5914 H   0  0  0  0  0
   19.3975   21.4292   69.3619 H   0  0  0  0  0
   18.1753   21.4021   71.5188 H   0  0  0  0  0
   22.1998   25.5816   66.8417 H   0  0  0  0  0
   22.9599   23.7348   68.8496 H   0  0  0  0  0
   24.3535   22.6928   66.9731 H   0  0  0  0  0
   23.8391   24.1123   65.9575 H   0  0  0  0  0
   21.6585   24.2272   65.0274 H   0  0  0  0  0
   22.7067   21.0454   67.7033 H   0  0  0  0  0
   19.5016   23.1214   64.5522 H   0  0  0  0  0
   20.5418   19.9330   67.2407 H   0  0  0  0  0
   18.9293   20.9738   65.6602 H   0  0  0  0  0
   24.4638   26.6381   68.3482 H   0  0  0  0  0
   27.0744   25.5232   69.1463 H   0  0  0  0  0
   27.8218   27.9776   69.0377 H   0  0  0  0  0
   26.1623   28.3212   68.3772 H   0  0  0  0  0
   27.9459   25.6230   67.7091 H   0  0  0  0  0
   24.2778   26.8971   70.5756 H   0  0  0  0  0
   25.5112   28.4482   72.5243 H   0  0  0  0  0
   22.8680   26.8767   72.7828 H   0  0  0  0  0
   22.9425   28.2910   70.8092 H   0  0  0  0  0
   23.4304   29.7054   71.8514 H   0  0  0  0  0
   23.6695   27.7059   74.9803 H   0  0  0  0  0
   23.8361   29.3455   74.3056 H   0  0  0  0  0
   22.2245   28.6021   74.4513 H   0  0  0  0  0
   20.8237   28.2055   71.9544 H   0  0  0  0  0
   21.3002   29.5869   72.9722 H   0  0  0  0  0
   21.0897   29.8046   71.2174 H   0  0  0  0  0
   24.8819   24.9547   72.7894 H   0  0  0  0  0
   25.4287   24.9408   75.5960 H   0  0  0  0  0
   25.9109   22.4466   75.2627 H   0  0  0  0  0
   25.3216   21.6584   73.1538 H   0  0  0  0  0
   23.6891   23.3134   75.8557 H   0  0  0  0  0
   23.3277   23.5825   74.1329 H   0  0  0  0  0
   23.5542   21.9265   74.7470 H   0  0  0  0  0
   27.4707   25.1458   72.8031 H   0  0  0  0  0
   29.8458   24.1163   74.1138 H   0  0  0  0  0
   29.5663   26.0127   71.7725 H   0  0  0  0  0
   29.6955   24.2097   71.6989 H   0  0  0  0  0
   33.1997   24.1584   72.5781 H   0  0  0  0  0
   31.6821   23.2879   72.8241 H   0  0  0  0  0
   28.5777   27.4118   73.4220 H   0  0  0  0  0
   28.8583   29.9106   73.3122 H   0  0  0  0  0
   27.6455   29.5032   74.5508 H   0  0  0  0  0
   28.9308   30.6802   74.9164 H   0  0  0  0  0
   31.6857   28.1982   75.0560 H   0  0  0  0  0
   31.2430   29.1439   73.6136 H   0  0  0  0  0
   31.2705   29.9226   75.2148 H   0  0  0  0  0
   27.7068   27.2412   75.8349 H   0  0  0  0  0
   27.7958   28.1899   78.5491 H   0  0  0  0  0
   26.6390   25.6493   77.3915 H   0  0  0  0  0
   25.8045   27.3031   77.4938 H   0  0  0  0  0
   26.5392   25.4939   79.8031 H   0  0  0  0  0
   26.7160   27.8862   80.3338 H   0  0  0  0  0
   25.0834   28.1585   79.6769 H   0  0  0  0  0
   25.3026   27.1491   81.1275 H   0  0  0  0  0
   23.8796   26.2151   78.5145 H   0  0  0  0  0
   24.6882   24.6313   78.4207 H   0  0  0  0  0
   24.0965   25.2376   79.9870 H   0  0  0  0  0
   29.1283   25.3749   76.9049 H   0  0  0  0  0
   30.0394   24.0617   79.3088 H   0  0  0  0  0
   30.7629   23.8710   76.3757 H   0  0  0  0  0
   29.7073   22.7545   77.3645 H   0  0  0  0  0
   31.0377   21.1573   79.1477 H   0  0  0  0  0
   32.9805   24.2134   75.5222 H   0  0  0  0  0
   35.7818   20.5780   77.5556 H   0  0  0  0  0
   35.3280   23.8549   74.7967 H   0  0  0  0  0
   36.7050   22.0598   75.8042 H   0  0  0  0  0
   31.4039   26.5027   77.1732 H   0  0  0  0  0
   34.0783   26.1759   78.2789 H   0  0  0  0  0
   34.5611   28.2762   77.0270 H   0  0  0  0  0
   32.7968   28.3194   76.5638 H   0  0  0  0  0
   33.0241   26.3619   75.2808 H   0  0  0  0  0
   34.6663   26.0527   75.9101 H   0  0  0  0  0
   33.7540   28.2912   74.0985 H   0  0  0  0  0
   34.9212   26.9785   73.7379 H   0  0  0  0  0
   35.8450   28.4427   75.9932 H   0  0  0  0  0
   37.5118   29.9510   75.7731 H   0  0  0  0  0
   36.6643   29.9922   72.3454 H   0  0  0  0  0
   35.3574   28.8160   72.5181 H   0  0  0  0  0
   31.2538   27.5817   79.4381 H   0  0  0  0  0
   32.4642   29.8578   80.8215 H   0  0  0  0  0
   30.3679   29.9593   82.0372 H   0  0  0  0  0
   29.8733   28.3705   81.2785 H   0  0  0  0  0
   28.7480   30.1803   80.1742 H   0  0  0  0  0
   29.9994   29.4840   79.0803 H   0  0  0  0  0
   31.5212   31.3144   79.8267 H   0  0  0  0  0
   30.0795   32.0631   80.6403 H   0  0  0  0  0
   29.3298   32.7905   78.5953 H   0  0  0  0  0
   31.8921   30.4035   78.1247 H   0  0  0  0  0
   30.6503   32.2559   75.3945 H   0  0  0  0  0
   29.4822   33.1623   76.3616 H   0  0  0  0  0
   34.0598   28.1759   81.4083 H   0  0  0  0  0
  1  2  1  0  0  0
  2  3  1  0  0  0
  2  5  1  0  0  0
  3  4  2  0  0  0
  3  9  1  0  0  0
  5  6  1  0  0  0
  6  7  2  0  0  0
  6  8  1  0  0  0
  9 10  1  0  0  0
 10 11  1  0  0  0
 10 13  1  0  0  0
 11 12  2  0  0  0
 11 23  1  0  0  0
 13 14  1  0  0  0
 14 15  4  0  0  0
 14 16  4  0  0  0
 15 17  4  0  0  0
 16 18  4  0  0  0
 16 19  4  0  0  0
 17 18  4  0  0  0
 18 20  4  0  0  0
 19 21  4  0  0  0
 20 22  4  0  0  0
 21 22  4  0  0  0
 23 24  1  0  0  0
 24 25  1  0  0  0
 24 27  1  0  0  0
 25 26  2  0  0  0
 25 34  1  0  0  0
 27 28  1  0  0  0
 28 29  4  0  0  0
 28 30  4  0  0  0
 29 31  4  0  0  0
 30 32  4  0  0  0
 31 33  4  0  0  0
 32 33  4  0  0  0
 34 35  1  0  0  0
 35 36  1  0  0  0
 35 38  1  0  0  0
 36 37  2  0  0  0
 36 42  1  0  0  0
 38 39  1  0  0  0
 39 40  1  0  0  0
 39 41  2  0  0  0
 42 43  1  0  0  0
 43 44  1  0  0  0
 43 46  1  0  0  0
 44 45  2  0  0  0
 44 50  1  0  0  0
 46 47  1  0  0  0
 46 48  1  0  0  0
 47 49  1  0  0  0
 50 51  1  0  0  0
 51 52  1  0  0  0
 51 54  1  0  0  0
 52 53  2  0  0  0
 52 57  1  0  0  0
 54 55  1  0  0  0
 54 56  1  0  0  0
 57 58  1  0  0  0
 58 59  1  0  0  0
 58 61  1  0  0  0
 59 60  2  0  0  0
 59 65  1  0  0  0
 61 62  1  0  0  0
 62 63  2  0  0  0
 62 64  1  0  0  0
 65 66  1  0  0  0
 66 67  1  0  0  0
 66 69  1  0  0  0
 66 70  1  0  0  0
 67 68  2  0  0  0
 67 71  1  0  0  0
 71 72  1  0  0  0
 72 73  1  0  0  0
 72 75  1  0  0  0
 73 74  2  0  0  0
 73 79  1  0  0  0
 75 76  1  0  0  0
 76 77  1  0  0  0
 76 78  1  0  0  0
 79 80  1  0  0  0
 80 81  1  0  0  0
 80 83  1  0  0  0
 81 82  2  0  0  0
 81 93  1  0  0  0
 83 84  1  0  0  0
 84 85  4  0  0  0
 84 86  4  0  0  0
 85 87  4  0  0  0
 86 88  4  0  0  0
 86 89  4  0  0  0
 87 88  4  0  0  0
 88 90  4  0  0  0
 89 91  4  0  0  0
 90 92  4  0  0  0
 91 92  4  0  0  0
 93 94  1  0  0  0
 94 95  1  0  0  0
 94 97  1  0  0  0
 95 96  2  0  0  0
 95104  1  0  0  0
 97 98  1  0  0  0
 98 99  1  0  0  0
 99100  1  0  0  0
100101  1  0  0  0
101102  2  0  0  0
101103  1  0  0  0
104105  1  0  0  0
105106  1  0  0  0
105108  1  0  0  0
106107  2  0  0  0
106115  1  0  0  0
108109  1  0  0  0
109110  1  0  0  0
110111  1  0  0  0
111112  1  0  0  0
112113  2  0  0  0
112114  1  0  0  0
  1116  1  0  0  0
  1117  1  0  0  0
  1118  1  0  0  0
  2119  1  0  0  0
  5120  1  0  0  0
  5121  1  0  0  0
  8122  1  0  0  0
  8123  1  0  0  0
  9124  1  0  0  0
 10125  1  0  0  0
 13126  1  0  0  0
 13127  1  0  0  0
 15128  1  0  0  0
 19129  1  0  0  0
 20130  1  0  0  0
 21131  1  0  0  0
 22132  1  0  0  0
 23133  1  0  0  0
 24134  1  0  0  0
 27135  1  0  0  0
 27136  1  0  0  0
 29137  1  0  0  0
 30138  1  0  0  0
 31139  1  0  0  0
 32140  1  0  0  0
 33141  1  0  0  0
 34142  1  0  0  0
 35143  1  0  0  0
 38144  1  0  0  0
 38145  1  0  0  0
 40146  1  0  0  0
 42147  1  0  0  0
 43148  1  0  0  0
 46149  1  0  0  0
 47150  1  0  0  0
 47151  1  0  0  0
 48152  1  0  0  0
 48153  1  0  0  0
 48154  1  0  0  0
 49155  1  0  0  0
 49156  1  0  0  0
 49157  1  0  0  0
 50158  1  0  0  0
 51159  1  0  0  0
 54160  1  0  0  0
 55161  1  0  0  0
 56162  1  0  0  0
 56163  1  0  0  0
 56164  1  0  0  0
 57165  1  0  0  0
 58166  1  0  0  0
 61167  1  0  0  0
 61168  1  0  0  0
 64169  1  0  0  0
 64170  1  0  0  0
 65171  1  0  0  0
 69172  1  0  0  0
 69173  1  0  0  0
 69174  1  0  0  0
 70175  1  0  0  0
 70176  1  0  0  0
 70177  1  0  0  0
 71178  1  0  0  0
 72179  1  0  0  0
 75180  1  0  0  0
 75181  1  0  0  0
 76182  1  0  0  0
 77183  1  0  0  0
 77184  1  0  0  0
 77185  1  0  0  0
 78186  1  0  0  0
 78187  1  0  0  0
 78188  1  0  0  0
 79189  1  0  0  0
 80190  1  0  0  0
 83191  1  0  0  0
 83192  1  0  0  0
 85193  1  0  0  0
 89194  1  0  0  0
 90195  1  0  0  0
 91196  1  0  0  0
 92197  1  0  0  0
 93198  1  0  0  0
 94199  1  0  0  0
 97200  1  0  0  0
 97201  1  0  0  0
 98202  1  0  0  0
 98203  1  0  0  0
 99204  1  0  0  0
 99205  1  0  0  0
100206  1  0  0  0
102207  1  0  0  0
103208  1  0  0  0
103209  1  0  0  0
104210  1  0  0  0
105211  1  0  0  0
108212  1  0  0  0
108213  1  0  0  0
109214  1  0  0  0
109215  1  0  0  0
110216  1  0  0  0
110217  1  0  0  0
111218  1  0  0  0
113219  1  0  0  0
114220  1  0  0  0
114221  1  0  0  0
115222  1  0  0  0
M  END
$$$$
