4r8y_ligand
  -I-interpret- 

 70 73  0  0  0  0  0  0  0  0999 V2000
   22.1780    9.9800   23.8510 C   0  0  0  0  0
   21.4360   11.8940   22.8770 C   0  0  0  0  0
   21.0300   10.7540   21.9740 C   0  0  0  0  0
   26.0730   12.7510   20.4320 C   0  0  0  0  0
   22.0820   11.3520   23.9660 N   0  0  0  0  0
   21.5700   10.8880   20.5420 C   0  0  0  0  0
   27.3680   12.5050   19.7150 C   0  0  0  0  0
   23.8540   11.8610   20.8720 C   0  0  0  0  0
   19.5070   10.6710   21.9240 C   0  0  0  0  0
   15.0300   11.0980   22.4530 C   0  0  0  0  0
   29.4760   10.8680   22.3950 C   0  0  0  0  0
   28.7030    9.6810   21.8840 C   0  0  0  0  0
   14.4790   10.7290   23.8270 C   0  0  0  0  0
   15.3340    9.7220   24.5930 C   0  0  0  0  0
   16.8070   10.1090   24.6030 C   0  0  0  0  0
   16.5120   11.4720   22.5020 C   0  0  0  0  0
   29.0360   12.0870   21.6110 C   0  0  0  0  0
   27.8310   10.1580   20.7440 C   0  0  0  0  0
   24.8530   11.1820   18.8130 C   0  0  0  0  0
   23.0720   10.6680   20.3740 C   0  0  0  0  0
   22.5960   12.1620   25.0650 C   0  0  0  0  0
   23.4940   10.5290   18.9250 C   0  0  0  0  0
   18.8030   10.7150   23.2830 C   0  0  0  0  0
   28.3340   11.5410   20.3960 C   0  0  0  0  0
   17.3260   10.3730   23.1960 C   0  0  0  0  0
   21.6030    9.6050   22.6650 N   0  0  0  0  0
   24.9860   11.9890   20.0100 N   0  0  0  0  0
   22.7160    9.2040   24.7390 N   0  0  0  0  0
   21.1810   13.0630   22.6560 O   0  0  0  0  0
   25.9960   13.5920   21.3220 O   0  0  0  0  0
   21.3732   11.9149   20.2339 H   0  0  0  0  0
   21.0780   10.1132   19.9540 H   0  0  0  0  0
   27.8785   13.4667   19.6648 H   0  0  0  0  0
   27.1078   12.0535   18.7576 H   0  0  0  0  0
   24.1645   11.7209   21.9074 H   0  0  0  0  0
   23.2440   12.7641   20.8536 H   0  0  0  0  0
   19.2619    9.7075   21.4771 H   0  0  0  0  0
   19.1654   11.5439   21.3677 H   0  0  0  0  0
   14.4754   11.9624   22.0877 H   0  0  0  0  0
   14.9219   10.2307   21.8017 H   0  0  0  0  0
   30.5459   10.7040   22.2664 H   0  0  0  0  0
   29.2823   11.0140   23.4577 H   0  0  0  0  0
   28.0901    9.2561   22.6789 H   0  0  0  0  0
   29.3848    8.9029   21.5408 H   0  0  0  0  0
   13.5032   10.2694   23.6699 H   0  0  0  0  0
   14.4508   11.6438   24.4190 H   0  0  0  0  0
   15.2408    8.7539   24.1009 H   0  0  0  0  0
   14.9833    9.6944   25.6247 H   0  0  0  0  0
   17.3770    9.2847   25.0316 H   0  0  0  0  0
   16.9197   11.0213   25.1887 H   0  0  0  0  0
   16.6228   12.3999   23.0630 H   0  0  0  0  0
   16.8790   11.5917   21.4826 H   0  0  0  0  0
   29.8825   12.7170   21.3377 H   0  0  0  0  0
   28.3811   12.7294   22.1996 H   0  0  0  0  0
   26.7791   10.1773   21.0290 H   0  0  0  0  0
   27.8919    9.4856   19.8883 H   0  0  0  0  0
   24.9360   11.7858   17.9094 H   0  0  0  0  0
   25.6498   10.4422   18.7359 H   0  0  0  0  0
   23.2752    9.7552   20.9339 H   0  0  0  0  0
   22.1253   11.8485   25.9968 H   0  0  0  0  0
   23.6753   12.0289   25.1389 H   0  0  0  0  0
   22.3701   13.2117   24.8776 H   0  0  0  0  0
   23.5375    9.4810   18.6286 H   0  0  0  0  0
   22.7742   11.0063   18.2600 H   0  0  0  0  0
   18.8869   11.7312   23.6682 H   0  0  0  0  0
   19.2781    9.9756   23.9277 H   0  0  0  0  0
   29.0344   11.4287   19.5684 H   0  0  0  0  0
   17.2086    9.4803   22.5817 H   0  0  0  0  0
   21.5790    8.6483   22.3121 H   0  0  0  0  0
   23.1054    9.6007   25.5942 H   0  0  0  0  0
  1  5  4  0  0  0
 26  1  1  0  0  0
  1 28  2  0  0  0
  3  2  1  0  0  0
  2  5  1  0  0  0
  2 29  2  0  0  0
  3  6  1  0  0  0
  9  3  1  0  0  0
  3 26  1  0  0  0
  4  7  1  0  0  0
 27  4  1  0  0  0
  4 30  2  0  0  0
  5 21  1  0  0  0
  6 20  1  0  0  0
  7 24  1  0  0  0
 20  8  1  0  0  0
  8 27  1  0  0  0
 23  9  1  0  0  0
 10 13  1  0  0  0
 16 10  1  0  0  0
 12 11  1  0  0  0
 17 11  1  0  0  0
 18 12  1  0  0  0
 14 13  1  0  0  0
 15 14  1  0  0  0
 25 15  1  0  0  0
 25 16  1  0  0  0
 24 17  1  0  0  0
 24 18  1  0  0  0
 22 19  1  0  0  0
 19 27  1  0  0  0
 20 22  1  0  0  0
 23 25  1  0  0  0
  6 31  1  0  0  0
  6 32  1  0  0  0
  7 33  1  0  0  0
  7 34  1  0  0  0
  8 35  1  0  0  0
  8 36  1  0  0  0
  9 37  1  0  0  0
  9 38  1  0  0  0
 10 39  1  0  0  0
 10 40  1  0  0  0
 11 41  1  0  0  0
 11 42  1  0  0  0
 12 43  1  0  0  0
 12 44  1  0  0  0
 13 45  1  0  0  0
 13 46  1  0  0  0
 14 47  1  0  0  0
 14 48  1  0  0  0
 15 49  1  0  0  0
 15 50  1  0  0  0
 16 51  1  0  0  0
 16 52  1  0  0  0
 17 53  1  0  0  0
 17 54  1  0  0  0
 18 55  1  0  0  0
 18 56  1  0  0  0
 19 57  1  0  0  0
 19 58  1  0  0  0
 20 59  1  0  0  0
 21 60  1  0  0  0
 21 61  1  0  0  0
 21 62  1  0  0  0
 22 63  1  0  0  0
 22 64  1  0  0  0
 23 65  1  0  0  0
 23 66  1  0  0  0
 24 67  1  0  0  0
 25 68  1  0  0  0
 26 69  1  0  0  0
 28 70  1  0  0  0
M  END
$$$$
