5f9b_ligand
  -I-interpret- 

 83 87  0  0  0  0  0  0  0  0999 V2000
   38.6170   -9.7070   39.9720 C   0  0  0  0  0
   37.6110  -10.0340   41.0180 C   0  0  0  0  0
   37.7980  -11.4680   41.2650 C   0  0  0  0  0
   39.1160  -11.8350   42.0630 C   0  0  0  0  0
   40.3820  -11.5060   41.4280 O   0  0  0  0  0
   38.9500  -11.1920   43.3950 C   0  0  0  0  0
   37.5790  -11.7410   43.7360 C   0  0  0  0  0
   36.6720  -10.9300   44.0140 O   0  0  0  0  0
   37.4140  -12.9610   43.5430 O   0  0  0  0  0
   39.9980  -11.6040   44.4360 C   0  0  0  0  0
   41.3330  -10.8770   44.2550 C   0  0  0  0  0
   41.1290   -9.3640   44.3000 C   0  0  0  0  0
   40.5450   -8.9380   45.6270 C   0  0  0  0  0
   42.4540   -8.6330   44.2150 C   0  0  0  0  0
   40.2180   -8.9830   43.1510 C   0  0  0  0  0
   38.8620   -9.6720   43.3540 C   0  0  0  0  0
   37.8660   -9.2320   42.2940 C   0  0  0  0  0
   37.2170   -8.0460   42.5850 C   0  0  0  0  0
   36.2100   -7.5040   41.6290 C   0  0  0  0  0
   36.5400   -8.1130   40.2840 C   0  0  0  0  0
   36.3010   -9.6640   40.3390 C   0  0  0  0  0
   35.0520  -10.1550   41.1240 C   0  0  0  0  0
   36.3170  -10.2920   38.8990 C   0  0  0  0  0
   35.5590   -9.4630   37.8540 C   0  0  0  0  0
   36.1500   -8.0490   37.8530 C   0  0  0  0  0
   35.8540   -7.3460   39.2080 C   0  0  0  0  0
   34.4080   -7.2040   39.6410 C   0  0  0  0  0
   36.4540   -5.9770   39.1510 C   0  0  0  0  0
   35.7850   -5.1880   38.0450 C   0  0  0  0  0
   36.1940   -5.7910   36.7390 C   0  0  0  0  0
   35.6320   -5.0270   35.6610 O   0  0  0  0  0
   35.6970   -7.2260   36.6350 C   0  0  0  0  0
   34.1880   -7.2300   36.4690 C   0  0  0  0  0
   36.3070   -7.8230   35.3900 C   0  0  0  0  0
   35.8990   -7.0670   34.2470 O   0  0  0  0  0
   38.5604   -8.6446   39.7348 H   0  0  0  0  0
   39.6143   -9.9454   40.3417 H   0  0  0  0  0
   38.4108  -10.2922   39.0758 H   0  0  0  0  0
   37.8718  -11.9510   40.2907 H   0  0  0  0  0
   36.9561  -11.7978   41.8737 H   0  0  0  0  0
   39.2050  -12.9199   42.1186 H   0  0  0  0  0
   40.4352  -11.9455   40.5762 H   0  0  0  0  0
   37.0486  -10.0527   44.1148 H   0  0  0  0  0
   40.1815  -12.6721   44.3198 H   0  0  0  0  0
   39.6088  -11.3463   45.4210 H   0  0  0  0  0
   41.7557  -11.1486   43.2877 H   0  0  0  0  0
   42.0065  -11.1675   45.0613 H   0  0  0  0  0
   39.5815   -9.4266   45.7721 H   0  0  0  0  0
   41.2239   -9.2247   46.4301 H   0  0  0  0  0
   40.4098   -7.8564   45.6326 H   0  0  0  0  0
   43.0837   -8.9260   45.0551 H   0  0  0  0  0
   42.9506   -8.8912   43.2797 H   0  0  0  0  0
   42.2773   -7.5580   44.2494 H   0  0  0  0  0
   40.6587   -9.3010   42.2061 H   0  0  0  0  0
   40.0851   -7.9014   43.1250 H   0  0  0  0  0
   38.5121   -9.3546   44.3363 H   0  0  0  0  0
   37.4405   -7.5108   43.5079 H   0  0  0  0  0
   36.2498   -6.4154   41.5894 H   0  0  0  0  0
   35.1961   -7.7574   41.9385 H   0  0  0  0  0
   37.5958   -8.0240   40.0282 H   0  0  0  0  0
   35.1264   -9.8310   42.1621 H   0  0  0  0  0
   34.1530   -9.7338   40.6741 H   0  0  0  0  0
   35.0041  -11.2432   41.0842 H   0  0  0  0  0
   35.8260  -11.2631   38.9622 H   0  0  0  0  0
   37.3576  -10.3456   38.5791 H   0  0  0  0  0
   34.4974   -9.4276   38.0988 H   0  0  0  0  0
   35.6617   -9.9151   36.8675 H   0  0  0  0  0
   37.2325   -8.1292   37.7532 H   0  0  0  0  0
   33.9665   -8.1936   39.7587 H   0  0  0  0  0
   34.3651   -6.6703   40.5904 H   0  0  0  0  0
   33.8565   -6.6464   38.8840 H   0  0  0  0  0
   37.5229   -6.0533   38.9519 H   0  0  0  0  0
   36.3038   -5.4710   40.1047 H   0  0  0  0  0
   36.0890   -4.1422   38.0899 H   0  0  0  0  0
   34.7013   -5.2264   38.1559 H   0  0  0  0  0
   37.2823   -5.7829   36.6795 H   0  0  0  0  0
   35.8955   -5.4154   34.8236 H   0  0  0  0  0
   33.8413   -8.2545   36.3339 H   0  0  0  0  0
   33.7248   -6.8026   37.3583 H   0  0  0  0  0
   33.9182   -6.6357   35.5960 H   0  0  0  0  0
   35.9718   -8.8544   35.2809 H   0  0  0  0  0
   37.3937   -7.7990   35.4714 H   0  0  0  0  0
   36.2882   -7.4486   33.4568 H   0  0  0  0  0
  1  2  1  0  0  0
  2  3  1  0  0  0
  2 17  1  0  0  0
  2 21  1  0  0  0
  3  4  1  0  0  0
  4  5  1  0  0  0
  4  6  1  0  0  0
  6  7  1  0  0  0
  6 10  1  0  0  0
  6 16  1  0  0  0
  7  8  1  0  0  0
  7  9  2  0  0  0
 10 11  1  0  0  0
 11 12  1  0  0  0
 12 13  1  0  0  0
 12 14  1  0  0  0
 12 15  1  0  0  0
 15 16  1  0  0  0
 16 17  1  0  0  0
 17 18  2  0  0  0
 18 19  1  0  0  0
 19 20  1  0  0  0
 20 21  1  0  0  0
 20 26  1  0  0  0
 21 22  1  0  0  0
 21 23  1  0  0  0
 23 24  1  0  0  0
 24 25  1  0  0  0
 25 26  1  0  0  0
 25 32  1  0  0  0
 26 27  1  0  0  0
 26 28  1  0  0  0
 28 29  1  0  0  0
 29 30  1  0  0  0
 30 31  1  0  0  0
 30 32  1  0  0  0
 32 33  1  0  0  0
 32 34  1  0  0  0
 34 35  1  0  0  0
  1 36  1  0  0  0
  1 37  1  0  0  0
  1 38  1  0  0  0
  3 39  1  0  0  0
  3 40  1  0  0  0
  4 41  1  0  0  0
  5 42  1  0  0  0
  8 43  1  0  0  0
 10 44  1  0  0  0
 10 45  1  0  0  0
 11 46  1  0  0  0
 11 47  1  0  0  0
 13 48  1  0  0  0
 13 49  1  0  0  0
 13 50  1  0  0  0
 14 51  1  0  0  0
 14 52  1  0  0  0
 14 53  1  0  0  0
 15 54  1  0  0  0
 15 55  1  0  0  0
 16 56  1  0  0  0
 18 57  1  0  0  0
 19 58  1  0  0  0
 19 59  1  0  0  0
 20 60  1  0  0  0
 22 61  1  0  0  0
 22 62  1  0  0  0
 22 63  1  0  0  0
 23 64  1  0  0  0
 23 65  1  0  0  0
 24 66  1  0  0  0
 24 67  1  0  0  0
 25 68  1  0  0  0
 27 69  1  0  0  0
 27 70  1  0  0  0
 27 71  1  0  0  0
 28 72  1  0  0  0
 28 73  1  0  0  0
 29 74  1  0  0  0
 29 75  1  0  0  0
 30 76  1  0  0  0
 31 77  1  0  0  0
 33 78  1  0  0  0
 33 79  1  0  0  0
 33 80  1  0  0  0
 34 81  1  0  0  0
 34 82  1  0  0  0
 35 83  1  0  0  0
M  END
$$$$
