2wxq_ligand
  -I-interpret- 

 57 61  0  0  0  0  0  0  0  0999 V2000
   -8.3510   -3.5750   18.4390 C   0  0  0  0  0
   -7.8410   -4.1670   19.6450 O   0  0  0  0  0
   -7.5720   -5.4930   19.4000 C   0  0  0  0  0
   -8.5970   -6.4330   19.1520 C   0  0  0  0  0
   -8.2660   -7.7640   18.9310 C   0  0  0  0  0
   -6.9320   -8.1620   18.9570 C   0  0  0  0  0
   -5.9090   -7.2400   19.1850 C   0  0  0  0  0
   -6.2320   -5.8900   19.3820 C   0  0  0  0  0
   -5.1820   -4.9780   19.6640 N   0  0  0  0  0
   -4.2650   -4.4410   18.7240 C   0  0  0  0  0
   -4.3200   -4.7050   17.5130 O   0  0  0  0  0
   -3.2670   -3.5800   19.1830 C   0  0  0  0  0
   -2.2940   -2.9860   18.1920 C   0  0  0  0  0
   -1.0580   -2.3920   18.8880 C   0  0  0  0  0
   -1.3140   -1.5980   20.1910 C   0  0  0  0  0
   -2.1390   -2.3540   21.2460 C   0  0  0  0  0
   -3.2010   -3.2800   20.5650 C   0  0  0  0  0
   -4.0930   -3.8290   21.4000 N   0  0  0  0  0
   -5.0520   -4.6420   20.9870 C   0  0  0  0  0
   -6.2110   -5.3170   22.0980 S   0  0  0  0  0
   -5.9950   -4.2380   23.5960 C   0  0  0  0  0
   -7.2030   -3.3310   23.3650 C   0  0  0  0  0
   -8.1870   -3.7290   22.7120 O   0  0  0  0  0
   -7.1450   -2.0800   23.6940 N   0  0  0  0  0
   -6.3590   -1.2370   24.3270 C   0  0  0  0  0
   -7.1070   -0.1110   24.6810 C   0  0  0  0  0
   -6.5770    0.9620   25.3200 C   0  0  0  0  0
   -7.3760    2.0090   25.6340 N   0  0  0  0  0
   -6.8800    3.0740   26.2550 C   0  0  0  0  0
   -5.5190    3.0480   26.5740 C   0  0  0  0  0
   -4.7330    2.0030   26.2580 N   0  0  0  0  0
   -5.2220    0.9250   25.6080 C   0  0  0  0  0
   -4.4320   -0.1910   25.2600 C   0  0  0  0  0
   -4.9990   -1.3110   24.5980 C   0  0  0  0  0
   -7.6057   -3.6642   17.6486 H   0  0  0  0  0
   -9.2632   -4.0913   18.1399 H   0  0  0  0  0
   -8.5695   -2.5221   18.6169 H   0  0  0  0  0
   -9.6398   -6.1163   19.1342 H   0  0  0  0  0
   -9.0500   -8.4961   18.7374 H   0  0  0  0  0
   -6.6824   -9.2108   18.7967 H   0  0  0  0  0
   -4.8693   -7.5664   19.2096 H   0  0  0  0  0
   -2.8008   -2.1854   17.6532 H   0  0  0  0  0
   -1.9612   -3.7790   17.5223 H   0  0  0  0  0
   -0.6262   -1.6824   18.1822 H   0  0  0  0  0
   -0.4334   -3.2399   19.1691 H   0  0  0  0  0
   -1.8832   -0.7098   19.9170 H   0  0  0  0  0
   -0.3404   -1.3911   20.6353 H   0  0  0  0  0
   -2.6570   -1.6279   21.8726 H   0  0  0  0  0
   -1.4660   -2.9709   21.8415 H   0  0  0  0  0
   -5.0328   -3.7329   23.6812 H   0  0  0  0  0
   -5.9688   -4.7573   24.5540 H   0  0  0  0  0
   -7.9738   -1.5928   23.3533 H   0  0  0  0  0
   -8.1679   -0.0939   24.4316 H   0  0  0  0  0
   -7.5067    3.9302   26.5047 H   0  0  0  0  0
   -5.0817    3.9001   27.0944 H   0  0  0  0  0
   -3.3695   -0.1930   25.5034 H   0  0  0  0  0
   -4.4017   -2.1789   24.3185 H   0  0  0  0  0
  1  2  1  0  0  0
  2  3  1  0  0  0
  3  4  4  0  0  0
  3  8  4  0  0  0
  4  5  4  0  0  0
  5  6  4  0  0  0
  6  7  4  0  0  0
  7  8  4  0  0  0
  8  9  1  0  0  0
  9 10  1  0  0  0
  9 19  1  0  0  0
 10 11  2  0  0  0
 10 12  1  0  0  0
 12 13  1  0  0  0
 12 17  2  0  0  0
 13 14  1  0  0  0
 14 15  1  0  0  0
 15 16  1  0  0  0
 16 17  1  0  0  0
 17 18  1  0  0  0
 18 19  2  0  0  0
 19 20  1  0  0  0
 20 21  1  0  0  0
 21 22  1  0  0  0
 22 23  2  0  0  0
 22 24  1  0  0  0
 24 25  1  0  0  0
 25 26  4  0  0  0
 25 34  4  0  0  0
 26 27  4  0  0  0
 27 28  4  0  0  0
 27 32  4  0  0  0
 28 29  4  0  0  0
 29 30  4  0  0  0
 30 31  4  0  0  0
 31 32  4  0  0  0
 32 33  4  0  0  0
 33 34  4  0  0  0
  1 35  1  0  0  0
  1 36  1  0  0  0
  1 37  1  0  0  0
  4 38  1  0  0  0
  5 39  1  0  0  0
  6 40  1  0  0  0
  7 41  1  0  0  0
 13 42  1  0  0  0
 13 43  1  0  0  0
 14 44  1  0  0  0
 14 45  1  0  0  0
 15 46  1  0  0  0
 15 47  1  0  0  0
 16 48  1  0  0  0
 16 49  1  0  0  0
 21 50  1  0  0  0
 21 51  1  0  0  0
 24 52  1  0  0  0
 26 53  1  0  0  0
 29 54  1  0  0  0
 30 55  1  0  0  0
 33 56  1  0  0  0
 34 57  1  0  0  0
M  END
$$$$
