5q0j_ligand
  -I-interpret- 

 71 76  0  0  0  0  0  0  0  0999 V2000
   13.0760   25.9260    2.3070 N   0  0  0  0  0
   15.1360   24.6760    2.8050 C   0  0  0  0  0
   12.6390   21.9040    4.4030 C   0  0  0  0  0
   13.3670   23.2190    4.7330 C   0  0  0  0  0
   11.6500   24.8830    3.7620 C   0  0  0  0  0
   11.7680   25.8720    2.8010 C   0  0  0  0  0
   18.5320   22.9910    1.6510 C   0  0  0  0  0
   11.7530   20.4680    2.6090 C   0  0  0  0  0
   19.8280   23.5120    1.6570 C   0  0  0  0  0
   18.3320   21.7220    1.1210 C   0  0  0  0  0
   13.7650   25.0670    6.4280 C   0  0  0  0  0
   12.7380   19.6840    1.7410 C   0  0  0  0  0
    9.3610   25.3830    4.0580 C   0  0  0  0  0
   19.3930   20.9920    0.6070 C   0  0  0  0  0
   13.7190   24.9890    2.9810 C   0  0  0  0  0
   13.3110   23.6200    6.2240 C   0  0  0  0  0
   10.4660   24.6180    4.4050 C   0  0  0  0  0
   10.6600   26.6350    2.4530 C   0  0  0  0  0
   14.1790   22.7010    7.0800 C   0  0  0  0  0
   10.5090   20.8210    1.8170 C   0  0  0  0  0
    9.4530   26.3760    3.0970 C   0  0  0  0  0
   14.0840   23.0670    8.5670 C   0  0  0  0  0
   13.7360   25.4880    7.9470 C   0  0  0  0  0
    9.8610   19.5660    1.2400 C   0  0  0  0  0
   12.0770   18.4560    1.0620 C   0  0  0  0  0
   10.8250   18.8270    0.3320 C   0  0  0  0  0
   14.5110   24.5150    8.8220 C   0  0  0  0  0
   12.4210   21.6680    3.1090 N   0  0  0  0  0
   12.9350   24.3220    3.8640 N   0  0  0  0  0
   12.2940   21.1400    5.2800 O   0  0  0  0  0
   16.1910   25.3470    3.3880 C   0  0  0  0  0
   17.4530   24.8360    3.0470 C   0  0  0  0  0
   20.8850   22.7730    1.1400 C   0  0  0  0  0
   20.6680   21.5170    0.6160 C   0  0  0  0  0
   17.4030   23.7680    2.1990 C   0  0  0  0  0
   15.7280   23.3760    1.8070 S   0  0  0  0  0
   14.4174   23.0153    4.5250 H   0  0  0  0  0
   11.4358   19.8567    3.4538 H   0  0  0  0  0
   20.0112   24.5041    2.0697 H   0  0  0  0  0
   17.3290   21.2954    1.1092 H   0  0  0  0  0
   13.0828   25.7180    5.8813 H   0  0  0  0  0
   14.7906   25.1556    6.0698 H   0  0  0  0  0
   13.5415   19.3233    2.3832 H   0  0  0  0  0
   13.1011   20.3488    0.9572 H   0  0  0  0  0
    8.4057   25.1993    4.5497 H   0  0  0  0  0
   19.2183   19.9985    0.1939 H   0  0  0  0  0
   12.2713   23.5230    6.5366 H   0  0  0  0  0
   10.3964   23.8353    5.1605 H   0  0  0  0  0
   10.7338   27.4156    1.6959 H   0  0  0  0  0
   15.2160   22.8093    6.7623 H   0  0  0  0  0
   13.8292   21.6766    6.9525 H   0  0  0  0  0
   10.7899   21.4810    0.9963 H   0  0  0  0  0
    9.7968   21.3113    2.4806 H   0  0  0  0  0
    8.5699   26.9618    2.8417 H   0  0  0  0  0
   14.7496   22.4091    9.1259 H   0  0  0  0  0
   13.0469   22.9540    8.8830 H   0  0  0  0  0
   12.6980   25.4936    8.2797 H   0  0  0  0  0
   14.1985   26.4709    8.0374 H   0  0  0  0  0
    8.9868   19.8589    0.6586 H   0  0  0  0  0
    9.5794   18.9077    2.0619 H   0  0  0  0  0
   11.8188   17.7351    1.8377 H   0  0  0  0  0
   12.7829   18.0437    0.3410 H   0  0  0  0  0
   11.0877   19.4786   -0.5014 H   0  0  0  0  0
   10.3430   17.9146   -0.0191 H   0  0  0  0  0
   15.5711   24.6085    8.5865 H   0  0  0  0  0
   14.3103   24.7550    9.8661 H   0  0  0  0  0
   12.7373   22.3620    2.4318 H   0  0  0  0  0
   16.0564   26.1988    4.0546 H   0  0  0  0  0
   18.3864   25.2535    3.4245 H   0  0  0  0  0
   21.8923   23.1894    1.1489 H   0  0  0  0  0
   21.5002   20.9414    0.2107 H   0  0  0  0  0
  1  6  4  0  0  0
 15  1  4  0  0  0
  2 15  1  0  0  0
 31  2  4  0  0  0
  2 36  4  0  0  0
  4  3  1  0  0  0
  3 28  1  0  0  0
  3 30  2  0  0  0
  4 16  1  0  0  0
 29  4  1  0  0  0
  5  6  4  0  0  0
  5 17  4  0  0  0
 29  5  4  0  0  0
  6 18  4  0  0  0
  7  9  4  0  0  0
  7 10  4  0  0  0
 35  7  1  0  0  0
  8 12  1  0  0  0
  8 20  1  0  0  0
 28  8  1  0  0  0
  9 33  4  0  0  0
 10 14  4  0  0  0
 16 11  1  0  0  0
 11 23  1  0  0  0
 12 25  1  0  0  0
 17 13  4  0  0  0
 13 21  4  0  0  0
 14 34  4  0  0  0
 15 29  4  0  0  0
 16 19  1  0  0  0
 18 21  4  0  0  0
 19 22  1  0  0  0
 20 24  1  0  0  0
 22 27  1  0  0  0
 23 27  1  0  0  0
 24 26  1  0  0  0
 25 26  1  0  0  0
 32 31  4  0  0  0
 32 35  4  0  0  0
 33 34  4  0  0  0
 35 36  4  0  0  0
  4 37  1  0  0  0
  8 38  1  0  0  0
  9 39  1  0  0  0
 10 40  1  0  0  0
 11 41  1  0  0  0
 11 42  1  0  0  0
 12 43  1  0  0  0
 12 44  1  0  0  0
 13 45  1  0  0  0
 14 46  1  0  0  0
 16 47  1  0  0  0
 17 48  1  0  0  0
 18 49  1  0  0  0
 19 50  1  0  0  0
 19 51  1  0  0  0
 20 52  1  0  0  0
 20 53  1  0  0  0
 21 54  1  0  0  0
 22 55  1  0  0  0
 22 56  1  0  0  0
 23 57  1  0  0  0
 23 58  1  0  0  0
 24 59  1  0  0  0
 24 60  1  0  0  0
 25 61  1  0  0  0
 25 62  1  0  0  0
 26 63  1  0  0  0
 26 64  1  0  0  0
 27 65  1  0  0  0
 27 66  1  0  0  0
 28 67  1  0  0  0
 31 68  1  0  0  0
 32 69  1  0  0  0
 33 70  1  0  0  0
 34 71  1  0  0  0
M  END
$$$$
