3bv2_ligand
  -I-interpret- 

 78 83  0  0  0  0  0  0  0  0999 V2000
   -4.6210   -2.3900   28.1990 C   0  0  0  0  0
   -3.3940   -2.0640   27.5530 C   0  0  0  0  0
   -2.6750   -3.1160   26.9230 C   0  0  0  0  0
   -0.2280   -3.6620   26.6750 C   0  0  0  0  0
   -5.1040   -3.7340   28.2120 C   0  0  0  0  0
   -4.3950   -4.7980   27.5870 C   0  0  0  0  0
   -3.1650   -4.4680   26.9360 C   0  0  0  0  0
   -3.6960    0.7600   17.8220 C   0  0  0  0  0
   -5.1580    0.7550   17.3610 C   0  0  0  0  0
   -2.2820   -2.5240   23.7620 C   0  0  0  0  0
    1.0670    2.4780   13.4420 C   0  0  0  0  0
   -3.1380    1.9920   15.7970 C   0  0  0  0  0
   -0.1410    3.0770   13.8620 C   0  0  0  0  0
   -2.5110    0.7680   22.4150 N   0  0  0  0  0
   -2.4590    2.2540   22.4020 N   0  0  0  0  0
   -2.4540    2.8430   21.1750 C   0  0  0  0  0
   -2.8990    2.1270   20.0870 N   0  0  0  0  0
   -3.0100    0.7870   20.1140 C   0  0  0  0  0
   -2.7790    0.0060   21.2370 C   0  0  0  0  0
   -2.7130   -1.4730   21.5090 C   0  0  0  0  0
   -2.4500   -1.5140   22.8980 C   0  0  0  0  0
   -2.3150   -0.1640   23.3680 C   0  0  0  0  0
   -2.8580   -2.6610   20.5020 C   0  0  0  0  0
   -2.5680   -3.6960   23.4820 O   0  0  0  0  0
   -1.6840   -2.0030   24.9620 N   0  0  0  0  0
   -1.4190   -2.7940   26.2730 C   0  0  0  0  0
   -3.3300    0.1510   18.9590 N   0  0  0  0  0
   -5.5350    1.4210   16.0450 C   0  0  0  0  0
   -4.5020    1.9940   15.3150 C   0  0  0  0  0
   -2.7150    1.3850   17.0610 C   0  0  0  0  0
   -6.3420    0.0670   18.1160 C   0  0  0  0  0
   -2.2140    2.6620   14.9740 N   0  0  0  0  0
   -0.8420    2.3370   14.8910 C   0  0  0  0  0
   -0.1690    1.5720   15.6070 O   0  0  0  0  0
    1.9020    3.1080   12.4600 C   0  0  0  0  0
    1.4660    4.2550   11.9600 N   0  0  0  0  0
    0.2560    4.7960   12.3830 C   0  0  0  0  0
   -0.6150    4.3310   13.3230 C   0  0  0  0  0
    3.1150    2.5080   12.0900 N   0  0  0  0  0
    3.4800    1.2660   12.8530 C   0  0  0  0  0
    4.5050    0.4330   12.1230 C   0  0  0  0  0
    5.5990    1.2240   11.8600 O   0  0  0  0  0
    5.3920    2.4260   11.0600 C   0  0  0  0  0
    4.2530    3.3140   11.5620 C   0  0  0  0  0
   -5.1975   -1.6052   28.6887 H   0  0  0  0  0
   -3.0185   -1.0408   27.5421 H   0  0  0  0  0
   -0.1249   -4.4851   25.9680 H   0  0  0  0  0
    0.6794   -3.0581   26.6664 H   0  0  0  0  0
   -0.3917   -4.0599   27.6765 H   0  0  0  0  0
   -6.0454   -3.9517   28.7165 H   0  0  0  0  0
   -4.7730   -5.8202   27.6037 H   0  0  0  0  0
   -2.5909   -5.2523   26.4427 H   0  0  0  0  0
    1.3696    1.5225   13.8704 H   0  0  0  0  0
   -2.1024    3.8678   21.0556 H   0  0  0  0  0
   -2.0757    0.0843   24.4020 H   0  0  0  0  0
   -3.8376   -2.6148   20.0262 H   0  0  0  0  0
   -2.0798   -2.5886   19.7422 H   0  0  0  0  0
   -2.7573   -3.6046   21.0383 H   0  0  0  0  0
   -1.4077   -1.0212   24.9514 H   0  0  0  0  0
   -0.7246   -2.0338   26.6309 H   0  0  0  0  0
   -3.2890   -0.8682   18.9554 H   0  0  0  0  0
   -6.5662    1.4468   15.6927 H   0  0  0  0  0
   -4.7247    2.4573   14.3538 H   0  0  0  0  0
   -1.6766    1.4217   17.3904 H   0  0  0  0  0
   -6.1450   -1.0017   18.2010 H   0  0  0  0  0
   -6.4372    0.5005   19.1115 H   0  0  0  0  0
   -7.2662    0.2243   17.5599 H   0  0  0  0  0
   -2.5573    3.4323   14.4002 H   0  0  0  0  0
   -0.0375    5.7243   11.8928 H   0  0  0  0  0
   -1.5349    4.8322   13.6241 H   0  0  0  0  0
    2.5789    0.6654   12.9766 H   0  0  0  0  0
    3.9056    1.5674   13.8102 H   0  0  0  0  0
    4.0842    0.0561   11.1908 H   0  0  0  0  0
    4.7991   -0.4187   12.7364 H   0  0  0  0  0
    5.1324    2.1041   10.0515 H   0  0  0  0  0
    6.3089    3.0131   11.1128 H   0  0  0  0  0
    4.6352    3.9379   12.3699 H   0  0  0  0  0
    3.8907    3.9123   10.7260 H   0  0  0  0  0
  2  1  4  0  0  0
  1  5  4  0  0  0
  3  2  4  0  0  0
  3  7  4  0  0  0
 26  3  1  0  0  0
 26  4  1  0  0  0
  6  5  4  0  0  0
  7  6  4  0  0  0
  8  9  4  0  0  0
  8 27  1  0  0  0
 30  8  4  0  0  0
 28  9  4  0  0  0
  9 31  1  0  0  0
 21 10  1  0  0  0
 10 24  2  0  0  0
 10 25  1  0  0  0
 13 11  4  0  0  0
 11 35  4  0  0  0
 12 29  4  0  0  0
 12 30  4  0  0  0
 32 12  1  0  0  0
 33 13  1  0  0  0
 13 38  4  0  0  0
 14 15  4  0  0  0
 19 14  4  0  0  0
 14 22  4  0  0  0
 16 15  4  0  0  0
 17 16  4  0  0  0
 18 17  4  0  0  0
 18 19  4  0  0  0
 27 18  1  0  0  0
 19 20  4  0  0  0
 20 21  4  0  0  0
 20 23  1  0  0  0
 21 22  4  0  0  0
 25 26  1  0  0  0
 29 28  4  0  0  0
 32 33  1  0  0  0
 33 34  2  0  0  0
 35 36  4  0  0  0
 35 39  1  0  0  0
 36 37  4  0  0  0
 37 38  4  0  0  0
 39 40  1  0  0  0
 39 44  1  0  0  0
 40 41  1  0  0  0
 41 42  1  0  0  0
 42 43  1  0  0  0
 43 44  1  0  0  0
  1 45  1  0  0  0
  2 46  1  0  0  0
  4 47  1  0  0  0
  4 48  1  0  0  0
  4 49  1  0  0  0
  5 50  1  0  0  0
  6 51  1  0  0  0
  7 52  1  0  0  0
 11 53  1  0  0  0
 16 54  1  0  0  0
 22 55  1  0  0  0
 23 56  1  0  0  0
 23 57  1  0  0  0
 23 58  1  0  0  0
 25 59  1  0  0  0
 26 60  1  0  0  0
 27 61  1  0  0  0
 28 62  1  0  0  0
 29 63  1  0  0  0
 30 64  1  0  0  0
 31 65  1  0  0  0
 31 66  1  0  0  0
 31 67  1  0  0  0
 32 68  1  0  0  0
 37 69  1  0  0  0
 38 70  1  0  0  0
 40 71  1  0  0  0
 40 72  1  0  0  0
 41 73  1  0  0  0
 41 74  1  0  0  0
 43 75  1  0  0  0
 43 76  1  0  0  0
 44 77  1  0  0  0
 44 78  1  0  0  0
M  END
$$$$
