3ery_ligand
  -I-interpret- 

141143  0  0  0  0  0  0  0  0999 V2000
    4.7790  -14.5010  -16.8800 N   0  3  0  0  0
    5.3300  -15.3910  -15.8230 C   0  0  0  0  0
    5.0770  -14.7820  -14.4540 C   0  0  0  0  0
    4.9240  -13.5680  -14.3190 O   0  0  0  0  0
    6.8310  -15.5810  -16.0210 C   0  0  0  0  0
    7.3340  -16.9330  -15.5640 C   0  0  0  0  0
    6.8120  -18.0590  -16.4250 C   0  0  0  0  0
    7.0430  -19.2290  -16.1420 O   0  0  0  0  0
    6.1020  -17.7090  -17.4870 N   0  0  0  0  0
    5.0500  -15.6350  -13.4390 N   0  0  0  0  0
    4.8070  -15.1980  -12.0730 C   0  0  0  0  0
    6.0700  -14.6330  -11.4370 C   0  0  0  0  0
    7.1880  -14.9300  -11.8700 O   0  0  0  0  0
    4.2830  -16.3730  -11.2430 C   0  0  0  0  0
    3.0150  -17.0700  -11.7580 C   0  0  0  0  0
    2.6120  -18.1440  -10.7660 C   0  0  0  0  0
    1.8860  -16.0680  -11.9340 C   0  0  0  0  0
    5.8900  -13.8120  -10.4110 N   0  0  0  0  0
    7.0240  -13.2170   -9.7250 C   0  0  0  0  0
    7.7270  -14.3060   -8.9310 C   0  0  0  0  0
    7.1430  -15.3500   -8.6350 O   0  0  0  0  0
    6.5680  -12.1290   -8.7570 C   0  0  0  0  0
    6.0990  -12.7150   -7.5570 O   0  0  0  0  0
    8.9980  -14.0800   -8.5800 N   0  0  0  0  0
    9.7310  -15.0850   -7.8120 C   0  0  0  0  0
    9.1390  -15.2080   -6.4080 C   0  0  0  0  0
    8.3660  -14.3500   -5.9650 O   0  0  0  0  0
   11.1550  -14.5410   -7.8060 C   0  0  0  0  0
   10.9370  -13.0510   -7.8300 C   0  0  0  0  0
    9.8380  -12.8990   -8.8510 C   0  0  0  0  0
    9.4900  -16.2810   -5.7120 N   0  0  0  0  0
    8.9840  -16.4880   -4.3690 C   0  0  0  0  0
    9.4080  -15.3260   -3.4700 C   0  0  0  0  0
   10.5850  -14.9700   -3.4000 O   0  0  0  0  0
    9.5010  -17.8170   -3.8050 C   0  0  0  0  0
    8.4400  -14.7140   -2.7730 N   0  0  0  0  0
    8.7100  -13.5920   -1.8740 C   0  0  0  0  0
    9.4670  -14.0490   -0.6320 C   0  0  0  0  0
    9.3970  -15.2170   -0.2500 O   0  0  0  0  0
    7.3110  -13.0780   -1.5500 C   0  0  0  0  0
    6.5070  -14.3390   -1.5290 C   0  0  0  0  0
    7.0100  -15.0750   -2.7490 C   0  0  0  0  0
   10.2030  -13.1280   -0.0190 N   0  0  0  0  0
   10.9630  -13.4230    1.1930 C   0  0  0  0  0
    9.9530  -13.7460    2.2870 C   0  0  0  0  0
    8.7760  -13.4250    2.1420 O   0  0  0  0  0
   11.8030  -12.2020    1.5840 C   0  0  0  0  0
   13.0100  -11.9790    0.7030 C   0  0  0  0  0
   13.7290  -10.7920    0.7740 C   0  0  0  0  0
   13.4560  -12.9760   -0.1590 C   0  0  0  0  0
   14.8760  -10.6030    0.0050 C   0  0  0  0  0
   14.6010  -12.7980   -0.9310 C   0  0  0  0  0
   15.3120  -11.6110   -0.8480 C   0  0  0  0  0
   10.3960  -14.3750    3.3740 N   0  0  0  0  0
    9.4730  -14.7180    4.4550 C   0  0  0  0  0
    9.1220  -13.5370    5.3460 C   0  0  0  0  0
    9.9470  -12.6630    5.5890 O   0  0  0  0  0
   10.0220  -15.8530    5.3320 C   0  0  0  0  0
    9.7910  -17.2330    4.7190 C   0  0  0  0  0
    8.7340  -17.4460    4.0760 O   0  0  0  0  0
   10.6580  -18.1100    4.8930 O   0  0  0  0  0
    7.8820  -13.5200    5.8270 N   0  0  0  0  0
    7.4100  -12.4620    6.7070 C   0  0  0  0  0
    8.1640  -12.5180    8.0440 C   0  0  0  0  0
    8.8370  -13.5390    8.2990 O   0  0  0  0  0
    5.9020  -12.6290    6.9490 C   0  0  0  0  0
    4.8960  -11.9610    5.9970 C   0  0  0  0  0
    5.4240  -11.8880    4.5720 C   0  0  0  0  0
    3.5900  -12.7280    6.0580 C   0  0  0  0  0
    8.0730  -11.5460    8.8180 O   0  0  0  0  0
    3.7762  -14.3833  -16.7350 H   0  0  0  0  0
    5.2397  -13.5922  -16.8318 H   0  0  0  0  0
    4.9446  -14.9194  -17.7954 H   0  0  0  0  0
    4.8350  -16.3598  -15.8902 H   0  0  0  0  0
    7.3386  -14.8237  -15.4236 H   0  0  0  0  0
    7.0333  -15.5002  -17.0890 H   0  0  0  0  0
    6.9852  -17.0969  -14.5444 H   0  0  0  0  0
    8.4218  -16.9304  -15.6331 H   0  0  0  0  0
    5.7237  -18.4257  -18.1064 H   0  0  0  0  0
    5.9336  -16.7228  -17.6855 H   0  0  0  0  0
    5.2041  -16.6266  -13.6215 H   0  0  0  0  0
    4.0611  -14.4035  -12.0966 H   0  0  0  0  0
    4.0237  -15.9600  -10.2682 H   0  0  0  0  0
    5.0691  -17.1278  -11.2614 H   0  0  0  0  0
    3.2185  -17.5203  -12.7295 H   0  0  0  0  0
    3.4200  -18.8692  -10.6694 H   0  0  0  0  0
    2.4152  -17.6861   -9.7966 H   0  0  0  0  0
    1.7122  -18.6460  -11.1215 H   0  0  0  0  0
    1.6662  -15.5982  -10.9753 H   0  0  0  0  0
    2.1870  -15.3060  -12.6530 H   0  0  0  0  0
    0.9980  -16.5837  -12.2995 H   0  0  0  0  0
    4.9431  -13.5956  -10.0996 H   0  0  0  0  0
    7.6899  -12.7712  -10.4639 H   0  0  0  0  0
    5.7621  -11.5558   -9.2153 H   0  0  0  0  0
    7.4094  -11.4738   -8.5314 H   0  0  0  0  0
    5.8145  -12.0238   -6.9546 H   0  0  0  0  0
    9.6835  -16.0919   -8.2268 H   0  0  0  0  0
   11.7513  -14.8982   -8.6456 H   0  0  0  0  0
   11.7346  -14.8732   -6.9448 H   0  0  0  0  0
   11.8371  -12.4915   -8.0847 H   0  0  0  0  0
   10.6736  -12.6420   -6.8546 H   0  0  0  0  0
    9.2969  -11.9568   -8.7641 H   0  0  0  0  0
   10.2056  -12.8582   -9.8763 H   0  0  0  0  0
   10.1217  -16.9670   -6.1253 H   0  0  0  0  0
    7.8953  -16.5287   -4.4023 H   0  0  0  0  0
    9.1663  -18.6355   -4.4423 H   0  0  0  0  0
   10.5905  -17.7990   -3.7768 H   0  0  0  0  0
    9.1124  -17.9579   -2.7964 H   0  0  0  0  0
    9.3481  -12.8227   -2.3089 H   0  0  0  0  0
    6.9445  -12.3469   -2.2706 H   0  0  0  0  0
    7.2637  -12.5228   -0.6132 H   0  0  0  0  0
    5.4324  -14.1582   -1.5549 H   0  0  0  0  0
    6.6328  -14.9078   -0.6077 H   0  0  0  0  0
    6.8421  -16.1508   -2.6980 H   0  0  0  0  0
    6.4841  -14.7969   -3.6623 H   0  0  0  0  0
   10.2384  -12.1853   -0.4070 H   0  0  0  0  0
   11.6410  -14.2626    1.0399 H   0  0  0  0  0
   12.1687  -12.3719    2.5966 H   0  0  0  0  0
   11.1638  -11.3246    1.4850 H   0  0  0  0  0
   13.3914   -9.9980    1.4401 H   0  0  0  0  0
   12.9004  -13.9110   -0.2311 H   0  0  0  0  0
   15.4302   -9.6668    0.0721 H   0  0  0  0  0
   14.9376  -13.5905   -1.5993 H   0  0  0  0  0
   16.2098  -11.4682   -1.4493 H   0  0  0  0  0
   11.3834  -14.6185    3.4528 H   0  0  0  0  0
    8.5624  -15.0452    3.9531 H   0  0  0  0  0
    9.5012  -15.8195    6.2889 H   0  0  0  0  0
   11.0973  -15.7073    5.4349 H   0  0  0  0  0
    8.2044  -16.6455    4.0587 H   0  0  0  0  0
    7.2422  -14.2720    5.5709 H   0  0  0  0  0
    7.5941  -11.4954    6.2382 H   0  0  0  0  0
    8.7665  -14.1580    7.5686 H   0  0  0  0  0
    5.7249  -12.1523    7.9131 H   0  0  0  0  0
    5.7224  -13.6976    6.8314 H   0  0  0  0  0
    4.7349  -10.9315    6.3169 H   0  0  0  0  0
    6.3461  -11.3070    4.5569 H   0  0  0  0  0
    5.6220  -12.8959    4.2072 H   0  0  0  0  0
    4.6808  -11.4090    3.9346 H   0  0  0  0  0
    3.7617  -13.7602    5.7527 H   0  0  0  0  0
    3.2060  -12.7085    7.0779 H   0  0  0  0  0
    2.8665  -12.2649    5.3871 H   0  0  0  0  0
  1  2  1  0  0  0
  2  3  1  0  0  0
  2  5  1  0  0  0
  3  4  2  0  0  0
  3 10  1  0  0  0
  5  6  1  0  0  0
  6  7  1  0  0  0
  7  8  2  0  0  0
  7  9  1  0  0  0
 10 11  1  0  0  0
 11 12  1  0  0  0
 11 14  1  0  0  0
 12 13  2  0  0  0
 12 18  1  0  0  0
 14 15  1  0  0  0
 15 16  1  0  0  0
 15 17  1  0  0  0
 18 19  1  0  0  0
 19 20  1  0  0  0
 19 22  1  0  0  0
 20 21  2  0  0  0
 20 24  1  0  0  0
 22 23  1  0  0  0
 24 25  1  0  0  0
 24 30  1  0  0  0
 25 26  1  0  0  0
 25 28  1  0  0  0
 26 27  2  0  0  0
 26 31  1  0  0  0
 28 29  1  0  0  0
 29 30  1  0  0  0
 31 32  1  0  0  0
 32 33  1  0  0  0
 32 35  1  0  0  0
 33 34  2  0  0  0
 33 36  1  0  0  0
 36 37  1  0  0  0
 36 42  1  0  0  0
 37 38  1  0  0  0
 37 40  1  0  0  0
 38 39  2  0  0  0
 38 43  1  0  0  0
 40 41  1  0  0  0
 41 42  1  0  0  0
 43 44  1  0  0  0
 44 45  1  0  0  0
 44 47  1  0  0  0
 45 46  2  0  0  0
 45 54  1  0  0  0
 47 48  1  0  0  0
 48 49  4  0  0  0
 48 50  4  0  0  0
 49 51  4  0  0  0
 50 52  4  0  0  0
 51 53  4  0  0  0
 52 53  4  0  0  0
 54 55  1  0  0  0
 55 56  1  0  0  0
 55 58  1  0  0  0
 56 57  2  0  0  0
 56 62  1  0  0  0
 58 59  1  0  0  0
 59 60  1  0  0  0
 59 61  2  0  0  0
 62 63  1  0  0  0
 63 64  1  0  0  0
 63 66  1  0  0  0
 64 65  1  0  0  0
 64 70  2  0  0  0
 66 67  1  0  0  0
 67 68  1  0  0  0
 67 69  1  0  0  0
  1 71  1  0  0  0
  1 72  1  0  0  0
  1 73  1  0  0  0
  2 74  1  0  0  0
  5 75  1  0  0  0
  5 76  1  0  0  0
  6 77  1  0  0  0
  6 78  1  0  0  0
  9 79  1  0  0  0
  9 80  1  0  0  0
 10 81  1  0  0  0
 11 82  1  0  0  0
 14 83  1  0  0  0
 14 84  1  0  0  0
 15 85  1  0  0  0
 16 86  1  0  0  0
 16 87  1  0  0  0
 16 88  1  0  0  0
 17 89  1  0  0  0
 17 90  1  0  0  0
 17 91  1  0  0  0
 18 92  1  0  0  0
 19 93  1  0  0  0
 22 94  1  0  0  0
 22 95  1  0  0  0
 23 96  1  0  0  0
 25 97  1  0  0  0
 28 98  1  0  0  0
 28 99  1  0  0  0
 29100  1  0  0  0
 29101  1  0  0  0
 30102  1  0  0  0
 30103  1  0  0  0
 31104  1  0  0  0
 32105  1  0  0  0
 35106  1  0  0  0
 35107  1  0  0  0
 35108  1  0  0  0
 37109  1  0  0  0
 40110  1  0  0  0
 40111  1  0  0  0
 41112  1  0  0  0
 41113  1  0  0  0
 42114  1  0  0  0
 42115  1  0  0  0
 43116  1  0  0  0
 44117  1  0  0  0
 47118  1  0  0  0
 47119  1  0  0  0
 49120  1  0  0  0
 50121  1  0  0  0
 51122  1  0  0  0
 52123  1  0  0  0
 53124  1  0  0  0
 54125  1  0  0  0
 55126  1  0  0  0
 58127  1  0  0  0
 58128  1  0  0  0
 60129  1  0  0  0
 62130  1  0  0  0
 63131  1  0  0  0
 65132  1  0  0  0
 66133  1  0  0  0
 66134  1  0  0  0
 67135  1  0  0  0
 68136  1  0  0  0
 68137  1  0  0  0
 68138  1  0  0  0
 69139  1  0  0  0
 69140  1  0  0  0
 69141  1  0  0  0
M  END
$$$$
