1d4j_ligand
  -I-interpret- 

 83 87  0  0  0  0  0  0  0  0999 V2000
   13.7860   23.1580    4.9980 C   0  0  0  0  0
   14.3350   22.9260    3.6740 O   0  0  0  0  0
   14.7900   22.7960    6.0680 C   0  0  0  0  0
   14.2510   23.0570    7.3900 O   0  0  0  0  0
   15.2630   23.5020    8.3230 C   0  0  0  0  0
   16.1900   22.3940    8.8110 C   0  0  0  0  0
   15.6450   21.2450    9.5150 C   0  0  0  0  0
   16.5100   20.1500    9.8810 C   0  0  0  0  0
   17.9120   20.2020    9.5550 C   0  0  0  0  0
   18.4580   21.3460    8.8680 C   0  0  0  0  0
   17.6020   22.4390    8.4980 C   0  0  0  0  0
   15.0120   21.3170    5.9040 C   0  0  0  0  0
   14.0880   20.5230    6.1020 O   0  0  0  0  0
   16.2780   20.8780    5.5500 N   0  0  0  0  0
   16.5960   19.4710    5.3810 C   0  0  0  0  0
   16.5490   19.0090    3.9430 C   0  0  0  0  0
   15.6850   19.4260    2.8670 C   0  0  0  0  0
   15.8420   18.8290    1.5600 C   0  0  0  0  0
   16.8610   17.8330    1.3390 C   0  0  0  0  0
   17.7340   17.4190    2.4050 C   0  0  0  0  0
   17.5660   18.0170    3.7000 C   0  0  0  0  0
   18.3520   17.7670    4.9470 C   0  0  0  0  0
   18.0250   19.0360    5.7700 C   0  0  0  0  0
   18.9240   20.0960    5.4380 O   0  0  0  0  0
   13.3030   24.5970    5.0800 C   0  0  0  0  0
   14.3440   25.4340    4.5040 O   0  0  0  0  0
   11.9720   24.8490    4.3690 C   0  0  0  0  0
   11.8030   23.9510    3.2470 O   0  0  0  0  0
   11.0930   24.5490    2.1420 C   0  0  0  0  0
    9.5860   24.4550    2.2690 C   0  0  0  0  0
    8.7630   25.6170    2.0110 C   0  0  0  0  0
    7.3430   25.5500    2.2250 C   0  0  0  0  0
    6.7430   24.3280    2.6850 C   0  0  0  0  0
    7.5520   23.1650    2.9330 C   0  0  0  0  0
    8.9700   23.2200    2.7260 C   0  0  0  0  0
   10.8600   24.6210    5.3830 C   0  0  0  0  0
   10.7510   23.5470    5.9790 O   0  0  0  0  0
    9.9250   25.6200    5.5690 N   0  0  0  0  0
    8.8250   25.4870    6.5160 C   0  0  0  0  0
    8.4100   26.6510    7.2790 C   0  0  0  0  0
    7.1440   27.2950    7.0090 C   0  0  0  0  0
    6.7630   28.4770    7.7560 C   0  0  0  0  0
    7.6410   29.0110    8.7650 C   0  0  0  0  0
    8.8990   28.3760    9.0380 C   0  0  0  0  0
    9.2820   27.1930    8.2920 C   0  0  0  0  0
   11.0590   26.2810    8.6730 Cl  0  0  0  0  0
    6.3390   26.8210    6.0630 F   0  0  0  0  0
   12.9278   22.5099    5.1755 H   0  0  0  0  0
   14.6434   22.0191    3.6111 H   0  0  0  0  0
   15.7067   23.3777    5.9711 H   0  0  0  0  0
   14.7448   23.8971    9.1967 H   0  0  0  0  0
   15.8811   24.2342    7.8034 H   0  0  0  0  0
   14.5848   21.2108    9.7659 H   0  0  0  0  0
   16.1031   19.2843   10.4036 H   0  0  0  0  0
   18.5635   19.3723    9.8291 H   0  0  0  0  0
   19.5209   21.3817    8.6292 H   0  0  0  0  0
   18.0171   23.3039    7.9805 H   0  0  0  0  0
   17.0138   21.5688    5.4027 H   0  0  0  0  0
   15.8372   19.0429    6.0360 H   0  0  0  0  0
   14.9207   20.1842    3.0374 H   0  0  0  0  0
   15.1897   19.1319    0.7409 H   0  0  0  0  0
   16.9714   17.3875    0.3504 H   0  0  0  0  0
   18.5056   16.6684    2.2337 H   0  0  0  0  0
   19.4178   17.6206    4.7716 H   0  0  0  0  0
   18.0896   16.8373    5.4518 H   0  0  0  0  0
   18.1145   18.8226    6.8352 H   0  0  0  0  0
   19.8189   19.8409    5.6741 H   0  0  0  0  0
   13.1159   24.8335    6.1275 H   0  0  0  0  0
   15.1739   25.2679    4.9571 H   0  0  0  0  0
   11.9474   25.8676    3.9817 H   0  0  0  0  0
   11.3796   24.0103    1.2388 H   0  0  0  0  0
   11.3542   25.6070    2.1192 H   0  0  0  0  0
    9.2188   26.5410    1.6552 H   0  0  0  0  0
    6.7216   26.4259    2.0384 H   0  0  0  0  0
    5.6661   24.2821    2.8473 H   0  0  0  0  0
    7.0872   22.2415    3.2784 H   0  0  0  0  0
    9.5840   22.3386    2.9107 H   0  0  0  0  0
   10.0068   26.4794    5.0257 H   0  0  0  0  0
    9.1795   24.7743    7.2606 H   0  0  0  0  0
    7.9594   25.2266    5.9069 H   0  0  0  0  0
    5.8088   28.9634    7.5535 H   0  0  0  0  0
    7.3492   29.9005    9.3233 H   0  0  0  0  0
    9.5628   28.7808    9.8019 H   0  0  0  0  0
  1  2  1  0  0  0
  1  3  1  0  0  0
  1 25  1  0  0  0
  3  4  1  0  0  0
  3 12  1  0  0  0
  4  5  1  0  0  0
  5  6  1  0  0  0
  6  7  4  0  0  0
  6 11  4  0  0  0
  7  8  4  0  0  0
  8  9  4  0  0  0
  9 10  4  0  0  0
 10 11  4  0  0  0
 12 13  2  0  0  0
 12 14  1  0  0  0
 14 15  1  0  0  0
 15 16  1  0  0  0
 15 23  1  0  0  0
 16 17  4  0  0  0
 16 21  4  0  0  0
 17 18  4  0  0  0
 18 19  4  0  0  0
 19 20  4  0  0  0
 20 21  4  0  0  0
 21 22  1  0  0  0
 22 23  1  0  0  0
 23 24  1  0  0  0
 25 26  1  0  0  0
 25 27  1  0  0  0
 27 28  1  0  0  0
 27 36  1  0  0  0
 28 29  1  0  0  0
 29 30  1  0  0  0
 30 31  4  0  0  0
 30 35  4  0  0  0
 31 32  4  0  0  0
 32 33  4  0  0  0
 33 34  4  0  0  0
 34 35  4  0  0  0
 36 37  2  0  0  0
 36 38  1  0  0  0
 38 39  1  0  0  0
 39 40  1  0  0  0
 40 41  4  0  0  0
 40 45  4  0  0  0
 41 42  4  0  0  0
 41 47  1  0  0  0
 42 43  4  0  0  0
 43 44  4  0  0  0
 44 45  4  0  0  0
 45 46  1  0  0  0
  1 48  1  0  0  0
  2 49  1  0  0  0
  3 50  1  0  0  0
  5 51  1  0  0  0
  5 52  1  0  0  0
  7 53  1  0  0  0
  8 54  1  0  0  0
  9 55  1  0  0  0
 10 56  1  0  0  0
 11 57  1  0  0  0
 14 58  1  0  0  0
 15 59  1  0  0  0
 17 60  1  0  0  0
 18 61  1  0  0  0
 19 62  1  0  0  0
 20 63  1  0  0  0
 22 64  1  0  0  0
 22 65  1  0  0  0
 23 66  1  0  0  0
 24 67  1  0  0  0
 25 68  1  0  0  0
 26 69  1  0  0  0
 27 70  1  0  0  0
 29 71  1  0  0  0
 29 72  1  0  0  0
 31 73  1  0  0  0
 32 74  1  0  0  0
 33 75  1  0  0  0
 34 76  1  0  0  0
 35 77  1  0  0  0
 38 78  1  0  0  0
 39 79  1  0  0  0
 39 80  1  0  0  0
 42 81  1  0  0  0
 43 82  1  0  0  0
 44 83  1  0  0  0
M  END
$$$$
