5nsx_ligand
  -I-interpret- 

 29 32  0  0  0  0  0  0  0  0999 V2000
    6.1140   36.7380    9.6480 C   0  0  0  0  0
    6.0830   37.1840    8.3550 C   0  0  0  0  0
    5.6580   36.6340    7.2180 C   0  0  0  0  0
    5.8430   37.5190    6.2190 N   0  0  0  0  0
    6.3750   38.5400    6.6720 N   0  0  0  0  0
    6.5580   38.3900    7.9870 C   0  0  0  0  0
    7.0740   39.2200    8.8740 C   0  0  0  0  0
    7.1540   38.8340   10.2210 C   0  0  0  0  0
    6.7060   37.5630   10.6300 C   0  0  0  0  0
    6.7340   37.2440   12.0210 C   0  0  0  0  0
    5.9090   36.3200   12.5030 N   0  0  0  0  0
    5.8540   36.0310   13.8240 C   0  0  0  0  0
    4.9990   35.0340   14.2200 C   0  0  0  0  0
    4.8710   34.7260   15.5790 C   0  0  0  0  0
    5.6260   35.4570   16.5180 C   0  0  0  0  0
    6.5240   36.4600   16.1150 C   0  0  0  0  0
    6.6110   36.7610   14.7570 C   0  0  0  0  0
    7.4710   37.7390   14.2580 C   0  0  0  0  0
    8.2300   38.3780   14.9470 O   0  0  0  0  0
    7.4990   37.9880   12.8980 N   0  0  0  0  0
    5.6919   35.7689    9.9141 H   0  0  0  0  0
    5.2323   35.6360    7.1137 H   0  0  0  0  0
    7.4360   40.1997    8.5622 H   0  0  0  0  0
    7.5665   39.5240   10.9571 H   0  0  0  0  0
    4.4209   34.4832   13.4780 H   0  0  0  0  0
    4.1981   33.9334   15.9061 H   0  0  0  0  0
    5.5109   35.2397   17.5799 H   0  0  0  0  0
    7.1364   36.9887   16.8454 H   0  0  0  0  0
    8.0943   38.7333   12.5366 H   0  0  0  0  0
  1  2  4  0  0  0
  1  9  4  0  0  0
  2  3  4  0  0  0
  2  6  4  0  0  0
  3  4  4  0  0  0
  4  5  4  0  0  0
  5  6  4  0  0  0
  6  7  4  0  0  0
  7  8  4  0  0  0
  8  9  4  0  0  0
  9 10  1  0  0  0
 10 11  2  0  0  0
 10 20  1  0  0  0
 11 12  1  0  0  0
 12 13  4  0  0  0
 12 17  4  0  0  0
 13 14  4  0  0  0
 14 15  4  0  0  0
 15 16  4  0  0  0
 16 17  4  0  0  0
 17 18  1  0  0  0
 18 19  2  0  0  0
 18 20  1  0  0  0
  1 21  1  0  0  0
  3 22  1  0  0  0
  7 23  1  0  0  0
  8 24  1  0  0  0
 13 25  1  0  0  0
 14 26  1  0  0  0
 15 27  1  0  0  0
 16 28  1  0  0  0
 20 29  1  0  0  0
M  END
$$$$
