2qpq_ligand
  -I-interpret- 

 21 20  0  0  0  0  0  0  0  0999 V2000
   17.7600   -2.0790   63.6750 C   0  0  0  0  0
   17.1360   -2.7910   64.4770 O   0  0  0  0  0
   19.0030   -2.2360   63.5230 O   0  0  0  0  0
   17.0030   -1.0520   62.8600 C   0  0  0  0  0
   16.4370   -1.7890   61.6530 C   0  0  0  0  0
   15.5850   -2.8390   62.1850 O   0  0  0  0  0
   17.5140   -2.4930   60.7930 C   0  0  0  0  0
   16.9450   -3.0100   59.4810 C   0  0  0  0  0
   17.7080   -3.4240   58.5750 O   0  0  0  0  0
   15.7030   -3.0450   59.2730 O   0  0  0  0  0
   15.6000   -0.7730   60.8610 C   0  0  0  0  0
   16.0900    0.1050   60.1210 O   0  0  0  0  0
   14.3760   -0.8310   60.9510 O   0  0  0  0  0
   19.3262   -1.6096   62.8712 H   0  0  0  0  0
   17.6599   -0.2399   62.5485 H   0  0  0  0  0
   16.2061   -0.5973   63.4484 H   0  0  0  0  0
   14.8976   -2.4471   62.7286 H   0  0  0  0  0
   17.8990   -3.3429   61.3566 H   0  0  0  0  0
   18.2954   -1.7684   60.5642 H   0  0  0  0  0
   15.2412   -2.7017   60.0414 H   0  0  0  0  0
   17.0476    0.0407   60.1409 H   0  0  0  0  0
  1  2  2  0  0  0
  1  3  1  0  0  0
  1  4  1  0  0  0
  4  5  1  0  0  0
  5  6  1  0  0  0
  5  7  1  0  0  0
  5 11  1  0  0  0
  7  8  1  0  0  0
  8  9  2  0  0  0
  8 10  1  0  0  0
 11 12  1  0  0  0
 11 13  2  0  0  0
  3 14  1  0  0  0
  4 15  1  0  0  0
  4 16  1  0  0  0
  6 17  1  0  0  0
  7 18  1  0  0  0
  7 19  1  0  0  0
 10 20  1  0  0  0
 12 21  1  0  0  0
M  END
$$$$
