3gxz_ligand
  -I-interpret- 

225234  0  0  0  0  0  0  0  0999 V2000
   15.3610   64.4960  142.2250 C   0  0  0  0  0
   14.3830   64.2890  141.0360 C   0  0  0  0  0
   14.9180   64.9040  139.7260 C   0  0  0  0  0
   16.3900   64.5630  139.3700 C   0  0  0  0  0
   17.2190   64.2360  140.6430 C   0  0  0  0  0
   18.6670   64.7170  140.5070 C   0  0  0  0  0
   13.2910   62.1590  141.7500 C   0  0  0  0  0
   12.9060   60.7280  141.4290 C   0  0  0  0  0
   13.9510   62.8850  140.8320 N   0  0  0  0  0
   14.8420   65.5030  143.0950 O   0  0  0  0  0
   14.7020   66.3000  139.7800 O   0  0  0  0  0
   16.3170   63.5340  138.3520 O   0  0  0  0  0
   16.6980   64.8440  141.8290 O   0  0  0  0  0
   19.4640   63.6130  140.1210 O   0  0  0  0  0
   13.0070   62.6540  142.8470 O   0  0  0  0  0
   17.5050   62.9900  137.6470 C   0  0  0  0  0
   18.5210   63.9640  136.9840 C   0  0  0  0  0
   19.5150   63.1610  136.1030 C   0  0  0  0  0
   20.1160   62.0280  136.9900 C   0  0  0  0  0
   18.9340   61.1250  137.3580 C   0  0  0  0  0
   19.3340   59.7760  137.9690 C   0  0  0  0  0
   17.7500   65.1650  134.8950 C   0  0  0  0  0
   18.5050   64.1970  134.0050 C   0  0  0  0  0
   17.8060   65.0120  136.2380 N   0  0  0  0  0
   20.4410   64.0340  135.4690 O   0  0  0  0  0
   21.3740   61.3880  136.6460 O   0  0  0  0  0
   18.1790   61.8990  138.2890 O   0  0  0  0  0
   20.7410   59.6970  138.0140 O   0  0  0  0  0
   17.0960   66.0910  134.3860 O   0  0  0  0  0
   21.5170   60.3870  135.5710 C   0  0  0  0  0
   21.3590   58.8910  135.9620 C   0  0  0  0  0
   21.8590   58.0570  134.7610 C   0  0  0  0  0
   20.9720   58.3550  133.5430 C   0  0  0  0  0
   20.3280   59.7710  133.5100 C   0  0  0  0  0
   18.8380   59.8260  133.8410 C   0  0  0  0  0
   20.0430   58.5250  136.3690 O   0  0  0  0  0
   22.0120   56.6550  135.0080 O   0  0  0  0  0
   21.7730   58.1850  132.3940 O   0  0  0  0  0
   20.9530   60.7630  134.3100 O   0  0  0  0  0
   18.2760   58.8080  133.0610 O   0  0  0  0  0
   23.1140   56.0760  134.2340 C   0  0  0  0  0
   22.8630   54.6650  133.6730 C   0  0  0  0  0
   22.7520   53.6820  134.8360 C   0  0  0  0  0
   24.1280   53.6430  135.4720 C   0  0  0  0  0
   24.5490   55.0470  135.8950 C   0  0  0  0  0
   26.0230   54.9940  136.2740 C   0  0  0  0  0
   24.0050   54.2530  132.9370 O   0  0  0  0  0
   22.4080   52.3660  134.4580 O   0  0  0  0  0
   24.1490   52.7490  136.5710 O   0  0  0  0  0
   24.3610   56.0570  134.9040 O   0  0  0  0  0
   26.3850   56.2600  136.7690 O   0  0  0  0  0
   24.0120   54.5600  131.5240 C   0  0  0  0  0
   24.7430   53.4520  130.7520 C   0  0  0  0  0
   26.2680   53.5340  130.8700 C   0  0  0  0  0
   26.7420   54.9340  130.5200 C   0  0  0  0  0
   25.9910   55.9250  131.3910 C   0  0  0  0  0
   26.4460   57.3300  131.0390 C   0  0  0  0  0
   24.4500   53.4930  129.3680 O   0  0  0  0  0
   26.8870   52.6380  129.9790 O   0  0  0  0  0
   28.1410   55.0560  130.7240 O   0  0  0  0  0
   24.5880   55.8200  131.2080 O   0  0  0  0  0
   25.6290   58.2190  131.7720 O   0  0  0  0  0
   23.0600   53.7740  129.1080 C   0  0  0  0  0
   22.8620   53.5440  127.6090 C   0  0  0  0  0
   23.0390   54.8520  126.8590 C   0  0  0  0  0
   21.9460   55.8100  127.3040 C   0  0  0  0  0
   21.7910   55.8650  128.8270 C   0  0  0  0  0
   20.3850   55.5700  129.3330 C   0  0  0  0  0
   21.5870   52.9910  127.3560 O   0  0  0  0  0
   22.9720   54.6490  125.4630 O   0  0  0  0  0
   22.3060   57.0820  126.8310 O   0  0  0  0  0
   22.7290   55.0850  129.5520 O   0  0  0  0  0
   20.4370   55.3240  130.7280 O   0  0  0  0  0
   17.1280   59.2520  132.3200 C   0  0  0  0  0
   16.1480   58.0830  132.4210 C   0  0  0  0  0
   16.8020   56.8710  131.7540 C   0  0  0  0  0
   17.0470   57.2280  130.2880 C   0  0  0  0  0
   17.9650   58.4490  130.2260 C   0  0  0  0  0
   18.1380   58.8670  128.7780 C   0  0  0  0  0
   14.8920   58.3790  131.8420 O   0  0  0  0  0
   16.0560   55.6810  131.9460 O   0  0  0  0  0
   17.6370   56.1490  129.5980 O   0  0  0  0  0
   17.4500   59.5480  130.9700 O   0  0  0  0  0
   19.0550   59.9320  128.7240 O   0  0  0  0  0
   16.0440   55.3900  133.3590 C   0  0  0  0  0
   16.1290   53.8900  133.5360 C   0  0  0  0  0
   14.8080   53.3360  133.0280 C   0  0  0  0  0
   13.6840   53.7590  133.9720 C   0  0  0  0  0
   13.9250   55.1260  134.6420 C   0  0  0  0  0
   14.2040   55.0140  136.1450 C   0  0  0  0  0
   16.3390   53.5800  134.8970 O   0  0  0  0  0
   14.8760   51.9320  132.8780 O   0  0  0  0  0
   12.4690   53.8060  133.2510 O   0  0  0  0  0
   14.9040   55.9500  134.0050 O   0  0  0  0  0
   14.0280   56.2760  136.7550 O   0  0  0  0  0
   19.1350   60.3630  127.3490 C   0  0  0  0  0
   20.5100   60.0920  126.7190 C   0  0  0  0  0
   21.5000   61.2220  127.0690 C   0  0  0  0  0
   20.9810   62.2430  128.1060 C   0  0  0  0  0
   19.4780   62.5540  128.0830 C   0  0  0  0  0
   19.2050   64.0080  127.6840 C   0  0  0  0  0
   20.3950   59.8850  125.3020 O   0  0  0  0  0
   21.9280   61.9080  125.9100 O   0  0  0  0  0
   21.3170   61.8280  129.4170 O   0  0  0  0  0
   18.7890   61.7170  127.1830 O   0  0  0  0  0
   17.8140   64.1490  127.4760 O   0  0  0  0  0
   20.2110   58.4780  124.9180 C   0  0  0  0  0
   20.7240   58.2080  123.4810 C   0  0  0  0  0
   20.1200   56.9950  122.7450 C   0  0  0  0  0
   18.6330   56.7820  123.0530 C   0  0  0  0  0
   18.0720   57.8620  123.9750 C   0  0  0  0  0
   16.6420   57.5040  124.3940 C   0  0  0  0  0
   22.1350   58.0630  123.4790 O   0  0  0  0  0
   20.8780   55.8100  122.9750 O   0  0  0  0  0
   17.8940   56.7650  121.8470 O   0  0  0  0  0
   18.8920   57.9750  125.1270 O   0  0  0  0  0
   15.7740   58.6060  124.2220 O   0  0  0  0  0
   15.4349   63.5354  142.7348 H   0  0  0  0  0
   13.4843   64.8332  141.3262 H   0  0  0  0  0
   14.3608   64.4455  138.9090 H   0  0  0  0  0
   16.9474   65.4028  138.9552 H   0  0  0  0  0
   17.1645   63.1511  140.7335 H   0  0  0  0  0
   19.0191   65.1202  141.4565 H   0  0  0  0  0
   18.7314   65.5063  139.7580 H   0  0  0  0  0
   13.3777   60.0565  142.1464 H   0  0  0  0  0
   11.8228   60.6225  141.4885 H   0  0  0  0  0
   13.2417   60.4799  140.4221 H   0  0  0  0  0
   14.1685   62.4428  139.9389 H   0  0  0  0  0
   13.9491   65.2680  143.3579 H   0  0  0  0  0
   13.7840   66.4723  140.0020 H   0  0  0  0  0
   20.3771   63.8951  140.0304 H   0  0  0  0  0
   16.9516   62.5928  136.7961 H   0  0  0  0  0
   19.1086   64.4725  137.7484 H   0  0  0  0  0
   19.0314   62.6670  135.2603 H   0  0  0  0  0
   20.5660   62.4972  137.8649 H   0  0  0  0  0
   18.3784   60.8463  136.4626 H   0  0  0  0  0
   18.9376   58.9629  137.3608 H   0  0  0  0  0
   18.9269   59.6916  138.9766 H   0  0  0  0  0
   17.8029   63.6929  133.3408 H   0  0  0  0  0
   19.2374   64.7456  133.4128 H   0  0  0  0  0
   19.0155   63.4591  134.6238 H   0  0  0  0  0
   17.2967   65.6984  136.7947 H   0  0  0  0  0
   21.0462   63.5197  134.9297 H   0  0  0  0  0
   21.0011   58.8552  138.3953 H   0  0  0  0  0
   22.5914   60.4261  135.3912 H   0  0  0  0  0
   21.9557   58.6922  136.8523 H   0  0  0  0  0
   22.8824   58.3733  134.5591 H   0  0  0  0  0
   20.1277   57.6674  133.5921 H   0  0  0  0  0
   20.4875   60.0012  132.4566 H   0  0  0  0  0
   18.4031   60.8010  133.6209 H   0  0  0  0  0
   18.6470   59.6828  134.9045 H   0  0  0  0  0
   20.0265   57.5916  136.5929 H   0  0  0  0  0
   21.2484   58.3640  131.6102 H   0  0  0  0  0
   23.1586   56.7768  133.4003 H   0  0  0  0  0
   21.9615   54.6823  133.0606 H   0  0  0  0  0
   21.9545   54.0221  135.4966 H   0  0  0  0  0
   24.8442   53.2771  134.7362 H   0  0  0  0  0
   23.9044   55.3318  136.7265 H   0  0  0  0  0
   26.6287   54.7403  135.4040 H   0  0  0  0  0
   26.1918   54.2288  137.0317 H   0  0  0  0  0
   22.3583   51.8121  135.2405 H   0  0  0  0  0
   25.0275   52.7398  136.9579 H   0  0  0  0  0
   27.3127   56.2526  137.0157 H   0  0  0  0  0
   22.9659   54.6163  131.2232 H   0  0  0  0  0
   24.3845   52.5295  131.2088 H   0  0  0  0  0
   26.5338   53.2815  131.8965 H   0  0  0  0  0
   26.5432   55.1371  129.4677 H   0  0  0  0  0
   26.2084   55.7029  132.4358 H   0  0  0  0  0
   26.3523   57.5109  129.9682 H   0  0  0  0  0
   27.4969   57.4718  131.2914 H   0  0  0  0  0
   27.8403   52.7058  130.0695 H   0  0  0  0  0
   28.4198   55.9463  130.4975 H   0  0  0  0  0
   25.8860   59.1231  131.5765 H   0  0  0  0  0
   22.3803   53.1238  129.6587 H   0  0  0  0  0
   23.6121   52.8351  127.2583 H   0  0  0  0  0
   24.0208   55.2690  127.0832 H   0  0  0  0  0
   20.9903   55.4694  126.9055 H   0  0  0  0  0
   22.0076   56.9137  129.0304 H   0  0  0  0  0
   19.9868   54.6943  128.8205 H   0  0  0  0  0
   19.7370   56.4238  129.1349 H   0  0  0  0  0
   21.4806   52.8537  126.4118 H   0  0  0  0  0
   23.0865   55.4891  125.0127 H   0  0  0  0  0
   21.6380   57.7201  127.0921 H   0  0  0  0  0
   19.5528   55.1374  131.0521 H   0  0  0  0  0
   16.7152   60.1797  132.7162 H   0  0  0  0  0
   15.9403   57.8736  133.4703 H   0  0  0  0  0
   17.7603   56.6462  132.2223 H   0  0  0  0  0
   16.0925   57.4504  129.8109 H   0  0  0  0  0
   18.9214   58.1683  130.6672 H   0  0  0  0  0
   17.1793   59.1819  128.3659 H   0  0  0  0  0
   18.5103   58.0270  128.1915 H   0  0  0  0  0
   14.3133   57.6181  131.9295 H   0  0  0  0  0
   17.7807   56.3968  128.6817 H   0  0  0  0  0
   16.9056   55.8549  133.8382 H   0  0  0  0  0
   16.9622   53.4529  132.9857 H   0  0  0  0  0
   14.5963   53.7465  132.0407 H   0  0  0  0  0
   13.6464   53.0181  134.7706 H   0  0  0  0  0
   12.9731   55.6398  134.5077 H   0  0  0  0  0
   15.2291   54.6771  136.2990 H   0  0  0  0  0
   13.5131   54.2975  136.5892 H   0  0  0  0  0
   16.3920   52.6273  135.0025 H   0  0  0  0  0
   14.0327   51.6044  132.5569 H   0  0  0  0  0
   11.7588   54.0715  133.8399 H   0  0  0  0  0
   14.2034   56.2026  137.6960 H   0  0  0  0  0
   18.3977   59.7580  126.8214 H   0  0  0  0  0
   20.9115   59.1703  127.1401 H   0  0  0  0  0
   22.3394   60.7074  127.5365 H   0  0  0  0  0
   21.4797   63.1663  127.8111 H   0  0  0  0  0
   19.1200   62.3793  129.0976 H   0  0  0  0  0
   19.7495   64.2576  126.7734 H   0  0  0  0  0
   19.5389   64.6840  128.4712 H   0  0  0  0  0
   22.5413   62.6032  126.1592 H   0  0  0  0  0
   20.9884   62.4714  130.0492 H   0  0  0  0  0
   17.6194   65.0548  127.2244 H   0  0  0  0  0
   20.8322   57.9067  125.6078 H   0  0  0  0  0
   20.3896   59.0866  122.9293 H   0  0  0  0  0
   20.1786   57.2276  121.6817 H   0  0  0  0  0
   18.5415   55.8259  123.5683 H   0  0  0  0  0
   18.0583   58.8133  123.4430 H   0  0  0  0  0
   16.6459   57.2224  125.4470 H   0  0  0  0  0
   16.2905   56.6810  123.7717 H   0  0  0  0  0
   22.4372   57.8965  122.5831 H   0  0  0  0  0
   20.4751   55.0772  122.5036 H   0  0  0  0  0
   16.9641   56.6315  122.0447 H   0  0  0  0  0
   14.8864   58.3577  124.4905 H   0  0  0  0  0
  2  1  1  0  0  0
  1 10  1  0  0  0
 13  1  1  0  0  0
  3  2  1  0  0  0
  2  9  1  0  0  0
  4  3  1  0  0  0
  3 11  1  0  0  0
  4  5  1  0  0  0
 12  4  1  0  0  0
  5  6  1  0  0  0
  5 13  1  0  0  0
  6 14  1  0  0  0
  7  8  1  0  0  0
  9  7  1  0  0  0
  7 15  2  0  0  0
 16 12  1  0  0  0
 17 16  1  0  0  0
 16 27  1  0  0  0
 17 18  1  0  0  0
 24 17  1  0  0  0
 18 19  1  0  0  0
 18 25  1  0  0  0
 19 20  1  0  0  0
 19 26  1  0  0  0
 20 21  1  0  0  0
 27 20  1  0  0  0
 21 28  1  0  0  0
 22 23  1  0  0  0
 22 24  1  0  0  0
 22 29  2  0  0  0
 26 30  1  0  0  0
 30 31  1  0  0  0
 30 39  1  0  0  0
 31 32  1  0  0  0
 31 36  1  0  0  0
 32 33  1  0  0  0
 32 37  1  0  0  0
 33 34  1  0  0  0
 33 38  1  0  0  0
 34 35  1  0  0  0
 34 39  1  0  0  0
 35 40  1  0  0  0
 37 41  1  0  0  0
 40 74  1  0  0  0
 41 42  1  0  0  0
 41 50  1  0  0  0
 42 43  1  0  0  0
 42 47  1  0  0  0
 43 44  1  0  0  0
 43 48  1  0  0  0
 44 45  1  0  0  0
 44 49  1  0  0  0
 45 46  1  0  0  0
 45 50  1  0  0  0
 46 51  1  0  0  0
 47 52  1  0  0  0
 52 53  1  0  0  0
 52 61  1  0  0  0
 53 54  1  0  0  0
 53 58  1  0  0  0
 54 55  1  0  0  0
 54 59  1  0  0  0
 55 56  1  0  0  0
 55 60  1  0  0  0
 56 57  1  0  0  0
 56 61  1  0  0  0
 57 62  1  0  0  0
 58 63  1  0  0  0
 63 64  1  0  0  0
 63 72  1  0  0  0
 64 65  1  0  0  0
 64 69  1  0  0  0
 65 66  1  0  0  0
 65 70  1  0  0  0
 66 67  1  0  0  0
 66 71  1  0  0  0
 67 68  1  0  0  0
 67 72  1  0  0  0
 68 73  1  0  0  0
 74 75  1  0  0  0
 74 83  1  0  0  0
 75 76  1  0  0  0
 75 80  1  0  0  0
 76 77  1  0  0  0
 76 81  1  0  0  0
 77 78  1  0  0  0
 77 82  1  0  0  0
 78 79  1  0  0  0
 78 83  1  0  0  0
 79 84  1  0  0  0
 81 85  1  0  0  0
 84 96  1  0  0  0
 85 86  1  0  0  0
 85 94  1  0  0  0
 86 87  1  0  0  0
 86 91  1  0  0  0
 87 88  1  0  0  0
 87 92  1  0  0  0
 88 89  1  0  0  0
 88 93  1  0  0  0
 89 90  1  0  0  0
 89 94  1  0  0  0
 90 95  1  0  0  0
 96 97  1  0  0  0
 96105  1  0  0  0
 97 98  1  0  0  0
 97102  1  0  0  0
 98 99  1  0  0  0
 98103  1  0  0  0
 99100  1  0  0  0
 99104  1  0  0  0
100101  1  0  0  0
100105  1  0  0  0
101106  1  0  0  0
102107  1  0  0  0
107108  1  0  0  0
107116  1  0  0  0
108109  1  0  0  0
108113  1  0  0  0
109110  1  0  0  0
109114  1  0  0  0
110111  1  0  0  0
110115  1  0  0  0
111112  1  0  0  0
111116  1  0  0  0
112117  1  0  0  0
  1118  1  0  0  0
  2119  1  0  0  0
  3120  1  0  0  0
  4121  1  0  0  0
  5122  1  0  0  0
  6123  1  0  0  0
  6124  1  0  0  0
  8125  1  0  0  0
  8126  1  0  0  0
  8127  1  0  0  0
  9128  1  0  0  0
 10129  1  0  0  0
 11130  1  0  0  0
 14131  1  0  0  0
 16132  1  0  0  0
 17133  1  0  0  0
 18134  1  0  0  0
 19135  1  0  0  0
 20136  1  0  0  0
 21137  1  0  0  0
 21138  1  0  0  0
 23139  1  0  0  0
 23140  1  0  0  0
 23141  1  0  0  0
 24142  1  0  0  0
 25143  1  0  0  0
 28144  1  0  0  0
 30145  1  0  0  0
 31146  1  0  0  0
 32147  1  0  0  0
 33148  1  0  0  0
 34149  1  0  0  0
 35150  1  0  0  0
 35151  1  0  0  0
 36152  1  0  0  0
 38153  1  0  0  0
 41154  1  0  0  0
 42155  1  0  0  0
 43156  1  0  0  0
 44157  1  0  0  0
 45158  1  0  0  0
 46159  1  0  0  0
 46160  1  0  0  0
 48161  1  0  0  0
 49162  1  0  0  0
 51163  1  0  0  0
 52164  1  0  0  0
 53165  1  0  0  0
 54166  1  0  0  0
 55167  1  0  0  0
 56168  1  0  0  0
 57169  1  0  0  0
 57170  1  0  0  0
 59171  1  0  0  0
 60172  1  0  0  0
 62173  1  0  0  0
 63174  1  0  0  0
 64175  1  0  0  0
 65176  1  0  0  0
 66177  1  0  0  0
 67178  1  0  0  0
 68179  1  0  0  0
 68180  1  0  0  0
 69181  1  0  0  0
 70182  1  0  0  0
 71183  1  0  0  0
 73184  1  0  0  0
 74185  1  0  0  0
 75186  1  0  0  0
 76187  1  0  0  0
 77188  1  0  0  0
 78189  1  0  0  0
 79190  1  0  0  0
 79191  1  0  0  0
 80192  1  0  0  0
 82193  1  0  0  0
 85194  1  0  0  0
 86195  1  0  0  0
 87196  1  0  0  0
 88197  1  0  0  0
 89198  1  0  0  0
 90199  1  0  0  0
 90200  1  0  0  0
 91201  1  0  0  0
 92202  1  0  0  0
 93203  1  0  0  0
 95204  1  0  0  0
 96205  1  0  0  0
 97206  1  0  0  0
 98207  1  0  0  0
 99208  1  0  0  0
100209  1  0  0  0
101210  1  0  0  0
101211  1  0  0  0
103212  1  0  0  0
104213  1  0  0  0
106214  1  0  0  0
107215  1  0  0  0
108216  1  0  0  0
109217  1  0  0  0
110218  1  0  0  0
111219  1  0  0  0
112220  1  0  0  0
112221  1  0  0  0
113222  1  0  0  0
114223  1  0  0  0
115224  1  0  0  0
117225  1  0  0  0
M  END
$$$$
