### 
### Created by X-TOOL on Sun Sep  9 21:51:09 2018
### 

@<TRIPOS>MOLECULE
3gxz_ligand
  225   234     1     0     0
SMALL
GAST_HUCK


@<TRIPOS>ATOM
      1 C1         15.3610   64.4960  142.2250 C.3       1 NON         0.1823
      2 C2         14.3830   64.2890  141.0360 C.3       1 NON         0.1208
      3 C3         14.9180   64.9040  139.7260 C.3       1 NON         0.1114
      4 C4         16.3900   64.5630  139.3700 C.3       1 NON         0.1181
      5 C5         17.2190   64.2360  140.6430 C.3       1 NON         0.1133
      6 C6         18.6670   64.7170  140.5070 C.3       1 NON         0.0730
      7 C7         13.2910   62.1590  141.7500 C.2       1 NON         0.1733
      8 C8         12.9060   60.7280  141.4290 C.3       1 NON         0.0257
      9 N2         13.9510   62.8850  140.8320 N.am      1 NON        -0.2766
     10 O1         14.8420   65.5030  143.0950 O.3       1 NON        -0.3651
     11 O3         14.7020   66.3000  139.7800 O.3       1 NON        -0.3867
     12 O4         16.3170   63.5340  138.3520 O.3       1 NON        -0.3404
     13 O5         16.6980   64.8440  141.8290 O.3       1 NON        -0.3409
     14 O6         19.4640   63.6130  140.1210 O.3       1 NON        -0.3924
     15 O7         13.0070   62.6540  142.8470 O.2       1 NON        -0.3974
     16 C1         17.5050   62.9900  137.6470 C.3       1 NON         0.1854
     17 C2         18.5210   63.9640  136.9840 C.3       1 NON         0.1210
     18 C3         19.5150   63.1610  136.1030 C.3       1 NON         0.1114
     19 C4         20.1160   62.0280  136.9900 C.3       1 NON         0.1181
     20 C5         18.9340   61.1250  137.3580 C.3       1 NON         0.1134
     21 C6         19.3340   59.7760  137.9690 C.3       1 NON         0.0730
     22 C7         17.7500   65.1650  134.8950 C.2       1 NON         0.1733
     23 C8         18.5050   64.1970  134.0050 C.3       1 NON         0.0257
     24 N2         17.8060   65.0120  136.2380 N.am      1 NON        -0.2766
     25 O3         20.4410   64.0340  135.4690 O.3       1 NON        -0.3867
     26 O4         21.3740   61.3880  136.6460 O.3       1 NON        -0.3401
     27 O5         18.1790   61.8990  138.2890 O.3       1 NON        -0.3408
     28 O6         20.7410   59.6970  138.0140 O.3       1 NON        -0.3924
     29 O7         17.0960   66.0910  134.3860 O.2       1 NON        -0.3974
     30 C1         21.5170   60.3870  135.5710 C.3       1 NON         0.1884
     31 C2         21.3590   58.8910  135.9620 C.3       1 NON         0.1345
     32 C3         21.8590   58.0570  134.7610 C.3       1 NON         0.1206
     33 C4         20.9720   58.3550  133.5430 C.3       1 NON         0.1123
     34 C5         20.3280   59.7710  133.5100 C.3       1 NON         0.1134
     35 C6         18.8380   59.8260  133.8410 C.3       1 NON         0.0796
     36 O2         20.0430   58.5250  136.3690 O.3       1 NON        -0.3841
     37 O3         22.0120   56.6550  135.0080 O.3       1 NON        -0.3400
     38 O4         21.7730   58.1850  132.3940 O.3       1 NON        -0.3865
     39 O5         20.9530   60.7630  134.3100 O.3       1 NON        -0.3405
     40 O6         18.2760   58.8080  133.0610 O.3       1 NON        -0.3460
     41 C1         23.1140   56.0760  134.2340 C.3       1 NON         0.1888
     42 C2         22.8630   54.6650  133.6730 C.3       1 NON         0.1406
     43 C3         22.7520   53.6820  134.8360 C.3       1 NON         0.1144
     44 C4         24.1280   53.6430  135.4720 C.3       1 NON         0.1119
     45 C5         24.5490   55.0470  135.8950 C.3       1 NON         0.1130
     46 C6         26.0230   54.9940  136.2740 C.3       1 NON         0.0730
     47 O2         24.0050   54.2530  132.9370 O.3       1 NON        -0.3377
     48 O3         22.4080   52.3660  134.4580 O.3       1 NON        -0.3864
     49 O4         24.1490   52.7490  136.5710 O.3       1 NON        -0.3865
     50 O5         24.3610   56.0570  134.9040 O.3       1 NON        -0.3405
     51 O6         26.3850   56.2600  136.7690 O.3       1 NON        -0.3924
     52 C1         24.0120   54.5600  131.5240 C.3       1 NON         0.1889
     53 C2         24.7430   53.4520  130.7520 C.3       1 NON         0.1406
     54 C3         26.2680   53.5340  130.8700 C.3       1 NON         0.1144
     55 C4         26.7420   54.9340  130.5200 C.3       1 NON         0.1119
     56 C5         25.9910   55.9250  131.3910 C.3       1 NON         0.1130
     57 C6         26.4460   57.3300  131.0390 C.3       1 NON         0.0730
     58 O2         24.4500   53.4930  129.3680 O.3       1 NON        -0.3378
     59 O3         26.8870   52.6380  129.9790 O.3       1 NON        -0.3864
     60 O4         28.1410   55.0560  130.7240 O.3       1 NON        -0.3865
     61 O5         24.5880   55.8200  131.2080 O.3       1 NON        -0.3405
     62 O6         25.6290   58.2190  131.7720 O.3       1 NON        -0.3924
     63 C1         23.0600   53.7740  129.1080 C.3       1 NON         0.1885
     64 C2         22.8620   53.5440  127.6090 C.3       1 NON         0.1341
     65 C3         23.0390   54.8520  126.8590 C.3       1 NON         0.1141
     66 C4         21.9460   55.8100  127.3040 C.3       1 NON         0.1119
     67 C5         21.7910   55.8650  128.8270 C.3       1 NON         0.1130
     68 C6         20.3850   55.5700  129.3330 C.3       1 NON         0.0730
     69 O2         21.5870   52.9910  127.3560 O.3       1 NON        -0.3841
     70 O3         22.9720   54.6490  125.4630 O.3       1 NON        -0.3864
     71 O4         22.3060   57.0820  126.8310 O.3       1 NON        -0.3865
     72 O5         22.7290   55.0850  129.5520 O.3       1 NON        -0.3405
     73 O6         20.4370   55.3240  130.7280 O.3       1 NON        -0.3924
     74 C1         17.1280   59.2520  132.3200 C.3       1 NON         0.1880
     75 C2         16.1480   58.0830  132.4210 C.3       1 NON         0.1345
     76 C3         16.8020   56.8710  131.7540 C.3       1 NON         0.1206
     77 C4         17.0470   57.2280  130.2880 C.3       1 NON         0.1123
     78 C5         17.9650   58.4490  130.2260 C.3       1 NON         0.1134
     79 C6         18.1380   58.8670  128.7780 C.3       1 NON         0.0796
     80 O2         14.8920   58.3790  131.8420 O.3       1 NON        -0.3841
     81 O3         16.0560   55.6810  131.9460 O.3       1 NON        -0.3401
     82 O4         17.6370   56.1490  129.5980 O.3       1 NON        -0.3865
     83 O5         17.4500   59.5480  130.9700 O.3       1 NON        -0.3405
     84 O6         19.0550   59.9320  128.7240 O.3       1 NON        -0.3460
     85 C1         16.0440   55.3900  133.3590 C.3       1 NON         0.1884
     86 C2         16.1290   53.8900  133.5360 C.3       1 NON         0.1341
     87 C3         14.8080   53.3360  133.0280 C.3       1 NON         0.1141
     88 C4         13.6840   53.7590  133.9720 C.3       1 NON         0.1119
     89 C5         13.9250   55.1260  134.6420 C.3       1 NON         0.1130
     90 C6         14.2040   55.0140  136.1450 C.3       1 NON         0.0730
     91 O2         16.3390   53.5800  134.8970 O.3       1 NON        -0.3841
     92 O3         14.8760   51.9320  132.8780 O.3       1 NON        -0.3864
     93 O4         12.4690   53.8060  133.2510 O.3       1 NON        -0.3865
     94 O5         14.9040   55.9500  134.0050 O.3       1 NON        -0.3405
     95 O6         14.0280   56.2760  136.7550 O.3       1 NON        -0.3924
     96 C1         19.1350   60.3630  127.3490 C.3       1 NON         0.1884
     97 C2         20.5100   60.0920  126.7190 C.3       1 NON         0.1406
     98 C3         21.5000   61.2220  127.0690 C.3       1 NON         0.1144
     99 C4         20.9810   62.2430  128.1060 C.3       1 NON         0.1119
    100 C5         19.4780   62.5540  128.0830 C.3       1 NON         0.1130
    101 C6         19.2050   64.0080  127.6840 C.3       1 NON         0.0730
    102 O2         20.3950   59.8850  125.3020 O.3       1 NON        -0.3378
    103 O3         21.9280   61.9080  125.9100 O.3       1 NON        -0.3864
    104 O4         21.3170   61.8280  129.4170 O.3       1 NON        -0.3865
    105 O5         18.7890   61.7170  127.1830 O.3       1 NON        -0.3405
    106 O6         17.8140   64.1490  127.4760 O.3       1 NON        -0.3924
    107 C1         20.2110   58.4780  124.9180 C.3       1 NON         0.1885
    108 C2         20.7240   58.2080  123.4810 C.3       1 NON         0.1341
    109 C3         20.1200   56.9950  122.7450 C.3       1 NON         0.1141
    110 C4         18.6330   56.7820  123.0530 C.3       1 NON         0.1119
    111 C5         18.0720   57.8620  123.9750 C.3       1 NON         0.1130
    112 C6         16.6420   57.5040  124.3940 C.3       1 NON         0.0730
    113 O2         22.1350   58.0630  123.4790 O.3       1 NON        -0.3841
    114 O3         20.8780   55.8100  122.9750 O.3       1 NON        -0.3864
    115 O4         17.8940   56.7650  121.8470 O.3       1 NON        -0.3865
    116 O5         18.8920   57.9750  125.1270 O.3       1 NON        -0.3405
    117 O6         15.7740   58.6060  124.2220 O.3       1 NON        -0.3924
    118 H          15.4151   63.5483  142.7807 H         1 NON         0.0932
    119 H          13.4737   64.8511  141.2951 H         1 NON         0.0633
    120 H          14.3029   64.5007  138.9081 H         1 NON         0.0645
    121 H          16.8564   65.4485  138.9134 H         1 NON         0.0650
    122 H          17.2138   63.1440  140.7751 H         1 NON         0.0647
    123 H          19.0203   65.1127  141.4706 H         1 NON         0.0584
    124 H          18.7274   65.5055  139.7425 H         1 NON         0.0584
    125 H          12.3765   60.2894  142.2876 H         1 NON         0.0467
    126 H          13.8133   60.1423  141.2196 H         1 NON         0.0467
    127 H          12.2488   60.7141  140.5470 H         1 NON         0.0467
    128 H          14.1643   62.4515  139.9564 H         1 NON         0.1857
    129 H          14.8304   66.3372  142.6406 H         1 NON         0.2126
    130 H          13.7936   66.4705  139.9996 H         1 NON         0.2100
    131 H          19.1523   63.2739  139.2902 H         1 NON         0.2095
    132 H          17.0370   62.5111  136.7743 H         1 NON         0.0935
    133 H          19.0993   64.4560  137.7799 H         1 NON         0.0633
    134 H          18.9459   62.6730  135.2981 H         1 NON         0.0645
    135 H          20.3773   62.5386  137.9286 H         1 NON         0.0650
    136 H          18.3336   60.9267  136.4579 H         1 NON         0.0647
    137 H          18.9374   58.9577  137.3501 H         1 NON         0.0584
    138 H          18.9265   59.6961  138.9876 H         1 NON         0.0584
    139 H          18.3481   64.4695  132.9509 H         1 NON         0.0467
    140 H          18.1360   63.1754  134.1784 H         1 NON         0.0467
    141 H          19.5786   64.2439  134.2400 H         1 NON         0.0467
    142 H          17.3067   65.6849  136.7838 H         1 NON         0.1857
    143 H          19.9670   64.6800  134.9586 H         1 NON         0.2100
    144 H          21.0894   59.7680  137.1331 H         1 NON         0.2095
    145 H          22.5953   60.4436  135.3610 H         1 NON         0.0938
    146 H          22.0220   58.6943  136.8174 H         1 NON         0.0671
    147 H          22.8665   58.4284  134.5223 H         1 NON         0.0651
    148 H          20.1556   57.6180  133.5292 H         1 NON         0.0647
    149 H          20.4310   60.1012  132.4658 H         1 NON         0.0647
    150 H          18.4139   60.8042  133.5704 H         1 NON         0.0587
    151 H          18.6686   59.6363  134.9112 H         1 NON         0.0587
    152 H          19.7800   59.0624  137.1069 H         1 NON         0.2101
    153 H          22.1684   57.3214  132.4099 H         1 NON         0.2100
    154 H          23.2337   56.7398  133.3651 H         1 NON         0.0938
    155 H          21.9574   54.6508  133.0487 H         1 NON         0.0675
    156 H          22.0047   54.0516  135.5535 H         1 NON         0.0648
    157 H          24.8457   53.2794  134.7219 H         1 NON         0.0647
    158 H          23.9571   55.3285  136.7784 H         1 NON         0.0647
    159 H          26.6287   54.7512  135.3885 H         1 NON         0.0584
    160 H          26.1831   54.2295  137.0486 H         1 NON         0.0584
    161 H          23.0478   52.0387  133.8367 H         1 NON         0.2100
    162 H          25.0286   52.7078  136.9275 H         1 NON         0.2100
    163 H          27.3031   56.2527  137.0131 H         1 NON         0.2095
    164 H          22.9651   54.5822  131.1872 H         1 NON         0.0938
    165 H          24.4093   52.4866  131.1601 H         1 NON         0.0675
    166 H          26.5626   53.2897  131.9013 H         1 NON         0.0648
    167 H          26.5188   55.1381  129.4624 H         1 NON         0.0647
    168 H          26.2259   55.7210  132.4461 H         1 NON         0.0647
    169 H          26.3261   57.5078  129.9601 H         1 NON         0.0584
    170 H          27.5010   57.4676  131.3183 H         1 NON         0.0584
    171 H          26.6405   52.8579  129.0883 H         1 NON         0.2100
    172 H          28.5960   54.4303  130.1728 H         1 NON         0.2100
    173 H          24.7205   58.0869  131.5276 H         1 NON         0.2095
    174 H          22.4302   53.0616  129.6609 H         1 NON         0.0938
    175 H          23.6251   52.8333  127.2590 H         1 NON         0.0671
    176 H          24.0212   55.2803  127.1075 H         1 NON         0.0648
    177 H          20.9882   55.5003  126.8606 H         1 NON         0.0647
    178 H          21.9966   56.9117  129.0957 H         1 NON         0.0647
    179 H          19.9861   54.6841  128.8173 H         1 NON         0.0584
    180 H          19.7334   56.4339  129.1353 H         1 NON         0.0584
    181 H          21.4935   52.8265  126.4250 H         1 NON         0.2101
    182 H          22.1254   54.2815  125.2378 H         1 NON         0.2100
    183 H          22.4030   57.0516  125.8864 H         1 NON         0.2100
    184 H          21.0010   54.5783  130.8961 H         1 NON         0.2095
    185 H          16.6989   60.1512  132.7862 H         1 NON         0.0937
    186 H          15.9828   57.8553  133.4844 H         1 NON         0.0671
    187 H          17.7821   56.7098  132.2266 H         1 NON         0.0651
    188 H          16.0858   57.4714  129.8118 H         1 NON         0.0647
    189 H          18.9449   58.1724  130.6423 H         1 NON         0.0647
    190 H          17.1701   59.1905  128.3677 H         1 NON         0.0587
    191 H          18.5202   58.0190  128.1908 H         1 NON         0.0587
    192 H          14.5139   59.1340  132.2773 H         1 NON         0.2101
    193 H          18.4709   55.9356  129.9999 H         1 NON         0.2100
    194 H          16.9381   55.8416  133.8136 H         1 NON         0.0938
    195 H          16.9595   53.4819  132.9413 H         1 NON         0.0671
    196 H          14.6064   53.7717  132.0383 H         1 NON         0.0648
    197 H          13.6003   53.0007  134.7644 H         1 NON         0.0647
    198 H          12.9723   55.6677  134.5472 H         1 NON         0.0647
    199 H          15.2381   54.6731  136.3010 H         1 NON         0.0584
    200 H          13.5077   54.2903  136.5937 H         1 NON         0.0584
    201 H          15.6381   53.9543  135.4177 H         1 NON         0.2101
    202 H          15.0336   51.5314  133.7249 H         1 NON         0.2100
    203 H          12.3157   52.9654  132.8359 H         1 NON         0.2100
    204 H          13.1347   56.5698  136.6202 H         1 NON         0.2095
    205 H          18.3983   59.7682  126.7891 H         1 NON         0.0938
    206 H          20.9020   59.1620  127.1566 H         1 NON         0.0675
    207 H          22.3823   60.7374  127.5126 H         1 NON         0.0648
    208 H          21.5054   63.1878  127.9002 H         1 NON         0.0647
    209 H          19.0811   62.3861  129.0950 H         1 NON         0.0647
    210 H          19.7474   64.2493  126.7580 H         1 NON         0.0584
    211 H          19.5328   64.6837  128.4877 H         1 NON         0.0584
    212 H          22.2473   61.2808  125.2719 H         1 NON         0.2100
    213 H          20.8159   61.0525  129.6407 H         1 NON         0.2100
    214 H          17.5372   63.5604  126.7836 H         1 NON         0.2095
    215 H          20.8598   57.8970  125.5900 H         1 NON         0.0938
    216 H          20.4706   59.0993  122.8883 H         1 NON         0.0671
    217 H          20.1893   57.2145  121.6694 H         1 NON         0.0648
    218 H          18.5205   55.8083  123.5523 H         1 NON         0.0647
    219 H          18.0618   58.8236  123.4410 H         1 NON         0.0647
    220 H          16.6410   57.2070  125.4531 H         1 NON         0.0584
    221 H          16.2856   56.6655  123.7776 H         1 NON         0.0584
    222 H          22.3701   57.2576  123.9246 H         1 NON         0.2101
    223 H          21.7917   55.9761  122.7752 H         1 NON         0.2100
    224 H          18.2425   56.0932  121.2728 H         1 NON         0.2100
    225 H          14.8957   58.3603  124.4877 H         1 NON         0.2095
@<TRIPOS>BOND
     1    2    1 1  
     2    1   10 1  
     3   13    1 1  
     4    3    2 1  
     5    2    9 1  
     6    4    3 1  
     7    3   11 1  
     8    4    5 1  
     9   12    4 1  
    10    5    6 1  
    11    5   13 1  
    12    6   14 1  
    13    7    8 1  
    14    9    7 am 
    15    7   15 2  
    16   16   12 1  
    17   17   16 1  
    18   16   27 1  
    19   17   18 1  
    20   24   17 1  
    21   18   19 1  
    22   18   25 1  
    23   19   20 1  
    24   19   26 1  
    25   20   21 1  
    26   27   20 1  
    27   21   28 1  
    28   22   23 1  
    29   22   24 am 
    30   22   29 2  
    31   26   30 1  
    32   30   31 1  
    33   30   39 1  
    34   31   32 1  
    35   31   36 1  
    36   32   33 1  
    37   32   37 1  
    38   33   34 1  
    39   33   38 1  
    40   34   35 1  
    41   34   39 1  
    42   35   40 1  
    43   37   41 1  
    44   40   74 1  
    45   41   42 1  
    46   41   50 1  
    47   42   43 1  
    48   42   47 1  
    49   43   44 1  
    50   43   48 1  
    51   44   45 1  
    52   44   49 1  
    53   45   46 1  
    54   45   50 1  
    55   46   51 1  
    56   47   52 1  
    57   52   53 1  
    58   52   61 1  
    59   53   54 1  
    60   53   58 1  
    61   54   55 1  
    62   54   59 1  
    63   55   56 1  
    64   55   60 1  
    65   56   57 1  
    66   56   61 1  
    67   57   62 1  
    68   58   63 1  
    69   63   64 1  
    70   63   72 1  
    71   64   65 1  
    72   64   69 1  
    73   65   66 1  
    74   65   70 1  
    75   66   67 1  
    76   66   71 1  
    77   67   68 1  
    78   67   72 1  
    79   68   73 1  
    80   74   75 1  
    81   74   83 1  
    82   75   76 1  
    83   75   80 1  
    84   76   77 1  
    85   76   81 1  
    86   77   78 1  
    87   77   82 1  
    88   78   79 1  
    89   78   83 1  
    90   79   84 1  
    91   81   85 1  
    92   84   96 1  
    93   85   86 1  
    94   85   94 1  
    95   86   87 1  
    96   86   91 1  
    97   87   88 1  
    98   87   92 1  
    99   88   89 1  
   100   88   93 1  
   101   89   90 1  
   102   89   94 1  
   103   90   95 1  
   104   96   97 1  
   105   96  105 1  
   106   97   98 1  
   107   97  102 1  
   108   98   99 1  
   109   98  103 1  
   110   99  100 1  
   111   99  104 1  
   112  100  101 1  
   113  100  105 1  
   114  101  106 1  
   115  102  107 1  
   116  107  108 1  
   117  107  116 1  
   118  108  109 1  
   119  108  113 1  
   120  109  110 1  
   121  109  114 1  
   122  110  111 1  
   123  110  115 1  
   124  111  112 1  
   125  111  116 1  
   126  112  117 1  
   127    1  118 1  
   128    2  119 1  
   129    3  120 1  
   130    4  121 1  
   131    5  122 1  
   132    6  123 1  
   133    6  124 1  
   134    8  125 1  
   135    8  126 1  
   136    8  127 1  
   137    9  128 1  
   138   10  129 1  
   139   11  130 1  
   140   14  131 1  
   141   16  132 1  
   142   17  133 1  
   143   18  134 1  
   144   19  135 1  
   145   20  136 1  
   146   21  137 1  
   147   21  138 1  
   148   23  139 1  
   149   23  140 1  
   150   23  141 1  
   151   24  142 1  
   152   25  143 1  
   153   28  144 1  
   154   30  145 1  
   155   31  146 1  
   156   32  147 1  
   157   33  148 1  
   158   34  149 1  
   159   35  150 1  
   160   35  151 1  
   161   36  152 1  
   162   38  153 1  
   163   41  154 1  
   164   42  155 1  
   165   43  156 1  
   166   44  157 1  
   167   45  158 1  
   168   46  159 1  
   169   46  160 1  
   170   48  161 1  
   171   49  162 1  
   172   51  163 1  
   173   52  164 1  
   174   53  165 1  
   175   54  166 1  
   176   55  167 1  
   177   56  168 1  
   178   57  169 1  
   179   57  170 1  
   180   59  171 1  
   181   60  172 1  
   182   62  173 1  
   183   63  174 1  
   184   64  175 1  
   185   65  176 1  
   186   66  177 1  
   187   67  178 1  
   188   68  179 1  
   189   68  180 1  
   190   69  181 1  
   191   70  182 1  
   192   71  183 1  
   193   73  184 1  
   194   74  185 1  
   195   75  186 1  
   196   76  187 1  
   197   77  188 1  
   198   78  189 1  
   199   79  190 1  
   200   79  191 1  
   201   80  192 1  
   202   82  193 1  
   203   85  194 1  
   204   86  195 1  
   205   87  196 1  
   206   88  197 1  
   207   89  198 1  
   208   90  199 1  
   209   90  200 1  
   210   91  201 1  
   211   92  202 1  
   212   93  203 1  
   213   95  204 1  
   214   96  205 1  
   215   97  206 1  
   216   98  207 1  
   217   99  208 1  
   218  100  209 1  
   219  101  210 1  
   220  101  211 1  
   221  103  212 1  
   222  104  213 1  
   223  106  214 1  
   224  107  215 1  
   225  108  216 1  
   226  109  217 1  
   227  110  218 1  
   228  111  219 1  
   229  112  220 1  
   230  112  221 1  
   231  113  222 1  
   232  114  223 1  
   233  115  224 1  
   234  117  225 1  
@<TRIPOS>SUBSTRUCTURE
     1 NON         1

