3kdb_ligand
  -I-interpret- 

 86 90  0  0  0  0  0  0  0  0999 V2000
   16.1720   19.7610   18.2460 O   0  0  0  0  0
   14.9720   19.9080   18.3080 C   0  0  0  0  0
   14.1210   18.7160   18.6630 C   0  0  0  0  0
   12.8480   19.0910   19.2010 O   0  0  0  0  0
   11.9660   18.0460   19.3610 C   0  0  0  0  0
   11.9330   17.2500   20.6250 C   0  0  0  0  0
   12.8260   17.5730   21.7930 C   0  0  0  0  0
   11.0230   16.2040   20.7220 C   0  0  0  0  0
   10.1730   15.8850   19.6630 C   0  0  0  0  0
   10.1750   16.5910   18.4640 C   0  0  0  0  0
   11.0410   17.6600   18.2630 C   0  0  0  0  0
   11.0320   18.4150   16.9610 C   0  0  0  0  0
   14.3550   21.0610   18.0380 N   0  0  0  0  0
   15.1500   22.1960   17.5930 C   0  0  0  0  0
   14.5770   22.8430   16.3280 C   0  0  0  0  0
   14.3260   21.7680   15.2890 C   0  0  0  0  0
   15.3940   21.2690   14.5290 C   0  0  0  0  0
   15.1610   20.2750   13.5830 C   0  0  0  0  0
   13.8700   19.7640   13.3920 C   0  0  0  0  0
   12.8060   20.2570   14.1440 C   0  0  0  0  0
   13.0280   21.2600   15.0940 C   0  0  0  0  0
   15.2960   23.1430   18.7730 C   0  0  0  0  0
   14.1300   23.9720   18.8530 O   0  0  0  0  0
   16.5830   23.9190   18.6370 C   0  0  0  0  0
   16.6550   24.9000   17.9030 O   0  0  0  0  0
   17.6330   23.4390   19.3100 N   0  0  0  0  0
   17.7160   22.1440   20.0110 C   0  0  0  0  0
   19.3760   21.9540   20.5290 S   0  0  0  0  0
   19.7650   23.6750   20.5160 C   0  0  0  0  0
   21.2650   23.8740   20.3390 C   0  0  0  0  0
   19.2720   24.3150   21.8220 C   0  0  0  0  0
   18.8770   24.2240   19.3950 C   0  0  0  0  0
   19.5800   24.2790   18.0540 C   0  0  0  0  0
   19.5990   23.3000   17.3280 O   0  0  0  0  0
   20.1530   25.4420   17.7460 N   0  0  0  0  0
   21.0700   25.5670   16.6340 C   0  0  0  0  0
   20.4350   26.1520   15.4360 C   0  0  0  0  0
   19.1930   25.8790   14.8800 C   0  0  0  0  0
   18.8180   26.5860   13.7300 C   0  0  0  0  0
   19.6550   27.5570   13.1540 C   0  0  0  0  0
   20.9130   27.8650   13.6900 C   0  0  0  0  0
   21.3060   27.1690   14.8340 C   0  0  0  0  0
   22.5760   27.2890   15.6250 C   0  0  0  0  0
   22.1730   26.6000   16.9330 C   0  0  0  0  0
   21.6980   27.6060   17.8290 O   0  0  0  0  0
   14.6500   18.1395   19.4219 H   0  0  0  0  0
   13.9455   18.1449   17.7513 H   0  0  0  0  0
   13.8684   17.4976   21.4835 H   0  0  0  0  0
   12.6201   18.5867   22.1367 H   0  0  0  0  0
   12.6338   16.8677   22.6016 H   0  0  0  0  0
   10.9726   15.6223   21.6424 H   0  0  0  0  0
    9.4809   15.0510   19.7792 H   0  0  0  0  0
    9.4868   16.3015   17.6698 H   0  0  0  0  0
   10.7835   19.4594   17.1498 H   0  0  0  0  0
   12.0174   18.3524   16.4994 H   0  0  0  0  0
   10.2886   17.9781   16.2942 H   0  0  0  0  0
   13.3438   21.1449   18.1418 H   0  0  0  0  0
   16.1448   21.8756   17.2836 H   0  0  0  0  0
   15.2863   23.5721   15.9363 H   0  0  0  0  0
   13.6405   23.3471   16.5667 H   0  0  0  0  0
   16.4013   21.6577   14.6785 H   0  0  0  0  0
   15.9886   19.8912   12.9864 H   0  0  0  0  0
   13.6983   18.9801   12.6544 H   0  0  0  0  0
   11.8015   19.8618   13.9925 H   0  0  0  0  0
   12.1964   21.6476   15.6825 H   0  0  0  0  0
   15.3621   22.5974   19.7143 H   0  0  0  0  0
   14.2163   24.5727   19.5968 H   0  0  0  0  0
   17.4200   21.3275   19.3524 H   0  0  0  0  0
   17.0389   22.1218   20.8649 H   0  0  0  0  0
   21.7936   23.3943   21.1628 H   0  0  0  0  0
   21.5804   23.4292   19.3952 H   0  0  0  0  0
   21.4905   24.9404   20.3328 H   0  0  0  0  0
   18.1930   24.1842   21.9045 H   0  0  0  0  0
   19.7633   23.8350   22.6684 H   0  0  0  0  0
   19.5110   25.3785   21.8168 H   0  0  0  0  0
   18.6363   25.2561   19.6497 H   0  0  0  0  0
   19.9395   26.2654   18.3088 H   0  0  0  0  0
   21.4307   24.5505   16.4770 H   0  0  0  0  0
   18.5295   25.1372   15.3245 H   0  0  0  0  0
   17.8520   26.3775   13.2701 H   0  0  0  0  0
   19.3157   28.0865   12.2637 H   0  0  0  0  0
   21.5570   28.6162   13.2327 H   0  0  0  0  0
   22.9189   28.3155   15.7551 H   0  0  0  0  0
   23.4421   26.8398   15.1389 H   0  0  0  0  0
   23.0177   26.0803   17.3851 H   0  0  0  0  0
   22.4004   28.2374   18.0008 H   0  0  0  0  0
  1  2  2  0  0  0
  2  3  1  0  0  0
  2 13  1  0  0  0
  3  4  1  0  0  0
  4  5  1  0  0  0
  5  6  4  0  0  0
  5 11  4  0  0  0
  6  7  1  0  0  0
  6  8  4  0  0  0
  8  9  4  0  0  0
  9 10  4  0  0  0
 10 11  4  0  0  0
 11 12  1  0  0  0
 13 14  1  0  0  0
 14 15  1  0  0  0
 14 22  1  0  0  0
 15 16  1  0  0  0
 16 17  4  0  0  0
 16 21  4  0  0  0
 17 18  4  0  0  0
 18 19  4  0  0  0
 19 20  4  0  0  0
 20 21  4  0  0  0
 22 23  1  0  0  0
 22 24  1  0  0  0
 24 25  2  0  0  0
 24 26  1  0  0  0
 26 27  1  0  0  0
 26 32  1  0  0  0
 27 28  1  0  0  0
 28 29  1  0  0  0
 29 30  1  0  0  0
 29 31  1  0  0  0
 29 32  1  0  0  0
 32 33  1  0  0  0
 33 34  2  0  0  0
 33 35  1  0  0  0
 35 36  1  0  0  0
 36 37  1  0  0  0
 36 44  1  0  0  0
 37 38  4  0  0  0
 37 42  4  0  0  0
 38 39  4  0  0  0
 39 40  4  0  0  0
 40 41  4  0  0  0
 41 42  4  0  0  0
 42 43  1  0  0  0
 43 44  1  0  0  0
 44 45  1  0  0  0
  3 46  1  0  0  0
  3 47  1  0  0  0
  7 48  1  0  0  0
  7 49  1  0  0  0
  7 50  1  0  0  0
  8 51  1  0  0  0
  9 52  1  0  0  0
 10 53  1  0  0  0
 12 54  1  0  0  0
 12 55  1  0  0  0
 12 56  1  0  0  0
 13 57  1  0  0  0
 14 58  1  0  0  0
 15 59  1  0  0  0
 15 60  1  0  0  0
 17 61  1  0  0  0
 18 62  1  0  0  0
 19 63  1  0  0  0
 20 64  1  0  0  0
 21 65  1  0  0  0
 22 66  1  0  0  0
 23 67  1  0  0  0
 27 68  1  0  0  0
 27 69  1  0  0  0
 30 70  1  0  0  0
 30 71  1  0  0  0
 30 72  1  0  0  0
 31 73  1  0  0  0
 31 74  1  0  0  0
 31 75  1  0  0  0
 32 76  1  0  0  0
 35 77  1  0  0  0
 36 78  1  0  0  0
 38 79  1  0  0  0
 39 80  1  0  0  0
 40 81  1  0  0  0
 41 82  1  0  0  0
 43 83  1  0  0  0
 43 84  1  0  0  0
 44 85  1  0  0  0
 45 86  1  0  0  0
M  END
$$$$
