2j50_ligand
  -I-interpret- 

 65 69  0  0  0  0  0  0  0  0999 V2000
   26.1750   36.7030   24.3730 N   0  0  0  0  0
   27.9040   39.4280   26.1480 N   0  0  0  0  0
   25.8050   39.8180   26.3570 C   0  0  0  0  0
   27.0480   40.2780   26.6680 N   0  0  0  0  0
   24.7320   40.5390   26.7920 N   0  0  0  0  0
   23.3860   40.2720   26.6200 C   0  0  0  0  0
   22.3970   41.2730   27.1970 C   0  0  0  0  0
   22.9650   39.2870   26.0400 O   0  0  0  0  0
   22.7860   42.4430   27.8930 C   0  0  0  0  0
   21.8200   43.3460   28.4160 C   0  0  0  0  0
   20.0270   41.9220   27.5480 C   0  0  0  0  0
   20.9910   41.0300   27.0320 C   0  0  0  0  0
   27.3070   38.4420   25.5130 C   0  0  0  0  0
   25.9790   38.6240   25.6050 C   0  0  0  0  0
   25.1590   37.5880   24.9280 C   0  0  0  0  0
   27.5230   37.1890   24.7220 C   0  0  0  0  0
   19.3500   44.0150   28.7910 N   0  0  0  0  0
   18.1270   44.1130   27.8930 C   0  0  0  0  0
   17.8010   45.4680   27.1860 C   0  0  0  0  0
   18.0720   46.6500   28.0240 N   0  3  0  0  0
   19.4730   46.6410   28.4580 C   0  0  0  0  0
   19.8610   45.3540   29.2440 C   0  0  0  0  0
   17.7480   47.8910   27.3140 C   0  0  0  0  0
   20.3960   43.1260   28.2660 C   0  0  0  0  0
   25.9940   35.5270   23.5830 C   0  0  0  0  0
   26.9510   34.8780   23.1730 O   0  0  0  0  0
   23.8780   36.1590   22.2630 C   0  0  0  0  0
   22.5870   36.7000   22.5010 C   0  0  0  0  0
   24.6160   36.6400   21.1350 C   0  0  0  0  0
   22.0490   37.6890   21.6440 C   0  0  0  0  0
   24.0850   37.6240   20.2800 C   0  0  0  0  0
   24.4930   35.0940   23.2020 C   0  0  0  0  0
   22.7960   38.1580   20.5290 C   0  0  0  0  0
   23.3370   33.1330   22.3410 C   0  0  0  0  0
   24.5810   33.7900   22.5560 O   0  0  0  0  0
   24.9515   41.3878   27.3134 H   0  0  0  0  0
   23.8462   42.6556   28.0306 H   0  0  0  0  0
   22.1625   44.2337   28.9477 H   0  0  0  0  0
   18.9702   41.6984   27.4019 H   0  0  0  0  0
   20.6621   40.1388   26.4975 H   0  0  0  0  0
   24.4683   37.0799   25.6009 H   0  0  0  0  0
   24.4877   37.9975   24.1732 H   0  0  0  0  0
   28.1213   37.3785   23.8308 H   0  0  0  0  0
   28.0782   36.4466   25.2953 H   0  0  0  0  0
   17.2806   43.9356   28.5565 H   0  0  0  0  0
   18.3240   43.4156   27.0788 H   0  0  0  0  0
   16.7358   45.4683   26.9546 H   0  0  0  0  0
   18.4384   45.5388   26.3046 H   0  0  0  0  0
   17.4727   46.6081   28.8483 H   0  0  0  0  0
   19.6190   47.4920   29.1233 H   0  0  0  0  0
   20.0966   46.6842   27.5650 H   0  0  0  0  0
   20.9433   45.2839   29.1354 H   0  0  0  0  0
   19.4209   45.4942   30.2313 H   0  0  0  0  0
   18.3532   47.9595   26.4101 H   0  0  0  0  0
   16.6914   47.8896   27.0461 H   0  0  0  0  0
   17.9593   48.7433   27.9598 H   0  0  0  0  0
   22.0042   36.3497   23.3529 H   0  0  0  0  0
   25.6085   36.2365   20.9341 H   0  0  0  0  0
   21.0560   38.0937   21.8398 H   0  0  0  0  0
   24.6650   37.9752   19.4266 H   0  0  0  0  0
   23.8496   35.0259   24.0792 H   0  0  0  0  0
   22.3809   38.9217   19.8713 H   0  0  0  0  0
   22.8423   32.9719   23.2988 H   0  0  0  0  0
   22.7056   33.7526   21.7042 H   0  0  0  0  0
   23.5136   32.1730   21.8558 H   0  0  0  0  0
  1 15  1  0  0  0
  1 16  1  0  0  0
 25  1  1  0  0  0
  2  4  4  0  0  0
 13  2  4  0  0  0
  3  4  4  0  0  0
  3  5  1  0  0  0
 14  3  4  0  0  0
  5  6  1  0  0  0
  6  7  1  0  0  0
  6  8  2  0  0  0
  7  9  4  0  0  0
  7 12  4  0  0  0
  9 10  4  0  0  0
 10 24  4  0  0  0
 12 11  4  0  0  0
 11 24  4  0  0  0
 13 14  4  0  0  0
 16 13  1  0  0  0
 15 14  1  0  0  0
 17 18  1  0  0  0
 17 22  1  0  0  0
 24 17  1  0  0  0
 18 19  1  0  0  0
 19 20  1  0  0  0
 21 20  1  0  0  0
 20 23  1  0  0  0
 22 21  1  0  0  0
 25 26  2  0  0  0
 32 25  1  0  0  0
 27 28  4  0  0  0
 27 29  4  0  0  0
 27 32  1  0  0  0
 28 30  4  0  0  0
 29 31  4  0  0  0
 30 33  4  0  0  0
 31 33  4  0  0  0
 32 35  1  0  0  0
 35 34  1  0  0  0
  5 36  1  0  0  0
  9 37  1  0  0  0
 10 38  1  0  0  0
 11 39  1  0  0  0
 12 40  1  0  0  0
 15 41  1  0  0  0
 15 42  1  0  0  0
 16 43  1  0  0  0
 16 44  1  0  0  0
 18 45  1  0  0  0
 18 46  1  0  0  0
 19 47  1  0  0  0
 19 48  1  0  0  0
 20 49  1  0  0  0
 21 50  1  0  0  0
 21 51  1  0  0  0
 22 52  1  0  0  0
 22 53  1  0  0  0
 23 54  1  0  0  0
 23 55  1  0  0  0
 23 56  1  0  0  0
 28 57  1  0  0  0
 29 58  1  0  0  0
 30 59  1  0  0  0
 31 60  1  0  0  0
 32 61  1  0  0  0
 33 62  1  0  0  0
 34 63  1  0  0  0
 34 64  1  0  0  0
 34 65  1  0  0  0
M  END
$$$$
