5zk9_ligand
  -I-interpret- 

261262  0  0  0  0  0  0  0  0999 V2000
  -60.9000  -57.0960   96.5250 C   0  0  0  0  0
  -61.8200  -57.8470   96.8160 O   0  0  0  0  0
  -59.4840  -57.4870   96.9330 C   0  0  0  0  0
  -61.1910  -55.9670   95.8610 N   0  0  0  0  0
  -60.2160  -55.0010   95.4110 C   0  0  0  0  0
  -59.6870  -54.1800   96.5710 C   0  0  0  0  0
  -60.3770  -53.9820   97.5580 O   0  0  0  0  0
  -60.8160  -54.0990   94.3190 C   0  0  0  0  0
  -61.2260  -54.8580   93.0560 C   0  0  0  0  0
  -60.0770  -55.6880   92.4990 C   0  0  0  0  0
  -60.3460  -56.3480   91.2200 N   0  0  0  0  0
  -60.2850  -55.7690   90.0210 C   0  0  0  0  0
  -60.5320  -56.5010   88.9310 N   0  0  0  0  0
  -59.9920  -54.4700   89.8960 N   0  0  0  0  0
  -58.4450  -53.7220   96.4420 N   0  0  0  0  0
  -57.8080  -52.9140   97.4730 C   0  0  0  0  0
  -58.0430  -51.4490   97.1180 C   0  0  0  0  0
  -57.5600  -50.9750   96.0880 O   0  0  0  0  0
  -56.2990  -53.1940   97.5920 C   0  0  0  0  0
  -56.0420  -54.6950   97.7970 C   0  0  0  0  0
  -55.7090  -52.3830   98.7510 C   0  0  0  0  0
  -54.5910  -55.0900   97.6560 C   0  0  0  0  0
  -58.8190  -50.7640   97.9520 N   0  0  0  0  0
  -59.1960  -49.3770   97.7280 C   0  0  0  0  0
  -58.6610  -48.5710   98.9030 C   0  0  0  0  0
  -58.6820  -49.0500  100.0380 O   0  0  0  0  0
  -60.7410  -49.2340   97.6060 C   0  0  0  0  0
  -61.2340  -49.6190   96.2080 C   0  0  0  0  0
  -61.1950  -47.7940   97.8170 C   0  0  0  0  0
  -60.9020  -50.9970   95.7360 C   0  0  0  0  0
  -58.1690  -47.3620   98.6240 N   0  0  0  0  0
  -57.8130  -46.3970   99.6580 C   0  0  0  0  0
  -58.5220  -45.0880   99.3800 C   0  0  0  0  0
  -58.4600  -44.5730   98.2510 O   0  0  0  0  0
  -56.3130  -46.1240   99.7080 C   0  0  0  0  0
  -55.5030  -47.3400  100.0480 C   0  0  0  0  0
  -55.3600  -47.7600  101.3700 C   0  0  0  0  0
  -54.9180  -48.1070   99.0480 C   0  0  0  0  0
  -54.6300  -48.9050  101.6850 C   0  0  0  0  0
  -54.1830  -49.2510   99.3560 C   0  0  0  0  0
  -54.0460  -49.6500  100.6800 C   0  0  0  0  0
  -53.3150  -50.7910  101.0040 O   0  0  0  0  0
  -59.1440  -44.5400  100.4170 N   0  0  0  0  0
  -59.6610  -43.1840  100.3540 C   0  0  0  0  0
  -58.5010  -42.2100  100.2940 C   0  0  0  0  0
  -57.3680  -42.5470  100.6570 O   0  0  0  0  0
  -60.5070  -42.8820  101.5950 C   0  0  0  0  0
  -59.6930  -42.8830  102.7630 O   0  0  0  0  0
  -58.8000  -40.9860   99.8670 N   0  0  0  0  0
  -57.8700  -39.8890   99.9440 C   0  0  0  0  0
  -57.2160  -39.7270  101.3520 C   0  0  0  0  0
  -55.9900  -39.6160  101.4380 O   0  0  0  0  0
  -58.5960  -38.6090   99.5090 C   0  0  0  0  0
  -57.7290  -37.3820   99.5420 C   0  0  0  0  0
  -58.4560  -36.1900   98.9560 C   0  0  0  0  0
  -57.5250  -35.0910   98.8950 N   0  0  0  0  0
  -57.2140  -34.2790   99.9030 C   0  0  0  0  0
  -56.3080  -33.3190   99.6980 N   0  0  0  0  0
  -57.7860  -34.4010  101.1080 N   0  0  0  0  0
  -56.5440  -40.6670  104.1440 C   0  0  0  0  0
  -58.0100  -39.7100  102.4530 N   0  0  0  0  0
  -55.4610  -40.3720  104.6820 O   0  0  0  0  0
  -57.5540  -39.5710  103.8320 C   0  0  0  0  0
  -58.7990  -39.7480  104.7060 C   0  0  0  0  0
  -58.2630  -41.0810  106.8430 C   0  0  0  0  0
  -57.7170  -40.9620  108.2490 C   0  0  0  0  0
  -58.5230  -39.7140  106.2180 C   0  0  0  0  0
  -57.0040  -38.1460  103.9950 C   0  0  0  0  0
  -56.8620  -41.8650  103.8390 N   0  0  0  0  0
  -55.9800  -43.0150  104.1050 C   0  0  0  0  0
  -54.6110  -42.8520  103.4580 C   0  0  0  0  0
  -53.5810  -43.1180  104.0990 O   0  0  0  0  0
  -56.6330  -44.2760  103.5500 C   0  0  0  0  0
  -57.6520  -44.9340  104.4580 C   0  0  0  0  0
  -58.2230  -46.1930  103.8180 C   0  0  0  0  0
  -58.9800  -46.1240  102.8340 O   0  0  0  0  0
  -57.8410  -47.3460  104.3490 N   0  0  0  0  0
  -54.6110  -42.4310  102.1920 N   0  0  0  0  0
  -53.3560  -42.2230  101.4690 C   0  0  0  0  0
  -52.5270  -41.1190  102.0670 C   0  0  0  0  0
  -51.3340  -41.3020  102.2870 O   0  0  0  0  0
  -53.6000  -41.9720   99.9840 C   0  0  0  0  0
  -54.2180  -43.1760   99.2730 C   0  0  0  0  0
  -54.6890  -42.7870   97.8760 C   0  0  0  0  0
  -53.2350  -44.3520   99.2170 C   0  0  0  0  0
  -53.1540  -39.9940  102.4220 N   0  0  0  0  0
  -52.3940  -38.8970  103.0260 C   0  0  0  0  0
  -51.8390  -39.2180  104.4220 C   0  0  0  0  0
  -50.7030  -38.8160  104.6870 O   0  0  0  0  0
  -53.2370  -37.6190  103.0630 C   0  0  0  0  0
  -53.6250  -37.0430  101.7010 C   0  0  0  0  0
  -54.5090  -35.8230  101.8700 C   0  0  0  0  0
  -52.4080  -36.7070  100.8670 C   0  0  0  0  0
  -50.8860  -41.1790  106.4800 C   0  0  0  0  0
  -52.5930  -39.9270  105.3110 N   0  0  0  0  0
  -49.9850  -41.0680  107.3410 O   0  0  0  0  0
  -52.1480  -40.3480  106.6410 C   0  0  0  0  0
  -53.1810  -41.3030  107.2350 C   0  0  0  0  0
  -55.3650  -41.7510  108.3890 C   0  0  0  0  0
  -56.6270  -41.1340  109.0220 C   0  0  0  0  0
  -54.4230  -40.6640  107.8690 C   0  0  0  0  0
  -51.8850  -39.1360  107.5610 C   0  0  0  0  0
  -50.7920  -41.9660  105.4820 N   0  0  0  0  0
  -49.6150  -42.8280  105.2950 C   0  0  0  0  0
  -48.3830  -42.1700  104.7040 C   0  0  0  0  0
  -47.3580  -42.8190  104.5860 O   0  0  0  0  0
  -50.0540  -44.0220  104.4340 C   0  0  0  0  0
  -50.9920  -45.0220  105.1240 C   0  0  0  0  0
  -51.6170  -45.9640  104.1110 C   0  0  0  0  0
  -50.2850  -45.8170  106.2170 C   0  0  0  0  0
  -48.4630  -40.8930  104.3470 N   0  0  0  0  0
  -47.2850  -40.1340  104.0150 C   0  0  0  0  0
  -46.4260  -39.9730  105.2950 C   0  0  0  0  0
  -45.2370  -39.8290  105.2200 O   0  0  0  0  0
  -47.6830  -38.7830  103.4240 C   0  0  0  0  0
  -46.5060  -37.9710  102.9040 C   0  0  0  0  0
  -46.9550  -36.6930  102.2040 C   0  0  0  0  0
  -45.7640  -35.9060  101.6680 C   0  0  0  0  0
  -45.0160  -35.1930  102.7480 N   0  3  0  0  0
  -47.0310  -40.0530  106.5800 N   0  0  0  0  0
  -59.4331  -57.5828   98.0176 H   0  0  0  0  0
  -59.2237  -58.4390   96.4703 H   0  0  0  0  0
  -58.7863  -56.7178   96.6018 H   0  0  0  0  0
  -62.1726  -55.7770   95.6592 H   0  0  0  0  0
  -59.3732  -55.5411   94.9796 H   0  0  0  0  0
  -60.0503  -53.3778   94.0332 H   0  0  0  0  0
  -61.7147  -53.6401   94.7311 H   0  0  0  0  0
  -61.5225  -54.1311   92.2998 H   0  0  0  0  0
  -62.0441  -55.5317   93.3108 H   0  0  0  0  0
  -59.8824  -56.4785   93.2238 H   0  0  0  0  0
  -59.2489  -55.0002   92.3277 H   0  0  0  0  0
  -60.6019  -57.3350   91.2490 H   0  0  0  0  0
  -60.7638  -57.4901   89.0226 H   0  0  0  0  0
  -59.9577  -54.0416   88.9709 H   0  0  0  0  0
  -59.8028  -53.9077   90.7257 H   0  0  0  0  0
  -57.9223  -53.9435   95.5946 H   0  0  0  0  0
  -58.2437  -53.1646   98.4402 H   0  0  0  0  0
  -55.8109  -52.8909   96.6657 H   0  0  0  0  0
  -56.6003  -55.2284   97.0276 H   0  0  0  0  0
  -56.3486  -54.9413   98.8136 H   0  0  0  0  0
  -55.8650  -51.3203   98.5656 H   0  0  0  0  0
  -56.2029  -52.6673   99.6802 H   0  0  0  0  0
  -54.6410  -52.5866   98.8286 H   0  0  0  0  0
  -54.2420  -54.8351   96.6554 H   0  0  0  0  0
  -53.9966  -54.5552   98.3968 H   0  0  0  0  0
  -54.4910  -56.1638   97.8145 H   0  0  0  0  0
  -59.1665  -51.2330   98.7885 H   0  0  0  0  0
  -58.7742  -49.0104   96.7922 H   0  0  0  0  0
  -61.1506  -49.8943   98.3704 H   0  0  0  0  0
  -60.7390  -48.9372   95.5165 H   0  0  0  0  0
  -62.3221  -49.5694   96.2489 H   0  0  0  0  0
  -60.8976  -47.4627   98.8120 H   0  0  0  0  0
  -60.7312  -47.1544   97.0660 H   0  0  0  0  0
  -62.2796  -47.7389   97.7234 H   0  0  0  0  0
  -59.8193  -51.1210   95.7136 H   0  0  0  0  0
  -61.3387  -51.7279   96.4166 H   0  0  0  0  0
  -61.3066  -51.1440   94.7346 H   0  0  0  0  0
  -58.0364  -47.1021   97.6466 H   0  0  0  0  0
  -58.1148  -46.8220  100.6153 H   0  0  0  0  0
  -56.1378  -45.3817  100.4867 H   0  0  0  0  0
  -56.0049  -45.7877   98.7180 H   0  0  0  0  0
  -55.8262  -47.1841  102.1694 H   0  0  0  0  0
  -55.0356  -47.8095   98.0060 H   0  0  0  0  0
  -54.5202  -49.2122  102.7250 H   0  0  0  0  0
  -53.7167  -49.8313   98.5598 H   0  0  0  0  0
  -52.9773  -51.1924  100.2000 H   0  0  0  0  0
  -59.2610  -45.0811  101.2737 H   0  0  0  0  0
  -60.2827  -43.0814   99.4646 H   0  0  0  0  0
  -61.2746  -43.6492  101.6966 H   0  0  0  0  0
  -60.9646  -41.8992  101.4821 H   0  0  0  0  0
  -60.2368  -42.6925  103.5308 H   0  0  0  0  0
  -59.7242  -40.8179   99.4695 H   0  0  0  0  0
  -57.0378  -40.0986   99.2720 H   0  0  0  0  0
  -59.4172  -38.4467  100.2071 H   0  0  0  0  0
  -58.9194  -38.7520   98.4779 H   0  0  0  0  0
  -56.8325  -37.5706   98.9514 H   0  0  0  0  0
  -57.4733  -37.1615  100.5784 H   0  0  0  0  0
  -59.3118  -35.9263   99.5774 H   0  0  0  0  0
  -58.8274  -36.4265   97.9589 H   0  0  0  0  0
  -57.0642  -34.9207   98.0011 H   0  0  0  0  0
  -55.8691  -33.2190   98.7827 H   0  0  0  0  0
  -57.5290  -33.7633  101.8615 H   0  0  0  0  0
  -58.4786  -35.1316  101.2722 H   0  0  0  0  0
  -59.0146  -39.8026  102.3029 H   0  0  0  0  0
  -59.2129  -40.7303  104.4782 H   0  0  0  0  0
  -59.4669  -38.9158  104.4838 H   0  0  0  0  0
  -59.2079  -41.6225  106.8874 H   0  0  0  0  0
  -57.5256  -41.6020  106.2323 H   0  0  0  0  0
  -58.5203  -40.5922  108.8863 H   0  0  0  0  0
  -59.4144  -39.3082  106.6965 H   0  0  0  0  0
  -57.6217  -39.1188  106.3650 H   0  0  0  0  0
  -56.6784  -37.9992  105.0248 H   0  0  0  0  0
  -56.1585  -38.0050  103.3216 H   0  0  0  0  0
  -57.7862  -37.4262  103.7538 H   0  0  0  0  0
  -57.7637  -42.0331  103.3928 H   0  0  0  0  0
  -55.8376  -43.0822  105.1836 H   0  0  0  0  0
  -55.8331  -45.0016  103.4027 H   0  0  0  0  0
  -57.1667  -43.9786  102.6474 H   0  0  0  0  0
  -58.4668  -44.2320  104.6351 H   0  0  0  0  0
  -57.1617  -45.2086  105.3920 H   0  0  0  0  0
  -58.1697  -48.2252  103.9497 H   0  0  0  0  0
  -57.2183  -47.3540  105.1569 H   0  0  0  0  0
  -55.4981  -42.2517  101.7216 H   0  0  0  0  0
  -52.7860  -43.1467  101.5689 H   0  0  0  0  0
  -52.6364  -41.7674   99.5174 H   0  0  0  0  0
  -54.2973  -41.1388   99.8966 H   0  0  0  0  0
  -55.0854  -43.5011   99.8475 H   0  0  0  0  0
  -55.4370  -41.9979   97.9528 H   0  0  0  0  0
  -53.8397  -42.4289   97.2942 H   0  0  0  0  0
  -55.1258  -43.6571   97.3859 H   0  0  0  0  0
  -52.3391  -44.0495   98.6748 H   0  0  0  0  0
  -52.9653  -44.6471  100.2311 H   0  0  0  0  0
  -53.7045  -45.1923   98.7054 H   0  0  0  0  0
  -54.1586  -39.8992  102.2730 H   0  0  0  0  0
  -51.5244  -38.7455  102.3866 H   0  0  0  0  0
  -52.6287  -36.8615  103.5572 H   0  0  0  0  0
  -54.1687  -37.8776  103.5662 H   0  0  0  0  0
  -54.1860  -37.8107  101.1681 H   0  0  0  0  0
  -55.4153  -36.1041  102.4064 H   0  0  0  0  0
  -53.9715  -35.0620  102.4358 H   0  0  0  0  0
  -54.7735  -35.4288  100.8888 H   0  0  0  0  0
  -51.8020  -35.9686  101.3920 H   0  0  0  0  0
  -51.8208  -37.6105  100.7030 H   0  0  0  0  0
  -52.7276  -36.3007   99.9074 H   0  0  0  0  0
  -53.5387  -40.1833  105.0276 H   0  0  0  0  0
  -52.6721  -41.8342  108.0394 H   0  0  0  0  0
  -53.5446  -41.9076  106.4041 H   0  0  0  0  0
  -55.6666  -42.3811  107.5522 H   0  0  0  0  0
  -54.8420  -42.3321  109.1485 H   0  0  0  0  0
  -56.6377  -40.8430  110.0724 H   0  0  0  0  0
  -54.9427  -40.0693  107.1177 H   0  0  0  0  0
  -54.1146  -40.0299  108.7002 H   0  0  0  0  0
  -51.5653  -39.4885  108.5417 H   0  0  0  0  0
  -51.1039  -38.5132  107.1250 H   0  0  0  0  0
  -52.8008  -38.5538  107.6635 H   0  0  0  0  0
  -51.5487  -41.9988  104.7988 H   0  0  0  0  0
  -49.2838  -43.1217  106.2911 H   0  0  0  0  0
  -49.1478  -44.5710  104.1781 H   0  0  0  0  0
  -50.6056  -43.6101  103.5889 H   0  0  0  0  0
  -51.7803  -44.4389  105.6001 H   0  0  0  0  0
  -52.1906  -45.3869  103.3857 H   0  0  0  0  0
  -50.8305  -46.5167  103.5972 H   0  0  0  0  0
  -52.2772  -46.6624  104.6253 H   0  0  0  0  0
  -49.4567  -46.3751  105.7805 H   0  0  0  0  0
  -49.9041  -45.1318  106.9743 H   0  0  0  0  0
  -50.9908  -46.5103  106.6745 H   0  0  0  0  0
  -49.3766  -40.4412  104.3072 H   0  0  0  0  0
  -46.6942  -40.6538  103.2607 H   0  0  0  0  0
  -48.1511  -38.2045  104.2204 H   0  0  0  0  0
  -48.3421  -38.9791  102.5783 H   0  0  0  0  0
  -45.9644  -38.5818  102.1817 H   0  0  0  0  0
  -45.8835  -37.6921  103.7542 H   0  0  0  0  0
  -47.4854  -36.0709  102.9249 H   0  0  0  0  0
  -47.5969  -36.9641  101.3658 H   0  0  0  0  0
  -46.1415  -35.1583  100.9705 H   0  0  0  0  0
  -45.0806  -36.6111  101.1948 H   0  0  0  0  0
  -44.2326  -34.6841  102.3384 H   0  0  0  0  0
  -45.6410  -34.5373  103.2169 H   0  0  0  0  0
  -44.6658  -35.8727  103.4231 H   0  0  0  0  0
  -46.4555  -39.9880  107.4196 H   0  0  0  0  0
  -48.0403  -40.1753  106.6618 H   0  0  0  0  0
  1  2  2  0  0  0
  1  3  1  0  0  0
  4  1  1  0  0  0
  5  4  1  0  0  0
  6  5  1  0  0  0
  5  8  1  0  0  0
  6  7  2  0  0  0
 15  6  1  0  0  0
  8  9  1  0  0  0
  9 10  1  0  0  0
 10 11  1  0  0  0
 11 12  1  0  0  0
 12 13  2  0  0  0
 12 14  1  0  0  0
 16 15  1  0  0  0
 17 16  1  0  0  0
 16 19  1  0  0  0
 17 18  2  0  0  0
 23 17  1  0  0  0
 19 20  1  0  0  0
 19 21  1  0  0  0
 20 22  1  0  0  0
 24 23  1  0  0  0
 25 24  1  0  0  0
 24 27  1  0  0  0
 25 26  2  0  0  0
 31 25  1  0  0  0
 27 28  1  0  0  0
 27 29  1  0  0  0
 28 30  1  0  0  0
 32 31  1  0  0  0
 33 32  1  0  0  0
 32 35  1  0  0  0
 33 34  2  0  0  0
 43 33  1  0  0  0
 35 36  1  0  0  0
 36 37  4  0  0  0
 36 38  4  0  0  0
 37 39  4  0  0  0
 38 40  4  0  0  0
 39 41  4  0  0  0
 40 41  4  0  0  0
 41 42  1  0  0  0
 44 43  1  0  0  0
 45 44  1  0  0  0
 44 47  1  0  0  0
 45 46  2  0  0  0
 49 45  1  0  0  0
 47 48  1  0  0  0
 50 49  1  0  0  0
 51 50  1  0  0  0
 50 53  1  0  0  0
 51 52  2  0  0  0
 61 51  1  0  0  0
 53 54  1  0  0  0
 54 55  1  0  0  0
 55 56  1  0  0  0
 56 57  1  0  0  0
 57 58  2  0  0  0
 57 59  1  0  0  0
 60 62  2  0  0  0
 60 63  1  0  0  0
 69 60  1  0  0  0
 63 61  1  0  0  0
 63 64  1  0  0  0
 63 68  1  0  0  0
 64 67  1  0  0  0
 65 66  1  0  0  0
 67 65  1  0  0  0
 66100  2  0  0  0
 70 69  1  0  0  0
 71 70  1  0  0  0
 70 73  1  0  0  0
 71 72  2  0  0  0
 78 71  1  0  0  0
 73 74  1  0  0  0
 74 75  1  0  0  0
 75 76  2  0  0  0
 75 77  1  0  0  0
 79 78  1  0  0  0
 80 79  1  0  0  0
 79 82  1  0  0  0
 80 81  2  0  0  0
 86 80  1  0  0  0
 82 83  1  0  0  0
 83 84  1  0  0  0
 83 85  1  0  0  0
 87 86  1  0  0  0
 88 87  1  0  0  0
 87 90  1  0  0  0
 88 89  2  0  0  0
 95 88  1  0  0  0
 90 91  1  0  0  0
 91 92  1  0  0  0
 91 93  1  0  0  0
 94 96  2  0  0  0
 97 94  1  0  0  0
 94103  1  0  0  0
 95 97  1  0  0  0
 97 98  1  0  0  0
 97102  1  0  0  0
 98101  1  0  0  0
100 99  1  0  0  0
 99101  1  0  0  0
103104  1  0  0  0
104105  1  0  0  0
104107  1  0  0  0
105106  2  0  0  0
105111  1  0  0  0
107108  1  0  0  0
108109  1  0  0  0
108110  1  0  0  0
111112  1  0  0  0
112113  1  0  0  0
112115  1  0  0  0
113114  2  0  0  0
113120  1  0  0  0
115116  1  0  0  0
116117  1  0  0  0
117118  1  0  0  0
118119  1  0  0  0
  3121  1  0  0  0
  3122  1  0  0  0
  3123  1  0  0  0
  4124  1  0  0  0
  5125  1  0  0  0
  8126  1  0  0  0
  8127  1  0  0  0
  9128  1  0  0  0
  9129  1  0  0  0
 10130  1  0  0  0
 10131  1  0  0  0
 11132  1  0  0  0
 13133  1  0  0  0
 14134  1  0  0  0
 14135  1  0  0  0
 15136  1  0  0  0
 16137  1  0  0  0
 19138  1  0  0  0
 20139  1  0  0  0
 20140  1  0  0  0
 21141  1  0  0  0
 21142  1  0  0  0
 21143  1  0  0  0
 22144  1  0  0  0
 22145  1  0  0  0
 22146  1  0  0  0
 23147  1  0  0  0
 24148  1  0  0  0
 27149  1  0  0  0
 28150  1  0  0  0
 28151  1  0  0  0
 29152  1  0  0  0
 29153  1  0  0  0
 29154  1  0  0  0
 30155  1  0  0  0
 30156  1  0  0  0
 30157  1  0  0  0
 31158  1  0  0  0
 32159  1  0  0  0
 35160  1  0  0  0
 35161  1  0  0  0
 37162  1  0  0  0
 38163  1  0  0  0
 39164  1  0  0  0
 40165  1  0  0  0
 42166  1  0  0  0
 43167  1  0  0  0
 44168  1  0  0  0
 47169  1  0  0  0
 47170  1  0  0  0
 48171  1  0  0  0
 49172  1  0  0  0
 50173  1  0  0  0
 53174  1  0  0  0
 53175  1  0  0  0
 54176  1  0  0  0
 54177  1  0  0  0
 55178  1  0  0  0
 55179  1  0  0  0
 56180  1  0  0  0
 58181  1  0  0  0
 59182  1  0  0  0
 59183  1  0  0  0
 61184  1  0  0  0
 64185  1  0  0  0
 64186  1  0  0  0
 65187  1  0  0  0
 65188  1  0  0  0
 66189  1  0  0  0
 67190  1  0  0  0
 67191  1  0  0  0
 68192  1  0  0  0
 68193  1  0  0  0
 68194  1  0  0  0
 69195  1  0  0  0
 70196  1  0  0  0
 73197  1  0  0  0
 73198  1  0  0  0
 74199  1  0  0  0
 74200  1  0  0  0
 77201  1  0  0  0
 77202  1  0  0  0
 78203  1  0  0  0
 79204  1  0  0  0
 82205  1  0  0  0
 82206  1  0  0  0
 83207  1  0  0  0
 84208  1  0  0  0
 84209  1  0  0  0
 84210  1  0  0  0
 85211  1  0  0  0
 85212  1  0  0  0
 85213  1  0  0  0
 86214  1  0  0  0
 87215  1  0  0  0
 90216  1  0  0  0
 90217  1  0  0  0
 91218  1  0  0  0
 92219  1  0  0  0
 92220  1  0  0  0
 92221  1  0  0  0
 93222  1  0  0  0
 93223  1  0  0  0
 93224  1  0  0  0
 95225  1  0  0  0
 98226  1  0  0  0
 98227  1  0  0  0
 99228  1  0  0  0
 99229  1  0  0  0
100230  1  0  0  0
101231  1  0  0  0
101232  1  0  0  0
102233  1  0  0  0
102234  1  0  0  0
102235  1  0  0  0
103236  1  0  0  0
104237  1  0  0  0
107238  1  0  0  0
107239  1  0  0  0
108240  1  0  0  0
109241  1  0  0  0
109242  1  0  0  0
109243  1  0  0  0
110244  1  0  0  0
110245  1  0  0  0
110246  1  0  0  0
111247  1  0  0  0
112248  1  0  0  0
115249  1  0  0  0
115250  1  0  0  0
116251  1  0  0  0
116252  1  0  0  0
117253  1  0  0  0
117254  1  0  0  0
118255  1  0  0  0
118256  1  0  0  0
119257  1  0  0  0
119258  1  0  0  0
119259  1  0  0  0
120260  1  0  0  0
120261  1  0  0  0
M  END
$$$$
