### 
### Created by X-TOOL on Mon Aug  2 16:10:30 2021
### 

@<TRIPOS>MOLECULE
5zk9_ligand
  263   264     1     0     0
SMALL
GAST_HUCK


@<TRIPOS>ATOM
      1 C         -60.9000  -57.0960   96.5250 C.2       1 ACE         0.1751
      2 O         -61.8200  -57.8470   96.8160 O.2       1 ACE        -0.3972
      3 CH3       -59.4840  -57.4870   96.9330 C.3       1 ACE         0.0258
      4 N         -61.1910  -55.9670   95.8610 N.am      1 ACE        -0.2658
      5 CA        -60.2160  -55.0010   95.4110 C.3       1 ACE         0.1310
      6 C         -59.6870  -54.1800   96.5710 C.2       1 ACE         0.2039
      7 O         -60.3770  -53.9820   97.5580 O.2       1 ACE        -0.3944
      8 CB        -60.8160  -54.0990   94.3190 C.3       1 ACE        -0.0092
      9 CG        -61.2260  -54.8580   93.0560 C.3       1 ACE        -0.0156
     10 CD        -60.0770  -55.6880   92.4990 C.3       1 ACE         0.0627
     11 NE        -60.3460  -56.3480   91.2200 N.pl3     1 ACE        -0.2723
     12 CZ        -60.2850  -55.7690   90.0210 C.cat     1 ACE         0.2882
     13 NH1       -60.5320  -56.5010   88.9310 N.pl3     1 ACE        -0.2849
     14 NH2       -59.9920  -54.4700   89.8960 N.pl3     1 ACE        -0.2849
     15 N         -58.4450  -53.7220   96.4420 N.am      1 ACE        -0.2635
     16 CA        -57.8080  -52.9140   97.4730 C.3       1 ACE         0.1335
     17 C         -58.0430  -51.4490   97.1180 C.2       1 ACE         0.2042
     18 O         -57.5600  -50.9750   96.0880 O.2       1 ACE        -0.3944
     19 CB        -56.2990  -53.1940   97.5920 C.3       1 ACE        -0.0037
     20 CG1       -56.0420  -54.6950   97.7970 C.3       1 ACE        -0.0491
     21 CG2       -55.7090  -52.3830   98.7510 C.3       1 ACE        -0.0582
     22 CD1       -54.5910  -55.0900   97.6560 C.3       1 ACE        -0.0648
     23 N         -58.8190  -50.7640   97.9520 N.am      1 ACE        -0.2635
     24 CA        -59.1960  -49.3770   97.7280 C.3       1 ACE         0.1335
     25 C         -58.6610  -48.5710   98.9030 C.2       1 ACE         0.2043
     26 O         -58.6820  -49.0500  100.0380 O.2       1 ACE        -0.3944
     27 CB        -60.7410  -49.2340   97.6060 C.3       1 ACE        -0.0037
     28 CG1       -61.2340  -49.6190   96.2080 C.3       1 ACE        -0.0491
     29 CG2       -61.1950  -47.7940   97.8170 C.3       1 ACE        -0.0582
     30 CD1       -60.9020  -50.9970   95.7360 C.3       1 ACE        -0.0648
     31 N         -58.1690  -47.3620   98.6240 N.am      1 ACE        -0.2621
     32 CA        -57.8130  -46.3970   99.6580 C.3       1 ACE         0.1390
     33 C         -58.5220  -45.0880   99.3800 C.2       1 ACE         0.2058
     34 O         -58.4600  -44.5730   98.2510 O.2       1 ACE        -0.3942
     35 CB        -56.3130  -46.1240   99.7080 C.3       1 ACE         0.0163
     36 CG        -55.5030  -47.3400  100.0480 C.ar      1 ACE        -0.0493
     37 CD1       -55.3600  -47.7600  101.3700 C.ar      1 ACE        -0.0685
     38 CD2       -54.9180  -48.1070   99.0480 C.ar      1 ACE        -0.0685
     39 CE1       -54.6300  -48.9050  101.6850 C.ar      1 ACE        -0.0398
     40 CE2       -54.1830  -49.2510   99.3560 C.ar      1 ACE        -0.0398
     41 CZ        -54.0460  -49.6500  100.6800 C.ar      1 ACE         0.0805
     42 OH        -53.3150  -50.7910  101.0040 O.3       1 ACE        -0.3376
     43 N         -59.1440  -44.5400  100.4170 N.am      1 ACE        -0.2614
     44 CA        -59.6610  -43.1840  100.3540 C.3       1 ACE         0.1539
     45 C         -58.5010  -42.2100  100.2940 C.2       1 ACE         0.2062
     46 O         -57.3680  -42.5470  100.6570 O.2       1 ACE        -0.3943
     47 CB        -60.5070  -42.8820  101.5950 C.3       1 ACE         0.0843
     48 OG        -59.6930  -42.8830  102.7630 O.3       1 ACE        -0.3903
     49 N         -58.8000  -40.9860   99.8670 N.am      1 ACE        -0.2637
     50 CA        -57.8700  -39.8890   99.9440 C.3       1 ACE         0.1308
     51 C         -57.2160  -39.7270  101.3520 C.2       1 ACE         0.2010
     52 O         -55.9900  -39.6160  101.4380 O.2       1 ACE        -0.3947
     53 CB        -58.5960  -38.6090   99.5090 C.3       1 ACE        -0.0092
     54 CG        -57.7290  -37.3820   99.5420 C.3       1 ACE        -0.0156
     55 CD        -58.4560  -36.1900   98.9560 C.3       1 ACE         0.0627
     56 NE        -57.5250  -35.0910   98.8950 N.pl3     1 ACE        -0.2723
     57 CZ        -57.2140  -34.2790   99.9030 C.cat     1 ACE         0.2882
     58 NH1       -56.3080  -33.3190   99.6980 N.pl3     1 ACE        -0.2849
     59 NH2       -57.7860  -34.4010  101.1080 N.pl3     1 ACE        -0.2849
     60 C         -56.5440  -40.6670  104.1440 C.2       1 ACE         0.2263
     61 N         -58.0100  -39.7100  102.4530 N.am      1 ACE        -0.2743
     62 O         -55.4610  -40.3720  104.6820 O.2       1 ACE        -0.3419
     63 CA        -57.5540  -39.5710  103.8320 C.3       1 ACE         0.1304
     64 CB        -58.7990  -39.7480  104.7060 C.3       1 ACE        -0.0186
     65 CD        -58.2630  -41.0810  106.8430 C.3       1 ACE        -0.0365
     66 CE        -57.7170  -40.9620  108.2490 C.2       1 ACE        -0.0987
     67 CG        -58.5230  -39.7140  106.2180 C.3       1 ACE        -0.0449
     68 CB1       -57.0040  -38.1460  103.9950 C.3       1 ACE        -0.0320
     69 N         -56.8620  -41.8650  103.8390 N.am      1 ACE        -0.2627
     70 CA        -55.9800  -43.0150  104.1050 C.3       1 ACE         0.1332
     71 C         -54.6110  -42.8520  103.4580 C.2       1 ACE         0.2042
     72 O         -53.5810  -43.1180  104.0990 O.2       1 ACE        -0.3944
     73 CB        -56.6330  -44.2760  103.5500 C.3       1 ACE         0.0047
     74 CG        -57.6520  -44.9340  104.4580 C.3       1 ACE         0.0413
     75 CD        -58.2230  -46.1930  103.8180 C.2       1 ACE         0.1737
     76 OE1       -58.9800  -46.1240  102.8340 O.2       1 ACE        -0.3973
     77 NE2       -57.8410  -47.3460  104.3490 N.am      1 ACE        -0.3009
     78 N         -54.6110  -42.4310  102.1920 N.am      1 ACE        -0.2637
     79 CA        -53.3560  -42.2230  101.4690 C.3       1 ACE         0.1312
     80 C         -52.5270  -41.1190  102.0670 C.2       1 ACE         0.2039
     81 O         -51.3340  -41.3020  102.2870 O.2       1 ACE        -0.3944
     82 CB        -53.6000  -41.9720   99.9840 C.3       1 ACE        -0.0101
     83 CG        -54.2180  -43.1760   99.2730 C.3       1 ACE        -0.0425
     84 CD1       -54.6890  -42.7870   97.8760 C.3       1 ACE        -0.0625
     85 CD2       -53.2350  -44.3520   99.2170 C.3       1 ACE        -0.0625
     86 N         -53.1540  -39.9940  102.4220 N.am      1 ACE        -0.2637
     87 CA        -52.3940  -38.8970  103.0260 C.3       1 ACE         0.1309
     88 C         -51.8390  -39.2180  104.4220 C.2       1 ACE         0.2010
     89 O         -50.7030  -38.8160  104.6870 O.2       1 ACE        -0.3947
     90 CB        -53.2370  -37.6190  103.0630 C.3       1 ACE        -0.0101
     91 CG        -53.6250  -37.0430  101.7010 C.3       1 ACE        -0.0425
     92 CD1       -54.5090  -35.8230  101.8700 C.3       1 ACE        -0.0625
     93 CD2       -52.4080  -36.7070  100.8670 C.3       1 ACE        -0.0625
     94 C         -50.8860  -41.1790  106.4800 C.2       1 ACE         0.2263
     95 N         -52.5930  -39.9270  105.3110 N.am      1 ACE        -0.2743
     96 O         -49.9850  -41.0680  107.3410 O.2       1 ACE        -0.3419
     97 CA        -52.1480  -40.3480  106.6410 C.3       1 ACE         0.1304
     98 CB        -53.1810  -41.3030  107.2350 C.3       1 ACE        -0.0186
     99 CD        -55.3650  -41.7510  108.3890 C.3       1 ACE        -0.0365
    100 CE        -56.6270  -41.1340  109.0220 C.2       1 ACE        -0.0987
    101 CG        -54.4230  -40.6640  107.8690 C.3       1 ACE        -0.0449
    102 CB1       -51.8850  -39.1360  107.5610 C.3       1 ACE        -0.0320
    103 N         -50.7920  -41.9660  105.4820 N.am      1 ACE        -0.2629
    104 CA        -49.6150  -42.8280  105.2950 C.3       1 ACE         0.1314
    105 C         -48.3830  -42.1700  104.7040 C.2       1 ACE         0.2041
    106 O         -47.3580  -42.8190  104.5860 O.2       1 ACE        -0.3944
    107 CB        -50.0540  -44.0220  104.4340 C.3       1 ACE        -0.0099
    108 CG        -50.9920  -45.0220  105.1240 C.3       1 ACE        -0.0425
    109 CD1       -51.6170  -45.9640  104.1110 C.3       1 ACE        -0.0625
    110 CD2       -50.2850  -45.8170  106.2170 C.3       1 ACE        -0.0625
    111 N         -48.4630  -40.8930  104.3470 N.am      1 ACE        -0.2637
    112 CA        -47.2850  -40.1340  104.0150 C.3       1 ACE         0.1306
    113 C         -46.4260  -39.9730  105.2950 C.2       1 ACE         0.1992
    114 O         -45.2370  -39.8290  105.2200 O.2       1 ACE        -0.3947
    115 CB        -47.6830  -38.7830  103.4240 C.3       1 ACE        -0.0122
    116 CG        -46.5060  -37.9710  102.9040 C.3       1 ACE        -0.0440
    117 CD        -46.9550  -36.6930  102.2040 C.3       1 ACE        -0.0124
    118 CE        -45.7640  -35.9060  101.6680 C.3       1 ACE        -0.0354
    119 NZ        -45.0160  -35.1930  102.7480 N.4       1 ACE         0.2185
    120 N         -47.0310  -40.0530  106.5800 N.am      1 ACE        -0.2990
    121 H1        -58.7789  -56.7114   96.5993 H         1 ACE         0.0467
    122 H2        -59.2200  -58.4476   96.4666 H         1 ACE         0.0467
    123 H3        -59.4313  -57.5840   98.0274 H         1 ACE         0.0467
    124 H4        -62.1534  -55.7807   95.6632 H         1 ACE         0.1882
    125 H5        -59.3700  -55.5500   94.9718 H         1 ACE         0.0800
    126 H6        -60.0671  -53.3423   94.0424 H         1 ACE         0.0313
    127 H7        -61.7064  -53.6006   94.7298 H         1 ACE         0.0313
    128 H8        -61.5449  -54.1333   92.2924 H         1 ACE         0.0301
    129 H9        -62.0642  -55.5276   93.2989 H         1 ACE         0.0301
    130 H10       -59.8297  -56.4651   93.2372 H         1 ACE         0.0689
    131 H11       -59.2116  -55.0227   92.3629 H         1 ACE         0.0689
    132 H12       -60.6044  -57.3446   91.2493 H         1 ACE         0.2642
    133 H13       -60.4884  -56.0666   87.9981 H         1 ACE         0.2615
    134 H14       -60.7660  -57.4998   89.0235 H         1 ACE         0.2615
    135 H15       -59.8009  -53.9022   90.7339 H         1 ACE         0.2615
    136 H16       -59.9574  -54.0374   88.9619 H         1 ACE         0.2615
    137 H17       -57.9325  -53.9392   95.6112 H         1 ACE         0.1883
    138 H18       -58.2797  -53.1354   98.4417 H         1 ACE         0.0803
    139 H19       -55.8088  -52.8806   96.6585 H         1 ACE         0.0345
    140 H20       -56.6271  -55.2522   97.0506 H         1 ACE         0.0267
    141 H21       -56.3796  -54.9699   98.8072 H         1 ACE         0.0267
    142 H22       -55.9031  -51.3129   98.5859 H         1 ACE         0.0235
    143 H23       -54.6238  -52.5549   98.8038 H         1 ACE         0.0235
    144 H24       -56.1767  -52.6990   99.6951 H         1 ACE         0.0235
    145 H25       -54.4888  -56.1735   97.8157 H         1 ACE         0.0230
    146 H26       -53.9900  -54.5510   98.4031 H         1 ACE         0.0230
    147 H27       -54.2375  -54.8333   96.6465 H         1 ACE         0.0230
    148 H28       -59.1597  -51.2238   98.7721 H         1 ACE         0.1883
    149 H29       -58.7341  -49.0171   96.7968 H         1 ACE         0.0803
    150 H30       -61.2118  -49.8845   98.3577 H         1 ACE         0.0345
    151 H31       -60.7967  -48.9071   95.4924 H         1 ACE         0.0267
    152 H32       -62.3294  -49.5193   96.2015 H         1 ACE         0.0267
    153 H33       -60.8718  -47.4495   98.8104 H         1 ACE         0.0235
    154 H34       -62.2917  -47.7417   97.7497 H         1 ACE         0.0235
    155 H35       -60.7491  -47.1518   97.0432 H         1 ACE         0.0235
    156 H36       -61.3098  -51.1466   94.7254 H         1 ACE         0.0230
    157 H37       -61.3422  -51.7356   96.4220 H         1 ACE         0.0230
    158 H38       -59.8095  -51.1235   95.7129 H         1 ACE         0.0230
    159 H39       -58.0390  -47.1072   97.6658 H         1 ACE         0.1885
    160 H40       -58.1357  -46.7903  100.6333 H         1 ACE         0.0821
    161 H41       -56.1229  -45.3531  100.4693 H         1 ACE         0.0453
    162 H42       -55.9918  -45.7539   98.7232 H         1 ACE         0.0453
    163 H43       -55.8237  -47.1872  102.1650 H         1 ACE         0.0530
    164 H44       -55.0349  -47.8112   98.0117 H         1 ACE         0.0530
    165 H45       -54.5208  -49.2105  102.7193 H         1 ACE         0.0525
    166 H46       -53.7193  -49.8281   98.5642 H         1 ACE         0.0525
    167 H47       -53.7049  -51.5465  100.5801 H         1 ACE         0.2458
    168 H48       -59.2587  -45.0705  101.2569 H         1 ACE         0.1884
    169 H49       -60.2824  -43.0725   99.4532 H         1 ACE         0.0823
    170 H50       -61.2879  -43.6499  101.6969 H         1 ACE         0.0606
    171 H51       -60.9769  -41.8939  101.4816 H         1 ACE         0.0606
    172 H52       -59.2877  -43.7361  102.8644 H         1 ACE         0.2097
    173 H53       -59.7061  -40.8212   99.4773 H         1 ACE         0.1883
    174 H54       -57.0580  -40.0843   99.2281 H         1 ACE         0.0800
    175 H55       -59.4507  -38.4485  100.1826 H         1 ACE         0.0313
    176 H56       -58.9607  -38.7489   98.4807 H         1 ACE         0.0313
    177 H57       -56.8164  -37.5701   98.9574 H         1 ACE         0.0301
    178 H58       -57.4574  -37.1610  100.5848 H         1 ACE         0.0301
    179 H59       -59.3100  -35.9216   99.5952 H         1 ACE         0.0689
    180 H60       -58.8162  -36.4315   97.9451 H         1 ACE         0.0689
    181 H61       -57.0597  -34.9190   97.9924 H         1 ACE         0.2642
    182 H62       -56.0526  -32.6798  100.4642 H         1 ACE         0.2615
    183 H63       -55.8648  -33.2180   98.7737 H         1 ACE         0.2615
    184 H64       -58.4854  -35.1387  101.2738 H         1 ACE         0.2615
    185 H65       -57.5264  -33.7571  101.8689 H         1 ACE         0.2615
    186 H66       -58.9949  -39.8008  102.3058 H         1 ACE         0.1839
    187 H67       -59.2561  -40.7182  104.4614 H         1 ACE         0.0279
    188 H68       -59.5052  -38.9392  104.4669 H         1 ACE         0.0279
    189 H69       -59.2078  -41.6434  106.8745 H         1 ACE         0.0388
    190 H70       -57.5340  -41.6231  106.2227 H         1 ACE         0.0388
    191 H71       -58.5195  -40.5925  108.8857 H         1 ACE         0.0450
    192 H72       -59.3961  -39.2683  106.7170 H         1 ACE         0.0284
    193 H73       -57.6392  -39.0827  106.3921 H         1 ACE         0.0284
    194 H74       -56.6499  -38.0055  105.0269 H         1 ACE         0.0242
    195 H75       -57.8002  -37.4186  103.7783 H         1 ACE         0.0242
    196 H76       -56.1680  -37.9935  103.2966 H         1 ACE         0.0242
    197 H77       -57.7460  -42.0298  103.4016 H         1 ACE         0.1889
    198 H78       -55.8492  -43.1171  105.1924 H         1 ACE         0.0803
    199 H79       -55.8379  -45.0081  103.3457 H         1 ACE         0.0337
    200 H80       -57.1379  -44.0108  102.6094 H         1 ACE         0.0337
    201 H81       -58.4712  -44.2260  104.6516 H         1 ACE         0.0504
    202 H82       -57.1668  -45.2021  105.4081 H         1 ACE         0.0504
    203 H83       -58.1820  -48.2073  103.9724 H         1 ACE         0.1814
    204 H84       -57.2118  -47.3545  105.1262 H         1 ACE         0.1814
    205 H85       -55.4807  -42.2552  101.7308 H         1 ACE         0.1883
    206 H86       -52.7741  -43.1525  101.5554 H         1 ACE         0.0800
    207 H87       -52.6383  -41.7365   99.5048 H         1 ACE         0.0315
    208 H88       -54.2813  -41.1147   99.8798 H         1 ACE         0.0315
    209 H89       -55.0968  -43.4978   99.8510 H         1 ACE         0.0298
    210 H90       -55.1301  -43.6643   97.3803 H         1 ACE         0.0232
    211 H91       -53.8327  -42.4255   97.2878 H         1 ACE         0.0232
    212 H92       -55.4440  -41.9907   97.9521 H         1 ACE         0.0232
    213 H93       -52.9132  -44.6098  100.2368 H         1 ACE         0.0232
    214 H94       -52.3581  -44.0686   98.6165 H         1 ACE         0.0232
    215 H95       -53.7287  -45.2211   98.7577 H         1 ACE         0.0232
    216 H96       -54.1389  -39.9011  102.2759 H         1 ACE         0.1883
    217 H97       -51.5295  -38.7074  102.3729 H         1 ACE         0.0800
    218 H98       -52.6642  -36.8515  103.6041 H         1 ACE         0.0315
    219 H99       -54.1635  -37.8407  103.6128 H         1 ACE         0.0315
    220 H100      -54.2012  -37.8099  101.1626 H         1 ACE         0.0298
    221 H101      -54.7767  -35.4242  100.8804 H         1 ACE         0.0232
    222 H102      -53.9677  -35.0542  102.4409 H         1 ACE         0.0232
    223 H103      -55.4241  -36.1053  102.4112 H         1 ACE         0.0232
    224 H104      -51.7805  -37.6037  100.7562 H         1 ACE         0.0232
    225 H105      -51.8300  -35.9143  101.3645 H         1 ACE         0.0232
    226 H106      -52.7287  -36.3589   99.8740 H         1 ACE         0.0232
    227 H107      -53.5202  -40.1783  105.0331 H         1 ACE         0.1839
    228 H108      -52.6780  -41.8972  108.0121 H         1 ACE         0.0279
    229 H109      -53.5230  -41.9683  106.4285 H         1 ACE         0.0279
    230 H110      -55.6630  -42.3990  107.5516 H         1 ACE         0.0388
    231 H111      -54.8389  -42.3500  109.1469 H         1 ACE         0.0388
    232 H112      -56.6377  -40.8433  110.0714 H         1 ACE         0.0450
    233 H113      -54.9467  -40.0592  107.1141 H         1 ACE         0.0284
    234 H114      -54.1141  -40.0196  108.7052 H         1 ACE         0.0284
    235 H115      -51.5534  -39.4902  108.5482 H         1 ACE         0.0242
    236 H116      -52.8109  -38.5527  107.6727 H         1 ACE         0.0242
    237 H117      -51.1033  -38.5018  107.1175 H         1 ACE         0.0242
    238 H118      -51.5338  -41.9981  104.8122 H         1 ACE         0.1889
    239 H119      -49.3254  -43.2034  106.2876 H         1 ACE         0.0802
    240 H120      -49.1501  -44.5651  104.1209 H         1 ACE         0.0315
    241 H121      -50.5712  -43.6285  103.5465 H         1 ACE         0.0315
    242 H122      -51.8010  -44.4469  105.5981 H         1 ACE         0.0298
    243 H123      -52.2835  -46.6694  104.6288 H         1 ACE         0.0232
    244 H124      -50.8243  -46.5225  103.5918 H         1 ACE         0.0232
    245 H125      -52.1962  -45.3828  103.3784 H         1 ACE         0.0232
    246 H126      -49.8370  -45.1231  106.9436 H         1 ACE         0.0232
    247 H127      -49.4955  -46.4369  105.7672 H         1 ACE         0.0232
    248 H128      -51.0126  -46.4642  106.7286 H         1 ACE         0.0232
    249 H129      -49.3587  -40.4501  104.3080 H         1 ACE         0.1883
    250 H130      -46.7007  -40.6850  103.2633 H         1 ACE         0.0800
    251 H131      -48.1899  -38.1980  104.2056 H         1 ACE         0.0312
    252 H132      -48.3779  -38.9602  102.5899 H         1 ACE         0.0312
    253 H133      -45.9388  -38.5860  102.1898 H         1 ACE         0.0269
    254 H134      -45.8585  -37.7023  103.7516 H         1 ACE         0.0269
    255 H135      -47.5050  -36.0660  102.9212 H         1 ACE         0.0317
    256 H136      -47.6162  -36.9572  101.3656 H         1 ACE         0.0317
    257 H137      -46.1291  -35.1639  100.9428 H         1 ACE         0.0813
    258 H138      -45.0779  -36.6034  101.1651 H         1 ACE         0.0813
    259 H139      -44.2415  -34.6897  102.3443 H         1 ACE         0.1994
    260 H140      -44.6693  -35.8638  103.4158 H         1 ACE         0.1994
    261 H141      -45.6327  -34.5446  103.2121 H         1 ACE         0.1994
    262 H142      -46.4726  -39.9485  107.4029 H         1 ACE         0.1815
    263 H143      -48.0147  -40.2138  106.6604 H         1 ACE         0.1815
@<TRIPOS>BOND
     1    1    2 2  
     2    1    3 1  
     3    4    1 am 
     4    5    4 1  
     5    6    5 1  
     6    5    8 1  
     7    6    7 2  
     8   15    6 am 
     9    8    9 1  
    10    9   10 1  
    11   10   11 1  
    12   11   12 ar 
    13   12   13 ar 
    14   12   14 ar 
    15   16   15 1  
    16   17   16 1  
    17   16   19 1  
    18   17   18 2  
    19   23   17 am 
    20   19   20 1  
    21   19   21 1  
    22   20   22 1  
    23   24   23 1  
    24   25   24 1  
    25   24   27 1  
    26   25   26 2  
    27   31   25 am 
    28   27   28 1  
    29   27   29 1  
    30   28   30 1  
    31   32   31 1  
    32   33   32 1  
    33   32   35 1  
    34   33   34 2  
    35   43   33 am 
    36   35   36 1  
    37   36   37 ar 
    38   36   38 ar 
    39   37   39 ar 
    40   38   40 ar 
    41   39   41 ar 
    42   40   41 ar 
    43   41   42 1  
    44   44   43 1  
    45   45   44 1  
    46   44   47 1  
    47   45   46 2  
    48   49   45 am 
    49   47   48 1  
    50   50   49 1  
    51   51   50 1  
    52   50   53 1  
    53   51   52 2  
    54   61   51 am 
    55   53   54 1  
    56   54   55 1  
    57   55   56 1  
    58   56   57 ar 
    59   57   58 ar 
    60   57   59 ar 
    61   60   62 2  
    62   60   63 1  
    63   69   60 am 
    64   63   61 1  
    65   63   64 1  
    66   63   68 1  
    67   64   67 1  
    68   65   66 1  
    69   67   65 1  
    70   66  100 2  
    71   70   69 1  
    72   71   70 1  
    73   70   73 1  
    74   71   72 2  
    75   78   71 am 
    76   73   74 1  
    77   74   75 1  
    78   75   76 2  
    79   75   77 am 
    80   79   78 1  
    81   80   79 1  
    82   79   82 1  
    83   80   81 2  
    84   86   80 am 
    85   82   83 1  
    86   83   84 1  
    87   83   85 1  
    88   87   86 1  
    89   88   87 1  
    90   87   90 1  
    91   88   89 2  
    92   95   88 am 
    93   90   91 1  
    94   91   92 1  
    95   91   93 1  
    96   94   96 2  
    97   97   94 1  
    98   94  103 am 
    99   95   97 1  
   100   97   98 1  
   101   97  102 1  
   102   98  101 1  
   103  100   99 1  
   104   99  101 1  
   105  103  104 1  
   106  104  105 1  
   107  104  107 1  
   108  105  106 2  
   109  105  111 am 
   110  107  108 1  
   111  108  109 1  
   112  108  110 1  
   113  111  112 1  
   114  112  113 1  
   115  112  115 1  
   116  113  114 2  
   117  113  120 am 
   118  115  116 1  
   119  116  117 1  
   120  117  118 1  
   121  118  119 1  
   122    3  121 1  
   123    3  122 1  
   124    3  123 1  
   125    4  124 1  
   126    5  125 1  
   127    8  126 1  
   128    8  127 1  
   129    9  128 1  
   130    9  129 1  
   131   10  130 1  
   132   10  131 1  
   133   11  132 1  
   134   13  133 1  
   135   13  134 1  
   136   14  135 1  
   137   14  136 1  
   138   15  137 1  
   139   16  138 1  
   140   19  139 1  
   141   20  140 1  
   142   20  141 1  
   143   21  142 1  
   144   21  143 1  
   145   21  144 1  
   146   22  145 1  
   147   22  146 1  
   148   22  147 1  
   149   23  148 1  
   150   24  149 1  
   151   27  150 1  
   152   28  151 1  
   153   28  152 1  
   154   29  153 1  
   155   29  154 1  
   156   29  155 1  
   157   30  156 1  
   158   30  157 1  
   159   30  158 1  
   160   31  159 1  
   161   32  160 1  
   162   35  161 1  
   163   35  162 1  
   164   37  163 1  
   165   38  164 1  
   166   39  165 1  
   167   40  166 1  
   168   42  167 1  
   169   43  168 1  
   170   44  169 1  
   171   47  170 1  
   172   47  171 1  
   173   48  172 1  
   174   49  173 1  
   175   50  174 1  
   176   53  175 1  
   177   53  176 1  
   178   54  177 1  
   179   54  178 1  
   180   55  179 1  
   181   55  180 1  
   182   56  181 1  
   183   58  182 1  
   184   58  183 1  
   185   59  184 1  
   186   59  185 1  
   187   61  186 1  
   188   64  187 1  
   189   64  188 1  
   190   65  189 1  
   191   65  190 1  
   192   66  191 1  
   193   67  192 1  
   194   67  193 1  
   195   68  194 1  
   196   68  195 1  
   197   68  196 1  
   198   69  197 1  
   199   70  198 1  
   200   73  199 1  
   201   73  200 1  
   202   74  201 1  
   203   74  202 1  
   204   77  203 1  
   205   77  204 1  
   206   78  205 1  
   207   79  206 1  
   208   82  207 1  
   209   82  208 1  
   210   83  209 1  
   211   84  210 1  
   212   84  211 1  
   213   84  212 1  
   214   85  213 1  
   215   85  214 1  
   216   85  215 1  
   217   86  216 1  
   218   87  217 1  
   219   90  218 1  
   220   90  219 1  
   221   91  220 1  
   222   92  221 1  
   223   92  222 1  
   224   92  223 1  
   225   93  224 1  
   226   93  225 1  
   227   93  226 1  
   228   95  227 1  
   229   98  228 1  
   230   98  229 1  
   231   99  230 1  
   232   99  231 1  
   233  100  232 1  
   234  101  233 1  
   235  101  234 1  
   236  102  235 1  
   237  102  236 1  
   238  102  237 1  
   239  103  238 1  
   240  104  239 1  
   241  107  240 1  
   242  107  241 1  
   243  108  242 1  
   244  109  243 1  
   245  109  244 1  
   246  109  245 1  
   247  110  246 1  
   248  110  247 1  
   249  110  248 1  
   250  111  249 1  
   251  112  250 1  
   252  115  251 1  
   253  115  252 1  
   254  116  253 1  
   255  116  254 1  
   256  117  255 1  
   257  117  256 1  
   258  118  257 1  
   259  118  258 1  
   260  119  259 1  
   261  119  260 1  
   262  119  261 1  
   263  120  262 1  
   264  120  263 1  
@<TRIPOS>SUBSTRUCTURE
     1 ACE         1

