6mnv_ligand
  -I-interpret- 

 32 32  0  0  0  0  0  0  0  0999 V2000
   27.2310   53.2370   16.1500 C   0  0  0  0  0
   28.3420   52.4020   16.6470 C   0  0  0  0  0
   28.4380   51.1050   15.8420 C   0  0  0  0  0
   29.5600   50.2760   16.3620 C   0  0  0  0  0
   25.9950   51.1680   15.5410 C   0  0  0  0  0
   24.7630   50.3850   15.8550 C   0  0  0  0  0
   25.9600   52.4730   16.3490 C   0  0  0  0  0
   24.7070   50.3520   17.2200 F   0  0  0  0  0
   29.0580   49.4410   17.3660 O   0  0  0  0  0
   27.1470   50.3430   15.9260 O   0  0  0  0  0
   26.1620   51.4650   14.1770 O   0  0  0  0  0
   23.9320   52.6820   13.5590 O   0  0  0  0  0
   24.8320   53.2850   16.0000 O   0  0  0  0  0
   25.6060   52.2390   11.7900 O   0  0  0  0  0
   27.1460   54.5050   16.8740 O   0  0  0  0  0
   24.3020   50.3800   12.7410 O   0  0  0  0  0
   29.6060   53.1080   16.6190 O   0  0  0  0  0
   24.9740   51.6910   13.0600 P   0  0  0  0  0
   27.3999   53.4654   15.0977 H   0  0  0  0  0
   28.1263   52.1599   17.6876 H   0  0  0  0  0
   28.6276   51.3478   14.7965 H   0  0  0  0  0
   30.3440   50.9171   16.7651 H   0  0  0  0  0
   29.9886   49.6785   15.5574 H   0  0  0  0  0
   24.7993   49.3834   15.4266 H   0  0  0  0  0
   23.8720   50.8414   15.4238 H   0  0  0  0  0
   25.8608   52.2080   17.4016 H   0  0  0  0  0
   29.7689   48.8977   17.7140 H   0  0  0  0  0
   24.3584   53.5176   13.7626 H   0  0  0  0  0
   24.8439   54.0894   16.5238 H   0  0  0  0  0
   26.0369   53.0748   11.9833 H   0  0  0  0  0
   27.9598   54.9987   16.7490 H   0  0  0  0  0
   29.5299   53.9185   17.1278 H   0  0  0  0  0
  1  2  1  0  0  0
  7  1  1  0  0  0
  1 15  1  0  0  0
  2  3  1  0  0  0
  2 17  1  0  0  0
  3  4  1  0  0  0
  3 10  1  0  0  0
  4  9  1  0  0  0
  5  6  1  0  0  0
  5  7  1  0  0  0
  5 10  1  0  0  0
  5 11  1  0  0  0
  6  8  1  0  0  0
  7 13  1  0  0  0
 11 18  1  0  0  0
 18 12  1  0  0  0
 18 14  1  0  0  0
 18 16  2  0  0  0
  1 19  1  0  0  0
  2 20  1  0  0  0
  3 21  1  0  0  0
  4 22  1  0  0  0
  4 23  1  0  0  0
  6 24  1  0  0  0
  6 25  1  0  0  0
  7 26  1  0  0  0
  9 27  1  0  0  0
 12 28  1  0  0  0
 13 29  1  0  0  0
 14 30  1  0  0  0
 15 31  1  0  0  0
 17 32  1  0  0  0
M  END
$$$$
