### 
### Created by X-TOOL on Mon Aug  2 16:14:57 2021
### 

@<TRIPOS>MOLECULE
6mnv_ligand
   30    30     1     0     0
SMALL
GAST_HUCK


@<TRIPOS>ATOM
      1 C02        27.2310   53.2370   16.1500 C.3       1 JVS         0.1148
      2 C03        28.3420   52.4020   16.6470 C.3       1 JVS         0.1119
      3 C05        28.4380   51.1050   15.8420 C.3       1 JVS         0.1136
      4 C06        29.5600   50.2760   16.3620 C.3       1 JVS         0.0730
      5 C09        25.9950   51.1680   15.5410 C.3       1 JVS         0.2556
      6 C15        24.7630   50.3850   15.8550 C.3       1 JVS         0.1508
      7 C17        25.9600   52.4730   16.3490 C.3       1 JVS         0.1439
      8 F16        24.7070   50.3520   17.2200 F         1 JVS        -0.2430
      9 O07        29.0580   49.4410   17.3660 O.3       1 JVS        -0.3924
     10 O08        27.1470   50.3430   15.9260 O.3       1 JVS        -0.3328
     11 O10        26.1620   51.4650   14.1770 O.3       1 JVS        -0.2365
     12 O1P        23.9320   52.6820   13.5590 O.co2     1 JVS        -0.5536
     13 O2         24.8320   53.2850   16.0000 O.3       1 JVS        -0.3834
     14 O2P        25.6060   52.2390   11.7900 O.co2     1 JVS        -0.5536
     15 O3         27.1460   54.5050   16.8740 O.3       1 JVS        -0.3864
     16 O3P        24.3020   50.3800   12.7410 O.co2     1 JVS        -0.5536
     17 O4         29.6060   53.1080   16.6190 O.3       1 JVS        -0.3865
     18 P          24.9740   51.6910   13.0600 P.3       1 JVS         0.2052
     19 H1         27.3798   53.4428   15.0797 H         1 JVS         0.0648
     20 H2         28.1250   52.1407   17.6932 H         1 JVS         0.0647
     21 H3         28.6355   51.3527   14.7886 H         1 JVS         0.0647
     22 H4         30.3433   50.9275   16.7767 H         1 JVS         0.0584
     23 H5         29.9818   49.6678   15.5483 H         1 JVS         0.0584
     24 H6         24.8366   49.3666   15.4458 H         1 JVS         0.0674
     25 H7         23.8726   50.8823   15.4429 H         1 JVS         0.0674
     26 H8         25.8754   52.2124   17.4143 H         1 JVS         0.0679
     27 H9         28.3802   48.8831   17.0028 H         1 JVS         0.2095
     28 H10        24.8758   53.5061   15.0771 H         1 JVS         0.2101
     29 H11        27.9513   54.9936   16.7503 H         1 JVS         0.2100
     30 H12        29.5307   53.9100   17.1224 H         1 JVS         0.2100
@<TRIPOS>BOND
     1    1    2 1  
     2    7    1 1  
     3    1   15 1  
     4    2    3 1  
     5    2   17 1  
     6    3    4 1  
     7    3   10 1  
     8    4    9 1  
     9    5    6 1  
    10    5    7 1  
    11    5   10 1  
    12    5   11 1  
    13    6    8 1  
    14    7   13 1  
    15   11   18 1  
    16   18   12 ar 
    17   18   14 ar 
    18   18   16 ar 
    19    1   19 1  
    20    2   20 1  
    21    3   21 1  
    22    4   22 1  
    23    4   23 1  
    24    6   24 1  
    25    6   25 1  
    26    7   26 1  
    27    9   27 1  
    28   13   28 1  
    29   15   29 1  
    30   17   30 1  
@<TRIPOS>SUBSTRUCTURE
     1 JVS         1

