1o33_ligand
  -I-interpret- 

 29 31  0  0  0  0  0  0  0  0999 V2000
   44.0750   -3.0370   26.3070 C   0  0  0  0  0
   44.5310   -1.7030   26.3610 C   0  0  0  0  0
   44.4530   -0.9550   27.5220 C   0  0  0  0  0
   43.9220   -1.5510   28.6160 C   0  0  0  0  0
   43.4640   -2.8170   28.6130 C   0  0  0  0  0
   43.5210   -3.6060   27.4640 C   0  0  0  0  0
   44.1930   -3.7660   25.1090 C   0  0  0  0  0
   43.9180   -5.0580   25.1100 N   0  0  0  0  0
   44.5810   -3.1240   24.0140 N   0  0  0  0  0
   43.7360   -1.1060   29.8050 N   0  0  0  0  0
   42.9940   -3.1730   29.7830 N   0  0  0  0  0
   43.2020   -2.0660   30.4840 C   0  0  0  0  0
   42.9290   -1.9290   31.8370 C   0  0  0  0  0
   42.6890   -3.0300   32.5210 N   0  0  0  0  0
   42.4260   -3.0450   33.8060 C   0  0  0  0  0
   42.3880   -1.8530   34.5100 C   0  0  0  0  0
   42.6370   -0.6510   33.8370 C   0  0  0  0  0
   42.9150   -0.6710   32.4720 C   0  0  0  0  0
   43.1600    0.5190   31.7860 O   0  0  0  0  0
   44.9556   -1.2502   25.4650 H   0  0  0  0  0
   44.8058    0.0758   27.5551 H   0  0  0  0  0
   43.1478   -4.6301   27.4648 H   0  0  0  0  0
   44.0010   -5.5978   24.2485 H   0  0  0  0  0
   44.6758   -3.6294   23.1331 H   0  0  0  0  0
   44.7844   -2.1253   24.0534 H   0  0  0  0  0
   42.2386   -3.9897   34.3165 H   0  0  0  0  0
   42.1665   -1.8507   35.5772 H   0  0  0  0  0
   42.6135    0.2951   34.3778 H   0  0  0  0  0
   43.1038    1.2569   32.3975 H   0  0  0  0  0
  1  2  4  0  0  0
  1  6  4  0  0  0
  1  7  1  0  0  0
  2  3  4  0  0  0
  3  4  4  0  0  0
  4  5  4  0  0  0
  4 10  4  0  0  0
  5  6  4  0  0  0
  5 11  4  0  0  0
  7  8  2  0  0  0
  7  9  1  0  0  0
 10 12  4  0  0  0
 11 12  4  0  0  0
 12 13  1  0  0  0
 13 14  4  0  0  0
 13 18  4  0  0  0
 14 15  4  0  0  0
 15 16  4  0  0  0
 16 17  4  0  0  0
 17 18  4  0  0  0
 18 19  1  0  0  0
  2 20  1  0  0  0
  3 21  1  0  0  0
  6 22  1  0  0  0
  8 23  1  0  0  0
  9 24  1  0  0  0
  9 25  1  0  0  0
 15 26  1  0  0  0
 16 27  1  0  0  0
 17 28  1  0  0  0
 19 29  1  0  0  0
M  END
$$$$
