5j82_ligand
  -I-interpret- 

 48 50  0  0  0  0  0  0  0  0999 V2000
   -0.6910   33.0390  -23.1320 C   0  0  0  0  0
   -1.9580   33.3120  -23.6510 C   0  0  0  0  0
   -2.0730   34.0580  -24.8140 C   0  0  0  0  0
   -0.9870   35.4320  -26.6200 C   0  0  0  0  0
   -0.5690   37.1720  -27.9120 C   0  0  0  0  0
    0.4980   37.2720  -25.7160 C   0  0  0  0  0
    1.9070   37.2190  -25.7660 C   0  0  0  0  0
    2.6800   37.8150  -24.7650 C   0  0  0  0  0
   -0.1150   37.9780  -24.6780 C   0  0  0  0  0
    5.1470   31.7270  -24.1220 C   0  0  0  0  0
   -0.9310   34.5490  -25.4440 C   0  0  0  0  0
    0.3230   34.2480  -24.9330 C   0  0  0  0  0
    0.4640   33.5410  -23.7700 C   0  0  0  0  0
   -0.6030   32.2730  -22.0100 O   0  0  0  0  0
   -3.2850   34.3080  -25.3330 O   0  0  0  0  0
   -1.6460   35.2130  -27.7230 N   0  0  0  0  0
   -1.3940   36.3120  -28.5590 N   0  0  0  0  0
   -0.3120   36.6480  -26.7050 N   0  0  0  0  0
    2.0490   38.4930  -23.7210 C   0  0  0  0  0
    0.6610   38.5850  -23.6940 C   0  0  0  0  0
   -0.1180   38.2360  -28.3080 O   0  0  0  0  0
    2.1250   33.2500  -23.2180 S   0  0  0  0  0
    2.9210   34.3150  -23.7420 O   0  0  0  0  0
    2.0130   33.0780  -21.8150 O   0  0  0  0  0
    2.6010   31.8070  -23.9280 N   0  0  0  0  0
    1.7830   30.6180  -23.6580 C   0  0  0  0  0
    3.7860   31.7090  -24.8400 C   0  0  0  0  0
    3.7840   30.5280  -25.8340 C   0  0  0  0  0
    2.5270   36.5730  -26.7740 F   0  0  0  0  0
   -2.8499   32.9415  -23.1458 H   0  0  0  0  0
    3.7675   37.7506  -24.7997 H   0  0  0  0  0
   -1.2016   38.0537  -24.6384 H   0  0  0  0  0
    5.2505   32.6586  -23.5656 H   0  0  0  0  0
    5.2048   30.8833  -23.4343 H   0  0  0  0  0
    5.9463   31.6519  -24.8593 H   0  0  0  0  0
    1.2125   34.5808  -25.4678 H   0  0  0  0  0
    0.3199   32.1674  -21.7676 H   0  0  0  0  0
   -3.1881   34.8325  -26.1312 H   0  0  0  0  0
   -1.7695   36.4423  -29.4984 H   0  0  0  0  0
    2.6422   38.9494  -22.9286 H   0  0  0  0  0
    0.1745   39.1397  -22.8917 H   0  0  0  0  0
    1.7709   30.4228  -22.5857 H   0  0  0  0  0
    0.7656   30.7913  -24.0086 H   0  0  0  0  0
    2.2074   29.7604  -24.1800 H   0  0  0  0  0
    3.6628   32.6267  -25.4152 H   0  0  0  0  0
    4.5889   30.6617  -26.5567 H   0  0  0  0  0
    3.9343   29.5960  -25.2892 H   0  0  0  0  0
    2.8274   30.4953  -26.3555 H   0  0  0  0  0
  1  2  4  0  0  0
 13  1  4  0  0  0
  1 14  1  0  0  0
  2  3  4  0  0  0
 11  3  4  0  0  0
  3 15  1  0  0  0
 11  4  1  0  0  0
  4 16  2  0  0  0
  4 18  1  0  0  0
  5 17  1  0  0  0
 18  5  1  0  0  0
  5 21  2  0  0  0
  6  7  4  0  0  0
  6  9  4  0  0  0
 18  6  1  0  0  0
  7  8  4  0  0  0
  7 29  1  0  0  0
  8 19  4  0  0  0
  9 20  4  0  0  0
 27 10  1  0  0  0
 12 11  4  0  0  0
 13 12  4  0  0  0
 22 13  1  0  0  0
 16 17  1  0  0  0
 20 19  4  0  0  0
 22 23  2  0  0  0
 22 24  2  0  0  0
 25 22  1  0  0  0
 25 26  1  0  0  0
 25 27  1  0  0  0
 27 28  1  0  0  0
  2 30  1  0  0  0
  8 31  1  0  0  0
  9 32  1  0  0  0
 10 33  1  0  0  0
 10 34  1  0  0  0
 10 35  1  0  0  0
 12 36  1  0  0  0
 14 37  1  0  0  0
 15 38  1  0  0  0
 17 39  1  0  0  0
 19 40  1  0  0  0
 20 41  1  0  0  0
 26 42  1  0  0  0
 26 43  1  0  0  0
 26 44  1  0  0  0
 27 45  1  0  0  0
 28 46  1  0  0  0
 28 47  1  0  0  0
 28 48  1  0  0  0
M  END
$$$$
