4zy5_ligand
  -I-interpret- 

 49 52  0  0  0  0  0  0  0  0999 V2000
   13.8640  -13.6780   15.4120 N   0  0  0  0  0
   12.9080  -12.9090   14.9080 C   0  0  0  0  0
   11.3900  -13.6170   16.4970 C   0  0  0  0  0
   14.4180  -12.4230   13.0470 C   0  0  0  0  0
   17.1120   -9.0120   13.1200 C   0  0  0  0  0
   15.6010   -8.7570   13.1880 C   0  0  0  0  0
   16.1550  -15.4650   15.0580 C   0  0  0  0  0
   17.7360  -15.3350   12.3810 C   0  0  0  0  0
   12.3620  -14.4260   17.0510 C   0  0  0  0  0
   13.6340  -14.4450   16.4680 C   0  0  0  0  0
   11.6920  -12.8800   15.4360 N   0  0  0  0  0
   13.2000  -12.1310   13.8000 N   0  0  0  0  0
   15.1650  -11.1400   12.6760 C   0  0  0  0  0
   16.6710  -11.4140   12.6840 C   0  0  0  0  0
   17.4050  -10.1750   12.1760 C   0  0  0  0  0
   14.8750  -10.0170   13.6710 C   0  0  0  0  0
   17.8050   -7.8070   12.6430 N   0  3  0  0  0
   14.6250  -15.2450   17.0200 N   0  0  0  0  0
   15.7710  -15.6790   16.3550 C   0  0  0  0  0
   16.7350  -16.4330   16.9380 N   0  0  0  0  0
   17.7260  -16.6800   15.9850 N   0  0  0  0  0
   17.3830  -16.1080   14.8600 C   0  0  0  0  0
   18.1990  -16.1540   13.5870 C   0  0  0  0  0
   18.9680  -14.8950   13.1780 C   0  0  0  0  0
   10.3883  -13.5843   16.9254 H   0  0  0  0  0
   14.1418  -12.9410   12.1286 H   0  0  0  0  0
   15.0706  -13.0366   13.6680 H   0  0  0  0  0
   17.4695   -9.2612   14.1191 H   0  0  0  0  0
   15.2378   -8.4937   12.1946 H   0  0  0  0  0
   15.4069   -7.9428   13.8862 H   0  0  0  0  0
   15.6022  -14.8947   14.3115 H   0  0  0  0  0
   16.8149  -14.8998   11.9935 H   0  0  0  0  0
   17.4506  -15.4997   11.3420 H   0  0  0  0  0
   12.1428  -15.0382   17.9258 H   0  0  0  0  0
   12.5799  -11.3725   13.5164 H   0  0  0  0  0
   14.8284  -10.8291   11.6870 H   0  0  0  0  0
   16.8933  -12.2633   12.0380 H   0  0  0  0  0
   16.9972  -11.6441   13.6983 H   0  0  0  0  0
   18.4777  -10.3663   12.1456 H   0  0  0  0  0
   17.0655   -9.9299   11.1696 H   0  0  0  0  0
   13.8021   -9.8340   13.7301 H   0  0  0  0  0
   15.2246  -10.2952   14.6652 H   0  0  0  0  0
   17.6084   -7.0307   13.2747 H   0  0  0  0  0
   18.8097   -7.9812   12.6189 H   0  0  0  0  0
   17.4762   -7.5758   11.7055 H   0  0  0  0  0
   14.5053  -15.5388   17.9894 H   0  0  0  0  0
   18.4553  -17.2011   13.7485 H   0  0  0  0  0
   19.3626  -13.9907   13.6412 H   0  0  0  0  0
   19.9975  -14.5898   12.9907 H   0  0  0  0  0
  1  2  4  0  0  0
 10  1  4  0  0  0
  2 11  4  0  0  0
  2 12  1  0  0  0
  9  3  4  0  0  0
  3 11  4  0  0  0
 12  4  1  0  0  0
  4 13  1  0  0  0
  6  5  1  0  0  0
 15  5  1  0  0  0
  5 17  1  0  0  0
 16  6  1  0  0  0
  7 19  4  0  0  0
 22  7  4  0  0  0
 23  8  1  0  0  0
  8 24  1  0  0  0
 10  9  4  0  0  0
 18 10  1  0  0  0
 13 14  1  0  0  0
 13 16  1  0  0  0
 14 15  1  0  0  0
 19 18  1  0  0  0
 20 19  4  0  0  0
 21 20  4  0  0  0
 22 21  4  0  0  0
 22 23  1  0  0  0
 23 24  1  0  0  0
  3 25  1  0  0  0
  4 26  1  0  0  0
  4 27  1  0  0  0
  5 28  1  0  0  0
  6 29  1  0  0  0
  6 30  1  0  0  0
  7 31  1  0  0  0
  8 32  1  0  0  0
  8 33  1  0  0  0
  9 34  1  0  0  0
 12 35  1  0  0  0
 13 36  1  0  0  0
 14 37  1  0  0  0
 14 38  1  0  0  0
 15 39  1  0  0  0
 15 40  1  0  0  0
 16 41  1  0  0  0
 16 42  1  0  0  0
 17 43  1  0  0  0
 17 44  1  0  0  0
 17 45  1  0  0  0
 18 46  1  0  0  0
 23 47  1  0  0  0
 24 48  1  0  0  0
 24 49  1  0  0  0
M  END
$$$$
