6ps6_ligand
  -I-interpret- 

 46 47  0  0  0  0  0  0  0  0999 V2000
    3.2190    1.5140   50.8040 C   0  0  0  0  0
    3.1400    1.7370   52.3040 C   0  0  0  0  0
    2.7510    0.5100   52.9550 O   0  0  0  0  0
    1.4390    0.0750   52.5500 C   0  0  0  0  0
    1.3440   -0.1310   51.0420 C   0  0  0  0  0
    1.9740    0.9510   50.2730 N   0  0  0  0  0
    1.4410    1.3370   49.0550 C   0  0  0  0  0
    0.9490    0.4430   48.1800 N   0  0  0  0  0
    0.4180    1.3080   46.8540 S   0  0  0  0  0
    0.8040    2.8470   47.3360 N   0  0  0  0  0
    1.3630    2.6950   48.5450 C   0  0  0  0  0
    1.7640    3.8350   49.1850 O   0  0  0  0  0
    2.8650    4.5290   48.5680 C   0  0  0  0  0
    3.3280    5.7000   49.4340 C   0  0  0  0  0
    3.5570    6.8190   48.5810 O   0  0  0  0  0
    2.3830    6.0590   50.6050 C   0  0  0  0  0
    2.8720    7.2290   51.3830 N   0  3  0  0  0
    2.5460    7.3590   52.8410 C   0  0  0  0  0
    1.0650    7.2900   53.2440 C   0  0  0  0  0
    3.2770    6.3240   53.6640 C   0  0  0  0  0
    3.0640    8.7320   53.2940 C   0  0  0  0  0
    4.0270    0.8103   50.6036 H   0  0  0  0  0
    3.3935    2.4762   50.3226 H   0  0  0  0  0
    2.4019    2.5102   52.5171 H   0  0  0  0  0
    4.1154    2.0511   52.6756 H   0  0  0  0  0
    0.7223    0.8455   52.8340 H   0  0  0  0  0
    1.2308   -0.8775   53.0374 H   0  0  0  0  0
    0.2871   -0.1549   50.7764 H   0  0  0  0  0
    1.8656   -1.0570   50.8002 H   0  0  0  0  0
    2.5381    4.9155   47.6027 H   0  0  0  0  0
    3.6949    3.8325   48.4487 H   0  0  0  0  0
    4.2478    5.3937   49.9323 H   0  0  0  0  0
    3.8493    7.5667   49.1074 H   0  0  0  0  0
    2.3340    5.2017   51.2764 H   0  0  0  0  0
    1.4079    6.3120   50.1887 H   0  0  0  0  0
    2.4130    8.0301   50.9494 H   0  0  0  0  0
    3.8880    7.1417   51.3584 H   0  0  0  0  0
    0.5181    8.0945   52.7522 H   0  0  0  0  0
    0.6513    6.3286   52.9395 H   0  0  0  0  0
    0.9786    7.3981   54.3252 H   0  0  0  0  0
    2.9876    5.3270   53.3319 H   0  0  0  0  0
    4.3518    6.4531   53.5365 H   0  0  0  0  0
    3.0171    6.4478   54.7153 H   0  0  0  0  0
    4.1407    8.7840   53.1326 H   0  0  0  0  0
    2.5706    9.5137   52.7165 H   0  0  0  0  0
    2.8471    8.8693   54.3533 H   0  0  0  0  0
  1  2  1  0  0  0
  1  6  1  0  0  0
  2  3  1  0  0  0
  3  4  1  0  0  0
  4  5  1  0  0  0
  5  6  1  0  0  0
  6  7  1  0  0  0
  7  8  4  0  0  0
  7 11  4  0  0  0
  8  9  4  0  0  0
  9 10  4  0  0  0
 10 11  4  0  0  0
 11 12  1  0  0  0
 12 13  1  0  0  0
 13 14  1  0  0  0
 14 15  1  0  0  0
 14 16  1  0  0  0
 16 17  1  0  0  0
 17 18  1  0  0  0
 18 19  1  0  0  0
 18 20  1  0  0  0
 18 21  1  0  0  0
  1 22  1  0  0  0
  1 23  1  0  0  0
  2 24  1  0  0  0
  2 25  1  0  0  0
  4 26  1  0  0  0
  4 27  1  0  0  0
  5 28  1  0  0  0
  5 29  1  0  0  0
 13 30  1  0  0  0
 13 31  1  0  0  0
 14 32  1  0  0  0
 15 33  1  0  0  0
 16 34  1  0  0  0
 16 35  1  0  0  0
 17 36  1  0  0  0
 17 37  1  0  0  0
 19 38  1  0  0  0
 19 39  1  0  0  0
 19 40  1  0  0  0
 20 41  1  0  0  0
 20 42  1  0  0  0
 20 43  1  0  0  0
 21 44  1  0  0  0
 21 45  1  0  0  0
 21 46  1  0  0  0
M  END
$$$$
