6oxs_ligand
  -I-interpret- 

 86 89  0  0  0  0  0  0  0  0999 V2000
   73.4620   55.1830   15.2770 C   0  0  0  0  0
   70.2740   57.2240   14.0070 C   0  0  0  0  0
   72.7190   59.1890   17.6190 C   0  0  0  0  0
   75.8730   60.7830   18.8190 C   0  0  0  0  0
   73.9140   60.9030   20.1320 C   0  0  0  0  0
   72.4240   61.1250   20.1050 C   0  0  0  0  0
   66.6300   52.3410   12.9890 C   0  0  0  0  0
   66.4540   53.8760   12.8750 C   0  0  0  0  0
   67.3310   54.7970   13.7220 C   0  0  0  0  0
   68.3600   54.1630   14.6660 C   0  0  0  0  0
   68.5440   52.6410   14.7720 C   0  0  0  0  0
   67.6670   51.7230   13.9220 C   0  0  0  0  0
   71.3990   54.9360   13.8050 C   0  0  0  0  0
   72.9070   55.2590   13.8240 C   0  0  0  0  0
   73.6350   54.2340   12.9480 C   0  0  0  0  0
   71.1610   58.3210   14.6120 C   0  0  0  0  0
   70.7620   58.5850   16.0700 C   0  0  0  0  0
   74.3900   60.1340   19.1580 C   0  0  0  0  0
   74.5360   62.3420   19.8570 C   0  0  0  0  0
   72.2260   62.2070   19.3740 C   0  0  0  0  0
   69.3800   59.2160   16.1810 C   0  0  0  0  0
   69.1390   59.6250   17.6580 C   0  0  0  0  0
   69.1560   61.1310   18.0410 C   0  0  0  0  0
   68.9190   61.5520   19.4990 C   0  0  0  0  0
   68.6640   60.4750   20.5780 C   0  0  0  0  0
   68.6470   58.9710   20.1910 C   0  0  0  0  0
   68.8840   58.5490   18.7290 C   0  0  0  0  0
   64.2710   51.7380   12.3930 C   0  0  0  0  0
   65.7400   51.4110   12.1150 C   0  0  0  0  0
   70.6380   55.9130   14.6350 N   0  0  0  0  0
   71.6940   59.5520   16.6140 N   0  0  0  0  0
   68.6800   56.2880   16.3660 O   0  0  0  0  0
   70.0600   54.4540   16.7700 O   0  0  0  0  0
   71.0610   59.4810   13.8660 O   0  0  0  0  0
   72.7750   58.1130   18.1130 O   0  0  0  0  0
   73.6250   60.2390   17.9540 O   0  0  0  0  0
   75.6440   62.1040   18.7790 O   0  0  0  0  0
   73.6150   63.0720   19.4080 O   0  0  0  0  0
   66.0720   51.6730   10.7960 O   0  0  0  0  0
   69.4510   55.2420   15.7020 S   0  0  0  0  0
   72.9366   55.9039   15.9034 H   0  0  0  0  0
   73.3092   54.1782   15.6708 H   0  0  0  0  0
   74.5272   55.4139   15.2702 H   0  0  0  0  0
   70.4288   57.1745   12.9292 H   0  0  0  0  0
   69.2246   57.4481   14.1984 H   0  0  0  0  0
   76.2867   60.4055   17.8838 H   0  0  0  0  0
   76.6228   60.5147   19.5632 H   0  0  0  0  0
   74.1596   60.4190   21.0772 H   0  0  0  0  0
   72.0274   61.2532   21.1122 H   0  0  0  0  0
   71.9060   60.2644   19.6816 H   0  0  0  0  0
   65.7111   54.2953   12.1965 H   0  0  0  0  0
   67.2276   55.8801   13.6567 H   0  0  0  0  0
   69.2912   52.2214   15.4455 H   0  0  0  0  0
   67.7807   50.6406   13.9814 H   0  0  0  0  0
   71.2485   53.9363   14.2124 H   0  0  0  0  0
   71.0402   54.9931   12.7773 H   0  0  0  0  0
   73.0662   56.2682   13.4441 H   0  0  0  0  0
   73.4634   53.2329   13.3435 H   0  0  0  0  0
   73.2541   54.2935   11.9285 H   0  0  0  0  0
   74.7036   54.4490   12.9511 H   0  0  0  0  0
   72.1973   57.9837   14.5932 H   0  0  0  0  0
   70.7662   57.6306   16.5966 H   0  0  0  0  0
   74.3863   59.0901   19.4718 H   0  0  0  0  0
   74.9553   62.8235   20.7404 H   0  0  0  0  0
   71.3978   62.7936   19.7716 H   0  0  0  0  0
   71.9658   61.9374   18.3504 H   0  0  0  0  0
   68.6197   58.5016   15.8652 H   0  0  0  0  0
   69.3207   60.0945   15.5385 H   0  0  0  0  0
   69.0805   59.0261   18.5668 H   0  0  0  0  0
   68.3190   61.5624   17.4921 H   0  0  0  0  0
   70.1732   61.4571   17.8239 H   0  0  0  0  0
   67.9980   62.1343   19.4699 H   0  0  0  0  0
   69.8516   62.0280   19.8019 H   0  0  0  0  0
   67.6515   60.6763   20.9280 H   0  0  0  0  0
   69.5086   60.5698   21.2605 H   0  0  0  0  0
   67.6293   58.6457   20.4068 H   0  0  0  0  0
   69.4850   58.5394   20.7383 H   0  0  0  0  0
   69.8035   57.9643   18.7566 H   0  0  0  0  0
   67.9517   58.0731   18.4250 H   0  0  0  0  0
   64.0909   52.7941   12.1922 H   0  0  0  0  0
   63.6365   51.1308   11.7475 H   0  0  0  0  0
   64.0430   51.5212   13.4366 H   0  0  0  0  0
   65.8964   50.3550   12.3354 H   0  0  0  0  0
   71.6420   60.5187   16.2927 H   0  0  0  0  0
   71.3137   59.2989   12.9579 H   0  0  0  0  0
   65.5436   51.1178   10.2179 H   0  0  0  0  0
 14  1  1  0  0  0
  2 16  1  0  0  0
 30  2  1  0  0  0
 31  3  1  0  0  0
  3 35  2  0  0  0
  3 36  1  0  0  0
 18  4  1  0  0  0
  4 37  1  0  0  0
  5  6  1  0  0  0
 18  5  1  0  0  0
  5 19  1  0  0  0
  6 20  1  0  0  0
  8  7  4  0  0  0
 12  7  4  0  0  0
  7 29  1  0  0  0
  9  8  4  0  0  0
 10  9  4  0  0  0
 10 11  4  0  0  0
 40 10  1  0  0  0
 11 12  4  0  0  0
 13 14  1  0  0  0
 30 13  1  0  0  0
 14 15  1  0  0  0
 16 17  1  0  0  0
 16 34  1  0  0  0
 17 21  1  0  0  0
 17 31  1  0  0  0
 36 18  1  0  0  0
 19 37  1  0  0  0
 19 38  1  0  0  0
 38 20  1  0  0  0
 21 22  1  0  0  0
 22 23  1  0  0  0
 22 27  1  0  0  0
 23 24  1  0  0  0
 24 25  1  0  0  0
 26 25  1  0  0  0
 27 26  1  0  0  0
 29 28  1  0  0  0
 29 39  1  0  0  0
 30 40  1  0  0  0
 40 32  2  0  0  0
 40 33  2  0  0  0
  1 41  1  0  0  0
  1 42  1  0  0  0
  1 43  1  0  0  0
  2 44  1  0  0  0
  2 45  1  0  0  0
  4 46  1  0  0  0
  4 47  1  0  0  0
  5 48  1  0  0  0
  6 49  1  0  0  0
  6 50  1  0  0  0
  8 51  1  0  0  0
  9 52  1  0  0  0
 11 53  1  0  0  0
 12 54  1  0  0  0
 13 55  1  0  0  0
 13 56  1  0  0  0
 14 57  1  0  0  0
 15 58  1  0  0  0
 15 59  1  0  0  0
 15 60  1  0  0  0
 16 61  1  0  0  0
 17 62  1  0  0  0
 18 63  1  0  0  0
 19 64  1  0  0  0
 20 65  1  0  0  0
 20 66  1  0  0  0
 21 67  1  0  0  0
 21 68  1  0  0  0
 22 69  1  0  0  0
 23 70  1  0  0  0
 23 71  1  0  0  0
 24 72  1  0  0  0
 24 73  1  0  0  0
 25 74  1  0  0  0
 25 75  1  0  0  0
 26 76  1  0  0  0
 26 77  1  0  0  0
 27 78  1  0  0  0
 27 79  1  0  0  0
 28 80  1  0  0  0
 28 81  1  0  0  0
 28 82  1  0  0  0
 29 83  1  0  0  0
 31 84  1  0  0  0
 34 85  1  0  0  0
 39 86  1  0  0  0
M  END
$$$$
