4kwg_ligand
  -I-interpret- 

 19 20  0  0  0  0  0  0  0  0999 V2000
    3.9470  -26.9290   49.1570 Br  0  0  0  0  0
    2.0930  -27.2150   49.3320 C   0  0  0  0  0
    1.3310  -26.5960   50.3250 C   0  0  0  0  0
   -0.0490  -26.8160   50.4430 C   0  0  0  0  0
   -0.8150  -26.1180   51.5360 C   0  0  0  0  0
   -0.7330  -27.6680   49.5710 C   0  0  0  0  0
    1.4400  -28.1270   48.3740 C   0  0  0  0  0
    1.9070  -28.8580   47.3230 N   0  0  0  0  0
    0.8700  -29.5170   46.7820 C   0  0  0  0  0
    0.9520  -30.3110   45.7790 O   0  0  0  0  0
   -0.3750  -29.2440   47.5020 C   0  0  0  0  0
   -0.0240  -28.3070   48.5670 C   0  0  0  0  0
   -1.5380  -29.7060   47.2380 O   0  0  0  0  0
    1.8224  -25.9232   51.0279 H   0  0  0  0  0
   -0.4098  -26.4094   52.5050 H   0  0  0  0  0
   -0.7218  -25.0392   51.4113 H   0  0  0  0  0
   -1.8658  -26.4020   51.4799 H   0  0  0  0  0
   -1.8059  -27.8268   49.6792 H   0  0  0  0  0
    2.8748  -28.8975   47.0034 H   0  0  0  0  0
  1  2  1  0  0  0
  2  3  4  0  0  0
  2  7  4  0  0  0
  3  4  4  0  0  0
  4  5  1  0  0  0
  4  6  4  0  0  0
  6 12  4  0  0  0
  7  8  1  0  0  0
  7 12  4  0  0  0
  8  9  1  0  0  0
  9 10  2  0  0  0
  9 11  1  0  0  0
 11 12  1  0  0  0
 11 13  2  0  0  0
  3 14  1  0  0  0
  5 15  1  0  0  0
  5 16  1  0  0  0
  5 17  1  0  0  0
  6 18  1  0  0  0
  8 19  1  0  0  0
M  END
$$$$
