4mwe_ligand
  -I-interpret- 

 55 56  0  0  0  0  0  0  0  0999 V2000
  -36.9120  -15.1650   -7.0110 Cl  0  0  0  0  0
  -38.6300  -14.8800   -7.0940 C   0  0  0  0  0
  -39.4970  -15.9470   -6.9630 C   0  0  0  0  0
  -40.8710  -15.7400   -7.0480 C   0  0  0  0  0
  -41.8180  -16.9290   -7.0640 C   0  0  0  0  0
  -41.5390  -17.9180   -6.0250 C   0  0  0  0  0
  -41.3470  -17.6760   -4.7890 C   0  0  0  0  0
  -41.3310  -14.4380   -7.2440 C   0  0  0  0  0
  -42.6870  -14.2230   -7.3810 O   0  0  0  0  0
  -43.5210  -14.2840   -6.2110 C   0  0  0  0  0
  -44.9420  -14.3870   -6.6610 C   0  0  0  0  0
  -45.3710  -14.6740   -7.8740 C   0  0  0  0  0
  -39.0870  -13.5980   -7.3050 C   0  0  0  0  0
  -40.4570  -13.3560   -7.3890 C   0  0  0  0  0
  -40.9840  -11.9780   -7.7190 C   0  0  0  0  0
  -41.2940  -11.8040   -9.1490 N   0  3  0  0  0
  -42.5640  -11.1010   -9.4150 C   0  0  0  0  0
  -43.7030  -12.0470   -9.8000 C   0  0  0  0  0
  -44.2180  -11.9470  -11.2280 C   0  0  0  0  0
  -43.5500  -12.8790  -12.1330 N   0  0  0  0  0
  -44.2240  -13.7300  -12.9390 C   0  0  0  0  0
  -45.4460  -13.6700  -13.1050 O   0  0  0  0  0
  -43.4330  -14.6860  -13.6130 N   0  0  0  0  0
  -43.8920  -15.7220  -14.4890 C   0  0  0  0  0
  -42.9610  -16.6850  -14.9910 C   0  0  0  0  0
  -43.5260  -17.6360  -15.7880 C   0  0  0  0  0
  -45.2460  -17.3700  -15.9360 S   0  0  0  0  0
  -45.1780  -15.9880  -14.9400 C   0  0  0  0  0
  -39.1059  -16.9501   -6.7932 H   0  0  0  0  0
  -41.6998  -17.4262   -8.0267 H   0  0  0  0  0
  -42.8234  -16.5466   -6.8877 H   0  0  0  0  0
  -41.4906  -18.9613   -6.3370 H   0  0  0  0  0
  -41.3841  -16.6502   -4.4223 H   0  0  0  0  0
  -41.1456  -18.4948   -4.0982 H   0  0  0  0  0
  -43.3826  -13.3899   -5.6031 H   0  0  0  0  0
  -43.2549  -15.1492   -5.6038 H   0  0  0  0  0
  -45.7060  -14.2053   -5.9051 H   0  0  0  0  0
  -44.6558  -14.8660   -8.6738 H   0  0  0  0  0
  -46.4409  -14.7193   -8.0772 H   0  0  0  0  0
  -38.3794  -12.7751   -7.4060 H   0  0  0  0  0
  -40.2099  -11.2564   -7.4580 H   0  0  0  0  0
  -41.9088  -11.8348   -7.1601 H   0  0  0  0  0
  -41.3773  -12.7367   -9.5533 H   0  0  0  0  0
  -40.5475  -11.2367   -9.5507 H   0  0  0  0  0
  -42.3987  -10.4230  -10.2523 H   0  0  0  0  0
  -42.8558  -10.5858   -8.4999 H   0  0  0  0  0
  -44.5433  -11.7835   -9.1578 H   0  0  0  0  0
  -43.3052  -13.0562   -9.6934 H   0  0  0  0  0
  -44.0232  -10.9356  -11.5846 H   0  0  0  0  0
  -45.2802  -12.1913  -11.2192 H   0  0  0  0  0
  -42.5303  -12.8882  -12.1580 H   0  0  0  0  0
  -42.4260  -14.6331  -13.4594 H   0  0  0  0  0
  -41.8966  -16.6607  -14.7576 H   0  0  0  0  0
  -42.9802  -18.4493  -16.2664 H   0  0  0  0  0
  -46.0469  -15.3811  -14.6857 H   0  0  0  0  0
  1  2  1  0  0  0
  2  3  4  0  0  0
  2 13  4  0  0  0
  3  4  4  0  0  0
  4  5  1  0  0  0
  4  8  4  0  0  0
  5  6  1  0  0  0
  6  7  2  0  0  0
  8  9  1  0  0  0
  8 14  4  0  0  0
  9 10  1  0  0  0
 10 11  1  0  0  0
 11 12  2  0  0  0
 13 14  4  0  0  0
 14 15  1  0  0  0
 15 16  1  0  0  0
 16 17  1  0  0  0
 17 18  1  0  0  0
 18 19  1  0  0  0
 19 20  1  0  0  0
 20 21  1  0  0  0
 21 22  2  0  0  0
 21 23  1  0  0  0
 23 24  1  0  0  0
 24 25  4  0  0  0
 24 28  4  0  0  0
 25 26  4  0  0  0
 26 27  4  0  0  0
 27 28  4  0  0  0
  3 29  1  0  0  0
  5 30  1  0  0  0
  5 31  1  0  0  0
  6 32  1  0  0  0
  7 33  1  0  0  0
  7 34  1  0  0  0
 10 35  1  0  0  0
 10 36  1  0  0  0
 11 37  1  0  0  0
 12 38  1  0  0  0
 12 39  1  0  0  0
 13 40  1  0  0  0
 15 41  1  0  0  0
 15 42  1  0  0  0
 16 43  1  0  0  0
 16 44  1  0  0  0
 17 45  1  0  0  0
 17 46  1  0  0  0
 18 47  1  0  0  0
 18 48  1  0  0  0
 19 49  1  0  0  0
 19 50  1  0  0  0
 20 51  1  0  0  0
 23 52  1  0  0  0
 25 53  1  0  0  0
 26 54  1  0  0  0
 28 55  1  0  0  0
M  END
$$$$
