### 
### Created by X-TOOL on Mon Sep 10 21:13:23 2018
### 

@<TRIPOS>MOLECULE
4y67_ligand
   41    41     1     0     0
SMALL
GAST_HUCK


@<TRIPOS>ATOM
      1 O12         3.7090   15.0040   20.6260 O.2       1 RC5        -0.3968
      2 C4          3.3330   13.9200   20.1580 C.2       1 RC5         0.2014
      3 N9          3.9130   13.4090   19.0720 N.am      1 RC5        -0.1538
      4 O10         4.9780   14.0710   18.4650 O.3       1 RC5        -0.2694
      5 C11         3.5200   12.1350   18.4690 C.3       1 RC5         0.0516
      6 C3          2.1160   13.3170   20.7740 C.3       1 RC5         0.0432
      7 C2          0.9050   14.0830   20.2060 C.3       1 RC5        -0.0091
      8 C1         -0.1780   14.1910   21.2790 C.3       1 RC5         0.0245
      9 P5         -0.8830   15.8730   21.3710 P.3       1 RC5         0.0583
     10 O7         -0.0280   16.7680   22.2390 O.co2     1 RC5        -0.5622
     11 O6         -2.2840   15.7450   21.9600 O.co2     1 RC5        -0.5622
     12 O8         -1.0610   16.4560   20.0420 O.co2     1 RC5        -0.5622
     13 C13         0.3780   13.4640   18.8760 C.3       1 RC5        -0.0451
     14 C14        -0.1060   11.9970   18.9820 C.3       1 RC5        -0.0428
     15 C15        -0.5500   11.4290   17.6120 C.3       1 RC5        -0.0191
     16 C16         0.6420   11.0630   16.7580 C.ar      1 RC5        -0.0430
     17 C17         1.4080    9.9350   17.0700 C.ar      1 RC5        -0.0603
     18 C19         2.5170    9.6170   16.3100 C.ar      1 RC5        -0.0686
     19 C21         2.8600   10.4170   15.2200 C.ar      1 RC5        -0.0687
     20 C20         2.1120   11.5440   14.9100 C.ar      1 RC5        -0.0686
     21 C18         0.9980   11.8700   15.6650 C.ar      1 RC5        -0.0603
     22 H1          5.6923   14.1551   19.0857 H         1 RC5         0.2492
     23 H2          4.1477   11.9375   17.5875 H         1 RC5         0.0514
     24 H3          2.4643   12.1839   18.1638 H         1 RC5         0.0514
     25 H4          3.6527   11.3259   19.2022 H         1 RC5         0.0514
     26 H5          2.1526   13.4237   21.8682 H         1 RC5         0.0505
     27 H6          2.0470   12.2510   20.5116 H         1 RC5         0.0505
     28 H7          1.2399   15.1042   19.9716 H         1 RC5         0.0339
     29 H8          0.2617   13.9363   22.2546 H         1 RC5         0.0455
     30 H9         -0.9839   13.4804   21.0432 H         1 RC5         0.0455
     31 H10         1.1913   13.5021   18.1364 H         1 RC5         0.0271
     32 H11        -0.4655   14.0768   18.5254 H         1 RC5         0.0271
     33 H12        -0.9579   11.9540   19.6765 H         1 RC5         0.0287
     34 H13         0.7166   11.3795   19.3720 H         1 RC5         0.0287
     35 H14        -1.1482   12.1877   17.0862 H         1 RC5         0.0426
     36 H15        -1.1617   10.5300   17.7779 H         1 RC5         0.0426
     37 H16         1.1308    9.3088   17.9102 H         1 RC5         0.0557
     38 H17         3.1178    8.7499   16.5595 H         1 RC5         0.0599
     39 H18         3.7176   10.1563   14.6103 H         1 RC5         0.0559
     40 H19         2.4007   12.1711   14.0742 H         1 RC5         0.0599
     41 H20         0.4048   12.7420   15.4142 H         1 RC5         0.0557
@<TRIPOS>BOND
     1    1    2 2  
     2    2    3 am 
     3    2    6 1  
     4    3    4 1  
     5    3    5 1  
     6    6    7 1  
     7    7    8 1  
     8    7   13 1  
     9    8    9 1  
    10    9   10 ar 
    11    9   11 ar 
    12    9   12 ar 
    13   13   14 1  
    14   14   15 1  
    15   15   16 1  
    16   16   17 ar 
    17   16   21 ar 
    18   17   18 ar 
    19   18   19 ar 
    20   19   20 ar 
    21   20   21 ar 
    22    4   22 1  
    23    5   23 1  
    24    5   24 1  
    25    5   25 1  
    26    6   26 1  
    27    6   27 1  
    28    7   28 1  
    29    8   29 1  
    30    8   30 1  
    31   13   31 1  
    32   13   32 1  
    33   14   33 1  
    34   14   34 1  
    35   15   35 1  
    36   15   36 1  
    37   17   37 1  
    38   18   38 1  
    39   19   39 1  
    40   20   40 1  
    41   21   41 1  
@<TRIPOS>SUBSTRUCTURE
     1 RC5         1

