4y67_ligand
  -I-interpret- 

 43 43  0  0  0  0  0  0  0  0999 V2000
    3.7090   15.0040   20.6260 O   0  0  0  0  0
    3.3330   13.9200   20.1580 C   0  0  0  0  0
    3.9130   13.4090   19.0720 N   0  0  0  0  0
    4.9780   14.0710   18.4650 O   0  0  0  0  0
    3.5200   12.1350   18.4690 C   0  0  0  0  0
    2.1160   13.3170   20.7740 C   0  0  0  0  0
    0.9050   14.0830   20.2060 C   0  0  0  0  0
   -0.1780   14.1910   21.2790 C   0  0  0  0  0
   -0.8830   15.8730   21.3710 P   0  0  0  0  0
   -0.0280   16.7680   22.2390 O   0  0  0  0  0
   -2.2840   15.7450   21.9600 O   0  0  0  0  0
   -1.0610   16.4560   20.0420 O   0  0  0  0  0
    0.3780   13.4640   18.8760 C   0  0  0  0  0
   -0.1060   11.9970   18.9820 C   0  0  0  0  0
   -0.5500   11.4290   17.6120 C   0  0  0  0  0
    0.6420   11.0630   16.7580 C   0  0  0  0  0
    1.4080    9.9350   17.0700 C   0  0  0  0  0
    2.5170    9.6170   16.3100 C   0  0  0  0  0
    2.8600   10.4170   15.2200 C   0  0  0  0  0
    2.1120   11.5440   14.9100 C   0  0  0  0  0
    0.9980   11.8700   15.6650 C   0  0  0  0  0
    5.1538   14.8897   18.9345 H   0  0  0  0  0
    3.2226   12.3010   17.4336 H   0  0  0  0  0
    4.3628   11.4445   18.5000 H   0  0  0  0  0
    2.6829   11.7139   19.0258 H   0  0  0  0  0
    2.1508   13.3969   21.8605 H   0  0  0  0  0
    2.0480   12.2547   20.5394 H   0  0  0  0  0
    1.2244   15.0906   19.9400 H   0  0  0  0  0
    0.2727   13.9568   22.2434 H   0  0  0  0  0
   -0.9803   13.4983   21.0249 H   0  0  0  0  0
    0.0760   16.3673   23.1051 H   0  0  0  0  0
   -2.2266   15.3645   22.8395 H   0  0  0  0  0
    1.2123   13.4697   18.1745 H   0  0  0  0  0
   -0.4841   14.0581   18.5728 H   0  0  0  0  0
   -0.9631   11.9698   19.6549 H   0  0  0  0  0
    0.7230   11.3914   19.3483 H   0  0  0  0  0
   -1.1294   12.1914   17.0912 H   0  0  0  0  0
   -1.1429   10.5307   17.7841 H   0  0  0  0  0
    1.1292    9.3053   17.9149 H   0  0  0  0  0
    3.1211    8.7451   16.5609 H   0  0  0  0  0
    3.7223   10.1549   14.6070 H   0  0  0  0  0
    2.4023   12.1745   14.0696 H   0  0  0  0  0
    0.4015   12.7468   15.4128 H   0  0  0  0  0
  1  2  2  0  0  0
  2  3  1  0  0  0
  2  6  1  0  0  0
  3  4  1  0  0  0
  3  5  1  0  0  0
  6  7  1  0  0  0
  7  8  1  0  0  0
  7 13  1  0  0  0
  8  9  1  0  0  0
  9 10  1  0  0  0
  9 11  1  0  0  0
  9 12  2  0  0  0
 13 14  1  0  0  0
 14 15  1  0  0  0
 15 16  1  0  0  0
 16 17  4  0  0  0
 16 21  4  0  0  0
 17 18  4  0  0  0
 18 19  4  0  0  0
 19 20  4  0  0  0
 20 21  4  0  0  0
  4 22  1  0  0  0
  5 23  1  0  0  0
  5 24  1  0  0  0
  5 25  1  0  0  0
  6 26  1  0  0  0
  6 27  1  0  0  0
  7 28  1  0  0  0
  8 29  1  0  0  0
  8 30  1  0  0  0
 10 31  1  0  0  0
 11 32  1  0  0  0
 13 33  1  0  0  0
 13 34  1  0  0  0
 14 35  1  0  0  0
 14 36  1  0  0  0
 15 37  1  0  0  0
 15 38  1  0  0  0
 17 39  1  0  0  0
 18 40  1  0  0  0
 19 41  1  0  0  0
 20 42  1  0  0  0
 21 43  1  0  0  0
M  END
$$$$
