2q8h_ligand
  -I-interpret- 

  8  7  0  0  0  0  0  0  0  0999 V2000
    0.5640   38.7870   -9.6890 C   0  0  0  0  0
    1.9860   38.4800   -9.2930 C   0  0  0  0  0
    2.8260   39.3890   -9.2660 O   0  0  0  0  0
    0.0510   37.5060  -10.8710 Cl  0  0  0  0  0
    0.4830   40.5390  -10.1650 Cl  0  0  0  0  0
    2.2950   37.3190   -8.9940 O   0  0  0  0  0
   -0.1846   38.7197   -8.8996 H   0  0  0  0  0
    1.5230   36.7536   -9.0710 H   0  0  0  0  0
  1  2  1  0  0  0
  1  4  1  0  0  0
  1  5  1  0  0  0
  2  3  2  0  0  0
  2  6  1  0  0  0
  1  7  1  0  0  0
  6  8  1  0  0  0
M  END
$$$$
