2r3w_ligand
  -I-interpret- 

 75 79  0  0  0  0  0  0  0  0999 V2000
  -14.3310  -23.7390   21.5950 C   0  0  0  0  0
  -15.3530  -24.1980   20.7420 C   0  0  0  0  0
  -15.1890  -24.1640   19.3370 C   0  0  0  0  0
  -13.9890  -23.6390   18.7890 C   0  0  0  0  0
  -12.9540  -23.1730   19.6370 C   0  0  0  0  0
  -13.1220  -23.2360   21.0450 C   0  0  0  0  0
  -11.4530  -22.5260   18.9190 S   0  0  0  0  0
  -10.4410  -22.9580   19.8640 O   0  0  0  0  0
  -11.4620  -22.8280   17.4980 O   0  0  0  0  0
  -11.7850  -20.8490   19.1690 N   0  0  0  0  0
  -11.3140  -20.2390   20.4480 C   0  0  0  0  0
  -10.0190  -19.4370   20.3320 C   0  0  0  0  0
   -9.7610  -18.3880   21.2570 C   0  0  0  0  0
   -8.5750  -17.6190   21.1800 C   0  0  0  0  0
   -7.6360  -17.9210   20.1580 C   0  0  0  0  0
   -7.8860  -18.9840   19.2400 C   0  0  0  0  0
   -9.0850  -19.7410   19.3130 C   0  0  0  0  0
  -12.7230  -20.1930   18.1790 C   0  0  0  0  0
  -13.9960  -19.5630   18.7900 C   0  0  0  0  0
  -13.9390  -18.0960   18.5460 N   0  3  0  0  0
  -12.5240  -17.7280   18.2390 C   0  0  0  0  0
  -11.9750  -18.9730   17.4930 C   0  0  0  0  0
  -12.2670  -18.8910   16.0220 N   0  0  0  0  0
  -13.5820  -18.7510   15.3710 C   0  0  0  0  0
  -14.4510  -20.0070   15.3450 C   0  0  0  0  0
  -15.8720  -19.8700   15.4540 C   0  0  0  0  0
  -16.7360  -21.0020   15.4180 C   0  0  0  0  0
  -16.1640  -22.3050   15.2970 C   0  0  0  0  0
  -14.7490  -22.4520   15.2100 C   0  0  0  0  0
  -13.8860  -21.3130   15.2250 C   0  0  0  0  0
  -10.9520  -19.2580   15.0260 S   0  0  0  0  0
   -9.8450  -17.8890   15.0500 C   0  0  0  0  0
  -10.0740  -16.6150   14.4640 C   0  0  0  0  0
   -9.1040  -15.5650   14.5650 C   0  0  0  0  0
   -7.8480  -15.8000   15.2330 C   0  0  0  0  0
   -7.6070  -17.0790   15.8220 C   0  0  0  0  0
   -8.6140  -18.0850   15.7680 C   0  0  0  0  0
  -11.4410  -19.4500   13.6470 O   0  0  0  0  0
  -10.2500  -20.4100   15.6160 O   0  0  0  0  0
   -6.8850  -14.8540   15.3160 N   0  0  0  0  0
  -16.4950  -24.6810   21.2640 N   0  0  0  0  0
  -14.4676  -23.7697   22.6760 H   0  0  0  0  0
  -15.9761  -24.5372   18.6818 H   0  0  0  0  0
  -13.8630  -23.5941   17.7072 H   0  0  0  0  0
  -12.3227  -22.8981   21.7046 H   0  0  0  0  0
  -11.1190  -21.0595   21.1386 H   0  0  0  0  0
  -12.0892  -19.5455   20.7738 H   0  0  0  0  0
  -10.4892  -18.1724   22.0389 H   0  0  0  0  0
   -8.3866  -16.8130   21.8892 H   0  0  0  0  0
   -6.7192  -17.3373   20.0746 H   0  0  0  0  0
   -7.1475  -19.2179   18.4732 H   0  0  0  0  0
   -9.2822  -20.5403   18.5986 H   0  0  0  0  0
  -13.0143  -21.0009   17.5078 H   0  0  0  0  0
  -14.0436  -19.7673   19.8596 H   0  0  0  0  0
  -14.8876  -19.9890   18.3298 H   0  0  0  0  0
  -14.2614  -17.5906   19.3713 H   0  0  0  0  0
  -14.5436  -17.8472   17.7631 H   0  0  0  0  0
  -11.9508  -17.4940   19.1361 H   0  0  0  0  0
  -12.4505  -16.8190   17.6420 H   0  0  0  0  0
  -10.8913  -19.0667   17.5636 H   0  0  0  0  0
  -13.3835  -18.4936   14.3306 H   0  0  0  0  0
  -14.1328  -18.0086   15.9485 H   0  0  0  0  0
  -16.3032  -18.8753   15.5673 H   0  0  0  0  0
  -17.8168  -20.8757   15.4818 H   0  0  0  0  0
  -16.8076  -23.1843   15.2713 H   0  0  0  0  0
  -14.3178  -23.4499   15.1307 H   0  0  0  0  0
  -12.8063  -21.4400   15.1456 H   0  0  0  0  0
  -11.0052  -16.4329   13.9275 H   0  0  0  0  0
   -9.3163  -14.5859   14.1356 H   0  0  0  0  0
   -6.6550  -17.2845   16.3115 H   0  0  0  0  0
   -8.4471  -19.0298   16.2852 H   0  0  0  0  0
   -7.0345  -13.9360   14.8973 H   0  0  0  0  0
   -6.0093  -15.0586   15.7973 H   0  0  0  0  0
  -16.6193  -24.7142   22.2759 H   0  0  0  0  0
  -17.2366  -25.0140   20.6479 H   0  0  0  0  0
  1  2  4  0  0  0
  1  6  4  0  0  0
  2  3  4  0  0  0
  2 41  1  0  0  0
  3  4  4  0  0  0
  4  5  4  0  0  0
  5  6  4  0  0  0
  5  7  1  0  0  0
  7  8  2  0  0  0
  7  9  2  0  0  0
  7 10  1  0  0  0
 10 11  1  0  0  0
 10 18  1  0  0  0
 11 12  1  0  0  0
 12 13  4  0  0  0
 12 17  4  0  0  0
 13 14  4  0  0  0
 14 15  4  0  0  0
 15 16  4  0  0  0
 16 17  4  0  0  0
 18 19  1  0  0  0
 18 22  1  0  0  0
 19 20  1  0  0  0
 20 21  1  0  0  0
 21 22  1  0  0  0
 22 23  1  0  0  0
 23 24  1  0  0  0
 23 31  1  0  0  0
 24 25  1  0  0  0
 25 26  4  0  0  0
 25 30  4  0  0  0
 26 27  4  0  0  0
 27 28  4  0  0  0
 28 29  4  0  0  0
 29 30  4  0  0  0
 31 32  1  0  0  0
 31 38  2  0  0  0
 31 39  2  0  0  0
 32 33  4  0  0  0
 32 37  4  0  0  0
 33 34  4  0  0  0
 34 35  4  0  0  0
 35 36  4  0  0  0
 35 40  1  0  0  0
 36 37  4  0  0  0
  1 42  1  0  0  0
  3 43  1  0  0  0
  4 44  1  0  0  0
  6 45  1  0  0  0
 11 46  1  0  0  0
 11 47  1  0  0  0
 13 48  1  0  0  0
 14 49  1  0  0  0
 15 50  1  0  0  0
 16 51  1  0  0  0
 17 52  1  0  0  0
 18 53  1  0  0  0
 19 54  1  0  0  0
 19 55  1  0  0  0
 20 56  1  0  0  0
 20 57  1  0  0  0
 21 58  1  0  0  0
 21 59  1  0  0  0
 22 60  1  0  0  0
 24 61  1  0  0  0
 24 62  1  0  0  0
 26 63  1  0  0  0
 27 64  1  0  0  0
 28 65  1  0  0  0
 29 66  1  0  0  0
 30 67  1  0  0  0
 33 68  1  0  0  0
 34 69  1  0  0  0
 36 70  1  0  0  0
 37 71  1  0  0  0
 40 72  1  0  0  0
 40 73  1  0  0  0
 41 74  1  0  0  0
 41 75  1  0  0  0
M  END
$$$$
