3wqv_ligand
  -I-interpret- 

118122  0  0  0  0  0  0  0  0999 V2000
  -39.2160   21.9680    3.6960 C   0  0  0  0  0
  -37.8700   21.9270    2.9920 C   0  0  0  0  0
  -36.8400   22.6610    3.8430 C   0  0  0  0  0
  -37.3320   24.0630    4.2180 C   0  0  0  0  0
  -38.7820   24.0270    4.7040 C   0  0  0  0  0
  -39.3310   25.4340    4.9340 C   0  0  0  0  0
  -37.4600   20.5570    2.7480 N   0  3  0  0  0
  -40.1670   21.2260    2.9710 O   0  0  0  0  0
  -35.6200   22.6950    3.1370 O   0  0  0  0  0
  -36.5830   24.6090    5.2830 O   0  0  0  0  0
  -39.6100   23.3190    3.8000 O   0  0  0  0  0
  -39.4340   26.1190    3.7080 O   0  0  0  0  0
  -35.3510   25.2340    4.8860 C   0  0  0  0  0
  -34.9860   26.2670    5.9480 C   0  0  0  0  0
  -33.6130   26.8940    5.7260 C   0  0  0  0  0
  -32.5540   25.8390    5.4160 C   0  0  0  0  0
  -33.0620   24.8540    4.3640 C   0  0  0  0  0
  -32.0870   23.7050    4.1600 C   0  0  0  0  0
  -36.0000   27.3030    6.0000 N   0  3  0  0  0
  -33.2680   27.6310    6.8790 O   0  0  0  0  0
  -31.3720   26.4500    4.9330 O   0  0  0  0  0
  -34.3070   24.3000    4.7360 O   0  0  0  0  0
  -32.4880   22.9600    3.0330 O   0  0  0  0  0
  -30.4090   26.7140    5.9720 C   0  0  0  0  0
  -29.0150   26.7950    5.3610 C   0  0  0  0  0
  -27.9440   27.0880    6.4110 C   0  0  0  0  0
  -28.3480   28.1910    7.3870 C   0  0  0  0  0
  -29.8260   28.1010    7.7820 C   0  0  0  0  0
  -30.3150   29.3490    8.5150 C   0  0  0  0  0
  -28.7000   25.5690    4.6540 N   0  3  0  0  0
  -26.7430   27.4470    5.7630 O   0  0  0  0  0
  -27.5510   28.0220    8.5430 O   0  0  0  0  0
  -30.6580   27.9170    6.6550 O   0  0  0  0  0
  -31.0630   30.1620    7.6370 O   0  0  0  0  0
  -26.9260   29.2410    9.0050 C   0  0  0  0  0
  -25.8160   28.9060    9.9810 C   0  0  0  0  0
  -25.4360   30.1590   10.7530 C   0  0  0  0  0
  -25.2120   31.3670    9.8240 C   0  0  0  0  0
  -26.0880   31.3720    8.5600 C   0  0  0  0  0
  -25.4430   32.2340    7.4770 C   0  0  0  0  0
  -26.2380   27.8550   10.8870 N   0  3  0  0  0
  -24.2710   29.8450   11.4900 O   0  0  0  0  0
  -25.4630   32.5950   10.4940 O   0  0  0  0  0
  -26.3650   30.0850    8.0280 O   0  0  0  0  0
  -24.1300   31.7930    7.2070 O   0  0  0  0  0
  -24.5130   32.8370   11.5520 C   0  0  0  0  0
  -24.0490   34.2980   11.5680 C   0  0  0  0  0
  -23.3340   34.7070   12.8620 C   0  0  0  0  0
  -23.8750   34.0140   14.1080 C   0  0  0  0  0
  -24.0080   32.5390   13.7840 C   0  0  0  0  0
  -24.3160   31.6730   14.9950 C   0  0  0  0  0
  -23.1670   34.5460   10.4430 N   0  3  0  0  0
  -23.4140   36.1070   13.0200 O   0  0  0  0  0
  -22.9980   34.1900   15.1980 O   0  0  0  0  0
  -25.0130   32.4370   12.8090 O   0  0  0  0  0
  -23.1530   30.9250   15.2570 O   0  0  0  0  0
  -39.1401   21.5254    4.6892 H   0  0  0  0  0
  -37.9522   22.4214    2.0241 H   0  0  0  0  0
  -36.6881   22.1323    4.7840 H   0  0  0  0  0
  -37.2269   24.6649    3.3154 H   0  0  0  0  0
  -38.7863   23.5006    5.6585 H   0  0  0  0  0
  -38.6547   25.9788    5.5927 H   0  0  0  0  0
  -40.3192   25.3628    5.3884 H   0  0  0  0  0
  -38.1645   20.0890    2.1779 H   0  0  0  0  0
  -36.5660   20.5532    2.2569 H   0  0  0  0  0
  -37.3622   20.0689    3.6383 H   0  0  0  0  0
  -39.8805   20.3117    2.9120 H   0  0  0  0  0
  -35.3502   21.7988    2.9232 H   0  0  0  0  0
  -39.7796   27.0010    3.8636 H   0  0  0  0  0
  -35.4893   25.7066    3.9136 H   0  0  0  0  0
  -34.9408   25.7376    6.8997 H   0  0  0  0  0
  -33.6565   27.5549    4.8603 H   0  0  0  0  0
  -32.3401   25.3039    6.3412 H   0  0  0  0  0
  -33.1662   25.4227    3.4400 H   0  0  0  0  0
  -32.0826   23.0648    5.0421 H   0  0  0  0  0
  -31.0824   24.0979    4.0033 H   0  0  0  0  0
  -35.7478   27.9885    6.7120 H   0  0  0  0  0
  -36.0622   27.7621    5.0913 H   0  0  0  0  0
  -36.9004   26.8844    6.2331 H   0  0  0  0  0
  -32.4049   28.0324    6.7545 H   0  0  0  0  0
  -31.8767   22.2323    2.8978 H   0  0  0  0  0
  -30.4869   25.8963    6.6885 H   0  0  0  0  0
  -29.0191   27.6259    4.6555 H   0  0  0  0  0
  -27.8117   26.1793    6.9982 H   0  0  0  0  0
  -28.2008   29.1630    6.9163 H   0  0  0  0  0
  -29.8901   27.2398    8.4470 H   0  0  0  0  0
  -29.4551   29.9110    8.8794 H   0  0  0  0  0
  -30.9460   29.0494    9.3518 H   0  0  0  0  0
  -27.7653   25.6403    4.2521 H   0  0  0  0  0
  -28.7325   24.7845    5.3051 H   0  0  0  0  0
  -29.3814   25.4227    3.9092 H   0  0  0  0  0
  -26.0686   27.6316    6.4208 H   0  0  0  0  0
  -31.3659   30.9431    8.1058 H   0  0  0  0  0
  -27.7566   29.7934    9.4444 H   0  0  0  0  0
  -24.9464   28.5454    9.4316 H   0  0  0  0  0
  -26.2473   30.4547   11.4181 H   0  0  0  0  0
  -24.1675   31.2697    9.5280 H   0  0  0  0  0
  -27.0456   31.7868    8.8748 H   0  0  0  0  0
  -25.4042   33.2665    7.8242 H   0  0  0  0  0
  -26.0356   32.1574    6.5654 H   0  0  0  0  0
  -25.4802   27.6425   11.5358 H   0  0  0  0  0
  -27.0570   28.1664   11.4092 H   0  0  0  0  0
  -26.4726   27.0195   10.3509 H   0  0  0  0  0
  -23.9960   30.6140   11.9946 H   0  0  0  0  0
  -23.7418   32.3460    6.5250 H   0  0  0  0  0
  -23.6388   32.2196   11.3453 H   0  0  0  0  0
  -24.9535   34.9025   11.5003 H   0  0  0  0  0
  -22.2970   34.3868   12.7610 H   0  0  0  0  0
  -24.8384   34.4406   14.3873 H   0  0  0  0  0
  -23.0531   32.1589   13.4210 H   0  0  0  0  0
  -25.1657   31.0185   14.8010 H   0  0  0  0  0
  -24.5878   32.2860   15.8544 H   0  0  0  0  0
  -22.8621   35.5192   10.4596 H   0  0  0  0  0
  -22.3545   33.9328   10.5079 H   0  0  0  0  0
  -23.6665   34.3597    9.5734 H   0  0  0  0  0
  -22.9664   36.3626   13.8299 H   0  0  0  0  0
  -23.3565   33.7470   15.9705 H   0  0  0  0  0
  -23.3021   30.3600   16.0187 H   0  0  0  0  0
  1  2  1  0  0  0
  1  8  1  0  0  0
  1 11  1  0  0  0
  2  3  1  0  0  0
  2  7  1  0  0  0
  3  4  1  0  0  0
  3  9  1  0  0  0
  4  5  1  0  0  0
  4 10  1  0  0  0
  5  6  1  0  0  0
  5 11  1  0  0  0
  6 12  1  0  0  0
 10 13  1  0  0  0
 13 14  1  0  0  0
 13 22  1  0  0  0
 14 15  1  0  0  0
 14 19  1  0  0  0
 15 16  1  0  0  0
 15 20  1  0  0  0
 16 17  1  0  0  0
 16 21  1  0  0  0
 17 18  1  0  0  0
 17 22  1  0  0  0
 18 23  1  0  0  0
 21 24  1  0  0  0
 24 25  1  0  0  0
 24 33  1  0  0  0
 25 26  1  0  0  0
 25 30  1  0  0  0
 26 27  1  0  0  0
 26 31  1  0  0  0
 27 28  1  0  0  0
 27 32  1  0  0  0
 28 29  1  0  0  0
 28 33  1  0  0  0
 29 34  1  0  0  0
 32 35  1  0  0  0
 35 36  1  0  0  0
 35 44  1  0  0  0
 36 37  1  0  0  0
 36 41  1  0  0  0
 37 38  1  0  0  0
 37 42  1  0  0  0
 38 39  1  0  0  0
 38 43  1  0  0  0
 39 40  1  0  0  0
 39 44  1  0  0  0
 40 45  1  0  0  0
 43 46  1  0  0  0
 46 47  1  0  0  0
 46 55  1  0  0  0
 47 48  1  0  0  0
 47 52  1  0  0  0
 48 49  1  0  0  0
 48 53  1  0  0  0
 49 50  1  0  0  0
 49 54  1  0  0  0
 50 51  1  0  0  0
 50 55  1  0  0  0
 51 56  1  0  0  0
  1 57  1  0  0  0
  2 58  1  0  0  0
  3 59  1  0  0  0
  4 60  1  0  0  0
  5 61  1  0  0  0
  6 62  1  0  0  0
  6 63  1  0  0  0
  7 64  1  0  0  0
  7 65  1  0  0  0
  7 66  1  0  0  0
  8 67  1  0  0  0
  9 68  1  0  0  0
 12 69  1  0  0  0
 13 70  1  0  0  0
 14 71  1  0  0  0
 15 72  1  0  0  0
 16 73  1  0  0  0
 17 74  1  0  0  0
 18 75  1  0  0  0
 18 76  1  0  0  0
 19 77  1  0  0  0
 19 78  1  0  0  0
 19 79  1  0  0  0
 20 80  1  0  0  0
 23 81  1  0  0  0
 24 82  1  0  0  0
 25 83  1  0  0  0
 26 84  1  0  0  0
 27 85  1  0  0  0
 28 86  1  0  0  0
 29 87  1  0  0  0
 29 88  1  0  0  0
 30 89  1  0  0  0
 30 90  1  0  0  0
 30 91  1  0  0  0
 31 92  1  0  0  0
 34 93  1  0  0  0
 35 94  1  0  0  0
 36 95  1  0  0  0
 37 96  1  0  0  0
 38 97  1  0  0  0
 39 98  1  0  0  0
 40 99  1  0  0  0
 40100  1  0  0  0
 41101  1  0  0  0
 41102  1  0  0  0
 41103  1  0  0  0
 42104  1  0  0  0
 45105  1  0  0  0
 46106  1  0  0  0
 47107  1  0  0  0
 48108  1  0  0  0
 49109  1  0  0  0
 50110  1  0  0  0
 51111  1  0  0  0
 51112  1  0  0  0
 52113  1  0  0  0
 52114  1  0  0  0
 52115  1  0  0  0
 53116  1  0  0  0
 54117  1  0  0  0
 56118  1  0  0  0
M  END
$$$$
