2ydo_ligand
  -I-interpret- 

 32 34  0  0  0  0  0  0  0  0999 V2000
  -29.2330   10.5700  -26.0220 O   0  0  0  0  0
  -29.4640   11.8130  -25.3530 C   0  0  0  0  0
  -29.7040   11.5740  -23.8670 C   0  0  0  0  0
  -30.6650   10.5270  -23.6910 O   0  0  0  0  0
  -28.4670   11.1510  -23.0840 C   0  0  0  0  0
  -27.7250   12.2450  -22.5260 O   0  0  0  0  0
  -29.0500   10.2980  -21.9850 C   0  0  0  0  0
  -29.3760   11.1150  -20.8570 O   0  0  0  0  0
  -30.3120    9.7000  -22.5840 C   0  0  0  0  0
  -30.0220    8.3070  -23.0090 N   0  0  0  0  0
  -29.6630    7.8860  -24.2420 C   0  0  0  0  0
  -29.4630    6.5420  -24.2560 N   0  0  0  0  0
  -29.6840    6.0870  -23.0110 C   0  0  0  0  0
  -29.6570    4.7730  -22.3340 C   0  0  0  0  0
  -29.3340    3.6420  -23.0080 N   0  0  0  0  0
  -29.9680    4.7450  -21.0190 N   0  0  0  0  0
  -30.2950    5.8540  -20.3270 C   0  0  0  0  0
  -30.3410    7.0790  -20.8840 N   0  0  0  0  0
  -30.0530    7.2540  -22.1940 C   0  0  0  0  0
  -29.0834   10.7336  -26.9560 H   0  0  0  0  0
  -30.3430   12.2922  -25.7839 H   0  0  0  0  0
  -28.5893   12.4519  -25.4750 H   0  0  0  0  0
  -30.0412   12.5374  -23.4845 H   0  0  0  0  0
  -27.7437   10.6471  -23.7251 H   0  0  0  0  0
  -27.3605   12.7782  -23.2362 H   0  0  0  0  0
  -28.3565    9.5310  -21.6401 H   0  0  0  0  0
  -28.5709   11.4860  -20.4887 H   0  0  0  0  0
  -31.1385    9.6625  -21.8744 H   0  0  0  0  0
  -29.5492    8.5370  -25.1088 H   0  0  0  0  0
  -29.1038    3.6880  -24.0006 H   0  0  0  0  0
  -29.3211    2.7450  -22.5225 H   0  0  0  0  0
  -30.5332    5.7549  -19.2680 H   0  0  0  0  0
  1  2  1  0  0  0
  2  3  1  0  0  0
  3  4  1  0  0  0
  3  5  1  0  0  0
  4  9  1  0  0  0
  5  6  1  0  0  0
  5  7  1  0  0  0
  7  8  1  0  0  0
  7  9  1  0  0  0
  9 10  1  0  0  0
 10 11  4  0  0  0
 10 19  4  0  0  0
 11 12  4  0  0  0
 12 13  4  0  0  0
 13 14  4  0  0  0
 13 19  4  0  0  0
 14 15  1  0  0  0
 14 16  4  0  0  0
 16 17  4  0  0  0
 17 18  4  0  0  0
 18 19  4  0  0  0
  1 20  1  0  0  0
  2 21  1  0  0  0
  2 22  1  0  0  0
  3 23  1  0  0  0
  5 24  1  0  0  0
  6 25  1  0  0  0
  7 26  1  0  0  0
  8 27  1  0  0  0
  9 28  1  0  0  0
 11 29  1  0  0  0
 15 30  1  0  0  0
 15 31  1  0  0  0
 17 32  1  0  0  0
M  END
$$$$
