4lnf_ligand
  -I-interpret- 

 21 20  0  0  0  0  0  0  0  0999 V2000
   17.0580   30.8560  -26.2610 N   0  3  0  0  0
   16.7050   32.0090  -27.0930 C   0  0  0  0  0
   16.1930   31.6160  -28.4700 C   0  0  0  0  0
   16.4080   32.3694  -29.4568 O   0  0  0  0  0
   17.8930   32.9590  -27.2370 C   0  0  0  0  0
   18.1240   33.8060  -26.0030 C   0  0  0  0  0
   19.4450   34.5370  -26.0410 C   0  0  0  0  0
   20.3310   34.2830  -25.2290 O   0  0  0  0  0
   19.5870   35.4530  -26.9880 N   0  0  0  0  0
   15.5556   30.5400  -28.6236 O   0  0  0  0  0
   16.2511   30.2374  -26.1794 H   0  0  0  0  0
   17.8325   30.3515  -26.6922 H   0  0  0  0  0
   17.3352   31.1792  -25.3341 H   0  0  0  0  0
   15.8897   32.5157  -26.5766 H   0  0  0  0  0
   17.6819   33.6322  -28.0679 H   0  0  0  0  0
   18.7854   32.3539  -27.3970 H   0  0  0  0  0
   18.1314   33.1436  -25.1374 H   0  0  0  0  0
   17.3294   34.5505  -25.9530 H   0  0  0  0  0
   20.4580   35.9786  -27.0627 H   0  0  0  0  0
   18.8253   35.6325  -27.6423 H   0  0  0  0  0
   15.4812   30.0901  -27.7788 H   0  0  0  0  0
  1  2  1  0  0  0
  2  3  1  0  0  0
  2  5  1  0  0  0
  3  4  2  0  0  0
  5  6  1  0  0  0
  6  7  1  0  0  0
  7  8  2  0  0  0
  7  9  1  0  0  0
  3 10  1  0  0  0
  1 11  1  0  0  0
  1 12  1  0  0  0
  1 13  1  0  0  0
  2 14  1  0  0  0
  5 15  1  0  0  0
  5 16  1  0  0  0
  6 17  1  0  0  0
  6 18  1  0  0  0
  9 19  1  0  0  0
  9 20  1  0  0  0
 10 21  1  0  0  0
M  END
$$$$
