### 
### Created by X-TOOL on Mon Sep 10 21:12:46 2018
### 

@<TRIPOS>MOLECULE
1vwf_ligand
  114   117     1     0     0
SMALL
GAST_HUCK


@<TRIPOS>ATOM
      1 C           9.1610    1.3470  -21.5920 C.2       1 ACE         0.1751
      2 O           9.9540    2.2570  -21.8250 O.2       1 ACE        -0.3972
      3 CH3         7.7340    1.4080  -22.1140 C.3       1 ACE         0.0258
      4 N           9.4250    0.2810  -20.8320 N.am      1 CYS        -0.2650
      5 CA         10.6210    0.0910  -20.0350 C.3       1 CYS         0.1395
      6 C          11.0220    1.2730  -19.1430 C.2       1 CYS         0.2048
      7 O          11.9060    2.0890  -19.4020 O.2       1 CYS        -0.3944
      8 CB         11.7220   -0.3310  -21.0050 C.3       1 CYS         0.0311
      9 SG         11.2360   -1.9590  -21.6650 S.3       1 CYS        -0.1735
     10 N          10.2810    1.3390  -18.0230 N.am      1 HIS        -0.2624
     11 CA         10.5090    2.3270  -16.9680 C.3       1 HIS         0.1371
     12 C          11.9150    2.1500  -16.4030 C.2       1 HIS         0.2079
     13 O          12.3070    0.9950  -16.1180 O.2       1 HIS        -0.3940
     14 CB          9.4740    2.1610  -15.8040 C.3       1 HIS         0.0145
     15 CG          9.5050    3.2970  -14.7870 C.2       1 HIS        -0.0027
     16 ND1        10.4540    3.3550  -13.8760 N.2       1 HIS        -0.3252
     17 CD2         8.6920    4.3940  -14.8010 C.2       1 HIS         0.0291
     18 CE1        10.2320    4.5200  -13.3080 C.2       1 HIS         0.0907
     19 NE2         9.1950    5.1330  -13.8500 N.pl3     1 HIS        -0.2752
     20 N          12.6520    3.2600  -16.1600 N.am      1 PRO        -0.2497
     21 CA         13.9930    3.2050  -15.5880 C.3       1 PRO         0.1338
     22 C          14.1520    2.5110  -14.2280 C.2       1 PRO         0.2041
     23 O          15.2530    2.1100  -13.8650 O.2       1 PRO        -0.3944
     24 CB         14.4050    4.6690  -15.5940 C.3       1 PRO        -0.0104
     25 CG         13.1300    5.4780  -15.6150 C.3       1 PRO        -0.0281
     26 CD         12.2430    4.6380  -16.5040 C.3       1 PRO         0.0369
     27 N          13.0970    2.3660  -13.4090 N.am      1 GLN        -0.2636
     28 CA         13.1500    1.6310  -12.1410 C.3       1 GLN         0.1330
     29 C          13.3420    0.1380  -12.3740 C.2       1 GLN         0.2038
     30 O          13.8940   -0.5410  -11.5080 O.2       1 GLN        -0.3944
     31 CB         11.8600    1.8170  -11.3370 C.3       1 GLN         0.0045
     32 CG         12.0030    1.3590   -9.8840 C.3       1 GLN         0.0412
     33 CD         10.8240    1.6590   -8.9620 C.2       1 GLN         0.1737
     34 OE1        10.1980    2.7160   -9.0590 O.2       1 GLN        -0.3973
     35 NE2        10.4470    0.7580   -8.0500 N.am      1 GLN        -0.3009
     36 N          12.8530   -0.3640  -13.5180 N.am      1 GLY        -0.2664
     37 CA         12.8220   -1.7800  -13.8190 C.3       1 GLY         0.1203
     38 C          14.1390   -2.2550  -14.4230 C.2       1 GLY         0.2032
     39 O          15.0610   -1.4640  -14.6550 O.2       1 GLY        -0.3945
     40 N          14.3020   -3.5670  -14.6450 N.am      1 PRO        -0.2501
     41 CA         15.4060   -4.1150  -15.4460 C.3       1 PRO         0.1340
     42 C          15.1190   -4.3220  -16.9560 C.2       1 PRO         0.2066
     43 O          14.0370   -4.8320  -17.2910 O.2       1 PRO        -0.3942
     44 CB         15.7280   -5.3800  -14.6650 C.3       1 PRO        -0.0104
     45 CG         14.3580   -5.9000  -14.2310 C.3       1 PRO        -0.0281
     46 CD         13.5620   -4.6260  -13.9480 C.3       1 PRO         0.0369
     47 N          15.9810   -3.9780  -17.9330 N.am      1 PRO        -0.2498
     48 CA         17.0510   -2.9840  -17.8290 C.3       1 PRO         0.1338
     49 C          16.6330   -1.5380  -18.1440 C.2       1 PRO         0.2041
     50 O          15.4420   -1.2080  -18.1680 O.2       1 PRO        -0.3944
     51 CB         18.0920   -3.5510  -18.7670 C.3       1 PRO        -0.0104
     52 CG         17.2530   -4.0640  -19.9070 C.3       1 PRO        -0.0281
     53 CD         16.1320   -4.7640  -19.1610 C.3       1 PRO         0.0369
     54 N          17.6680   -0.7100  -18.3570 N.am      1 CYS        -0.2629
     55 CA         17.6110    0.6180  -18.9590 C.3       1 CYS         0.1393
     56 C          17.0970    1.7210  -18.0520 C.2       1 CYS         0.2000
     57 O          15.9130    2.0110  -17.9150 O.2       1 CYS        -0.3947
     58 CB         16.7630    0.6020  -20.2520 C.3       1 CYS         0.0311
     59 SG         17.6040   -0.2350  -21.6240 S.3       1 CYS        -0.1735
     60 N          18.0410    2.3840  -17.4010 N.am      1 NH2        -0.2989
     61 H1          7.1898    0.5052  -21.7999 H         1 ACE         0.0467
     62 H2          7.7475    1.4644  -23.2125 H         1 ACE         0.0467
     63 H3          7.2325    2.2985  -21.7072 H         1 ACE         0.0467
     64 H4          8.7401   -0.4474  -20.8109 H         1 CYS         0.1883
     65 H5         10.4304   -0.7518  -19.3543 H         1 CYS         0.0808
     66 H6         12.6843   -0.4069  -20.4776 H         1 CYS         0.0422
     67 H7         11.8086    0.3998  -21.8226 H         1 CYS         0.0422
     68 H8         11.9372   -2.2800  -22.3141 H         1 CYS         0.1019
     69 H9          9.5376    0.6806  -17.9052 H         1 HIS         0.1885
     70 H10        10.4106    3.3357  -17.3957 H         1 HIS         0.0817
     71 H11         9.6907    1.2192  -15.2787 H         1 HIS         0.0420
     72 H12         8.4655    2.1137  -16.2406 H         1 HIS         0.0420
     73 H13         7.8380    4.6005  -15.4444 H         1 HIS         0.0729
     74 H14        10.8281    4.9282  -12.4932 H         1 HIS         0.1199
     75 H15         8.8370    6.0558  -13.5649 H         1 HIS         0.2361
     76 H16        14.6399    2.6521  -16.2849 H         1 PRO         0.0802
     77 H17        15.0086    4.8894  -16.4868 H         1 PRO         0.0313
     78 H18        14.9875    4.9027  -14.6906 H         1 PRO         0.0313
     79 H19        12.7040    5.5797  -14.6060 H         1 PRO         0.0287
     80 H20        13.2968    6.4766  -16.0450 H         1 PRO         0.0287
     81 H21        11.1800    4.8052  -16.2758 H         1 PRO         0.0524
     82 H22        12.4282    4.8534  -17.5667 H         1 PRO         0.0524
     83 H23        12.2284    2.7818  -13.6786 H         1 GLN         0.1883
     84 H24        13.9974    2.0143  -11.5537 H         1 GLN         0.0801
     85 H25        11.0598    1.2320  -11.8139 H         1 GLN         0.0337
     86 H26        11.5898    2.8832  -11.3456 H         1 GLN         0.0337
     87 H27        12.8917    1.8519   -9.4630 H         1 GLN         0.0504
     88 H28        12.1557    0.2697   -9.8893 H         1 GLN         0.0504
     89 H29         9.6750    0.9521   -7.4448 H         1 GLN         0.1814
     90 H30        10.9369   -0.1103   -7.9727 H         1 GLN         0.1814
     91 H31        12.4910    0.2731  -14.1985 H         1 GLY         0.1881
     92 H32        12.0101   -1.9749  -14.5351 H         1 GLY         0.0763
     93 H33        12.6335   -2.3383  -12.8901 H         1 GLY         0.0763
     94 H34        16.2634   -3.4284  -15.3884 H         1 PRO         0.0802
     95 H35        16.3552   -5.1517  -13.7907 H         1 PRO         0.0313
     96 H36        16.2415   -6.1143  -15.3030 H         1 PRO         0.0313
     97 H37        13.8881   -6.4862  -15.0345 H         1 PRO         0.0287
     98 H38        14.4420   -6.5196  -13.3260 H         1 PRO         0.0287
     99 H39        12.5392   -4.7107  -14.3439 H         1 PRO         0.0524
    100 H40        13.5214   -4.4251  -12.8673 H         1 PRO         0.0524
    101 H41        17.4462   -2.9840  -16.8025 H         1 PRO         0.0802
    102 H42        18.6563   -4.3658  -18.2899 H         1 PRO         0.0313
    103 H43        18.7898   -2.7710  -19.1058 H         1 PRO         0.0313
    104 H44        16.8706   -3.2403  -20.5277 H         1 PRO         0.0287
    105 H45        17.8173   -4.7669  -20.5375 H         1 PRO         0.0287
    106 H46        15.2030   -4.7522  -19.7499 H         1 PRO         0.0524
    107 H47        16.4059   -5.8038  -18.9290 H         1 PRO         0.0524
    108 H48        18.5699   -1.0366  -18.0743 H         1 CYS         0.1884
    109 H49        18.6425    0.8826  -19.2345 H         1 CYS         0.0808
    110 H50        16.5520    1.6401  -20.5483 H         1 CYS         0.0422
    111 H51        15.8169    0.0796  -20.0470 H         1 CYS         0.0422
    112 H52        17.0121   -0.2183  -22.4397 H         1 CYS         0.1019
    113 H53        17.7924    3.1281  -16.7809 H         1 NH2         0.1815
    114 H54        19.0023    2.1405  -17.5296 H         1 NH2         0.1815
@<TRIPOS>BOND
     1    1    2 2  
     2    1    3 1  
     3    5    4 1  
     4    5    8 1  
     5    5    6 1  
     6    6    7 2  
     7    8    9 1  
     8    1    4 am 
     9   11   10 1  
    10   11   14 1  
    11   11   12 1  
    12   12   13 2  
    13   14   15 1  
    14   15   16 1  
    15   15   17 2  
    16   17   19 1  
    17   19   18 1  
    18   18   16 2  
    19    6   10 am 
    20   21   22 1  
    21   21   24 1  
    22   21   20 1  
    23   20   26 1  
    24   26   25 1  
    25   25   24 1  
    26   22   23 2  
    27   12   20 am 
    28   28   27 1  
    29   28   31 1  
    30   28   29 1  
    31   29   30 2  
    32   31   32 1  
    33   32   33 1  
    34   33   35 am 
    35   33   34 2  
    36   22   27 am 
    37   37   36 1  
    38   37   38 1  
    39   38   39 2  
    40   29   36 am 
    41   41   42 1  
    42   41   44 1  
    43   41   40 1  
    44   40   46 1  
    45   46   45 1  
    46   45   44 1  
    47   42   43 2  
    48   38   40 am 
    49   48   49 1  
    50   48   51 1  
    51   48   47 1  
    52   47   53 1  
    53   53   52 1  
    54   52   51 1  
    55   49   50 2  
    56   42   47 am 
    57   55   54 1  
    58   55   58 1  
    59   55   56 1  
    60   56   57 2  
    61   58   59 1  
    62   49   54 am 
    63   56   60 am 
    64    3   61 1  
    65    3   62 1  
    66    3   63 1  
    67    4   64 1  
    68    5   65 1  
    69    8   66 1  
    70    8   67 1  
    71    9   68 1  
    72   10   69 1  
    73   11   70 1  
    74   14   71 1  
    75   14   72 1  
    76   17   73 1  
    77   18   74 1  
    78   19   75 1  
    79   21   76 1  
    80   24   77 1  
    81   24   78 1  
    82   25   79 1  
    83   25   80 1  
    84   26   81 1  
    85   26   82 1  
    86   27   83 1  
    87   28   84 1  
    88   31   85 1  
    89   31   86 1  
    90   32   87 1  
    91   32   88 1  
    92   35   89 1  
    93   35   90 1  
    94   36   91 1  
    95   37   92 1  
    96   37   93 1  
    97   41   94 1  
    98   44   95 1  
    99   44   96 1  
   100   45   97 1  
   101   45   98 1  
   102   46   99 1  
   103   46  100 1  
   104   48  101 1  
   105   51  102 1  
   106   51  103 1  
   107   52  104 1  
   108   52  105 1  
   109   53  106 1  
   110   53  107 1  
   111   54  108 1  
   112   55  109 1  
   113   58  110 1  
   114   58  111 1  
   115   59  112 1  
   116   60  113 1  
   117   60  114 1  
@<TRIPOS>SUBSTRUCTURE
     1 ACE         1

