1vwf_ligand
  -I-interpret- 

113116  0  0  0  0  0  0  0  0999 V2000
    9.1610    1.3470  -21.5920 C   0  0  0  0  0
    9.9540    2.2570  -21.8250 O   0  0  0  0  0
    7.7340    1.4080  -22.1140 C   0  0  0  0  0
    9.4250    0.2810  -20.8320 N   0  0  0  0  0
   10.6210    0.0910  -20.0350 C   0  0  0  0  0
   11.0220    1.2730  -19.1430 C   0  0  0  0  0
   11.9060    2.0890  -19.4020 O   0  0  0  0  0
   11.7220   -0.3310  -21.0050 C   0  0  0  0  0
   11.2360   -1.9590  -21.6650 S   0  0  0  0  0
   10.2810    1.3390  -18.0230 N   0  0  0  0  0
   10.5090    2.3270  -16.9680 C   0  0  0  0  0
   11.9150    2.1500  -16.4030 C   0  0  0  0  0
   12.3070    0.9950  -16.1180 O   0  0  0  0  0
    9.4740    2.1610  -15.8040 C   0  0  0  0  0
    9.5050    3.2970  -14.7870 C   0  0  0  0  0
   10.4540    3.3550  -13.8760 N   0  0  0  0  0
    8.6920    4.3940  -14.8010 C   0  0  0  0  0
   10.2320    4.5200  -13.3080 C   0  0  0  0  0
    9.1950    5.1330  -13.8500 N   0  0  0  0  0
   12.6520    3.2600  -16.1600 N   0  0  0  0  0
   13.9930    3.2050  -15.5880 C   0  0  0  0  0
   14.1520    2.5110  -14.2280 C   0  0  0  0  0
   15.2530    2.1100  -13.8650 O   0  0  0  0  0
   14.4050    4.6690  -15.5940 C   0  0  0  0  0
   13.1300    5.4780  -15.6150 C   0  0  0  0  0
   12.2430    4.6380  -16.5040 C   0  0  0  0  0
   13.0970    2.3660  -13.4090 N   0  0  0  0  0
   13.1500    1.6310  -12.1410 C   0  0  0  0  0
   13.3420    0.1380  -12.3740 C   0  0  0  0  0
   13.8940   -0.5410  -11.5080 O   0  0  0  0  0
   11.8600    1.8170  -11.3370 C   0  0  0  0  0
   12.0030    1.3590   -9.8840 C   0  0  0  0  0
   10.8240    1.6590   -8.9620 C   0  0  0  0  0
   10.1980    2.7160   -9.0590 O   0  0  0  0  0
   10.4470    0.7580   -8.0500 N   0  0  0  0  0
   12.8530   -0.3640  -13.5180 N   0  0  0  0  0
   12.8220   -1.7800  -13.8190 C   0  0  0  0  0
   14.1390   -2.2550  -14.4230 C   0  0  0  0  0
   15.0610   -1.4640  -14.6550 O   0  0  0  0  0
   14.3020   -3.5670  -14.6450 N   0  0  0  0  0
   15.4060   -4.1150  -15.4460 C   0  0  0  0  0
   15.1190   -4.3220  -16.9560 C   0  0  0  0  0
   14.0370   -4.8320  -17.2910 O   0  0  0  0  0
   15.7280   -5.3800  -14.6650 C   0  0  0  0  0
   14.3580   -5.9000  -14.2310 C   0  0  0  0  0
   13.5620   -4.6260  -13.9480 C   0  0  0  0  0
   15.9810   -3.9780  -17.9330 N   0  0  0  0  0
   17.0510   -2.9840  -17.8290 C   0  0  0  0  0
   16.6330   -1.5380  -18.1440 C   0  0  0  0  0
   15.4420   -1.2080  -18.1680 O   0  0  0  0  0
   18.0920   -3.5510  -18.7670 C   0  0  0  0  0
   17.2530   -4.0640  -19.9070 C   0  0  0  0  0
   16.1320   -4.7640  -19.1610 C   0  0  0  0  0
   17.6680   -0.7100  -18.3570 N   0  0  0  0  0
   17.6110    0.6180  -18.9590 C   0  0  0  0  0
   17.0970    1.7210  -18.0520 C   0  0  0  0  0
   15.9130    2.0110  -17.9150 O   0  0  0  0  0
   16.7630    0.6020  -20.2520 C   0  0  0  0  0
   17.6040   -0.2350  -21.6240 S   0  0  0  0  0
   18.0410    2.3840  -17.4010 N   0  0  0  0  0
    7.2382    2.2908  -21.7103 H   0  0  0  0  0
    7.7487    1.4639  -23.2025 H   0  0  0  0  0
    7.1958    0.5129  -21.8021 H   0  0  0  0  0
    8.7264   -0.4619  -20.8105 H   0  0  0  0  0
   10.4266   -0.6805  -19.2900 H   0  0  0  0  0
   12.6862   -0.3872  -20.4998 H   0  0  0  0  0
   11.8344    0.3975  -21.8080 H   0  0  0  0  0
   12.1612   -2.3826  -22.5215 H   0  0  0  0  0
    9.5227    0.6674  -17.9029 H   0  0  0  0  0
   10.3927    3.3199  -17.4023 H   0  0  0  0  0
    9.7256    1.2426  -15.2736 H   0  0  0  0  0
    8.4801    2.1519  -16.2513 H   0  0  0  0  0
    7.8372    4.6007  -15.4450 H   0  0  0  0  0
   10.8287    4.9285  -12.4924 H   0  0  0  0  0
   14.6419    2.5520  -16.1716 H   0  0  0  0  0
   15.0231    4.8952  -16.4629 H   0  0  0  0  0
   15.0025    4.9081  -14.7143 H   0  0  0  0  0
   12.7105    5.6503  -14.6238 H   0  0  0  0  0
   13.2692    6.4956  -15.9800 H   0  0  0  0  0
   11.1809    4.8203  -16.3400 H   0  0  0  0  0
   12.3635    4.8660  -17.5631 H   0  0  0  0  0
   12.2110    2.7901  -13.6840 H   0  0  0  0  0
   13.9975    2.0337  -11.5863 H   0  0  0  0  0
   11.0825    1.2130  -11.8047 H   0  0  0  0  0
   11.6174    2.8797  -11.3320 H   0  0  0  0  0
   12.8541    1.9041   -9.4760 H   0  0  0  0  0
   12.0956    0.2734   -9.9154 H   0  0  0  0  0
    9.6491    0.9490   -7.4439 H   0  0  0  0  0
   10.9571   -0.1207   -7.9600 H   0  0  0  0  0
   12.4837    0.2858  -14.2121 H   0  0  0  0  0
   12.0267   -1.9608  -14.5421 H   0  0  0  0  0
   12.6525   -2.3256  -12.8907 H   0  0  0  0  0
   16.2464   -3.4279  -15.5443 H   0  0  0  0  0
   16.3862   -5.1880  -13.8177 H   0  0  0  0  0
   16.2776   -6.1076  -15.2622 H   0  0  0  0  0
   13.8890   -6.5237  -14.9920 H   0  0  0  0  0
   14.4174   -6.5556  -13.3622 H   0  0  0  0  0
   12.5322   -4.7020  -14.2970 H   0  0  0  0  0
   13.4748   -4.4279  -12.8797 H   0  0  0  0  0
   17.4087   -2.8545  -16.8076 H   0  0  0  0  0
   18.7079   -4.3236  -18.3068 H   0  0  0  0  0
   18.8341   -2.8158  -19.0782 H   0  0  0  0  0
   16.9075   -3.2818  -20.5830 H   0  0  0  0  0
   17.7962   -4.7148  -20.5922 H   0  0  0  0  0
   15.2107   -4.8051  -19.7420 H   0  0  0  0  0
   16.3605   -5.8101  -18.9573 H   0  0  0  0  0
   18.5879   -1.0431  -18.0687 H   0  0  0  0  0
   18.6530    0.8560  -19.1728 H   0  0  0  0  0
   16.5823    1.6352  -20.5485 H   0  0  0  0  0
   15.8405    0.0605  -20.0425 H   0  0  0  0  0
   16.8230   -0.2129  -22.7003 H   0  0  0  0  0
   17.7879    3.1482  -16.7747 H   0  0  0  0  0
   19.0210    2.1303  -17.5260 H   0  0  0  0  0
  1  2  2  0  0  0
  1  3  1  0  0  0
  5  4  1  0  0  0
  5  8  1  0  0  0
  5  6  1  0  0  0
  6  7  2  0  0  0
  8  9  1  0  0  0
  1  4  1  0  0  0
 11 10  1  0  0  0
 11 14  1  0  0  0
 11 12  1  0  0  0
 12 13  2  0  0  0
 14 15  1  0  0  0
 15 16  4  0  0  0
 15 17  4  0  0  0
 17 19  4  0  0  0
 19 18  4  0  0  0
 18 16  4  0  0  0
  6 10  1  0  0  0
 21 22  1  0  0  0
 21 24  1  0  0  0
 21 20  1  0  0  0
 20 26  1  0  0  0
 26 25  1  0  0  0
 25 24  1  0  0  0
 22 23  2  0  0  0
 12 20  1  0  0  0
 28 27  1  0  0  0
 28 31  1  0  0  0
 28 29  1  0  0  0
 29 30  2  0  0  0
 31 32  1  0  0  0
 32 33  1  0  0  0
 33 35  1  0  0  0
 33 34  2  0  0  0
 22 27  1  0  0  0
 37 36  1  0  0  0
 37 38  1  0  0  0
 38 39  2  0  0  0
 29 36  1  0  0  0
 41 42  1  0  0  0
 41 44  1  0  0  0
 41 40  1  0  0  0
 40 46  1  0  0  0
 46 45  1  0  0  0
 45 44  1  0  0  0
 42 43  2  0  0  0
 38 40  1  0  0  0
 48 49  1  0  0  0
 48 51  1  0  0  0
 48 47  1  0  0  0
 47 53  1  0  0  0
 53 52  1  0  0  0
 52 51  1  0  0  0
 49 50  2  0  0  0
 42 47  1  0  0  0
 55 54  1  0  0  0
 55 58  1  0  0  0
 55 56  1  0  0  0
 56 57  2  0  0  0
 58 59  1  0  0  0
 49 54  1  0  0  0
 56 60  1  0  0  0
  3 61  1  0  0  0
  3 62  1  0  0  0
  3 63  1  0  0  0
  4 64  1  0  0  0
  5 65  1  0  0  0
  8 66  1  0  0  0
  8 67  1  0  0  0
  9 68  1  0  0  0
 10 69  1  0  0  0
 11 70  1  0  0  0
 14 71  1  0  0  0
 14 72  1  0  0  0
 17 73  1  0  0  0
 18 74  1  0  0  0
 21 75  1  0  0  0
 24 76  1  0  0  0
 24 77  1  0  0  0
 25 78  1  0  0  0
 25 79  1  0  0  0
 26 80  1  0  0  0
 26 81  1  0  0  0
 27 82  1  0  0  0
 28 83  1  0  0  0
 31 84  1  0  0  0
 31 85  1  0  0  0
 32 86  1  0  0  0
 32 87  1  0  0  0
 35 88  1  0  0  0
 35 89  1  0  0  0
 36 90  1  0  0  0
 37 91  1  0  0  0
 37 92  1  0  0  0
 41 93  1  0  0  0
 44 94  1  0  0  0
 44 95  1  0  0  0
 45 96  1  0  0  0
 45 97  1  0  0  0
 46 98  1  0  0  0
 46 99  1  0  0  0
 48100  1  0  0  0
 51101  1  0  0  0
 51102  1  0  0  0
 52103  1  0  0  0
 52104  1  0  0  0
 53105  1  0  0  0
 53106  1  0  0  0
 54107  1  0  0  0
 55108  1  0  0  0
 58109  1  0  0  0
 58110  1  0  0  0
 59111  1  0  0  0
 60112  1  0  0  0
 60113  1  0  0  0
M  END
$$$$
