4x21_ligand
  -I-interpret- 

 50 53  0  0  0  0  0  0  0  0999 V2000
   16.1730   29.5540   72.5300 C   0  0  0  0  0
   15.2300   30.4660   71.8050 C   0  0  0  0  0
   13.5870   33.1710   71.4860 C   0  0  0  0  0
   18.8000   25.3400   71.9690 C   0  0  0  0  0
   17.3040   25.5300   72.2990 C   0  0  0  0  0
   16.8690   26.9110   72.4350 N   0  0  0  0  0
   15.9030   27.2960   73.3940 C   0  0  0  0  0
   15.4080   26.4630   74.1500 O   0  0  0  0  0
   15.5580   28.6060   73.4190 N   0  0  0  0  0
   14.5870   29.2290   74.3160 C   0  0  0  0  0
   13.5860   30.0940   73.6090 C   0  0  0  0  0
   14.2380   31.0980   72.7060 C   0  0  0  0  0
   13.3290   31.9870   72.0110 N   0  0  0  0  0
   14.8400   33.5680   71.4040 N   0  0  0  0  0
   15.0540   34.7540   70.8570 C   0  0  0  0  0
   14.0000   35.5310   70.4070 C   0  0  0  0  0
   14.1980   37.4320   69.5680 I   0  0  0  0  0
   12.7070   35.0190   70.5520 C   0  0  0  0  0
   12.5050   33.8350   71.0880 N   0  0  0  0  0
   16.4310   35.1830   70.7570 C   0  0  0  0  0
   16.9550   36.1620   70.0110 C   0  0  0  0  0
   18.2820   36.2870   70.1450 N   0  0  0  0  0
   18.7050   35.3310   70.9880 C   0  0  0  0  0
   17.5770   34.6050   71.4160 C   0  0  0  0  0
   17.7310   33.5500   72.3040 C   0  0  0  0  0
   19.0170   33.2710   72.7330 C   0  0  0  0  0
   20.1210   33.9960   72.3290 C   0  0  0  0  0
   19.9670   35.0270   71.4320 C   0  0  0  0  0
   16.8075   30.1907   73.1465 H   0  0  0  0  0
   16.6905   28.9728   71.7668 H   0  0  0  0  0
   14.6848   29.8699   71.0732 H   0  0  0  0  0
   15.8192   31.2604   71.3468 H   0  0  0  0  0
   19.0274   25.8316   71.0231 H   0  0  0  0  0
   19.4044   25.7791   72.7627 H   0  0  0  0  0
   19.0208   24.2756   71.8890 H   0  0  0  0  0
   17.1338   25.0524   73.2639 H   0  0  0  0  0
   16.7439   25.1067   71.4652 H   0  0  0  0  0
   17.2711   27.6208   71.8227 H   0  0  0  0  0
   15.1407   29.8662   75.0056 H   0  0  0  0  0
   14.0365   28.4279   74.8092 H   0  0  0  0  0
   13.0163   30.6372   74.3630 H   0  0  0  0  0
   12.9543   29.4495   72.9977 H   0  0  0  0  0
   14.7803   31.7645   73.3766 H   0  0  0  0  0
   12.3687   31.6567   71.9152 H   0  0  0  0  0
   11.8545   35.6093   70.2161 H   0  0  0  0  0
   16.3588   36.7976   69.3563 H   0  0  0  0  0
   16.8770   32.9668   72.6485 H   0  0  0  0  0
   19.1655   32.4398   73.4223 H   0  0  0  0  0
   21.1092   33.7523   72.7191 H   0  0  0  0  0
   20.8307   35.5916   71.0807 H   0  0  0  0  0
  2  1  1  0  0  0
  1  9  1  0  0  0
 12  2  1  0  0  0
 13  3  1  0  0  0
  3 14  4  0  0  0
  3 19  4  0  0  0
  5  4  1  0  0  0
  6  5  1  0  0  0
  7  6  1  0  0  0
  7  8  2  0  0  0
  9  7  1  0  0  0
 10  9  1  0  0  0
 11 10  1  0  0  0
 12 11  1  0  0  0
 12 13  1  0  0  0
 14 15  4  0  0  0
 15 16  4  0  0  0
 15 20  1  0  0  0
 16 17  1  0  0  0
 16 18  4  0  0  0
 18 19  4  0  0  0
 20 21  4  0  0  0
 20 24  4  0  0  0
 21 22  4  0  0  0
 22 23  4  0  0  0
 23 24  4  0  0  0
 23 28  4  0  0  0
 24 25  4  0  0  0
 25 26  4  0  0  0
 26 27  4  0  0  0
 27 28  4  0  0  0
  1 29  1  0  0  0
  1 30  1  0  0  0
  2 31  1  0  0  0
  2 32  1  0  0  0
  4 33  1  0  0  0
  4 34  1  0  0  0
  4 35  1  0  0  0
  5 36  1  0  0  0
  5 37  1  0  0  0
  6 38  1  0  0  0
 10 39  1  0  0  0
 10 40  1  0  0  0
 11 41  1  0  0  0
 11 42  1  0  0  0
 12 43  1  0  0  0
 13 44  1  0  0  0
 18 45  1  0  0  0
 21 46  1  0  0  0
 25 47  1  0  0  0
 26 48  1  0  0  0
 27 49  1  0  0  0
 28 50  1  0  0  0
M  END
$$$$
