1qb1_ligand
  -I-interpret- 

 67 71  0  0  0  0  0  0  0  0999 V2000
   11.7250   36.6150   12.0780 O   0  0  0  0  0
   12.5520   36.1640   11.0990 C   0  0  0  0  0
   12.0470   35.9790    9.7920 C   0  0  0  0  0
   12.8580   35.5610    8.7300 C   0  0  0  0  0
   14.2070   35.2710    8.9650 C   0  0  0  0  0
   14.7550   35.4300   10.2390 C   0  0  0  0  0
   13.9470   35.8860   11.3090 C   0  0  0  0  0
   14.5420   36.0350   12.5290 O   0  0  0  0  0
   12.2060   35.3880    7.4950 C   0  0  0  0  0
   10.9110   35.6540    7.2960 N   0  0  0  0  0
   12.7900   34.9120    6.4050 N   0  0  0  0  0
   10.9220   37.7630   13.9970 C   0  0  0  0  0
   10.8680   39.0180   14.6700 C   0  0  0  0  0
   11.5260   40.1160   14.0860 C   0  0  0  0  0
   12.2030   39.9420   12.8720 C   0  0  0  0  0
   12.2390   38.7440   12.2520 N   0  0  0  0  0
   11.6170   37.6720   12.7970 C   0  0  0  0  0
   10.1960   39.1620   15.8440 N   0  0  0  0  0
   10.2260   38.0680   16.8050 C   0  0  0  0  0
   10.4450   38.6550   18.2360 C   0  0  0  0  0
    9.2830   39.6700   18.5530 C   0  0  0  0  0
    9.3240   40.8200   17.4830 C   0  0  0  0  0
    9.2500   40.2340   16.0490 C   0  0  0  0  0
   10.5980   37.6510   19.3160 C   0  0  0  0  0
    9.5750   37.3810   20.0060 O   0  0  0  0  0
   11.7120   37.4510   19.8750 O   0  0  0  0  0
   12.8780   40.8850   12.2280 O   0  0  0  0  0
   12.5560   42.1160   11.8290 C   0  0  0  0  0
   11.2740   42.3630   11.3400 C   0  0  0  0  0
   10.9360   43.6620   10.9170 C   0  0  0  0  0
   11.9030   44.6820   10.9950 C   0  0  0  0  0
   13.1980   44.4240   11.4880 C   0  0  0  0  0
   13.5220   43.1330   11.9250 C   0  0  0  0  0
   14.1370   45.4670   11.6050 C   0  0  0  0  0
   14.5570   46.3530   10.6670 N   0  0  0  0  0
   14.1670   46.4610    9.2820 C   0  0  0  0  0
   14.7450   45.7120   12.7870 N   0  0  0  0  0
   15.4900   47.2540   11.2460 C   0  0  0  0  0
   15.6150   46.8110   12.7190 C   0  0  0  0  0
   10.3100   36.7200   14.5010 F   0  0  0  0  0
   11.5090   41.2760   14.6870 F   0  0  0  0  0
   10.9901   36.1682    9.6044 H   0  0  0  0  0
   14.8347   34.9182    8.1467 H   0  0  0  0  0
   15.8071   35.2027   10.4106 H   0  0  0  0  0
   15.4706   35.8009   12.4616 H   0  0  0  0  0
   10.4900   35.4843    6.3826 H   0  0  0  0  0
   10.3440   36.0266    8.0576 H   0  0  0  0  0
   12.2494   34.7897    5.5488 H   0  0  0  0  0
   11.0390   37.3848   16.5593 H   0  0  0  0  0
    9.2827   37.5229   16.7714 H   0  0  0  0  0
   11.4090   39.1634   18.2189 H   0  0  0  0  0
    9.4126   40.0854   19.5524 H   0  0  0  0  0
    8.3208   39.1593   18.5152 H   0  0  0  0  0
   10.2584   41.3706   17.5918 H   0  0  0  0  0
    8.4700   41.4790   17.6398 H   0  0  0  0  0
    8.2476   39.8329   15.8994 H   0  0  0  0  0
    9.4865   41.0322   15.3454 H   0  0  0  0  0
    8.7857   37.5671   19.4923 H   0  0  0  0  0
   10.5409   41.5582   11.2859 H   0  0  0  0  0
    9.9382   43.8756   10.5339 H   0  0  0  0  0
   11.6457   45.6895   10.6682 H   0  0  0  0  0
   14.5097   42.9199   12.3339 H   0  0  0  0  0
   14.4106   45.5335    8.7639 H   0  0  0  0  0
   13.0938   46.6417    9.2211 H   0  0  0  0  0
   14.7031   47.2892    8.8184 H   0  0  0  0  0
   16.0060   48.0796   10.7560 H   0  0  0  0  0
   16.2271   47.2442   13.5101 H   0  0  0  0  0
  1 17  1  0  0  0
  1  2  1  0  0  0
  2  7  4  0  0  0
  2  3  4  0  0  0
  3  4  4  0  0  0
  4  9  1  0  0  0
  4  5  4  0  0  0
  5  6  4  0  0  0
  6  7  4  0  0  0
  7  8  1  0  0  0
  9 11  2  0  0  0
  9 10  1  0  0  0
 17 16  4  0  0  0
 17 12  4  0  0  0
 12 13  4  0  0  0
 13 18  1  0  0  0
 13 14  4  0  0  0
 14 15  4  0  0  0
 15 27  1  0  0  0
 15 16  4  0  0  0
 27 28  1  0  0  0
 28 33  4  0  0  0
 28 29  4  0  0  0
 29 30  4  0  0  0
 30 31  4  0  0  0
 31 32  4  0  0  0
 32 34  1  0  0  0
 32 33  4  0  0  0
 34 37  4  0  0  0
 34 35  4  0  0  0
 35 38  4  0  0  0
 35 36  1  0  0  0
 38 39  4  0  0  0
 39 37  4  0  0  0
 18 23  1  0  0  0
 18 19  1  0  0  0
 19 20  1  0  0  0
 20 24  1  0  0  0
 20 21  1  0  0  0
 21 22  1  0  0  0
 22 23  1  0  0  0
 24 26  2  0  0  0
 24 25  1  0  0  0
 14 41  1  0  0  0
 12 40  1  0  0  0
  3 42  1  0  0  0
  5 43  1  0  0  0
  6 44  1  0  0  0
  8 45  1  0  0  0
 10 46  1  0  0  0
 10 47  1  0  0  0
 11 48  1  0  0  0
 19 49  1  0  0  0
 19 50  1  0  0  0
 20 51  1  0  0  0
 21 52  1  0  0  0
 21 53  1  0  0  0
 22 54  1  0  0  0
 22 55  1  0  0  0
 23 56  1  0  0  0
 23 57  1  0  0  0
 25 58  1  0  0  0
 29 59  1  0  0  0
 30 60  1  0  0  0
 31 61  1  0  0  0
 33 62  1  0  0  0
 36 63  1  0  0  0
 36 64  1  0  0  0
 36 65  1  0  0  0
 38 66  1  0  0  0
 39 67  1  0  0  0
M  END
$$$$
