2cma_ligand
  -I-interpret- 

 67 70  0  0  0  0  0  0  0  0999 V2000
   16.7790   -1.1930   -0.4460 C   0  0  0  0  0
   17.5500   -1.6890    0.7400 C   0  0  0  0  0
   16.9930   -1.0620    1.9880 C   0  0  0  0  0
   15.7280   -0.6420    1.8780 N   0  0  0  0  0
   15.1410   -1.0130    0.1980 S   0  0  0  0  0
   14.3360    0.1510   -0.6560 O   0  0  0  0  0
   14.4660   -2.5670    0.1630 O   0  0  0  0  0
   17.6160   -0.9280    3.0460 O   0  0  0  0  0
   16.8130   -2.0720   -1.6900 C   0  0  0  0  0
   16.9630   -3.5220   -1.5670 C   0  0  0  0  0
   16.9930   -4.3510   -2.7730 C   0  0  0  0  0
   16.8750   -3.7210   -4.0980 C   0  0  0  0  0
   16.7360   -2.2790   -4.2140 C   0  0  0  0  0
   16.7050   -1.4510   -3.0140 C   0  0  0  0  0
   16.8980   -4.5750   -5.3470 C   0  0  0  0  0
   18.1770   -4.4050   -6.1640 C   0  0  0  0  0
   19.3620   -4.9870   -5.4220 C   0  0  0  0  0
   20.1700   -4.2830   -4.8590 O   0  0  0  0  0
   19.5020   -6.3100   -5.4160 N   0  0  0  0  0
   18.0110   -5.1280   -7.4270 N   0  0  0  0  0
   18.5810   -4.5830   -8.4900 C   0  0  0  0  0
   18.4160   -5.3010   -9.8150 C   0  0  0  0  0
   19.1930   -3.5280   -8.3890 O   0  0  0  0  0
   18.6710   -4.4010  -10.9470 N   0  0  0  0  0
   19.3870   -6.4710   -9.9040 C   0  0  0  0  0
   19.0540   -7.4340  -11.0120 C   0  0  0  0  0
   18.2550   -8.6330  -10.7220 C   0  0  0  0  0
   17.9330   -9.5760  -11.7980 C   0  0  0  0  0
   18.4140   -9.3200  -13.1600 C   0  0  0  0  0
   19.2080   -8.1140  -13.4540 C   0  0  0  0  0
   19.5290   -7.1750  -12.3800 C   0  0  0  0  0
   17.5200   -4.1500  -11.5670 C   0  0  0  0  0
   16.4730   -4.6440  -11.1390 O   0  0  0  0  0
   17.4920   -3.2570  -12.7970 C   0  0  0  0  0
   16.3280   -2.3940  -13.0480 C   0  0  0  0  0
   16.3230   -1.4880  -14.2040 C   0  0  0  0  0
   17.4780   -1.4530  -15.1130 C   0  0  0  0  0
   18.6250   -2.3450  -14.8850 C   0  0  0  0  0
   18.6270   -3.2550  -13.7320 C   0  0  0  0  0
   17.2222   -0.2749   -0.8317 H   0  0  0  0  0
   18.6007   -1.4196    0.6324 H   0  0  0  0  0
   17.4637   -2.7736    0.8053 H   0  0  0  0  0
   15.1842   -0.1897    2.6129 H   0  0  0  0  0
   17.0519   -3.9824   -0.5830 H   0  0  0  0  0
   17.1025   -5.4323   -2.6900 H   0  0  0  0  0
   16.6549   -1.8165   -5.1977 H   0  0  0  0  0
   16.6014   -0.3694   -3.1013 H   0  0  0  0  0
   16.0608   -4.2683   -5.9739 H   0  0  0  0  0
   16.8389   -5.6182   -5.0366 H   0  0  0  0  0
   18.3575   -3.3443   -6.3384 H   0  0  0  0  0
   20.2938   -6.7369   -4.9351 H   0  0  0  0  0
   18.8176   -6.8974   -5.8923 H   0  0  0  0  0
   17.4865   -6.0010   -7.4840 H   0  0  0  0  0
   17.3870   -5.6570   -9.8650 H   0  0  0  0  0
   19.5821   -4.0286  -11.2148 H   0  0  0  0  0
   19.3324   -7.0182   -8.9629 H   0  0  0  0  0
   20.3776   -6.0638  -10.1065 H   0  0  0  0  0
   17.9021   -8.8212   -9.7080 H   0  0  0  0  0
   17.3381  -10.4644  -11.5864 H   0  0  0  0  0
   18.1830  -10.0252  -13.9583 H   0  0  0  0  0
   19.5551   -7.9224  -14.4693 H   0  0  0  0  0
   20.1197   -6.2840  -12.5928 H   0  0  0  0  0
   15.4698   -2.4267  -12.3768 H   0  0  0  0  0
   15.4642   -0.8425  -14.3877 H   0  0  0  0  0
   17.4843   -0.7644  -15.9579 H   0  0  0  0  0
   19.4723   -2.3308  -15.5706 H   0  0  0  0  0
   19.4689   -3.9281  -13.5696 H   0  0  0  0  0
  1  2  1  0  0  0
  1  5  1  0  0  0
  1  9  1  0  0  0
  2  3  1  0  0  0
  3  4  1  0  0  0
  3  8  2  0  0  0
  4  5  1  0  0  0
  5  6  2  0  0  0
  5  7  2  0  0  0
  9 10  4  0  0  0
  9 14  4  0  0  0
 10 11  4  0  0  0
 11 12  4  0  0  0
 12 13  4  0  0  0
 12 15  1  0  0  0
 13 14  4  0  0  0
 15 16  1  0  0  0
 16 17  1  0  0  0
 16 20  1  0  0  0
 17 18  2  0  0  0
 17 19  1  0  0  0
 20 21  1  0  0  0
 21 22  1  0  0  0
 21 23  2  0  0  0
 22 24  1  0  0  0
 22 25  1  0  0  0
 24 32  1  0  0  0
 25 26  1  0  0  0
 26 27  4  0  0  0
 26 31  4  0  0  0
 27 28  4  0  0  0
 28 29  4  0  0  0
 29 30  4  0  0  0
 30 31  4  0  0  0
 32 33  2  0  0  0
 32 34  1  0  0  0
 34 35  4  0  0  0
 34 39  4  0  0  0
 35 36  4  0  0  0
 36 37  4  0  0  0
 37 38  4  0  0  0
 38 39  4  0  0  0
  1 40  1  0  0  0
  2 41  1  0  0  0
  2 42  1  0  0  0
  4 43  1  0  0  0
 10 44  1  0  0  0
 11 45  1  0  0  0
 13 46  1  0  0  0
 14 47  1  0  0  0
 15 48  1  0  0  0
 15 49  1  0  0  0
 16 50  1  0  0  0
 19 51  1  0  0  0
 19 52  1  0  0  0
 20 53  1  0  0  0
 22 54  1  0  0  0
 24 55  1  0  0  0
 25 56  1  0  0  0
 25 57  1  0  0  0
 27 58  1  0  0  0
 28 59  1  0  0  0
 29 60  1  0  0  0
 30 61  1  0  0  0
 31 62  1  0  0  0
 35 63  1  0  0  0
 36 64  1  0  0  0
 37 65  1  0  0  0
 38 66  1  0  0  0
 39 67  1  0  0  0
M  END
$$$$
