3qw7_ligand
  -I-interpret- 

 82 82  0  0  0  0  0  0  0  0999 V2000
   27.0900   27.7610   53.0240 N   0  3  0  0  0
   27.2360   26.2780   53.0750 C   0  0  0  0  0
   26.5420   25.7710   54.3220 C   0  0  0  0  0
   26.3240   26.5300   55.2690 O   0  0  0  0  0
   28.7040   25.8620   53.1980 C   0  0  0  0  0
   29.6660   26.3660   52.1550 C   0  0  0  0  0
   30.9650   25.5690   52.2780 C   0  0  0  0  0
   32.0310   26.0670   51.4170 N   0  0  0  0  0
   32.7520   27.1530   51.6680 C   0  0  0  0  0
   32.5270   27.8670   52.7640 N   0  0  0  0  0
   33.7050   27.5250   50.8240 N   0  0  0  0  0
   26.1890   24.4910   54.3250 N   0  0  0  0  0
   25.5920   23.9100   55.5160 C   0  0  0  0  0
   26.6830   22.9830   56.0530 C   0  0  0  0  0
   27.6390   22.6750   55.3420 O   0  0  0  0  0
   24.2840   23.1640   55.1890 C   0  0  0  0  0
   24.3950   21.9530   54.2970 C   0  0  0  0  0
   23.0250   21.5940   53.6910 C   0  0  0  0  0
   21.9400   21.4630   54.6720 N   0  0  0  0  0
   20.9670   22.3560   54.8550 C   0  0  0  0  0
   20.9240   23.4680   54.1300 N   0  0  0  0  0
   20.0200   22.1310   55.7560 N   0  0  0  0  0
   26.5670   22.5620   57.3040 N   0  0  0  0  0
   27.5840   21.7120   57.9030 C   0  0  0  0  0
   27.1110   20.2710   58.0250 C   0  0  0  0  0
   27.5070   19.4090   57.2360 O   0  0  0  0  0
   27.9630   22.2910   59.2710 C   0  0  0  0  0
   29.1650   21.6550   59.8990 C   0  0  0  0  0
   30.3870   21.6200   59.2330 C   0  0  0  0  0
   29.0780   21.1040   61.1700 C   0  0  0  0  0
   31.5100   21.0510   59.8340 C   0  0  0  0  0
   30.1920   20.5340   61.7820 C   0  0  0  0  0
   31.4100   20.5040   61.1100 C   0  0  0  0  0
   26.2640   20.0070   59.0140 N   0  0  0  0  0
   25.7450   18.6580   59.2090 C   0  0  0  0  0
   24.3760   18.5330   58.5520 C   0  0  0  0  0
   23.4990   17.8480   59.1250 O   0  0  0  0  0
   25.6240   18.3250   60.7000 C   0  0  0  0  0
   27.1990   18.3600   61.5950 S   0  0  0  0  0
   24.2830   19.0830   57.2860 N   0  0  0  0  0
   26.1022   28.0016   52.9423 H   0  0  0  0  0
   27.4709   28.1685   53.8780 H   0  0  0  0  0
   27.5974   28.1238   52.2170 H   0  0  0  0  0
   26.8113   25.8689   52.1583 H   0  0  0  0  0
   28.7083   24.7766   53.0976 H   0  0  0  0  0
   29.0487   26.2863   54.1410 H   0  0  0  0  0
   29.8618   27.4274   52.3076 H   0  0  0  0  0
   29.2405   26.2377   51.1597 H   0  0  0  0  0
   30.7516   24.5430   51.9781 H   0  0  0  0  0
   31.3075   25.6545   53.3093 H   0  0  0  0  0
   32.2366   25.5460   50.5646 H   0  0  0  0  0
   33.0861   28.6985   52.9547 H   0  0  0  0  0
   31.7950   27.5842   53.4156 H   0  0  0  0  0
   33.8836   26.9768   49.9826 H   0  0  0  0  0
   26.3363   23.9175   53.4944 H   0  0  0  0  0
   25.2942   24.6569   56.2519 H   0  0  0  0  0
   23.6606   23.8767   54.6491 H   0  0  0  0  0
   23.9019   22.7989   56.1423 H   0  0  0  0  0
   24.7490   21.1101   54.8905 H   0  0  0  0  0
   25.0906   22.1747   53.4876 H   0  0  0  0  0
   23.1352   20.6240   53.2061 H   0  0  0  0  0
   22.7507   22.4072   53.0190 H   0  0  0  0  0
   21.9301   20.6271   55.2565 H   0  0  0  0  0
   20.1681   24.1385   54.2690 H   0  0  0  0  0
   21.6469   23.6515   53.4342 H   0  0  0  0  0
   20.0358   21.2743   56.3094 H   0  0  0  0  0
   25.7536   22.8377   57.8543 H   0  0  0  0  0
   28.4622   21.6947   57.2576 H   0  0  0  0  0
   27.1204   22.1126   59.9390 H   0  0  0  0  0
   28.2004   23.3439   59.1186 H   0  0  0  0  0
   30.4672   22.0418   58.2311 H   0  0  0  0  0
   28.1239   21.1175   61.6970 H   0  0  0  0  0
   32.4633   21.0348   59.3057 H   0  0  0  0  0
   30.1098   20.1129   62.7840 H   0  0  0  0  0
   32.2834   20.0534   61.5815 H   0  0  0  0  0
   25.9737   20.7554   59.6433 H   0  0  0  0  0
   26.4423   17.9563   58.7513 H   0  0  0  0  0
   25.2335   17.3100   60.7734 H   0  0  0  0  0
   24.9809   19.0821   61.1487 H   0  0  0  0  0
   26.9876   18.0592   62.8732 H   0  0  0  0  0
   23.4392   18.9436   56.7301 H   0  0  0  0  0
   25.0582   19.6280   56.9085 H   0  0  0  0  0
  1  2  1  0  0  0
  2  3  1  0  0  0
  2  5  1  0  0  0
  3  4  2  0  0  0
  3 12  1  0  0  0
  5  6  1  0  0  0
  6  7  1  0  0  0
  7  8  1  0  0  0
  8  9  1  0  0  0
  9 10  1  0  0  0
  9 11  2  0  0  0
 12 13  1  0  0  0
 13 14  1  0  0  0
 13 16  1  0  0  0
 14 15  2  0  0  0
 14 23  1  0  0  0
 16 17  1  0  0  0
 17 18  1  0  0  0
 18 19  1  0  0  0
 19 20  1  0  0  0
 20 21  1  0  0  0
 20 22  2  0  0  0
 23 24  1  0  0  0
 24 25  1  0  0  0
 24 27  1  0  0  0
 25 26  2  0  0  0
 25 34  1  0  0  0
 27 28  1  0  0  0
 28 29  4  0  0  0
 28 30  4  0  0  0
 29 31  4  0  0  0
 30 32  4  0  0  0
 31 33  4  0  0  0
 32 33  4  0  0  0
 34 35  1  0  0  0
 35 36  1  0  0  0
 35 38  1  0  0  0
 36 37  2  0  0  0
 36 40  1  0  0  0
 38 39  1  0  0  0
  1 41  1  0  0  0
  1 42  1  0  0  0
  1 43  1  0  0  0
  2 44  1  0  0  0
  5 45  1  0  0  0
  5 46  1  0  0  0
  6 47  1  0  0  0
  6 48  1  0  0  0
  7 49  1  0  0  0
  7 50  1  0  0  0
  8 51  1  0  0  0
 10 52  1  0  0  0
 10 53  1  0  0  0
 11 54  1  0  0  0
 12 55  1  0  0  0
 13 56  1  0  0  0
 16 57  1  0  0  0
 16 58  1  0  0  0
 17 59  1  0  0  0
 17 60  1  0  0  0
 18 61  1  0  0  0
 18 62  1  0  0  0
 19 63  1  0  0  0
 21 64  1  0  0  0
 21 65  1  0  0  0
 22 66  1  0  0  0
 23 67  1  0  0  0
 24 68  1  0  0  0
 27 69  1  0  0  0
 27 70  1  0  0  0
 29 71  1  0  0  0
 30 72  1  0  0  0
 31 73  1  0  0  0
 32 74  1  0  0  0
 33 75  1  0  0  0
 34 76  1  0  0  0
 35 77  1  0  0  0
 38 78  1  0  0  0
 38 79  1  0  0  0
 39 80  1  0  0  0
 40 81  1  0  0  0
 40 82  1  0  0  0
M  END
$$$$
