2i47_ligand
  -I-interpret- 

 62 64  0  0  0  0  0  0  0  0999 V2000
   19.6150   64.4160    8.4560 S   0  0  0  0  0
   18.8360   62.9090    8.6800 C   0  0  0  0  0
   19.3040   65.1950    9.6140 O   0  0  0  0  0
   19.2390   65.0240    7.1960 O   0  0  0  0  0
   17.9090   62.2750    7.8530 C   0  0  0  0  0
   19.0330   62.0600    9.7780 C   0  0  0  0  0
   17.5870   61.0990    8.4630 N   0  0  0  0  0
   17.3370   62.7070    6.5730 C   0  0  0  0  0
   18.2480   60.9780    9.5910 O   0  0  0  0  0
   19.8970   62.2150   10.9620 C   0  0  0  0  0
   21.2060   64.0140    8.3910 N   0  0  0  0  0
   22.1380   64.4400    9.4350 C   0  0  0  0  0
   23.3260   65.2060    8.8250 C   0  0  0  0  0
   23.9830   64.5200    7.5870 C   0  0  0  0  0
   22.9260   63.9260    6.5880 C   0  0  0  0  0
   21.7350   63.2210    7.2710 C   0  0  0  0  0
   24.9650   63.4470    8.1140 C   0  0  0  0  0
   24.8000   65.6510    6.9800 C   0  0  0  0  0
   25.7330   63.7250    9.0290 O   0  0  0  0  0
   24.9200   62.2450    7.5060 N   0  0  0  0  0
   25.6070   65.5720    5.4130 S   0  0  0  0  0
   25.6920   66.9400    5.0030 O   0  0  0  0  0
   24.8450   64.7100    4.5540 O   0  0  0  0  0
   27.2760   64.9970    5.5120 C   0  0  0  0  0
   27.6630   63.8120    4.8050 C   0  0  0  0  0
   29.0190   63.3760    4.8710 C   0  0  0  0  0
   29.9650   64.1170    5.6450 C   0  0  0  0  0
   29.5600   65.3090    6.3620 C   0  0  0  0  0
   28.2080   65.7460    6.2970 C   0  0  0  0  0
   31.2890   63.6240    5.6520 O   0  0  0  0  0
   32.3940   64.5680    5.6080 C   0  0  0  0  0
   32.5310   65.2180    4.2860 C   0  0  0  0  0
   32.6240   65.7850    3.2290 C   0  0  0  0  0
   32.7820   66.4270    1.9370 C   0  0  0  0  0
   25.7500   61.2320    7.8910 O   0  0  0  0  0
   16.8098   63.6508    6.7122 H   0  0  0  0  0
   18.1375   62.8403    5.8453 H   0  0  0  0  0
   16.6402   61.9497    6.2138 H   0  0  0  0  0
   20.9356   62.3030   10.6433 H   0  0  0  0  0
   19.6058   63.1125   11.5077 H   0  0  0  0  0
   19.7863   61.3437   11.6075 H   0  0  0  0  0
   22.5157   63.5575    9.9514 H   0  0  0  0  0
   21.6136   65.0975   10.1284 H   0  0  0  0  0
   24.0931   65.2658    9.5970 H   0  0  0  0  0
   22.9410   66.1677    8.4859 H   0  0  0  0  0
   23.4394   63.1774    5.9846 H   0  0  0  0  0
   22.5203   64.7604    6.0159 H   0  0  0  0  0
   20.9418   63.0937    6.5344 H   0  0  0  0  0
   22.0792   62.2627    7.6600 H   0  0  0  0  0
   25.6372   65.7358    7.6728 H   0  0  0  0  0
   24.0495   66.4252    6.8204 H   0  0  0  0  0
   24.2562   62.0900    6.7472 H   0  0  0  0  0
   26.9304   63.2514    4.2244 H   0  0  0  0  0
   29.3329   62.4813    4.3334 H   0  0  0  0  0
   30.2884   65.8686    6.9488 H   0  0  0  0  0
   27.8874   66.6371    6.8366 H   0  0  0  0  0
   33.3138   64.0190    5.8099 H   0  0  0  0  0
   32.2017   65.3458    6.3470 H   0  0  0  0  0
   33.8062   66.7852    1.8336 H   0  0  0  0  0
   32.5656   65.7082    1.1467 H   0  0  0  0  0
   32.0924   67.2680    1.8639 H   0  0  0  0  0
   25.5785   60.4567    7.3515 H   0  0  0  0  0
  1  2  1  0  0  0
  1  3  2  0  0  0
  1  4  2  0  0  0
  1 11  1  0  0  0
  2  5  4  0  0  0
  2  6  4  0  0  0
  5  7  4  0  0  0
  5  8  1  0  0  0
  6  9  4  0  0  0
  6 10  1  0  0  0
  7  9  4  0  0  0
 11 12  1  0  0  0
 11 16  1  0  0  0
 12 13  1  0  0  0
 13 14  1  0  0  0
 14 15  1  0  0  0
 14 17  1  0  0  0
 14 18  1  0  0  0
 15 16  1  0  0  0
 17 19  2  0  0  0
 17 20  1  0  0  0
 18 21  1  0  0  0
 20 35  1  0  0  0
 21 22  2  0  0  0
 21 23  2  0  0  0
 21 24  1  0  0  0
 24 25  4  0  0  0
 24 29  4  0  0  0
 25 26  4  0  0  0
 26 27  4  0  0  0
 27 28  4  0  0  0
 27 30  1  0  0  0
 28 29  4  0  0  0
 30 31  1  0  0  0
 31 32  1  0  0  0
 32 33  3  0  0  0
 33 34  1  0  0  0
  8 36  1  0  0  0
  8 37  1  0  0  0
  8 38  1  0  0  0
 10 39  1  0  0  0
 10 40  1  0  0  0
 10 41  1  0  0  0
 12 42  1  0  0  0
 12 43  1  0  0  0
 13 44  1  0  0  0
 13 45  1  0  0  0
 15 46  1  0  0  0
 15 47  1  0  0  0
 16 48  1  0  0  0
 16 49  1  0  0  0
 18 50  1  0  0  0
 18 51  1  0  0  0
 20 52  1  0  0  0
 25 53  1  0  0  0
 26 54  1  0  0  0
 28 55  1  0  0  0
 29 56  1  0  0  0
 31 57  1  0  0  0
 31 58  1  0  0  0
 34 59  1  0  0  0
 34 60  1  0  0  0
 34 61  1  0  0  0
 35 62  1  0  0  0
M  END
$$$$
