4ez5_ligand
  -I-interpret- 

 63 68  0  0  0  0  0  0  0  0999 V2000
   41.1560   20.3810   17.2800 C   0  0  0  0  0
   41.6200   21.8690   15.4620 C   0  0  0  0  0
   39.3490   20.9040   15.7450 C   0  0  0  0  0
   33.3950   26.1640    9.6520 O   0  0  0  0  0
   36.1570   22.6180   10.0100 C   0  0  0  0  0
   34.9170   24.3260    9.6360 C   0  0  0  0  0
   35.8010   23.1340   11.2820 C   0  0  0  0  0
   34.1080   25.4330    8.9760 C   0  0  0  0  0
   34.1850   25.6330    7.4990 C   0  0  0  0  0
   33.1390   26.2870    6.8280 C   0  0  0  0  0
   33.2480   26.4550    5.4430 C   0  0  0  0  0
   35.3040   25.3900    5.3320 C   0  0  0  0  0
   35.2800   25.2010    6.7190 C   0  0  0  0  0
   36.4310   24.9540    4.4830 C   0  0  0  0  0
   36.8560   25.8340    3.4560 C   0  0  0  0  0
   38.5250   24.4280    2.7500 C   0  0  0  0  0
   38.2080   23.4610    3.7200 C   0  0  0  0  0
   38.9340   22.2570    3.8020 C   0  0  0  0  0
   38.6020   21.3030    4.7860 C   0  0  0  0  0
   37.5490   21.5310    5.6910 C   0  0  0  0  0
   36.8240   22.7320    5.5900 C   0  0  0  0  0
   37.1380   23.7220    4.6130 C   0  0  0  0  0
   40.5880   21.3840   16.3830 N   0  3  0  0  0
   38.2970   22.0300   15.6330 C   0  0  0  0  0
   37.0100   21.5330   14.9500 C   0  0  0  0  0
   37.3580   21.0040   13.6330 N   0  0  0  0  0
   38.2170   19.8270   13.7520 C   0  0  0  0  0
   39.5660   20.2000   14.3860 C   0  0  0  0  0
   36.9640   21.5460   12.4530 C   0  0  0  0  0
   37.3860   20.9460   11.2420 C   0  0  0  0  0
   36.9810   21.4780   10.0020 C   0  0  0  0  0
   35.6040   23.3670    8.9930 N   0  0  0  0  0
   35.0050   24.2260   10.9870 N   0  0  0  0  0
   36.1690   22.6470   12.5000 N   0  0  0  0  0
   34.3000   26.0250    4.7140 N   0  0  0  0  0
   37.8730   25.5940    2.6090 N   0  0  0  0  0
   40.4349   20.1454   18.0627 H   0  0  0  0  0
   41.3876   19.4787   16.7140 H   0  0  0  0  0
   42.0679   20.7730   17.7304 H   0  0  0  0  0
   41.9107   21.0637   14.7874 H   0  0  0  0  0
   41.2255   22.7045   14.8837 H   0  0  0  0  0
   42.4885   22.1983   16.0324 H   0  0  0  0  0
   38.9630   20.1334   16.4123 H   0  0  0  0  0
   32.2673   26.6532    7.3703 H   0  0  0  0  0
   32.4361   26.9627    4.9223 H   0  0  0  0  0
   36.1229   24.7109    7.2062 H   0  0  0  0  0
   36.3184   26.7756    3.3444 H   0  0  0  0  0
   39.3510   24.2187    2.0703 H   0  0  0  0  0
   39.7506   22.0630    3.1065 H   0  0  0  0  0
   39.1699   20.3746    4.8465 H   0  0  0  0  0
   37.3006   20.7930    6.4537 H   0  0  0  0  0
   35.9982   22.9112    6.2785 H   0  0  0  0  0
   40.2863   22.1987   16.9174 H   0  0  0  0  0
   38.7172   22.8369   15.0327 H   0  0  0  0  0
   38.0459   22.3694   16.6379 H   0  0  0  0  0
   36.3030   22.3559   14.8453 H   0  0  0  0  0
   36.5462   20.7527   15.5535 H   0  0  0  0  0
   38.3962   19.4199   12.7569 H   0  0  0  0  0
   37.7212   19.0920   14.3861 H   0  0  0  0  0
   40.1454   19.2908   14.5466 H   0  0  0  0  0
   40.0966   20.8774   13.7169 H   0  0  0  0  0
   38.0288   20.0662   11.2693 H   0  0  0  0  0
   37.2967   21.0200    9.0646 H   0  0  0  0  0
 23  1  1  0  0  0
 23  2  1  0  0  0
  3 23  1  0  0  0
 24  3  1  0  0  0
 28  3  1  0  0  0
  8  4  2  0  0  0
  7  5  4  0  0  0
  5 31  4  0  0  0
  5 32  4  0  0  0
  6  8  1  0  0  0
  6 32  4  0  0  0
 33  6  4  0  0  0
  7 33  4  0  0  0
 34  7  4  0  0  0
  8  9  1  0  0  0
  9 10  4  0  0  0
  9 13  4  0  0  0
 10 11  4  0  0  0
 11 35  4  0  0  0
 13 12  4  0  0  0
 12 14  1  0  0  0
 12 35  4  0  0  0
 14 15  4  0  0  0
 14 22  4  0  0  0
 15 36  4  0  0  0
 17 16  4  0  0  0
 36 16  4  0  0  0
 17 18  4  0  0  0
 22 17  4  0  0  0
 18 19  4  0  0  0
 20 19  4  0  0  0
 21 20  4  0  0  0
 22 21  4  0  0  0
 25 24  1  0  0  0
 26 25  1  0  0  0
 26 27  1  0  0  0
 29 26  1  0  0  0
 27 28  1  0  0  0
 29 30  4  0  0  0
 29 34  4  0  0  0
 30 31  4  0  0  0
  1 37  1  0  0  0
  1 38  1  0  0  0
  1 39  1  0  0  0
  2 40  1  0  0  0
  2 41  1  0  0  0
  2 42  1  0  0  0
  3 43  1  0  0  0
 10 44  1  0  0  0
 11 45  1  0  0  0
 13 46  1  0  0  0
 15 47  1  0  0  0
 16 48  1  0  0  0
 18 49  1  0  0  0
 19 50  1  0  0  0
 20 51  1  0  0  0
 21 52  1  0  0  0
 23 53  1  0  0  0
 24 54  1  0  0  0
 24 55  1  0  0  0
 25 56  1  0  0  0
 25 57  1  0  0  0
 27 58  1  0  0  0
 27 59  1  0  0  0
 28 60  1  0  0  0
 28 61  1  0  0  0
 30 62  1  0  0  0
 31 63  1  0  0  0
M  END
$$$$
