3i7g_ligand
  -I-interpret- 

 49 51  0  0  0  0  0  0  0  0999 V2000
   -8.4590   26.5590   51.5890 C   0  0  0  0  0
   -7.3710   27.2600   52.0850 C   0  0  0  0  0
   -6.7270   28.1890   51.2790 C   0  0  0  0  0
   -7.1790   28.4200   49.9900 C   0  0  0  0  0
   -8.2650   27.7160   49.5100 C   0  0  0  0  0
   -8.9080   26.7910   50.3090 C   0  0  0  0  0
   -6.8940   27.0290   53.4540 C   0  0  0  0  0
   -8.8490   27.9920   47.9060 Cl  0  0  0  0  0
   -6.7010   25.8480   54.1300 C   0  0  0  0  0
   -6.1360   26.1780   55.3780 C   0  0  0  0  0
   -6.2220   27.5510   55.4750 C   0  0  0  0  0
   -6.6190   28.0270   54.2870 O   0  0  0  0  0
   -6.0240   28.4680   56.5890 C   0  0  0  0  0
   -5.6190   28.1520   57.7110 O   0  0  0  0  0
   -6.3620   29.7190   56.2060 N   0  0  0  0  0
   -6.3750   30.9430   56.9880 C   0  0  0  0  0
   -5.1070   31.7480   56.6810 C   0  0  0  0  0
   -7.6530   31.6220   56.5350 C   0  0  0  0  0
   -7.8640   31.8920   55.3500 O   0  0  0  0  0
   -8.5980   31.8840   57.4610 N   0  0  0  0  0
   -9.8590   32.5210   57.0520 C   0  0  0  0  0
   -5.4230   33.2420   56.5690 C   0  0  0  0  0
   -4.1290   34.0070   56.2850 C   0  0  0  0  0
   -3.1640   33.8010   57.4540 C   0  0  0  0  0
   -2.8220   32.3130   57.6040 C   0  0  0  0  0
   -4.1030   31.5010   57.8200 C   0  0  0  0  0
   -8.9608   25.8212   52.2151 H   0  0  0  0  0
   -5.8654   28.7369   51.6605 H   0  0  0  0  0
   -6.6795   29.1541   49.3579 H   0  0  0  0  0
   -9.7703   26.2452   49.9261 H   0  0  0  0  0
   -6.9394   24.8473   53.7696 H   0  0  0  0  0
   -5.7179   25.4910   56.1137 H   0  0  0  0  0
   -6.6479   29.8175   55.2319 H   0  0  0  0  0
   -6.3680   30.8072   58.0695 H   0  0  0  0  0
   -4.6881   31.4289   55.7267 H   0  0  0  0  0
   -8.4391   31.6418   58.4390 H   0  0  0  0  0
   -9.6457   33.4917   56.6044 H   0  0  0  0  0
  -10.3654   31.8872   56.3240 H   0  0  0  0  0
  -10.4971   32.6546   57.9255 H   0  0  0  0  0
   -5.8607   33.5954   57.5026 H   0  0  0  0  0
   -6.1323   33.4071   55.7580 H   0  0  0  0  0
   -4.3467   35.0688   56.1699 H   0  0  0  0  0
   -3.6769   33.6370   55.3648 H   0  0  0  0  0
   -3.6355   34.1526   58.3717 H   0  0  0  0  0
   -2.2479   34.3598   57.2627 H   0  0  0  0  0
   -2.1641   32.1808   58.4630 H   0  0  0  0  0
   -2.3255   31.9658   56.6979 H   0  0  0  0  0
   -3.8478   30.4415   57.8391 H   0  0  0  0  0
   -4.5583   31.8078   58.7617 H   0  0  0  0  0
  1  2  4  0  0  0
  1  6  4  0  0  0
  2  3  4  0  0  0
  2  7  1  0  0  0
  3  4  4  0  0  0
  4  5  4  0  0  0
  5  6  4  0  0  0
  5  8  1  0  0  0
  7  9  4  0  0  0
  7 12  4  0  0  0
  9 10  4  0  0  0
 10 11  4  0  0  0
 11 12  4  0  0  0
 11 13  1  0  0  0
 13 14  2  0  0  0
 13 15  1  0  0  0
 15 16  1  0  0  0
 16 17  1  0  0  0
 16 18  1  0  0  0
 17 22  1  0  0  0
 17 26  1  0  0  0
 18 19  2  0  0  0
 18 20  1  0  0  0
 20 21  1  0  0  0
 22 23  1  0  0  0
 23 24  1  0  0  0
 24 25  1  0  0  0
 25 26  1  0  0  0
  1 27  1  0  0  0
  3 28  1  0  0  0
  4 29  1  0  0  0
  6 30  1  0  0  0
  9 31  1  0  0  0
 10 32  1  0  0  0
 15 33  1  0  0  0
 16 34  1  0  0  0
 17 35  1  0  0  0
 20 36  1  0  0  0
 21 37  1  0  0  0
 21 38  1  0  0  0
 21 39  1  0  0  0
 22 40  1  0  0  0
 22 41  1  0  0  0
 23 42  1  0  0  0
 23 43  1  0  0  0
 24 44  1  0  0  0
 24 45  1  0  0  0
 25 46  1  0  0  0
 25 47  1  0  0  0
 26 48  1  0  0  0
 26 49  1  0  0  0
M  END
$$$$
