### 
### Created by X-TOOL on Mon Sep 10 21:12:52 2018
### 

@<TRIPOS>MOLECULE
1yms_ligand
   36    37     1     0     0
SMALL
GAST_HUCK


@<TRIPOS>ATOM
      1 C25        24.2730   51.5600   11.2940 C.3       1 NBF        -0.0367
      2 C24        24.6560   51.9490   12.6010 C.3       1 NBF         0.0703
      3 O23        24.2020   53.3080   12.6650 O.3       1 NBF        -0.3106
      4 C15        25.0850   54.3030   13.0100 C.ar      1 NBF         0.1151
      5 C13        25.6710   55.0610   11.9830 C.ar      1 NBF         0.0806
      6 C11        25.2130   54.8820   10.5180 C.2       1 NBF         0.1927
      7 O12        26.0290   54.5840    9.6460 O.2       1 NBF        -0.3953
      8 N10        23.8930   55.0760   10.2540 N.am      1 NBF        -0.2992
      9 C7         23.2930   54.9650    8.9450 C.3       1 NBF         0.0407
     10 B          21.7420   55.2600    8.9420 B         1 NBF         0.7128
     11 O1         21.4180   56.3080    9.8600 O.3       1 NBF        -0.4968
     12 O2         21.0190   54.0620    9.3020 O.3       1 NBF        -0.4968
     13 C14        26.6250   56.1010   12.3780 C.ar      1 NBF        -0.0104
     14 C16        26.9310   56.3440   13.7960 C.ar      1 NBF        -0.0190
     15 C18        27.8540   57.3550   14.1550 C.ar      1 NBF        -0.0564
     16 C20        28.4930   58.1310   13.2250 C.ar      1 NBF        -0.0636
     17 C22        28.2420   57.9390   11.8320 C.ar      1 NBF        -0.0642
     18 C17        27.3290   56.9500   11.4190 C.ar      1 NBF        -0.0576
     19 C19        26.2820   55.5400   14.7620 C.ar      1 NBF        -0.0505
     20 C21        25.3930   54.5480   14.4140 C.ar      1 NBF        -0.0192
     21 H1         24.5720   50.5159   11.1198 H         1 NBF         0.0256
     22 H2         24.7677   52.2107   10.5580 H         1 NBF         0.0256
     23 H3         23.1818   51.6512   11.1892 H         1 NBF         0.0256
     24 H4         25.7466   51.8876   12.7307 H         1 NBF         0.0616
     25 H5         24.1607   51.3280   13.3620 H         1 NBF         0.0616
     26 H6         23.2957   55.3122   11.0204 H         1 NBF         0.1821
     27 H7         23.4547   53.9428    8.5723 H         1 NBF         0.0394
     28 H8         23.7862   55.6826    8.2729 H         1 NBF         0.0394
     29 H9         21.6611   56.0435   10.7394 H         1 NBF         0.1667
     30 H10        21.2355   53.3673    8.6913 H         1 NBF         0.1667
     31 H11        28.0630   57.5214   15.2056 H         1 NBF         0.0626
     32 H12        29.1922   58.8941   13.5473 H         1 NBF         0.0589
     33 H13        28.7516   58.5514   11.0969 H         1 NBF         0.0618
     34 H14        27.1429   56.8144   10.3597 H         1 NBF         0.0591
     35 H15        26.4917   55.7107   15.8118 H         1 NBF         0.0668
     36 H16        24.9216   53.9486   15.1844 H         1 NBF         0.0606
@<TRIPOS>BOND
     1    1    2 1  
     2    2    3 1  
     3    3    4 1  
     4    4    5 ar 
     5    4   20 ar 
     6    5    6 1  
     7    5   13 ar 
     8    6    7 2  
     9    6    8 am 
    10    8    9 1  
    11    9   10 1  
    12   10   11 1  
    13   10   12 1  
    14   13   14 ar 
    15   13   18 ar 
    16   14   15 ar 
    17   14   19 ar 
    18   15   16 ar 
    19   16   17 ar 
    20   17   18 ar 
    21   19   20 ar 
    22    1   21 1  
    23    1   22 1  
    24    1   23 1  
    25    2   24 1  
    26    2   25 1  
    27    8   26 1  
    28    9   27 1  
    29    9   28 1  
    30   11   29 1  
    31   12   30 1  
    32   15   31 1  
    33   16   32 1  
    34   17   33 1  
    35   18   34 1  
    36   19   35 1  
    37   20   36 1  
@<TRIPOS>SUBSTRUCTURE
     1 NBF         1

