4yxi_ligand
  -I-interpret- 

 20 20  0  0  0  0  0  0  0  0999 V2000
   -1.1120    4.6970   84.6020 C   0  0  0  0  0
   -0.3140    3.6280   84.9820 C   0  0  0  0  0
   -2.1690    2.5470   86.0310 C   0  0  0  0  0
   -2.4560    4.6600   84.9470 C   0  0  0  0  0
   -4.2550    1.2680   86.8560 O   0  0  0  0  0
   -2.8330    1.2080   86.9890 S   0  0  0  0  0
   -2.2880    1.3330   88.3180 O   0  0  0  0  0
   -2.3150   -0.1590   86.3580 N   0  0  0  0  0
   -0.8270    2.5540   85.6930 C   0  0  0  0  0
   -2.9940    3.5960   85.6550 C   0  0  0  0  0
   -0.5390    5.8690   83.8470 C   0  0  0  0  0
    0.7428    3.6324   84.7150 H   0  0  0  0  0
   -3.1036    5.4866   84.6546 H   0  0  0  0  0
   -2.9795   -0.8163   85.9497 H   0  0  0  0  0
   -1.3187   -0.3774   86.3621 H   0  0  0  0  0
   -0.1811    1.7250   85.9823 H   0  0  0  0  0
   -4.0530    3.5844   85.9129 H   0  0  0  0  0
    0.2427    6.3376   84.4449 H   0  0  0  0  0
   -0.1175    5.5210   82.9040 H   0  0  0  0  0
   -1.3293    6.5929   83.6481 H   0  0  0  0  0
  2  1  4  0  0  0
  1  4  4  0  0  0
  1 11  1  0  0  0
  9  2  4  0  0  0
  3  6  1  0  0  0
  3  9  4  0  0  0
  3 10  4  0  0  0
  4 10  4  0  0  0
  6  5  2  0  0  0
  6  7  2  0  0  0
  6  8  1  0  0  0
  2 12  1  0  0  0
  4 13  1  0  0  0
  8 14  1  0  0  0
  8 15  1  0  0  0
  9 16  1  0  0  0
 10 17  1  0  0  0
 11 18  1  0  0  0
 11 19  1  0  0  0
 11 20  1  0  0  0
M  END
$$$$
