3i7i_ligand
  -I-interpret- 

 66 70  0  0  0  0  0  0  0  0999 V2000
   -8.5440   26.9610   49.2520 C   0  0  0  0  0
   -8.8220   25.8610   50.0530 C   0  0  0  0  0
   -8.3350   25.7940   51.3350 C   0  0  0  0  0
   -7.5650   26.8310   51.8570 C   0  0  0  0  0
   -7.2570   27.9220   51.0470 C   0  0  0  0  0
   -7.7530   27.9930   49.7570 C   0  0  0  0  0
   -7.0150   26.7130   53.2230 C   0  0  0  0  0
   -6.5040   25.5630   53.7700 C   0  0  0  0  0
   -6.0730   25.8510   55.0730 C   0  0  0  0  0
   -6.3440   27.1790   55.2560 C   0  0  0  0  0
   -6.9110   27.6780   54.1380 O   0  0  0  0  0
   -6.1160   28.0040   56.4250 C   0  0  0  0  0
   -5.6910   27.5660   57.4790 O   0  0  0  0  0
   -6.4510   29.2820   56.1930 N   0  0  0  0  0
   -6.3990   30.4090   57.1000 C   0  0  0  0  0
   -7.7810   30.9860   56.8990 C   0  0  0  0  0
   -5.2760   31.2760   56.5140 C   0  0  0  0  0
   -8.5140   31.3930   57.9510 N   0  0  0  0  0
   -8.2680   31.0550   55.7830 O   0  0  0  0  0
   -9.0370   26.9700   47.9430 N   0  0  0  0  0
   -9.8600   31.9290   57.7410 C   0  0  0  0  0
   -5.7390   32.6500   56.0210 C   0  0  0  0  0
   -4.6170   33.1710   55.1200 C   0  0  0  0  0
   -3.2900   33.2580   55.8910 C   0  0  0  0  0
   -2.9360   31.9560   56.6260 C   0  0  0  0  0
   -4.1160   31.4910   57.4890 C   0  0  0  0  0
  -10.0850   27.6600   47.4870 C   0  0  0  0  0
  -10.4290   27.4960   46.0620 C   0  0  0  0  0
  -10.7360   28.3510   48.2430 O   0  0  0  0  0
   -9.5890   27.7160   45.0240 O   0  0  0  0  0
  -11.6380   27.0830   45.5880 C   0  0  0  0  0
  -11.5220   27.0520   44.1260 C   0  0  0  0  0
  -10.2020   27.4640   43.8450 C   0  0  0  0  0
   -9.8000   27.5350   42.5180 C   0  0  0  0  0
  -10.6790   27.2040   41.5010 C   0  0  0  0  0
  -11.9770   26.7950   41.7740 C   0  0  0  0  0
  -12.3940   26.7180   43.0750 C   0  0  0  0  0
   -9.4306   25.0458   49.6615 H   0  0  0  0  0
   -8.5529   24.9210   51.9502 H   0  0  0  0  0
   -6.6236   28.7219   51.4305 H   0  0  0  0  0
   -7.5249   28.8577   49.1338 H   0  0  0  0  0
   -6.4435   24.5929   53.2768 H   0  0  0  0  0
   -5.6192   25.1637   55.7870 H   0  0  0  0  0
   -6.7872   29.4870   55.2521 H   0  0  0  0  0
   -6.1958   30.2529   58.1595 H   0  0  0  0  0
   -4.9365   30.6944   55.6569 H   0  0  0  0  0
   -8.1321   31.3282   58.8946 H   0  0  0  0  0
   -8.5440   26.3882   47.2656 H   0  0  0  0  0
   -9.8032   32.8099   57.1016 H   0  0  0  0  0
  -10.4810   31.1712   57.2633 H   0  0  0  0  0
  -10.2944   32.2035   58.7022 H   0  0  0  0  0
   -5.9248   33.3278   56.8542 H   0  0  0  0  0
   -6.6818   32.5791   55.4786 H   0  0  0  0  0
   -4.8840   34.1676   54.7684 H   0  0  0  0  0
   -4.4918   32.4838   54.2832 H   0  0  0  0  0
   -3.3916   34.0444   56.6389 H   0  0  0  0  0
   -2.4986   33.4570   55.1683 H   0  0  0  0  0
   -2.0744   32.1346   57.2693 H   0  0  0  0  0
   -2.7080   31.1842   55.8909 H   0  0  0  0  0
   -3.8771   30.5773   58.0332 H   0  0  0  0  0
   -4.3672   32.2274   58.2523 H   0  0  0  0  0
  -12.5175   26.8264   46.1785 H   0  0  0  0  0
   -8.7861   27.8533   42.2754 H   0  0  0  0  0
  -10.3451   27.2658   40.4652 H   0  0  0  0  0
  -12.6564   26.5381   40.9613 H   0  0  0  0  0
  -13.4108   26.3950   43.2984 H   0  0  0  0  0
  1  2  4  0  0  0
  1  6  4  0  0  0
  1 20  1  0  0  0
  2  3  4  0  0  0
  3  4  4  0  0  0
  4  5  4  0  0  0
  4  7  1  0  0  0
  5  6  4  0  0  0
  7  8  4  0  0  0
  7 11  4  0  0  0
  8  9  4  0  0  0
  9 10  4  0  0  0
 10 11  4  0  0  0
 10 12  1  0  0  0
 12 13  2  0  0  0
 12 14  1  0  0  0
 14 15  1  0  0  0
 15 16  1  0  0  0
 15 17  1  0  0  0
 16 18  1  0  0  0
 16 19  2  0  0  0
 17 22  1  0  0  0
 17 26  1  0  0  0
 18 21  1  0  0  0
 20 27  1  0  0  0
 22 23  1  0  0  0
 23 24  1  0  0  0
 24 25  1  0  0  0
 25 26  1  0  0  0
 27 28  1  0  0  0
 27 29  2  0  0  0
 28 30  4  0  0  0
 28 31  4  0  0  0
 30 33  4  0  0  0
 31 32  4  0  0  0
 32 33  4  0  0  0
 32 37  4  0  0  0
 33 34  4  0  0  0
 34 35  4  0  0  0
 35 36  4  0  0  0
 36 37  4  0  0  0
  2 38  1  0  0  0
  3 39  1  0  0  0
  5 40  1  0  0  0
  6 41  1  0  0  0
  8 42  1  0  0  0
  9 43  1  0  0  0
 14 44  1  0  0  0
 15 45  1  0  0  0
 17 46  1  0  0  0
 18 47  1  0  0  0
 20 48  1  0  0  0
 21 49  1  0  0  0
 21 50  1  0  0  0
 21 51  1  0  0  0
 22 52  1  0  0  0
 22 53  1  0  0  0
 23 54  1  0  0  0
 23 55  1  0  0  0
 24 56  1  0  0  0
 24 57  1  0  0  0
 25 58  1  0  0  0
 25 59  1  0  0  0
 26 60  1  0  0  0
 26 61  1  0  0  0
 31 62  1  0  0  0
 34 63  1  0  0  0
 35 64  1  0  0  0
 36 65  1  0  0  0
 37 66  1  0  0  0
M  END
$$$$
