5zc5_ligand
  -I-interpret- 

 51 54  0  0  0  0  0  0  0  0999 V2000
   -2.2560  -32.8620  -31.9880 C   0  0  0  0  0
   -1.5530  -32.6110  -28.4000 C   0  0  0  0  0
   -4.3240  -31.5930  -31.8980 C   0  0  0  0  0
   -2.1040  -32.7060  -30.6090 C   0  0  0  0  0
   -3.0590  -32.0050  -29.9210 C   0  0  0  0  0
    1.8390  -28.6920  -27.7530 C   0  0  0  0  0
   -0.1080  -29.2920  -25.5870 C   0  0  0  0  0
   -1.0310  -32.7210  -27.0250 C   0  0  0  0  0
   -1.4700  -37.8430  -25.7890 C   0  0  0  0  0
   -0.4030  -29.7890  -27.9850 C   0  0  0  0  0
   -3.3730  -32.3080  -32.6260 C   0  0  0  0  0
   -0.9370  -35.7010  -24.8730 C   0  0  0  0  0
   -1.1270  -33.1170  -29.6260 C   0  0  0  0  0
    1.0350  -29.7720  -28.4780 C   0  0  0  0  0
   -4.1740  -31.4300  -30.5200 C   0  0  0  0  0
   -1.3320  -33.5430  -32.6870 F   0  0  0  0  0
   -2.7430  -31.9660  -28.6470 O   0  0  0  0  0
   -0.5710  -31.6720  -26.2170 C   0  0  0  0  0
   -0.3930  -30.3100  -26.6060 N   0  0  0  0  0
    2.3880  -29.2070  -26.4190 C   0  0  0  0  0
    1.3900  -29.3080  -25.2560 C   0  0  0  0  0
   -0.2120  -32.0170  -24.9390 N   0  0  0  0  0
   -0.3150  -33.2750  -24.4550 C   0  0  0  0  0
    0.0550  -33.5460  -23.1800 N   0  0  0  0  0
   -0.8090  -34.2760  -25.2790 C   0  0  0  0  0
   -1.1490  -33.9730  -26.5450 N   0  0  0  0  0
   -0.8090  -36.0180  -23.7030 O   0  0  0  0  0
   -1.0920  -36.5760  -25.8860 N   0  0  0  0  0
   -1.5350  -38.5710  -26.9050 N   0  0  0  0  0
   -1.7670  -38.3800  -24.6090 N   0  0  0  0  0
   -5.1859  -31.1607  -32.4063 H   0  0  0  0  0
    1.1818  -27.8456  -27.5538 H   0  0  0  0  0
    2.6787  -28.4021  -28.3847 H   0  0  0  0  0
   -0.6822  -29.5080  -24.6861 H   0  0  0  0  0
   -0.3865  -28.3089  -25.9667 H   0  0  0  0  0
   -1.0182  -30.4201  -28.6263 H   0  0  0  0  0
   -0.8262  -28.7848  -28.0099 H   0  0  0  0  0
   -3.5003  -32.4367  -33.7009 H   0  0  0  0  0
   -0.2300  -33.7087  -29.8088 H   0  0  0  0  0
    1.4882  -30.7432  -28.2794 H   0  0  0  0  0
    1.0397  -29.5584  -29.5469 H   0  0  0  0  0
   -4.9047  -30.8720  -29.9346 H   0  0  0  0  0
    3.1423  -28.4852  -26.1058 H   0  0  0  0  0
    2.7326  -30.2236  -26.6083 H   0  0  0  0  0
    1.5747  -30.2811  -24.8009 H   0  0  0  0  0
    1.5613  -28.4180  -24.6505 H   0  0  0  0  0
    0.4122  -32.8000  -22.5831 H   0  0  0  0  0
   -0.0237  -34.4960  -22.8171 H   0  0  0  0  0
   -1.2970  -38.1501  -27.8031 H   0  0  0  0  0
   -1.8227  -39.5485  -26.8602 H   0  0  0  0  0
   -1.7055  -37.8154  -23.7617 H   0  0  0  0  0
  4  1  4  0  0  0
  1 11  4  0  0  0
  1 16  1  0  0  0
  8  2  1  0  0  0
  2 13  4  0  0  0
  2 17  4  0  0  0
  3 11  4  0  0  0
 15  3  4  0  0  0
  5  4  4  0  0  0
 13  4  4  0  0  0
  5 15  4  0  0  0
 17  5  4  0  0  0
 14  6  1  0  0  0
  6 20  1  0  0  0
 19  7  1  0  0  0
  7 21  1  0  0  0
 18  8  4  0  0  0
  8 26  4  0  0  0
 28  9  4  0  0  0
  9 29  1  0  0  0
  9 30  2  0  0  0
 10 14  1  0  0  0
 19 10  1  0  0  0
 25 12  1  0  0  0
 12 27  2  0  0  0
 12 28  1  0  0  0
 18 19  1  0  0  0
 22 18  4  0  0  0
 21 20  1  0  0  0
 23 22  4  0  0  0
 23 24  1  0  0  0
 23 25  4  0  0  0
 25 26  4  0  0  0
  3 31  1  0  0  0
  6 32  1  0  0  0
  6 33  1  0  0  0
  7 34  1  0  0  0
  7 35  1  0  0  0
 10 36  1  0  0  0
 10 37  1  0  0  0
 11 38  1  0  0  0
 13 39  1  0  0  0
 14 40  1  0  0  0
 14 41  1  0  0  0
 15 42  1  0  0  0
 20 43  1  0  0  0
 20 44  1  0  0  0
 21 45  1  0  0  0
 21 46  1  0  0  0
 24 47  1  0  0  0
 24 48  1  0  0  0
 29 49  1  0  0  0
 29 50  1  0  0  0
 30 51  1  0  0  0
M  END
$$$$
