5bqs_ligand
  -I-interpret- 

 43 45  0  0  0  0  0  0  0  0999 V2000
    5.8180  -18.7570   -0.5230 C   0  0  0  0  0
    4.7530  -19.4630    0.0170 C   0  0  0  0  0
    3.4240  -19.2270   -0.3960 C   0  0  0  0  0
    2.2310  -19.9800    0.0970 C   0  0  0  0  0
    2.0290  -21.3190   -0.2320 C   0  0  0  0  0
    0.8720  -21.9780    0.1450 C   0  0  0  0  0
   -0.0960  -21.2460    0.8700 C   0  0  0  0  0
    1.2240  -19.3570    0.8260 C   0  0  0  0  0
   -1.6530  -23.2160    0.9410 C   0  0  0  0  0
   -2.4530  -23.8850    2.0660 C   0  0  0  0  0
   -3.7090  -23.0550    2.3730 C   0  0  0  0  0
   -3.3010  -21.6200    2.7390 C   0  0  0  0  0
   -2.4750  -21.0140    1.5960 C   0  0  0  0  0
    5.1100  -20.7090    1.1600 Cl  0  0  0  0  0
    3.2400  -18.2450   -1.3750 C   0  0  0  0  0
    4.3010  -17.5290   -1.9320 C   0  0  0  0  0
    4.0440  -16.4070   -2.8940 C   0  0  0  0  0
    4.3670  -15.1640   -2.3000 O   0  0  0  0  0
    5.5880  -17.8100   -1.5010 C   0  0  0  0  0
    0.0810  -19.9520    1.2070 N   0  0  0  0  0
   -1.2970  -21.8320    1.2780 N   0  0  0  0  0
   -4.6080  -23.6950    3.4120 C   0  0  0  0  0
   -4.0190  -23.9530    4.5520 O   0  0  0  0  0
   -5.7800  -23.9390    3.1930 O   0  0  0  0  0
    6.8333  -18.9493   -0.1763 H   0  0  0  0  0
    2.7934  -21.8551   -0.7945 H   0  0  0  0  0
    0.7124  -23.0260   -0.1085 H   0  0  0  0  0
    1.3720  -18.3145    1.1077 H   0  0  0  0  0
   -2.2689  -23.2033    0.0418 H   0  0  0  0  0
   -0.7329  -23.7808    0.7907 H   0  0  0  0  0
   -1.8341  -23.9482    2.9610 H   0  0  0  0  0
   -2.7493  -24.8860    1.7525 H   0  0  0  0  0
   -4.3196  -23.0198    1.4708 H   0  0  0  0  0
   -2.7035  -21.6340    3.6505 H   0  0  0  0  0
   -4.1956  -21.0181    2.8989 H   0  0  0  0  0
   -2.1320  -20.0275    1.9079 H   0  0  0  0  0
   -3.1055  -20.9632    0.7083 H   0  0  0  0  0
    2.2275  -18.0302   -1.7167 H   0  0  0  0  0
    2.9884  -16.4070   -3.1655 H   0  0  0  0  0
    4.6641  -16.5492   -3.7791 H   0  0  0  0  0
    4.1974  -14.4572   -2.9271 H   0  0  0  0  0
    6.4304  -17.2758   -1.9404 H   0  0  0  0  0
   -3.0997  -23.6807    4.5047 H   0  0  0  0  0
  2  1  4  0  0  0
  1 19  4  0  0  0
  3  2  4  0  0  0
  2 14  1  0  0  0
  4  3  1  0  0  0
  3 15  4  0  0  0
  5  4  4  0  0  0
  8  4  4  0  0  0
  6  5  4  0  0  0
  7  6  4  0  0  0
  7 20  4  0  0  0
 21  7  1  0  0  0
 20  8  4  0  0  0
  9 10  1  0  0  0
  9 21  1  0  0  0
 10 11  1  0  0  0
 11 12  1  0  0  0
 11 22  1  0  0  0
 12 13  1  0  0  0
 13 21  1  0  0  0
 15 16  4  0  0  0
 16 17  1  0  0  0
 16 19  4  0  0  0
 17 18  1  0  0  0
 22 23  1  0  0  0
 22 24  2  0  0  0
  1 25  1  0  0  0
  5 26  1  0  0  0
  6 27  1  0  0  0
  8 28  1  0  0  0
  9 29  1  0  0  0
  9 30  1  0  0  0
 10 31  1  0  0  0
 10 32  1  0  0  0
 11 33  1  0  0  0
 12 34  1  0  0  0
 12 35  1  0  0  0
 13 36  1  0  0  0
 13 37  1  0  0  0
 15 38  1  0  0  0
 17 39  1  0  0  0
 17 40  1  0  0  0
 18 41  1  0  0  0
 19 42  1  0  0  0
 23 43  1  0  0  0
M  END
$$$$
