2zx7_ligand
  -I-interpret- 

 44 46  0  0  0  0  0  0  0  0999 V2000
   -3.2430   25.8470   24.3060 O   0  0  0  0  0
   -1.9120   26.3630   24.3570 C   0  0  0  0  0
   -1.7970   27.5880   23.4480 C   0  0  0  0  0
   -2.2300   27.2390   22.1340 O   0  0  0  0  0
   -0.3380   28.0440   23.4370 C   0  0  0  0  0
    0.4580   27.0320   22.8150 O   0  0  0  0  0
    0.1500   28.3030   24.8680 C   0  0  0  0  0
    1.6530   28.5840   24.8770 C   0  0  0  0  0
   -0.1070   27.1590   25.7590 N   0  3  0  0  0
   -1.5280   26.7730   25.7820 C   0  0  0  0  0
   -1.7330   25.5940   26.7360 C   0  0  0  0  0
   -1.6190   25.9790   28.1510 N   0  0  0  0  0
   -1.4190   25.0280   29.0620 C   0  0  0  0  0
   -1.2690   23.8370   28.7850 O   0  0  0  0  0
   -1.3280   25.4520   30.5310 C   0  0  0  0  0
   -1.7870   24.6740   31.5050 C   0  0  0  0  0
   -1.5800   25.3220   32.6470 C   0  0  0  0  0
   -1.9100   25.0050   33.9600 C   0  0  0  0  0
   -1.6150   25.9060   34.9770 C   0  0  0  0  0
   -0.9870   27.1070   34.6600 C   0  0  0  0  0
   -0.6540   27.4250   33.3460 C   0  0  0  0  0
   -0.9600   26.5270   32.3300 C   0  0  0  0  0
   -0.8230   26.5860   31.0080 N   0  0  0  0  0
   -3.4546   25.5993   23.4030 H   0  0  0  0  0
   -1.2371   25.5752   24.0224 H   0  0  0  0  0
   -2.4243   28.4018   23.8117 H   0  0  0  0  0
   -3.1469   26.9563   22.1650 H   0  0  0  0  0
   -0.2495   28.9742   22.8758 H   0  0  0  0  0
    0.1410   26.8813   21.9215 H   0  0  0  0  0
   -0.4058   29.1667   25.2330 H   0  0  0  0  0
    1.9713   28.8193   25.8926 H   0  0  0  0  0
    2.1881   27.7032   24.5221 H   0  0  0  0  0
    1.8673   29.4290   24.2227 H   0  0  0  0  0
    0.1618   27.4294   26.7051 H   0  0  0  0  0
    0.4304   26.3636   25.4141 H   0  0  0  0  0
   -2.1474   27.6012   26.1263 H   0  0  0  0  0
   -0.9576   24.8570   26.5272 H   0  0  0  0  0
   -2.7389   25.2060   26.5757 H   0  0  0  0  0
   -1.6918   26.9574   28.4299 H   0  0  0  0  0
   -2.2457   23.6920   31.3898 H   0  0  0  0  0
   -2.3964   24.0571   34.1903 H   0  0  0  0  0
   -1.8725   25.6745   36.0105 H   0  0  0  0  0
   -0.7511   27.8128   35.4564 H   0  0  0  0  0
   -0.1585   28.3683   33.1164 H   0  0  0  0  0
  1  2  1  0  0  0
  2  3  1  0  0  0
  2 10  1  0  0  0
  3  4  1  0  0  0
  3  5  1  0  0  0
  5  6  1  0  0  0
  5  7  1  0  0  0
  7  8  1  0  0  0
  7  9  1  0  0  0
  9 10  1  0  0  0
 10 11  1  0  0  0
 11 12  1  0  0  0
 12 13  1  0  0  0
 13 14  2  0  0  0
 13 15  1  0  0  0
 15 16  4  0  0  0
 15 23  4  0  0  0
 16 17  4  0  0  0
 17 18  4  0  0  0
 17 22  4  0  0  0
 18 19  4  0  0  0
 19 20  4  0  0  0
 20 21  4  0  0  0
 21 22  4  0  0  0
 22 23  4  0  0  0
  1 24  1  0  0  0
  2 25  1  0  0  0
  3 26  1  0  0  0
  4 27  1  0  0  0
  5 28  1  0  0  0
  6 29  1  0  0  0
  7 30  1  0  0  0
  8 31  1  0  0  0
  8 32  1  0  0  0
  8 33  1  0  0  0
  9 34  1  0  0  0
  9 35  1  0  0  0
 10 36  1  0  0  0
 11 37  1  0  0  0
 11 38  1  0  0  0
 12 39  1  0  0  0
 16 40  1  0  0  0
 18 41  1  0  0  0
 19 42  1  0  0  0
 20 43  1  0  0  0
 21 44  1  0  0  0
M  END
$$$$
