5hjb_ligand
  -I-interpret- 

145144  0  0  0  0  0  0  0  0999 V2000
   57.3310   27.3510   -0.5630 N   0  3  0  0  0
   58.5450   27.0750    0.2150 C   0  0  0  0  0
   58.3680   25.7640    1.0010 C   0  0  0  0  0
   59.2750   24.9510    1.0580 O   0  0  0  0  0
   58.9000   28.2650    1.1780 C   0  0  0  0  0
   59.1600   29.4620    0.4210 O   0  0  0  0  0
   60.1300   27.9470    2.0480 C   0  0  0  0  0
   57.1900   25.5480    1.5860 N   0  0  0  0  0
   56.9380   24.3110    2.3100 C   0  0  0  0  0
   56.5610   23.1710    1.3670 C   0  0  0  0  0
   56.3910   22.0270    1.8130 O   0  0  0  0  0
   55.8460   24.5450    3.3750 C   0  0  0  0  0
   55.8190   23.5030    4.5190 C   0  0  0  0  0
   54.9350   23.8940    5.7310 C   0  0  0  0  0
   54.9780   22.7760    6.8240 C   0  0  0  0  0
   54.2930   23.1080    8.1230 N   0  3  0  0  0
   56.4590   23.4300    0.0830 N   0  0  0  0  0
   55.8690   22.5220   -0.8550 C   0  0  0  0  0
   56.9420   21.9320   -1.7340 C   0  0  0  0  0
   57.9980   22.4760   -1.7690 O   0  0  0  0  0
   54.9010   23.3530   -1.6630 C   0  0  0  0  0
   53.9430   22.6600   -2.5670 C   0  0  0  0  0
   52.8430   23.5650   -3.0280 C   0  0  0  0  0
   52.3220   23.4350   -4.0890 O   0  0  0  0  0
   52.4690   24.4670   -2.1910 N   0  0  0  0  0
   56.6550   20.8240   -2.4210 N   0  0  0  0  0
   57.5820   20.1760   -3.3480 C   0  0  0  0  0
   57.6430   20.9340   -4.6650 C   0  0  0  0  0
   56.9890   21.9610   -4.8680 O   0  0  0  0  0
   57.1430   18.7500   -3.6670 C   0  0  0  0  0
   55.7900   18.7890   -4.1540 O   0  0  0  0  0
   57.2470   17.8270   -2.4460 C   0  0  0  0  0
   58.3750   20.3620   -5.6090 N   0  0  0  0  0
   58.1900   20.7810   -6.9850 C   0  0  0  0  0
   56.8390   20.2890   -7.5150 C   0  0  0  0  0
   56.2010   19.3820   -6.9610 O   0  0  0  0  0
   59.3150   20.2550   -7.8660 C   0  0  0  0  0
   56.4110   20.8910   -8.6220 N   0  0  0  0  0
   55.1640   20.5010   -9.2730 C   0  0  0  0  0
   55.3760   19.8970  -10.6470 C   0  0  0  0  0
   56.4810   19.9250  -11.1750 O   0  0  0  0  0
   54.2730   21.7210   -9.3680 C   0  0  0  0  0
   54.4030   22.4970   -8.1220 C   0  0  0  0  0
   53.2500   23.3520   -7.9070 C   0  0  0  0  0
   52.1980   22.6960   -7.1540 N   0  0  0  0  0
   50.9570   22.6560   -7.5910 C   0  0  0  0  0
   50.0010   22.0910   -6.8760 N   0  0  0  0  0
   50.6890   23.1940   -8.7720 N   0  0  0  0  0
   54.3200   19.3610  -11.2440 N   0  0  0  0  0
   54.4350   18.8630  -12.5720 C   0  0  0  0  0
   53.5130   17.6940  -12.7330 C   0  0  0  0  0
   53.7710   16.7500  -11.5850 C   0  0  0  0  0
   52.9230   15.5040  -11.6810 C   0  0  0  0  0
   53.3550   14.5030  -10.6390 C   0  0  0  0  0
   53.2220   13.2540  -11.2560 N   0  0  0  0  0
   53.3660   12.0720  -10.5130 C   0  0  0  0  0
   53.6450   12.0440   -9.3120 O   0  0  0  0  0
   53.1670   10.8680  -11.3930 C   0  0  0  0  0
   53.2370    9.6000  -10.9770 C   0  0  0  0  0
   52.9860    8.5870  -12.0600 C   0  0  0  0  0
   54.0430   19.9200  -13.5620 C   0  0  0  0  0
   53.8190   21.1100  -13.1880 O   0  0  0  0  0
   53.9240   19.5060  -14.8190 N   0  0  0  0  0
   53.5360   20.4020  -15.9010 C   0  0  0  0  0
   52.1970   21.0850  -15.6310 C   0  0  0  0  0
   52.0940   22.3090  -15.7440 O   0  0  0  0  0
   53.4680   19.6320  -17.2240 C   0  0  0  0  0
   53.6730   20.5150  -18.3080 O   0  0  0  0  0
   51.2170   20.4140  -15.3000 O   0  0  0  0  0
   57.1330   26.5589   -1.1744 H   0  0  0  0  0
   56.5467   27.4956    0.0729 H   0  0  0  0  0
   57.4728   28.1896   -1.1261 H   0  0  0  0  0
   59.3799   26.9662   -0.4772 H   0  0  0  0  0
   58.0410   28.4161    1.8318 H   0  0  0  0  0
   58.3968   29.6666   -0.1242 H   0  0  0  0  0
   60.9981   27.7962    1.4063 H   0  0  0  0  0
   60.3183   28.7789    2.7267 H   0  0  0  0  0
   59.9412   27.0415    2.6247 H   0  0  0  0  0
   56.4584   26.2562    1.5257 H   0  0  0  0  0
   57.8585   24.0107    2.8107 H   0  0  0  0  0
   54.8860   24.4772    2.8633 H   0  0  0  0  0
   56.0537   25.5119    3.8333 H   0  0  0  0  0
   56.8404   23.4107    4.8881 H   0  0  0  0  0
   55.4001   22.5865    4.1034 H   0  0  0  0  0
   53.9063   24.0194    5.3931 H   0  0  0  0  0
   55.3122   24.8226    6.1594 H   0  0  0  0  0
   56.0298   22.6159    7.0612 H   0  0  0  0  0
   54.4521   21.9166    6.4080 H   0  0  0  0  0
   54.3783   22.3180    8.7626 H   0  0  0  0  0
   54.7315   23.9308    8.5366 H   0  0  0  0  0
   53.3067   23.2993    7.9467 H   0  0  0  0  0
   56.8171   24.3203   -0.2626 H   0  0  0  0  0
   55.3618   21.6891   -0.3680 H   0  0  0  0  0
   55.5268   23.9548   -2.3221 H   0  0  0  0  0
   54.2781   23.8586   -0.9251 H   0  0  0  0  0
   53.4935   21.8343   -2.0154 H   0  0  0  0  0
   54.4917   22.3193   -3.4450 H   0  0  0  0  0
   51.7038   25.0980   -2.4292 H   0  0  0  0  0
   52.9376   24.5514   -1.2889 H   0  0  0  0  0
   55.7343   20.4044   -2.2917 H   0  0  0  0  0
   58.5567   20.1683   -2.8602 H   0  0  0  0  0
   57.8093   18.3399   -4.4259 H   0  0  0  0  0
   55.4992   17.8975   -4.3594 H   0  0  0  0  0
   58.2811   17.7956   -2.1029 H   0  0  0  0  0
   56.6096   18.2086   -1.6484 H   0  0  0  0  0
   56.9239   16.8233   -2.7223 H   0  0  0  0  0
   59.0560   19.6404   -5.3727 H   0  0  0  0  0
   58.2074   21.8705   -7.0128 H   0  0  0  0  0
   60.2682   20.6416   -7.5054 H   0  0  0  0  0
   59.3255   19.1657   -7.8280 H   0  0  0  0  0
   59.1538   20.5825   -8.8931 H   0  0  0  0  0
   56.9683   21.6439   -9.0257 H   0  0  0  0  0
   54.6964   19.7230   -8.6696 H   0  0  0  0  0
   53.2366   21.4135   -9.5070 H   0  0  0  0  0
   54.5717   22.3331  -10.2190 H   0  0  0  0  0
   55.2904   23.1254   -8.1969 H   0  0  0  0  0
   54.4776   21.8005   -7.2869 H   0  0  0  0  0
   52.8455   23.6194   -8.8832 H   0  0  0  0  0
   53.5792   24.2196   -7.3352 H   0  0  0  0  0
   52.4257   22.2545   -6.2632 H   0  0  0  0  0
   50.2190   21.6767   -5.9698 H   0  0  0  0  0
   49.7368   23.1743   -9.1371 H   0  0  0  0  0
   51.4349   23.6278   -9.3159 H   0  0  0  0  0
   53.4279   19.3059  -10.7526 H   0  0  0  0  0
   55.4688   18.5674  -12.7511 H   0  0  0  0  0
   53.6941   17.1945  -13.6847 H   0  0  0  0  0
   52.4744   18.0247  -12.7280 H   0  0  0  0  0
   53.5209   17.2636  -10.6567 H   0  0  0  0  0
   54.8195   16.4536  -11.6145 H   0  0  0  0  0
   53.0430   15.0645  -12.6712 H   0  0  0  0  0
   51.8788   15.7676  -11.5132 H   0  0  0  0  0
   52.7479   14.5733   -9.7365 H   0  0  0  0  0
   54.3779   14.6820  -10.3078 H   0  0  0  0  0
   53.0187   13.2022  -12.2542 H   0  0  0  0  0
   52.9499   11.0427  -12.4468 H   0  0  0  0  0
   53.4563    9.3246   -9.9454 H   0  0  0  0  0
   51.9879    8.7369  -12.4717 H   0  0  0  0  0
   53.7280    8.7092  -12.8490 H   0  0  0  0  0
   53.0608    7.5834  -11.6414 H   0  0  0  0  0
   54.1108   18.5266  -15.0342 H   0  0  0  0  0
   54.2965   21.1801  -15.9658 H   0  0  0  0  0
   52.9409   22.6774  -16.0059 H   0  0  0  0  0
   52.4859   19.1689  -17.3194 H   0  0  0  0  0
   54.2436   18.8662  -17.2336 H   0  0  0  0  0
   53.6287   20.0242  -19.1319 H   0  0  0  0  0
  1  2  1  0  0  0
  2  3  1  0  0  0
  2  5  1  0  0  0
  3  4  2  0  0  0
  3  8  1  0  0  0
  5  6  1  0  0  0
  5  7  1  0  0  0
  8  9  1  0  0  0
  9 10  1  0  0  0
  9 12  1  0  0  0
 10 11  2  0  0  0
 10 17  1  0  0  0
 12 13  1  0  0  0
 13 14  1  0  0  0
 14 15  1  0  0  0
 15 16  1  0  0  0
 17 18  1  0  0  0
 18 19  1  0  0  0
 18 21  1  0  0  0
 19 20  2  0  0  0
 19 26  1  0  0  0
 21 22  1  0  0  0
 22 23  1  0  0  0
 23 24  2  0  0  0
 23 25  1  0  0  0
 26 27  1  0  0  0
 27 28  1  0  0  0
 27 30  1  0  0  0
 28 29  2  0  0  0
 28 33  1  0  0  0
 30 31  1  0  0  0
 30 32  1  0  0  0
 33 34  1  0  0  0
 34 35  1  0  0  0
 34 37  1  0  0  0
 35 36  2  0  0  0
 35 38  1  0  0  0
 38 39  1  0  0  0
 39 40  1  0  0  0
 39 42  1  0  0  0
 40 41  2  0  0  0
 40 49  1  0  0  0
 42 43  1  0  0  0
 43 44  1  0  0  0
 44 45  1  0  0  0
 45 46  1  0  0  0
 46 47  2  0  0  0
 46 48  1  0  0  0
 49 50  1  0  0  0
 50 51  1  0  0  0
 50 61  1  0  0  0
 51 52  1  0  0  0
 52 53  1  0  0  0
 53 54  1  0  0  0
 54 55  1  0  0  0
 55 56  1  0  0  0
 56 57  2  0  0  0
 56 58  1  0  0  0
 58 59  2  0  0  0
 59 60  1  0  0  0
 61 62  2  0  0  0
 61 63  1  0  0  0
 63 64  1  0  0  0
 64 65  1  0  0  0
 64 67  1  0  0  0
 65 66  1  0  0  0
 65 69  2  0  0  0
 67 68  1  0  0  0
  1 70  1  0  0  0
  1 71  1  0  0  0
  1 72  1  0  0  0
  2 73  1  0  0  0
  5 74  1  0  0  0
  6 75  1  0  0  0
  7 76  1  0  0  0
  7 77  1  0  0  0
  7 78  1  0  0  0
  8 79  1  0  0  0
  9 80  1  0  0  0
 12 81  1  0  0  0
 12 82  1  0  0  0
 13 83  1  0  0  0
 13 84  1  0  0  0
 14 85  1  0  0  0
 14 86  1  0  0  0
 15 87  1  0  0  0
 15 88  1  0  0  0
 16 89  1  0  0  0
 16 90  1  0  0  0
 16 91  1  0  0  0
 17 92  1  0  0  0
 18 93  1  0  0  0
 21 94  1  0  0  0
 21 95  1  0  0  0
 22 96  1  0  0  0
 22 97  1  0  0  0
 25 98  1  0  0  0
 25 99  1  0  0  0
 26100  1  0  0  0
 27101  1  0  0  0
 30102  1  0  0  0
 31103  1  0  0  0
 32104  1  0  0  0
 32105  1  0  0  0
 32106  1  0  0  0
 33107  1  0  0  0
 34108  1  0  0  0
 37109  1  0  0  0
 37110  1  0  0  0
 37111  1  0  0  0
 38112  1  0  0  0
 39113  1  0  0  0
 42114  1  0  0  0
 42115  1  0  0  0
 43116  1  0  0  0
 43117  1  0  0  0
 44118  1  0  0  0
 44119  1  0  0  0
 45120  1  0  0  0
 47121  1  0  0  0
 48122  1  0  0  0
 48123  1  0  0  0
 49124  1  0  0  0
 50125  1  0  0  0
 51126  1  0  0  0
 51127  1  0  0  0
 52128  1  0  0  0
 52129  1  0  0  0
 53130  1  0  0  0
 53131  1  0  0  0
 54132  1  0  0  0
 54133  1  0  0  0
 55134  1  0  0  0
 58135  1  0  0  0
 59136  1  0  0  0
 60137  1  0  0  0
 60138  1  0  0  0
 60139  1  0  0  0
 63140  1  0  0  0
 64141  1  0  0  0
 66142  1  0  0  0
 67143  1  0  0  0
 67144  1  0  0  0
 68145  1  0  0  0
M  END
$$$$
