### 
### Created by X-TOOL on Mon Sep 10 21:13:29 2018
### 

@<TRIPOS>MOLECULE
5hjb_ligand
  145   144     1     0     0
SMALL
GAST_HUCK


@<TRIPOS>ATOM
      1 N          57.3310   27.3510   -0.5630 N.4       1 THR         0.2398
      2 CA         58.5450   27.0750    0.2150 C.3       1 THR         0.0910
      3 C          58.3680   25.7640    1.0010 C.2       1 THR         0.2293
      4 O          59.2750   24.9510    1.0580 O.2       1 THR        -0.3906
      5 CB         58.9000   28.2650    1.1780 C.3       1 THR         0.1120
      6 OG1        59.1600   29.4620    0.4210 O.3       1 THR        -0.3840
      7 CG2        60.1300   27.9470    2.0480 C.3       1 THR        -0.0314
      8 N          57.1900   25.5480    1.5860 N.am      1 LYS        -0.2609
      9 CA         56.9380   24.3110    2.3100 C.3       1 LYS         0.1311
     10 C          56.5610   23.1710    1.3670 C.2       1 LYS         0.2039
     11 O          56.3910   22.0270    1.8130 O.2       1 LYS        -0.3944
     12 CB         55.8460   24.5450    3.3750 C.3       1 LYS        -0.0122
     13 CG         55.8190   23.5030    4.5190 C.3       1 LYS        -0.0440
     14 CD         54.9350   23.8940    5.7310 C.3       1 LYS        -0.0124
     15 CE         54.9780   22.7760    6.8240 C.3       1 LYS        -0.0354
     16 NZ         54.2930   23.1080    8.1230 N.4       1 LYS         0.2185
     17 N          56.4590   23.4300    0.0830 N.am      1 GLN        -0.2636
     18 CA         55.8690   22.5220   -0.8550 C.3       1 GLN         0.1330
     19 C          56.9420   21.9320   -1.7340 C.2       1 GLN         0.2041
     20 O          57.9980   22.4760   -1.7690 O.2       1 GLN        -0.3944
     21 CB         54.9010   23.3530   -1.6630 C.3       1 GLN         0.0045
     22 CG         53.9430   22.6600   -2.5670 C.3       1 GLN         0.0412
     23 CD         52.8430   23.5650   -3.0280 C.2       1 GLN         0.1737
     24 OE1        52.3220   23.4350   -4.0890 O.2       1 GLN        -0.3973
     25 NE2        52.4690   24.4670   -2.1910 N.am      1 GLN        -0.3009
     26 N          56.6550   20.8240   -2.4210 N.am      1 THR        -0.2613
     27 CA         57.5820   20.1760   -3.3480 C.3       1 THR         0.1565
     28 C          57.6430   20.9340   -4.6650 C.2       1 THR         0.2065
     29 O          56.9890   21.9610   -4.8680 O.2       1 THR        -0.3943
     30 CB         57.1430   18.7500   -3.6670 C.3       1 THR         0.0924
     31 OG1        55.7900   18.7890   -4.1540 O.3       1 THR        -0.3874
     32 CG2        57.2470   17.8270   -2.4460 C.3       1 THR        -0.0346
     33 N          58.3750   20.3620   -5.6090 N.am      1 ALA        -0.2639
     34 CA         58.1900   20.7810   -6.9850 C.3       1 ALA         0.1282
     35 C          56.8390   20.2890   -7.5150 C.2       1 ALA         0.2036
     36 O          56.2010   19.3820   -6.9610 O.2       1 ALA        -0.3944
     37 CB         59.3150   20.2550   -7.8660 C.3       1 ALA        -0.0244
     38 N          56.4110   20.8910   -8.6220 N.am      1 ARG        -0.2637
     39 CA         55.1640   20.5010   -9.2730 C.3       1 ARG         0.1311
     40 C          55.3760   19.8970  -10.6470 C.2       1 ARG         0.2039
     41 O          56.4810   19.9250  -11.1750 O.2       1 ARG        -0.3944
     42 CB         54.2730   21.7210   -9.3680 C.3       1 ARG        -0.0092
     43 CG         54.4030   22.4970   -8.1220 C.3       1 ARG        -0.0156
     44 CD         53.2500   23.3520   -7.9070 C.3       1 ARG         0.0627
     45 NE         52.1980   22.6960   -7.1540 N.pl3     1 ARG        -0.2723
     46 CZ         50.9570   22.6560   -7.5910 C.cat     1 ARG         0.2882
     47 NH1        50.0010   22.0910   -6.8760 N.pl3     1 ARG        -0.2849
     48 NH2        50.6890   23.1940   -8.7720 N.pl3     1 ARG        -0.2849
     49 N          54.3200   19.3610  -11.2440 N.am      1 KCR        -0.2637
     50 CA         54.4350   18.8630  -12.5720 C.3       1 KCR         0.1309
     51 CB         53.5130   17.6940  -12.7330 C.3       1 KCR        -0.0123
     52 CG         53.7710   16.7500  -11.5850 C.3       1 KCR        -0.0470
     53 CD         52.9230   15.5040  -11.6810 C.3       1 KCR        -0.0327
     54 CE         53.3550   14.5030  -10.6390 C.3       1 KCR         0.0295
     55 NZ         53.2220   13.2540  -11.2560 N.am      1 KCR        -0.2917
     56 CH         53.3660   12.0720  -10.5130 C.2       1 KCR         0.1759
     57 OH         53.6450   12.0440   -9.3120 O.2       1 KCR        -0.4012
     58 CX         53.1670   10.8680  -11.3930 C.2       1 KCR        -0.0032
     59 CY         53.2370    9.6000  -10.9770 C.2       1 KCR        -0.0626
     60 CH3        52.9860    8.5870  -12.0600 C.3       1 KCR        -0.0267
     61 C          54.0430   19.9200  -13.5620 C.2       1 KCR         0.2034
     62 O          53.8190   21.1100  -13.1880 O.2       1 KCR        -0.3944
     63 N          53.9240   19.5060  -14.8190 N.am      1 SER        -0.2672
     64 CA         53.5360   20.4020  -15.9010 C.3       1 SER         0.1173
     65 C          52.1970   21.0850  -15.6310 C.2       1 SER         0.0623
     66 O          52.0940   22.3090  -15.7440 O.co2     1 SER        -0.5665
     67 CB         53.4680   19.6320  -17.2240 C.3       1 SER         0.0789
     68 OG         53.6730   20.5150  -18.3080 O.3       1 SER        -0.3910
     69 OXT        51.2170   20.4140  -15.3000 O.co2     1 SER        -0.5665
     70 H1         57.1344   26.5688   -1.1676 H         1 THR         0.2016
     71 H2         57.4700   28.1796   -1.1200 H         1 THR         0.2016
     72 H3         56.5551   27.4940    0.0644 H         1 THR         0.2016
     73 H4         59.3816   26.9469   -0.4876 H         1 THR         0.1125
     74 H5         58.0393   28.4426    1.8395 H         1 THR         0.0674
     75 H6         59.3728   30.1715    1.0158 H         1 THR         0.2102
     76 H7         60.3448   28.8021    2.7057 H         1 THR         0.0258
     77 H8         60.9980   27.7558    1.3999 H         1 THR         0.0258
     78 H9         59.9259   27.0560    2.6599 H         1 THR         0.0258
     79 H10        56.4728   26.2423    1.5269 H         1 LYS         0.1884
     80 H11        57.8651   24.0243    2.8280 H         1 LYS         0.0800
     81 H12        54.8680   24.5257    2.8719 H         1 LYS         0.0312
     82 H13        56.0098   25.5374    3.8203 H         1 LYS         0.0312
     83 H14        56.8491   23.3615    4.8779 H         1 LYS         0.0269
     84 H15        55.4396   22.5550    4.1100 H         1 LYS         0.0269
     85 H16        53.8971   24.0300    5.3931 H         1 LYS         0.0317
     86 H17        55.3069   24.8355    6.1615 H         1 LYS         0.0317
     87 H18        56.0336   22.5587    7.0442 H         1 LYS         0.0813
     88 H19        54.4977   21.8779    6.4083 H         1 LYS         0.0813
     89 H20        54.3767   22.3279    8.7559 H         1 LYS         0.1994
     90 H21        53.3181   23.2972    7.9500 H         1 LYS         0.1994
     91 H22        54.7256   23.9210    8.5328 H         1 LYS         0.1994
     92 H23        56.8101   24.3029   -0.2558 H         1 GLN         0.1883
     93 H24        55.3365   21.7142   -0.3316 H         1 GLN         0.0801
     94 H25        55.5004   24.0325   -2.2867 H         1 GLN         0.0337
     95 H26        54.3049   23.9404   -0.9492 H         1 GLN         0.0337
     96 H27        53.4995   21.8098   -2.0281 H         1 GLN         0.0504
     97 H28        54.4902   22.2912   -3.4471 H         1 GLN         0.0504
     98 H29        51.7385   25.1045   -2.4361 H         1 GLN         0.1814
     99 H30        52.9087   24.5309   -1.2951 H         1 GLN         0.1814
    100 H31        55.7524   20.4126   -2.2942 H         1 THR         0.1884
    101 H32        58.5817   20.1557   -2.8896 H         1 THR         0.0826
    102 H33        57.7956   18.3500   -4.4570 H         1 THR         0.0639
    103 H34        55.7521   19.3241   -4.9380 H         1 THR         0.2101
    104 H35        56.9212   16.8137   -2.7236 H         1 THR         0.0257
    105 H36        56.6041   18.2110   -1.6403 H         1 THR         0.0257
    106 H37        58.2902   17.7944   -2.0987 H         1 THR         0.0257
    107 H38        59.0427   19.6545   -5.3773 H         1 ALA         0.1883
    108 H39        58.2026   21.8804   -7.0196 H         1 ALA         0.0797
    109 H40        59.1535   20.5849   -8.9029 H         1 ALA         0.0277
    110 H41        59.3266   19.1557   -7.8286 H         1 ALA         0.0277
    111 H42        60.2776   20.6445   -7.5031 H         1 ALA         0.0277
    112 H43        56.9574   21.6291   -9.0178 H         1 ARG         0.1883
    113 H44        54.6677   19.7468   -8.6446 H         1 ARG         0.0800
    114 H45        53.2273   21.4066   -9.5012 H         1 ARG         0.0313
    115 H46        54.5818   22.3396  -10.2236 H         1 ARG         0.0313
    116 H47        55.3058   23.1225   -8.1826 H         1 ARG         0.0301
    117 H48        54.4952   21.8011   -7.2751 H         1 ARG         0.0301
    118 H49        52.8473   23.6521   -8.8856 H         1 ARG         0.0689
    119 H50        53.5734   24.2461   -7.3538 H         1 ARG         0.0689
    120 H51        52.4279   22.2501   -6.2544 H         1 ARG         0.2642
    121 H52        49.0353   22.0687   -7.2335 H         1 ARG         0.2615
    122 H53        50.2212   21.6726   -5.9609 H         1 ARG         0.2615
    123 H54        51.4422   23.6320   -9.3212 H         1 ARG         0.2615
    124 H55        49.7275   23.1741   -9.1407 H         1 ARG         0.2615
    125 H56        53.4454   19.3070  -10.7622 H         1 KCR         0.1883
    126 H57        55.4728   18.5496  -12.7586 H         1 KCR         0.0800
    127 H58        53.7133   17.1867  -13.6883 H         1 KCR         0.0312
    128 H59        52.4674   18.0348  -12.7109 H         1 KCR         0.0312
    129 H60        53.5401   17.2658  -10.6413 H         1 KCR         0.0268
    130 H61        54.8320   16.4599  -11.5943 H         1 KCR         0.0268
    131 H62        53.0386   15.0611  -12.6812 H         1 KCR         0.0285
    132 H63        51.8679   15.7681  -11.5166 H         1 KCR         0.0285
    133 H64        52.7083   14.5660   -9.7514 H         1 KCR         0.0518
    134 H65        54.4001   14.6788  -10.3445 H         1 KCR         0.0518
    135 H66        53.0227   13.2032  -12.2346 H         1 KCR         0.1831
    136 H67        52.9501   11.0426  -12.4458 H         1 KCR         0.0472
    137 H68        53.4561    9.3249   -9.9464 H         1 KCR         0.0843
    138 H69        53.0612    7.5736  -11.6387 H         1 KCR         0.0453
    139 H70        53.7343    8.7092  -12.8570 H         1 KCR         0.0453
    140 H71        51.9790    8.7372  -12.4763 H         1 KCR         0.0453
    141 H72        54.1071   18.5458  -15.0300 H         1 SER         0.1876
    142 H73        54.3061   21.1823  -15.9901 H         1 SER         0.0749
    143 H74        52.4790   19.1602  -17.3205 H         1 SER         0.0599
    144 H75        54.2472   18.8557  -17.2342 H         1 SER         0.0599
    145 H76        53.6292   20.0293  -19.1233 H         1 SER         0.2096
@<TRIPOS>BOND
     1    1    2 1  
     2    2    3 1  
     3    2    5 1  
     4    3    4 2  
     5    3    8 am 
     6    5    6 1  
     7    5    7 1  
     8    8    9 1  
     9    9   10 1  
    10    9   12 1  
    11   10   11 2  
    12   10   17 am 
    13   12   13 1  
    14   13   14 1  
    15   14   15 1  
    16   15   16 1  
    17   17   18 1  
    18   18   19 1  
    19   18   21 1  
    20   19   20 2  
    21   19   26 am 
    22   21   22 1  
    23   22   23 1  
    24   23   24 2  
    25   23   25 am 
    26   26   27 1  
    27   27   28 1  
    28   27   30 1  
    29   28   29 2  
    30   28   33 am 
    31   30   31 1  
    32   30   32 1  
    33   33   34 1  
    34   34   35 1  
    35   34   37 1  
    36   35   36 2  
    37   35   38 am 
    38   38   39 1  
    39   39   40 1  
    40   39   42 1  
    41   40   41 2  
    42   40   49 am 
    43   42   43 1  
    44   43   44 1  
    45   44   45 1  
    46   45   46 ar 
    47   46   47 ar 
    48   46   48 ar 
    49   49   50 1  
    50   50   51 1  
    51   50   61 1  
    52   51   52 1  
    53   52   53 1  
    54   53   54 1  
    55   54   55 1  
    56   55   56 am 
    57   56   57 2  
    58   56   58 1  
    59   58   59 2  
    60   59   60 1  
    61   61   62 2  
    62   61   63 am 
    63   63   64 1  
    64   64   65 1  
    65   64   67 1  
    66   65   66 ar 
    67   65   69 ar 
    68   67   68 1  
    69    1   70 1  
    70    1   71 1  
    71    1   72 1  
    72    2   73 1  
    73    5   74 1  
    74    6   75 1  
    75    7   76 1  
    76    7   77 1  
    77    7   78 1  
    78    8   79 1  
    79    9   80 1  
    80   12   81 1  
    81   12   82 1  
    82   13   83 1  
    83   13   84 1  
    84   14   85 1  
    85   14   86 1  
    86   15   87 1  
    87   15   88 1  
    88   16   89 1  
    89   16   90 1  
    90   16   91 1  
    91   17   92 1  
    92   18   93 1  
    93   21   94 1  
    94   21   95 1  
    95   22   96 1  
    96   22   97 1  
    97   25   98 1  
    98   25   99 1  
    99   26  100 1  
   100   27  101 1  
   101   30  102 1  
   102   31  103 1  
   103   32  104 1  
   104   32  105 1  
   105   32  106 1  
   106   33  107 1  
   107   34  108 1  
   108   37  109 1  
   109   37  110 1  
   110   37  111 1  
   111   38  112 1  
   112   39  113 1  
   113   42  114 1  
   114   42  115 1  
   115   43  116 1  
   116   43  117 1  
   117   44  118 1  
   118   44  119 1  
   119   45  120 1  
   120   47  121 1  
   121   47  122 1  
   122   48  123 1  
   123   48  124 1  
   124   49  125 1  
   125   50  126 1  
   126   51  127 1  
   127   51  128 1  
   128   52  129 1  
   129   52  130 1  
   130   53  131 1  
   131   53  132 1  
   132   54  133 1  
   133   54  134 1  
   134   55  135 1  
   135   58  136 1  
   136   59  137 1  
   137   60  138 1  
   138   60  139 1  
   139   60  140 1  
   140   63  141 1  
   141   64  142 1  
   142   67  143 1  
   143   67  144 1  
   144   68  145 1  
@<TRIPOS>SUBSTRUCTURE
     1 THR         1

