6qr4_ligand
  -I-interpret- 

 47 50  0  0  0  0  0  0  0  0999 V2000
  -24.2950   18.6470  -11.2440 C   0  0  0  0  0
  -25.1750   22.1830  -10.4000 C   0  0  0  0  0
  -23.1040   23.4450  -10.8470 C   0  0  0  0  0
  -21.5210   22.8970   -8.9540 C   0  0  0  0  0
  -21.6100   25.6390   -8.1990 C   0  0  0  0  0
  -21.2470   25.4340  -10.3540 C   0  0  0  0  0
  -20.7630   16.1110  -12.4590 C   0  0  0  0  0
  -17.7670   16.6310  -12.8920 N   0  0  0  0  0
  -18.7520   17.6400  -12.6350 C   0  0  0  0  0
  -18.4690   18.9770  -12.5560 N   0  0  0  0  0
  -19.6120   19.6350  -12.3130 N   0  0  0  0  0
  -20.6240   18.7450  -12.2660 C   0  0  0  0  0
  -22.0410   19.1840  -11.8810 C   0  0  0  0  0
  -22.2140   20.5470  -11.5790 C   0  0  0  0  0
  -23.4770   20.9630  -11.1270 C   0  0  0  0  0
  -24.5000   20.0480  -10.9590 C   0  0  0  0  0
  -23.0670   18.2250  -11.6760 C   0  0  0  0  0
  -25.5940   20.8140  -10.4890 C   0  0  0  0  0
  -23.9260   22.2460  -10.7760 N   0  0  0  0  0
  -22.5800   23.8690   -9.4740 C   0  0  0  0  0
  -21.0880   23.2330   -7.6250 C   0  0  0  0  0
  -20.7430   24.6150   -7.4480 C   0  0  0  0  0
  -22.1240   25.2300   -9.4770 N   0  3  0  0  0
  -20.1070   17.4630  -12.4170 C   0  0  0  0  0
  -21.1800   15.0670  -12.4990 N   0  0  0  0  0
  -25.1093   17.9338  -11.1164 H   0  0  0  0  0
  -25.7903   23.0223  -10.0758 H   0  0  0  0  0
  -23.7188   24.2547  -11.2400 H   0  0  0  0  0
  -22.2470   23.2311  -11.4856 H   0  0  0  0  0
  -20.6572   22.9474   -9.6169 H   0  0  0  0  0
  -21.9580   21.8988   -8.9280 H   0  0  0  0  0
  -20.9647   26.4956   -8.3935 H   0  0  0  0  0
  -22.4800   25.8185   -7.5674 H   0  0  0  0  0
  -20.3890   24.7888  -10.1650 H   0  0  0  0  0
  -21.6604   25.2121  -11.3379 H   0  0  0  0  0
  -20.9337   26.4774  -10.3169 H   0  0  0  0  0
  -16.7909   16.8940  -13.0280 H   0  0  0  0  0
  -18.0421   15.6499  -12.9389 H   0  0  0  0  0
  -21.3947   21.2570  -11.6921 H   0  0  0  0  0
  -22.8795   17.1672  -11.8601 H   0  0  0  0  0
  -26.5829   20.4301  -10.2383 H   0  0  0  0  0
  -23.4148   23.8251   -8.7746 H   0  0  0  0  0
  -20.1896   22.6497   -7.4233 H   0  0  0  0  0
  -21.9201   23.0216   -6.9535 H   0  0  0  0  0
  -20.8764   24.8263   -6.3870 H   0  0  0  0  0
  -19.7330   24.7272   -7.8422 H   0  0  0  0  0
  -22.9485   25.7902   -9.6935 H   0  0  0  0  0
 16  1  4  0  0  0
  1 17  4  0  0  0
  2 18  4  0  0  0
 19  2  4  0  0  0
  3 19  1  0  0  0
 20  3  1  0  0  0
 20  4  1  0  0  0
  4 21  1  0  0  0
  5 22  1  0  0  0
 23  5  1  0  0  0
 23  6  1  0  0  0
 24  7  1  0  0  0
  7 25  3  0  0  0
  9  8  1  0  0  0
  9 10  4  0  0  0
 24  9  4  0  0  0
 11 10  4  0  0  0
 12 11  4  0  0  0
 13 12  1  0  0  0
 12 24  4  0  0  0
 14 13  4  0  0  0
 13 17  4  0  0  0
 15 14  4  0  0  0
 15 16  4  0  0  0
 19 15  4  0  0  0
 16 18  4  0  0  0
 20 23  1  0  0  0
 21 22  1  0  0  0
  1 26  1  0  0  0
  2 27  1  0  0  0
  3 28  1  0  0  0
  3 29  1  0  0  0
  4 30  1  0  0  0
  4 31  1  0  0  0
  5 32  1  0  0  0
  5 33  1  0  0  0
  6 34  1  0  0  0
  6 35  1  0  0  0
  6 36  1  0  0  0
  8 37  1  0  0  0
  8 38  1  0  0  0
 14 39  1  0  0  0
 17 40  1  0  0  0
 18 41  1  0  0  0
 20 42  1  0  0  0
 21 43  1  0  0  0
 21 44  1  0  0  0
 22 45  1  0  0  0
 22 46  1  0  0  0
 23 47  1  0  0  0
M  END
$$$$
