4umt_ligand
  -I-interpret- 

 56 59  0  0  0  0  0  0  0  0999 V2000
   36.8120   20.0690   23.4470 C   0  0  0  0  0
   36.6350   21.4770   23.2560 O   0  0  0  0  0
   35.7430   21.8990   22.2990 C   0  0  0  0  0
   35.0260   21.0630   21.4570 C   0  0  0  0  0
   34.1420   21.5850   20.5170 C   0  0  0  0  0
   33.4550   20.7110   19.7050 O   0  0  0  0  0
   32.6060   21.2040   18.6250 C   0  0  0  0  0
   32.0420   20.0130   17.9580 C   0  0  0  0  0
   31.5800   19.0460   17.4190 C   0  0  0  0  0
   31.0340   17.8850   16.7730 C   0  0  0  0  0
   29.6590   17.6740   16.7260 C   0  0  0  0  0
   29.1430   16.5540   16.1030 C   0  0  0  0  0
   29.9950   15.6120   15.5080 C   0  0  0  0  0
   29.5210   14.4630   14.8660 C   0  0  0  0  0
   30.4170   13.5820   14.3060 C   0  0  0  0  0
   31.7410   13.7650   14.3410 N   0  0  0  0  0
   32.2120   14.8590   14.9530 C   0  0  0  0  0
   31.3860   15.8160   15.5520 C   0  0  0  0  0
   31.8850   16.9530   16.1850 C   0  0  0  0  0
   33.9770   22.9570   20.4210 C   0  0  0  0  0
   34.6870   23.8030   21.2570 C   0  0  0  0  0
   35.5780   23.2920   22.2080 C   0  0  0  0  0
   36.3480   24.2420   23.1050 C   0  0  0  0  0
   36.0970   24.0990   24.5850 N   0  3  0  0  0
   34.7050   24.5130   24.9410 C   0  0  0  0  0
   34.4790   24.3530   26.4390 C   0  0  0  0  0
   35.4460   25.1940   27.1910 N   0  3  0  0  0
   36.8520   24.8280   26.8640 C   0  0  0  0  0
   37.0950   24.9130   25.3590 C   0  0  0  0  0
   35.8608   19.6200   23.7328 H   0  0  0  0  0
   37.1632   19.6190   22.5184 H   0  0  0  0  0
   37.5463   19.9000   24.2346 H   0  0  0  0  0
   35.1561   19.9834   21.5320 H   0  0  0  0  0
   33.1795   21.8095   17.9231 H   0  0  0  0  0
   31.8147   21.8457   19.0125 H   0  0  0  0  0
   28.9845   18.3975   17.1840 H   0  0  0  0  0
   28.0642   16.4011   16.0736 H   0  0  0  0  0
   28.4502   14.2673   14.8099 H   0  0  0  0  0
   30.0290   12.6923   13.8101 H   0  0  0  0  0
   33.2908   15.0111   14.9860 H   0  0  0  0  0
   32.9622   17.1157   16.2204 H   0  0  0  0  0
   33.2871   23.3717   19.6861 H   0  0  0  0  0
   34.5500   24.8811   21.1732 H   0  0  0  0  0
   36.0265   25.2479   22.8348 H   0  0  0  0  0
   37.4043   24.0223   22.9501 H   0  0  0  0  0
   36.2050   23.1150   24.8309 H   0  0  0  0  0
   33.9958   23.8842   24.4028 H   0  0  0  0  0
   34.5612   25.5581   24.6669 H   0  0  0  0  0
   34.6227   23.3081   26.7139 H   0  0  0  0  0
   33.4643   24.6665   26.6843 H   0  0  0  0  0
   35.2963   25.0465   28.1891 H   0  0  0  0  0
   35.2965   26.1695   26.9331 H   0  0  0  0  0
   37.0360   23.8055   27.1937 H   0  0  0  0  0
   37.5237   25.5220   27.3694 H   0  0  0  0  0
   36.9965   25.9550   25.0547 H   0  0  0  0  0
   38.0909   24.5222   25.1504 H   0  0  0  0  0
  1  2  1  0  0  0
  2  3  1  0  0  0
  3  4  4  0  0  0
  3 22  4  0  0  0
  4  5  4  0  0  0
  5  6  1  0  0  0
  5 20  4  0  0  0
  6  7  1  0  0  0
  7  8  1  0  0  0
  8  9  3  0  0  0
  9 10  1  0  0  0
 10 11  4  0  0  0
 10 19  4  0  0  0
 11 12  4  0  0  0
 12 13  4  0  0  0
 13 14  4  0  0  0
 13 18  4  0  0  0
 14 15  4  0  0  0
 15 16  4  0  0  0
 16 17  4  0  0  0
 17 18  4  0  0  0
 18 19  4  0  0  0
 20 21  4  0  0  0
 21 22  4  0  0  0
 22 23  1  0  0  0
 23 24  1  0  0  0
 24 25  1  0  0  0
 24 29  1  0  0  0
 25 26  1  0  0  0
 26 27  1  0  0  0
 27 28  1  0  0  0
 28 29  1  0  0  0
  1 30  1  0  0  0
  1 31  1  0  0  0
  1 32  1  0  0  0
  4 33  1  0  0  0
  7 34  1  0  0  0
  7 35  1  0  0  0
 11 36  1  0  0  0
 12 37  1  0  0  0
 14 38  1  0  0  0
 15 39  1  0  0  0
 17 40  1  0  0  0
 19 41  1  0  0  0
 20 42  1  0  0  0
 21 43  1  0  0  0
 23 44  1  0  0  0
 23 45  1  0  0  0
 24 46  1  0  0  0
 25 47  1  0  0  0
 25 48  1  0  0  0
 26 49  1  0  0  0
 26 50  1  0  0  0
 27 51  1  0  0  0
 27 52  1  0  0  0
 28 53  1  0  0  0
 28 54  1  0  0  0
 29 55  1  0  0  0
 29 56  1  0  0  0
M  END
$$$$
