5mli_ligand
  -I-interpret- 

 19 19  0  0  0  0  0  0  0  0999 V2000
   27.9470   47.6010    0.9490 C   0  0  0  0  0
   26.7590   46.7660    1.0050 N   0  0  0  0  0
   25.5900   47.0570    0.4160 C   0  0  0  0  0
   25.3890   48.2620   -0.3360 C   0  0  0  0  0
   24.2810   48.6060   -0.8960 N   0  0  0  0  0
   23.2080   47.7800   -0.7620 N   0  0  0  0  0
   21.9950   48.2380   -1.4290 C   0  0  0  0  0
   23.1960   46.5900   -0.0770 C   0  0  0  0  0
   22.1800   45.9070   -0.0120 O   0  0  0  0  0
   24.4700   46.2520    0.5220 C   0  0  0  0  0
   24.5480   44.7800    1.4070 Cl  0  0  0  0  0
   28.2541   47.7245   -0.0895 H   0  0  0  0  0
   27.7248   48.5763    1.3819 H   0  0  0  0  0
   28.7501   47.1263    1.5127 H   0  0  0  0  0
   26.2379   48.9375   -0.4415 H   0  0  0  0  0
   21.6916   47.5023   -2.1738 H   0  0  0  0  0
   21.2008   48.3600   -0.6924 H   0  0  0  0  0
   22.1890   49.1929   -1.9176 H   0  0  0  0  0
   24.9770   47.0801    0.0268 H   0  0  0  0  0
  1  2  1  0  0  0
  2  3  2  0  0  0
  3  4  1  0  0  0
  3 10  1  0  0  0
  4  5  2  0  0  0
  5  6  1  0  0  0
  6  7  1  0  0  0
  6  8  1  0  0  0
  8  9  2  0  0  0
  8 10  1  0  0  0
 10 11  1  0  0  0
  1 12  1  0  0  0
  1 13  1  0  0  0
  1 14  1  0  0  0
  4 15  1  0  0  0
  7 16  1  0  0  0
  7 17  1  0  0  0
  7 18  1  0  0  0
 10 19  1  0  0  0
M  END
$$$$
