4whr_ligand
  -I-interpret- 

 14 14  0  0  0  0  0  0  0  0999 V2000
  -16.9390  -51.4850  -33.6980 C   0  0  0  0  0
  -18.3020  -51.3280  -33.8530 C   0  0  0  0  0
  -18.8200  -50.6450  -34.9470 C   0  0  0  0  0
  -17.9390  -50.1140  -35.8970 C   0  0  0  0  0
  -16.5650  -50.2680  -35.7530 C   0  0  0  0  0
  -16.0690  -50.9540  -34.6530 C   0  0  0  0  0
  -16.4690  -52.1460  -32.5980 O   0  0  0  0  0
  -19.1130  -51.8640  -32.9190 O   0  0  0  0  0
  -18.4370  -49.4590  -36.9560 F   0  0  0  0  0
  -19.8970  -50.5244  -35.0638 H   0  0  0  0  0
  -15.8839  -49.8541  -36.4965 H   0  0  0  0  0
  -14.9928  -51.0792  -34.5336 H   0  0  0  0  0
  -15.5099  -52.1752  -32.6291 H   0  0  0  0  0
  -20.0273  -51.6819  -33.1481 H   0  0  0  0  0
  1  2  4  0  0  0
  1  6  4  0  0  0
  1  7  1  0  0  0
  2  3  4  0  0  0
  2  8  1  0  0  0
  3  4  4  0  0  0
  4  5  4  0  0  0
  4  9  1  0  0  0
  5  6  4  0  0  0
  3 10  1  0  0  0
  5 11  1  0  0  0
  6 12  1  0  0  0
  7 13  1  0  0  0
  8 14  1  0  0  0
M  END
$$$$
