4f1q_ligand
  -I-interpret- 

 29 29  0  0  0  0  0  0  0  0999 V2000
   38.9190   22.0640  -25.8630 O   0  0  0  0  0
   39.4130   21.1480  -25.1630 C   0  0  0  0  0
   40.3740   20.4540  -25.5860 O   0  0  0  0  0
   38.8280   20.8900  -23.7850 C   0  0  0  0  0
   39.3790   19.7620  -22.8790 C   0  0  0  0  0
   38.7670   19.5150  -21.4860 C   0  0  0  0  0
   39.2040   18.6350  -20.7400 O   0  0  0  0  0
   37.7890   20.3870  -21.1940 N   0  0  0  0  0
   37.0220   20.3120  -20.1160 C   0  0  0  0  0
   36.3220   21.4760  -19.8160 C   0  0  0  0  0
   36.7800   19.1510  -19.3710 C   0  0  0  0  0
   35.8790   19.1920  -18.3070 C   0  0  0  0  0
   35.2100   20.3730  -17.9930 C   0  0  0  0  0
   35.4320   21.5170  -18.7540 C   0  0  0  0  0
   34.7790   22.6880  -18.4550 C   0  0  0  0  0
   34.3950   22.9130  -17.3100 O   0  0  0  0  0
   34.5620   23.5020  -19.4810 N   0  0  0  0  0
   40.6175   19.8069  -24.9200 H   0  0  0  0  0
   37.8011   20.5862  -23.9880 H   0  0  0  0  0
   39.0473   21.8028  -23.2311 H   0  0  0  0  0
   40.4075   20.0587  -22.6735 H   0  0  0  0  0
   39.1712   18.8458  -23.4317 H   0  0  0  0  0
   37.6259   21.1565  -21.8434 H   0  0  0  0  0
   36.4753   22.3676  -20.4240 H   0  0  0  0  0
   37.2922   18.2219  -19.6209 H   0  0  0  0  0
   35.6970   18.2937  -17.7170 H   0  0  0  0  0
   34.5148   20.4010  -17.1539 H   0  0  0  0  0
   34.0493   24.3727  -19.3416 H   0  0  0  0  0
   34.9079   23.2567  -20.4087 H   0  0  0  0  0
  1  2  2  0  0  0
  2  3  1  0  0  0
  2  4  1  0  0  0
  4  5  1  0  0  0
  5  6  1  0  0  0
  6  7  2  0  0  0
  6  8  1  0  0  0
  8  9  1  0  0  0
  9 10  4  0  0  0
  9 11  4  0  0  0
 10 14  4  0  0  0
 11 12  4  0  0  0
 12 13  4  0  0  0
 13 14  4  0  0  0
 14 15  1  0  0  0
 15 16  2  0  0  0
 15 17  1  0  0  0
  3 18  1  0  0  0
  4 19  1  0  0  0
  4 20  1  0  0  0
  5 21  1  0  0  0
  5 22  1  0  0  0
  8 23  1  0  0  0
 10 24  1  0  0  0
 11 25  1  0  0  0
 12 26  1  0  0  0
 13 27  1  0  0  0
 17 28  1  0  0  0
 17 29  1  0  0  0
M  END
$$$$
