### 
### Created by X-TOOL on Mon Sep 10 21:13:13 2018
### 

@<TRIPOS>MOLECULE
3wc7_ligand
   63    63     1     0     0
SMALL
GAST_HUCK


@<TRIPOS>ATOM
      1 O23         4.7640  -17.5580    4.0460 O.co2     1 EF1        -0.5687
      2 C21         3.9570  -18.3930    3.5650 C.2       1 EF1         0.0394
      3 O22         2.8420  -18.6020    4.0860 O.co2     1 EF1        -0.5687
      4 C20         4.3300  -19.1190    2.2900 C.3       1 EF1         0.0277
      5 C24         3.6440  -18.4160    1.1080 C.3       1 EF1        -0.0371
      6 C25         3.6510  -16.9000    1.2450 C.3       1 EF1        -0.0511
      7 C26         3.1030  -16.2370   -0.0170 C.3       1 EF1        -0.0481
      8 C27         4.0120  -16.5280   -1.2120 C.3       1 EF1        -0.0126
      9 C28         5.3340  -15.7740   -1.1260 C.3       1 EF1        -0.0354
     10 N29         5.1260  -14.3940   -0.7170 N.4       1 EF1         0.2185
     11 C17         3.8210  -20.5520    2.2690 C.3       1 EF1         0.0298
     12 P13         4.7130  -21.5880    3.4550 P.3       1 EF1         0.0128
     13 O18         5.8450  -22.2800    2.7480 O.co2     1 EF1        -0.6175
     14 O19         5.1230  -20.7130    4.6120 O.co2     1 EF1        -0.6175
     15 C12         3.6090  -22.9310    4.0390 C.3       1 EF1         0.1086
     16 C14         3.3260  -23.9540    2.9290 C.3       1 EF1        -0.0072
     17 C16         2.4090  -23.3200    1.8800 C.3       1 EF1        -0.0591
     18 C15         2.6890  -25.2250    3.4870 C.3       1 EF1        -0.0591
     19 N10         2.3760  -22.3820    4.5640 N.am      1 EF1        -0.2678
     20 C9          2.0050  -22.6300    5.8320 C.2       1 EF1         0.1794
     21 O11         2.6340  -23.3600    6.6080 O.2       1 EF1        -0.3969
     22 C8          0.7420  -21.9360    6.3130 C.3       1 EF1         0.0469
     23 C7         -0.1860  -22.9970    6.8770 C.3       1 EF1        -0.0022
     24 C1         -0.5040  -24.0820    5.8660 C.ar      1 EF1        -0.0408
     25 C6         -1.0770  -23.7380    4.6420 C.ar      1 EF1        -0.0602
     26 C2         -0.2520  -25.4140    6.1760 C.ar      1 EF1        -0.0602
     27 C3         -0.5520  -26.3900    5.2380 C.ar      1 EF1        -0.0686
     28 C4         -1.1130  -26.0360    4.0080 C.ar      1 EF1        -0.0687
     29 C5         -1.3690  -24.7110    3.7010 C.ar      1 EF1        -0.0686
     30 H1          5.4233  -19.1071    2.1692 H         1 EF1         0.0481
     31 H2          2.6007  -18.7598    1.0509 H         1 EF1         0.0286
     32 H3          4.1711  -18.6885    0.1818 H         1 EF1         0.0286
     33 H4          4.6830  -16.5581    1.4124 H         1 EF1         0.0266
     34 H5          3.0258  -16.6129    2.1033 H         1 EF1         0.0266
     35 H6          3.0481  -15.1496    0.1398 H         1 EF1         0.0267
     36 H7          2.0963  -16.6289   -0.2240 H         1 EF1         0.0267
     37 H8          3.4923  -16.2280   -2.1339 H         1 EF1         0.0317
     38 H9          4.2212  -17.6075   -1.2436 H         1 EF1         0.0317
     39 H10         5.8192  -15.7865   -2.1131 H         1 EF1         0.0813
     40 H11         5.9841  -16.2719   -0.3915 H         1 EF1         0.0813
     41 H12         6.0145  -13.9204   -0.6685 H         1 EF1         0.1994
     42 H13         4.6853  -14.3749    0.1893 H         1 EF1         0.1994
     43 H14         4.5342  -13.9301   -1.3883 H         1 EF1         0.1994
     44 H15         3.9579  -20.9655    1.2589 H         1 EF1         0.0486
     45 H16         2.7512  -20.5555    2.5248 H         1 EF1         0.0486
     46 H17         4.1220  -23.4572    4.8575 H         1 EF1         0.0767
     47 H18         4.2789  -24.2247    2.4508 H         1 EF1         0.0334
     48 H19         2.2040  -24.0499    1.0830 H         1 EF1         0.0234
     49 H20         2.9011  -22.4355    1.4493 H         1 EF1         0.0234
     50 H21         1.4630  -23.0190    2.3538 H         1 EF1         0.0234
     51 H22         3.3571  -25.6703    4.2388 H         1 EF1         0.0234
     52 H23         2.5265  -25.9430    2.6697 H         1 EF1         0.0234
     53 H24         1.7246  -24.9771    3.9545 H         1 EF1         0.0234
     54 H25         1.7965  -21.8144    3.9791 H         1 EF1         0.1870
     55 H26         0.2544  -21.4216    5.4718 H         1 EF1         0.0525
     56 H27         0.9922  -21.2040    7.0951 H         1 EF1         0.0525
     57 H28        -1.1256  -22.5163    7.1869 H         1 EF1         0.0451
     58 H29         0.2954  -23.4590    7.7516 H         1 EF1         0.0451
     59 H30        -1.2960  -22.6987    4.4251 H         1 EF1         0.0557
     60 H31         0.1723  -25.6850    7.1360 H         1 EF1         0.0557
     61 H32        -0.3506  -27.4318    5.4596 H         1 EF1         0.0599
     62 H33        -1.3505  -26.8085    3.2856 H         1 EF1         0.0559
     63 H34        -1.7910  -24.4395    2.7401 H         1 EF1         0.0599
@<TRIPOS>BOND
     1    1    2 ar 
     2    2    3 ar 
     3    2    4 1  
     4    4    5 1  
     5    4   11 1  
     6    5    6 1  
     7    6    7 1  
     8    7    8 1  
     9    8    9 1  
    10    9   10 1  
    11   11   12 1  
    12   12   13 ar 
    13   12   14 ar 
    14   12   15 1  
    15   15   16 1  
    16   15   19 1  
    17   16   17 1  
    18   16   18 1  
    19   19   20 am 
    20   20   21 2  
    21   20   22 1  
    22   22   23 1  
    23   23   24 1  
    24   24   25 ar 
    25   24   26 ar 
    26   25   29 ar 
    27   26   27 ar 
    28   27   28 ar 
    29   28   29 ar 
    30    4   30 1  
    31    5   31 1  
    32    5   32 1  
    33    6   33 1  
    34    6   34 1  
    35    7   35 1  
    36    7   36 1  
    37    8   37 1  
    38    8   38 1  
    39    9   39 1  
    40    9   40 1  
    41   10   41 1  
    42   10   42 1  
    43   10   43 1  
    44   11   44 1  
    45   11   45 1  
    46   15   46 1  
    47   16   47 1  
    48   17   48 1  
    49   17   49 1  
    50   17   50 1  
    51   18   51 1  
    52   18   52 1  
    53   18   53 1  
    54   19   54 1  
    55   22   55 1  
    56   22   56 1  
    57   23   57 1  
    58   23   58 1  
    59   25   59 1  
    60   26   60 1  
    61   27   61 1  
    62   28   62 1  
    63   29   63 1  
@<TRIPOS>SUBSTRUCTURE
     1 EF1         1

