3wc7_ligand
  -I-interpret- 

 65 65  0  0  0  0  0  0  0  0999 V2000
    4.7640  -17.5580    4.0460 O   0  0  0  0  0
    3.9570  -18.3930    3.5650 C   0  0  0  0  0
    2.8420  -18.6020    4.0860 O   0  0  0  0  0
    4.3300  -19.1190    2.2900 C   0  0  0  0  0
    3.6440  -18.4160    1.1080 C   0  0  0  0  0
    3.6510  -16.9000    1.2450 C   0  0  0  0  0
    3.1030  -16.2370   -0.0170 C   0  0  0  0  0
    4.0120  -16.5280   -1.2120 C   0  0  0  0  0
    5.3340  -15.7740   -1.1260 C   0  0  0  0  0
    5.1260  -14.3940   -0.7170 N   0  3  0  0  0
    3.8210  -20.5520    2.2690 C   0  0  0  0  0
    4.7130  -21.5880    3.4550 P   0  0  0  0  0
    5.8450  -22.2800    2.7480 O   0  0  0  0  0
    5.1230  -20.7130    4.6120 O   0  0  0  0  0
    3.6090  -22.9310    4.0390 C   0  0  0  0  0
    3.3260  -23.9540    2.9290 C   0  0  0  0  0
    2.4090  -23.3200    1.8800 C   0  0  0  0  0
    2.6890  -25.2250    3.4870 C   0  0  0  0  0
    2.3760  -22.3820    4.5640 N   0  0  0  0  0
    2.0050  -22.6300    5.8320 C   0  0  0  0  0
    2.6340  -23.3600    6.6080 O   0  0  0  0  0
    0.7420  -21.9360    6.3130 C   0  0  0  0  0
   -0.1860  -22.9970    6.8770 C   0  0  0  0  0
   -0.5040  -24.0820    5.8660 C   0  0  0  0  0
   -1.0770  -23.7380    4.6420 C   0  0  0  0  0
   -0.2520  -25.4140    6.1760 C   0  0  0  0  0
   -0.5520  -26.3900    5.2380 C   0  0  0  0  0
   -1.1130  -26.0360    4.0080 C   0  0  0  0  0
   -1.3690  -24.7110    3.7010 C   0  0  0  0  0
    5.5604  -17.5391    3.5103 H   0  0  0  0  0
    5.4182  -19.1134    2.2272 H   0  0  0  0  0
    2.6054  -18.7455    1.0785 H   0  0  0  0  0
    4.1910  -18.6735    0.2011 H   0  0  0  0  0
    4.6772  -16.5664    1.3992 H   0  0  0  0  0
    3.0209  -16.6212    2.0896 H   0  0  0  0  0
    3.0580  -15.1593    0.1399 H   0  0  0  0  0
    2.1090  -16.6341   -0.2229 H   0  0  0  0  0
    3.4963  -16.2067   -2.1169 H   0  0  0  0  0
    4.2303  -17.5959   -1.2203 H   0  0  0  0  0
    5.8021  -15.7786   -2.1104 H   0  0  0  0  0
    5.9671  -16.2646   -0.3867 H   0  0  0  0  0
    6.0256  -13.9158   -0.6683 H   0  0  0  0  0
    4.5270  -13.9257   -1.3970 H   0  0  0  0  0
    4.6800  -14.3760    0.2001 H   0  0  0  0  0
    3.9750  -20.9591    1.2697 H   0  0  0  0  0
    2.7650  -20.5479    2.5390 H   0  0  0  0  0
    4.3421  -20.3134    5.0020 H   0  0  0  0  0
    4.1227  -23.4584    4.8428 H   0  0  0  0  0
    4.2735  -24.2366    2.4702 H   0  0  0  0  0
    1.4721  -23.0222    2.3507 H   0  0  0  0  0
    2.8977  -22.4437    1.4541 H   0  0  0  0  0
    2.2066  -24.0442    1.0909 H   0  0  0  0  0
    3.3639  -25.6800    4.2120 H   0  0  0  0  0
    1.7465  -24.9740    3.9737 H   0  0  0  0  0
    2.5036  -25.9248    2.6722 H   0  0  0  0  0
    1.7849  -21.8031    3.9674 H   0  0  0  0  0
    0.2602  -21.4129    5.4870 H   0  0  0  0  0
    0.9839  -21.1995    7.0792 H   0  0  0  0  0
   -1.1212  -22.5128    7.1581 H   0  0  0  0  0
    0.3115  -23.4632    7.7274 H   0  0  0  0  0
   -1.2972  -22.6930    4.4239 H   0  0  0  0  0
    0.1747  -25.6865    7.1413 H   0  0  0  0  0
   -0.3495  -27.4376    5.4609 H   0  0  0  0  0
   -1.3518  -26.8128    3.2816 H   0  0  0  0  0
   -1.7933  -24.4380    2.7348 H   0  0  0  0  0
  1  2  1  0  0  0
  2  3  2  0  0  0
  2  4  1  0  0  0
  4  5  1  0  0  0
  4 11  1  0  0  0
  5  6  1  0  0  0
  6  7  1  0  0  0
  7  8  1  0  0  0
  8  9  1  0  0  0
  9 10  1  0  0  0
 11 12  1  0  0  0
 12 13  2  0  0  0
 12 14  1  0  0  0
 12 15  1  0  0  0
 15 16  1  0  0  0
 15 19  1  0  0  0
 16 17  1  0  0  0
 16 18  1  0  0  0
 19 20  1  0  0  0
 20 21  2  0  0  0
 20 22  1  0  0  0
 22 23  1  0  0  0
 23 24  1  0  0  0
 24 25  4  0  0  0
 24 26  4  0  0  0
 25 29  4  0  0  0
 26 27  4  0  0  0
 27 28  4  0  0  0
 28 29  4  0  0  0
  1 30  1  0  0  0
  4 31  1  0  0  0
  5 32  1  0  0  0
  5 33  1  0  0  0
  6 34  1  0  0  0
  6 35  1  0  0  0
  7 36  1  0  0  0
  7 37  1  0  0  0
  8 38  1  0  0  0
  8 39  1  0  0  0
  9 40  1  0  0  0
  9 41  1  0  0  0
 10 42  1  0  0  0
 10 43  1  0  0  0
 10 44  1  0  0  0
 11 45  1  0  0  0
 11 46  1  0  0  0
 14 47  1  0  0  0
 15 48  1  0  0  0
 16 49  1  0  0  0
 17 50  1  0  0  0
 17 51  1  0  0  0
 17 52  1  0  0  0
 18 53  1  0  0  0
 18 54  1  0  0  0
 18 55  1  0  0  0
 19 56  1  0  0  0
 22 57  1  0  0  0
 22 58  1  0  0  0
 23 59  1  0  0  0
 23 60  1  0  0  0
 25 61  1  0  0  0
 26 62  1  0  0  0
 27 63  1  0  0  0
 28 64  1  0  0  0
 29 65  1  0  0  0
M  END
$$$$
