5ekm_ligand
  -I-interpret- 

 39 39  0  0  0  0  0  0  0  0999 V2000
    0.5110    2.9560   84.6410 C   0  0  0  0  0
   -0.2570    3.9670   84.0660 C   0  0  0  0  0
   -1.6420    3.9730   84.2780 C   0  0  0  0  0
   -2.2590    3.0000   85.0330 C   0  0  0  0  0
   -1.4800    2.0040   85.6110 C   0  0  0  0  0
   -0.0930    1.9790   85.4020 C   0  0  0  0  0
    0.4280    4.9380   83.2940 N   0  0  0  0  0
   -0.0680    6.0820   82.5770 C   0  0  0  0  0
    0.7420    6.7710   81.9750 O   0  0  0  0  0
   -1.7540    7.3600   81.3370 N   0  3  0  0  0
   -1.5480    6.4960   82.4920 C   0  0  0  0  0
   -2.2650    0.7390   86.5870 S   0  0  0  0  0
   -3.6850    0.8860   86.4540 O   0  0  0  0  0
   -1.9090    0.9270   87.9650 O   0  0  0  0  0
   -1.7320   -0.6880   86.0060 N   0  0  0  0  0
   -2.9920    6.9900   80.6960 C   0  0  0  0  0
   -3.1760    7.8530   79.4440 C   0  0  0  0  0
   -4.4190    7.3700   78.6540 C   0  0  0  0  0
   -4.9480    8.5120   77.7940 C   0  0  0  0  0
    1.5901    2.9382   84.4886 H   0  0  0  0  0
   -2.2450    4.7658   83.8353 H   0  0  0  0  0
   -3.3397    3.0107   85.1749 H   0  0  0  0  0
    0.5087    1.1843   85.8430 H   0  0  0  0  0
    1.4376    4.8038   83.2376 H   0  0  0  0  0
   -0.9796    7.2525   80.6820 H   0  0  0  0  0
   -1.7972    8.3340   81.6368 H   0  0  0  0  0
   -1.8239    7.0347   83.3985 H   0  0  0  0  0
   -2.1661    5.6041   82.3893 H   0  0  0  0  0
   -2.3925   -1.3546   85.6061 H   0  0  0  0  0
   -0.7381   -0.9142   86.0424 H   0  0  0  0  0
   -3.8249    7.1498   81.3807 H   0  0  0  0  0
   -2.9637    5.9365   80.4178 H   0  0  0  0  0
   -2.2913    7.7672   78.8130 H   0  0  0  0  0
   -3.3175    8.8926   79.7396 H   0  0  0  0  0
   -5.1930    7.0518   79.3525 H   0  0  0  0  0
   -4.1409    6.5319   78.0149 H   0  0  0  0  0
   -5.2259    9.3490   78.4346 H   0  0  0  0  0
   -4.1730    8.8287   77.0960 H   0  0  0  0  0
   -5.8221    8.1721   77.2386 H   0  0  0  0  0
  1  2  4  0  0  0
  1  6  4  0  0  0
  2  3  4  0  0  0
  2  7  1  0  0  0
  3  4  4  0  0  0
  4  5  4  0  0  0
  5  6  4  0  0  0
  5 12  1  0  0  0
  7  8  1  0  0  0
  8  9  2  0  0  0
  8 11  1  0  0  0
 11 10  1  0  0  0
 10 16  1  0  0  0
 12 13  2  0  0  0
 12 14  2  0  0  0
 12 15  1  0  0  0
 16 17  1  0  0  0
 17 18  1  0  0  0
 18 19  1  0  0  0
  1 20  1  0  0  0
  3 21  1  0  0  0
  4 22  1  0  0  0
  6 23  1  0  0  0
  7 24  1  0  0  0
 10 25  1  0  0  0
 10 26  1  0  0  0
 11 27  1  0  0  0
 11 28  1  0  0  0
 15 29  1  0  0  0
 15 30  1  0  0  0
 16 31  1  0  0  0
 16 32  1  0  0  0
 17 33  1  0  0  0
 17 34  1  0  0  0
 18 35  1  0  0  0
 18 36  1  0  0  0
 19 37  1  0  0  0
 19 38  1  0  0  0
 19 39  1  0  0  0
M  END
$$$$
