4q0l_ligand
  -I-interpret- 

 51 52  0  0  0  0  0  0  0  0999 V2000
   -2.4140  -17.8860   -6.4700 F   0  0  0  0  0
   -1.0730  -17.7060   -6.5480 C   0  0  0  0  0
   -0.5530  -16.6930   -5.7520 C   0  0  0  0  0
   -1.6730  -15.7960   -4.7570 S   0  0  0  0  0
   -2.5330  -16.8000   -3.9820 O   0  0  0  0  0
   -1.1440  -14.8030   -3.3810 N   0  0  0  0  0
   -2.6510  -14.9720   -5.6140 O   0  0  0  0  0
    0.7910  -16.4090   -5.6690 C   0  0  0  0  0
    1.2270  -15.4000   -4.8720 F   0  0  0  0  0
    1.6500  -17.1530   -6.4590 C   0  0  0  0  0
    2.9470  -16.7780   -6.3370 F   0  0  0  0  0
   -0.2160  -18.5070   -7.3630 C   0  0  0  0  0
    1.1710  -18.2050   -7.3110 C   0  0  0  0  0
    2.3730  -19.1170   -8.2980 S   0  0  0  0  0
    3.5260  -19.2280   -7.3160 O   0  0  0  0  0
    2.9860  -18.0540   -9.2590 O   0  0  0  0  0
    2.3030  -20.7200   -9.1910 C   0  0  0  0  0
    1.2430  -21.6990   -8.6890 C   0  0  0  0  0
    1.7110  -23.0030   -8.4210 O   0  0  0  0  0
   -0.7410  -19.5350   -8.2260 N   0  0  0  0  0
   -1.9730  -19.3580   -9.0260 C   0  0  0  0  0
   -1.7700  -18.7800  -10.4530 C   0  0  0  0  0
   -0.8540  -19.5040  -11.4310 C   0  0  0  0  0
   -1.6950  -20.3960  -12.3550 C   0  0  0  0  0
   -1.5980  -21.8740  -11.9920 C   0  0  0  0  0
   -1.7960  -22.1820  -10.5100 C   0  0  0  0  0
   -3.1160  -21.5600  -10.0350 C   0  0  0  0  0
   -2.9080  -20.5900   -8.8680 C   0  0  0  0  0
   -1.4554  -15.0322   -2.4371 H   0  0  0  0  0
   -0.5290  -14.0040   -3.5352 H   0  0  0  0  0
    3.2692  -21.2025   -9.0438 H   0  0  0  0  0
    2.0515  -20.4905  -10.2265 H   0  0  0  0  0
    0.4993  -21.7892   -9.4807 H   0  0  0  0  0
    0.8690  -21.3000   -7.7461 H   0  0  0  0  0
    0.9821  -23.5463   -8.1125 H   0  0  0  0  0
   -0.2419  -20.4224   -8.2879 H   0  0  0  0  0
   -2.5315  -18.5249   -8.5992 H   0  0  0  0  0
   -1.2959  -17.8114  -10.2947 H   0  0  0  0  0
   -2.7572  -18.8248  -10.9130 H   0  0  0  0  0
   -0.1456  -20.1201  -10.8773 H   0  0  0  0  0
   -0.3098  -18.7727  -12.0286 H   0  0  0  0  0
   -1.3190  -20.2750  -13.3709 H   0  0  0  0  0
   -2.7375  -20.0939  -12.2546 H   0  0  0  0  0
   -0.5903  -22.1986  -12.2514 H   0  0  0  0  0
   -2.3950  -22.3858  -12.5314 H   0  0  0  0  0
   -0.9685  -21.7642   -9.9366 H   0  0  0  0  0
   -1.8273  -23.2615  -10.3626 H   0  0  0  0  0
   -3.7688  -22.3645   -9.6965 H   0  0  0  0  0
   -3.5488  -21.0039  -10.8666 H   0  0  0  0  0
   -3.8945  -20.1591   -8.6971 H   0  0  0  0  0
   -2.4290  -21.1944   -8.0977 H   0  0  0  0  0
  1  2  1  0  0  0
  2  3  4  0  0  0
  2 12  4  0  0  0
  3  4  1  0  0  0
  3  8  4  0  0  0
  4  5  2  0  0  0
  4  6  1  0  0  0
  4  7  2  0  0  0
  8  9  1  0  0  0
  8 10  4  0  0  0
 10 11  1  0  0  0
 10 13  4  0  0  0
 12 13  4  0  0  0
 12 20  1  0  0  0
 13 14  1  0  0  0
 14 15  2  0  0  0
 14 16  2  0  0  0
 14 17  1  0  0  0
 17 18  1  0  0  0
 18 19  1  0  0  0
 20 21  1  0  0  0
 21 22  1  0  0  0
 21 28  1  0  0  0
 22 23  1  0  0  0
 23 24  1  0  0  0
 24 25  1  0  0  0
 25 26  1  0  0  0
 26 27  1  0  0  0
 27 28  1  0  0  0
  6 29  1  0  0  0
  6 30  1  0  0  0
 17 31  1  0  0  0
 17 32  1  0  0  0
 18 33  1  0  0  0
 18 34  1  0  0  0
 19 35  1  0  0  0
 20 36  1  0  0  0
 21 37  1  0  0  0
 22 38  1  0  0  0
 22 39  1  0  0  0
 23 40  1  0  0  0
 23 41  1  0  0  0
 24 42  1  0  0  0
 24 43  1  0  0  0
 25 44  1  0  0  0
 25 45  1  0  0  0
 26 46  1  0  0  0
 26 47  1  0  0  0
 27 48  1  0  0  0
 27 49  1  0  0  0
 28 50  1  0  0  0
 28 51  1  0  0  0
M  END
$$$$
