5zwi_ligand
  -I-interpret- 

 68 70  0  0  0  0  0  0  0  0999 V2000
   16.1100    8.8940   19.5990 O   0  0  0  0  0
   14.7140    8.7560   19.4340 C   0  0  0  0  0
   14.4080    7.5340   18.6110 C   0  0  0  0  0
   14.7820    6.1940   19.1990 C   0  0  0  0  0
   14.3100    6.0300   20.6370 C   0  0  0  0  0
   14.2870    7.3250   21.4510 C   0  0  0  0  0
   14.4840    7.2960   22.7410 C   0  0  0  0  0
   14.7330    6.0580   23.4970 C   0  0  0  0  0
   14.6220    6.0300   24.8150 C   0  0  0  0  0
   13.8030    7.6570   17.4250 C   0  0  0  0  0
   14.9010    4.7910   25.5820 C   0  0  0  0  0
   13.8150    4.5160   26.5560 C   0  0  0  0  0
   13.7140    5.6770   27.5080 C   0  0  0  0  0
   13.3100    6.9410   26.7830 C   0  0  0  0  0
   14.2580    7.2370   25.6240 C   0  0  0  0  0
   15.1390    3.4560   24.8700 C   0  0  0  0  0
   14.7920    2.4100   25.8760 C   0  0  0  0  0
   14.2800    3.1830   27.1060 C   0  0  0  0  0
   12.4980    4.3620   25.8350 C   0  0  0  0  0
   13.2420    2.4440   27.9560 C   0  0  0  0  0
   13.9100    1.4670   28.9190 C   0  0  0  0  0
   12.6640    0.7890   26.3800 O   0  0  0  0  0
   12.2820    1.7250   27.0950 C   0  0  0  0  0
   10.8550    2.1450   27.2270 C   0  0  0  0  0
    9.9290    1.2110   27.2390 C   0  0  0  0  0
    8.5230    1.5820   27.4200 C   0  0  0  0  0
    7.5580    0.6850   27.2090 C   0  0  0  0  0
    6.1390    1.1400   27.3920 C   0  0  0  0  0
   14.1990    5.1520   18.3930 O   0  0  0  0  0
   13.9980    8.6590   20.7910 C   0  0  0  0  0
   16.5288    8.9520   18.7371 H   0  0  0  0  0
   14.3495    9.6438   18.9172 H   0  0  0  0  0
   15.8701    6.1305   19.2038 H   0  0  0  0  0
   15.0136    5.3578   21.1282 H   0  0  0  0  0
   13.2848    5.6620   20.5954 H   0  0  0  0  0
   14.4630    8.2389   23.2875 H   0  0  0  0  0
   15.0132    5.1502   22.9627 H   0  0  0  0  0
   13.5606    6.7684   16.8421 H   0  0  0  0  0
   13.5522    8.6458   17.0411 H   0  0  0  0  0
   15.8698    5.0722   25.9949 H   0  0  0  0  0
   14.6886    5.8357   27.9696 H   0  0  0  0  0
   12.9575    5.4481   28.2586 H   0  0  0  0  0
   13.3479    7.7733   27.4858 H   0  0  0  0  0
   12.3038    6.8084   26.3853 H   0  0  0  0  0
   13.7482    7.9326   24.9574 H   0  0  0  0  0
   15.1800    7.6311   26.0515 H   0  0  0  0  0
   16.1697    3.3600   24.5287 H   0  0  0  0  0
   14.5311    3.3660   23.9697 H   0  0  0  0  0
   15.6532    1.7889   26.1224 H   0  0  0  0  0
   14.0396    1.7200   25.4941 H   0  0  0  0  0
   15.0727    3.3100   27.8433 H   0  0  0  0  0
   12.2709    5.2815   25.2954 H   0  0  0  0  0
   12.5657    3.5331   25.1305 H   0  0  0  0  0
   11.7096    4.1606   26.5602 H   0  0  0  0  0
   12.7042    3.1893   28.5420 H   0  0  0  0  0
   14.4813    0.7325   28.3513 H   0  0  0  0  0
   14.5784    2.0140   29.5840 H   0  0  0  0  0
   13.1459    0.9590   29.5073 H   0  0  0  0  0
   10.5877    3.1984   27.3112 H   0  0  0  0  0
   10.2066    0.1643   27.1147 H   0  0  0  0  0
    8.2644    2.5950   27.7283 H   0  0  0  0  0
    7.7909   -0.3385   26.9151 H   0  0  0  0  0
    5.9977    1.4815   28.4174 H   0  0  0  0  0
    5.9294    1.9582   26.7030 H   0  0  0  0  0
    5.4633    0.3094   27.1880 H   0  0  0  0  0
   14.4928    5.2497   17.4843 H   0  0  0  0  0
   12.9235    8.7492   20.6313 H   0  0  0  0  0
   14.3570    9.4591   21.4384 H   0  0  0  0  0
  1  2  1  0  0  0
  2  3  1  0  0  0
  2 30  1  0  0  0
  3  4  1  0  0  0
  3 10  2  0  0  0
  4  5  1  0  0  0
  4 29  1  0  0  0
  5  6  1  0  0  0
  6  7  2  0  0  0
  6 30  1  0  0  0
  7  8  1  0  0  0
  8  9  2  0  0  0
  9 11  1  0  0  0
  9 15  1  0  0  0
 11 12  1  0  0  0
 11 16  1  0  0  0
 12 13  1  0  0  0
 12 18  1  0  0  0
 12 19  1  0  0  0
 13 14  1  0  0  0
 14 15  1  0  0  0
 16 17  1  0  0  0
 17 18  1  0  0  0
 18 20  1  0  0  0
 20 21  1  0  0  0
 20 23  1  0  0  0
 23 22  2  0  0  0
 23 24  1  0  0  0
 24 25  2  0  0  0
 25 26  1  0  0  0
 26 27  2  0  0  0
 27 28  1  0  0  0
  1 31  1  0  0  0
  2 32  1  0  0  0
  4 33  1  0  0  0
  5 34  1  0  0  0
  5 35  1  0  0  0
  7 36  1  0  0  0
  8 37  1  0  0  0
 10 38  1  0  0  0
 10 39  1  0  0  0
 11 40  1  0  0  0
 13 41  1  0  0  0
 13 42  1  0  0  0
 14 43  1  0  0  0
 14 44  1  0  0  0
 15 45  1  0  0  0
 15 46  1  0  0  0
 16 47  1  0  0  0
 16 48  1  0  0  0
 17 49  1  0  0  0
 17 50  1  0  0  0
 18 51  1  0  0  0
 19 52  1  0  0  0
 19 53  1  0  0  0
 19 54  1  0  0  0
 20 55  1  0  0  0
 21 56  1  0  0  0
 21 57  1  0  0  0
 21 58  1  0  0  0
 24 59  1  0  0  0
 25 60  1  0  0  0
 26 61  1  0  0  0
 27 62  1  0  0  0
 28 63  1  0  0  0
 28 64  1  0  0  0
 28 65  1  0  0  0
 29 66  1  0  0  0
 30 67  1  0  0  0
 30 68  1  0  0  0
M  END
$$$$
