2wxg_ligand
  -I-interpret- 

 60 65  0  0  0  0  0  0  0  0999 V2000
    2.8310  -34.0650  -23.9930 C   0  0  0  0  0
    3.5990  -35.3540  -23.8360 C   0  0  0  0  0
    3.2290  -36.4940  -24.6000 C   0  0  0  0  0
    3.9610  -37.6630  -24.4330 C   0  0  0  0  0
    5.0470  -37.7330  -23.5560 C   0  0  0  0  0
    5.4100  -36.6100  -22.8110 C   0  0  0  0  0
    4.6840  -35.4060  -22.9710 C   0  0  0  0  0
    5.1470  -34.3410  -22.1540 N   0  0  0  0  0
    4.5900  -34.1750  -20.8630 C   0  0  0  0  0
    3.6510  -34.8970  -20.5630 O   0  0  0  0  0
    5.0650  -33.1690  -20.0020 C   0  0  0  0  0
    4.5260  -32.9260  -18.7180 C   0  0  0  0  0
    3.3580  -33.7280  -18.1130 C   0  0  0  0  0
    5.0640  -31.8940  -17.9410 C   0  0  0  0  0
    6.1220  -31.1290  -18.4040 C   0  0  0  0  0
    6.6700  -31.3660  -19.6740 C   0  0  0  0  0
    6.1250  -32.3760  -20.4780 C   0  0  0  0  0
    6.6610  -32.5940  -21.7140 N   0  0  0  0  0
    6.2220  -33.5570  -22.5450 C   0  0  0  0  0
    6.8590  -33.7510  -23.9670 C   0  0  0  0  0
    7.3730  -32.4100  -24.3350 N   0  0  0  0  0
    8.5080  -32.0010  -24.0190 N   0  0  0  0  0
    6.6760  -31.5020  -24.9840 C   0  0  0  0  0
    5.4140  -31.5210  -25.4680 N   0  0  0  0  0
    4.9410  -30.4420  -26.0760 C   0  0  0  0  0
    5.7090  -29.3440  -26.2030 N   0  0  0  0  0
    6.9540  -29.2530  -25.7460 C   0  0  0  0  0
    7.6090  -28.0940  -25.9390 N   0  0  0  0  0
    7.4950  -30.3710  -25.0810 C   0  0  0  0  0
    8.6940  -30.7500  -24.4410 C   0  0  0  0  0
    9.9110  -30.0870  -24.1810 C   0  0  0  0  0
   10.7490  -29.4970  -25.1180 C   0  0  0  0  0
   10.3450  -30.1110  -22.8350 C   0  0  0  0  0
   11.5560  -29.5270  -22.4490 C   0  0  0  0  0
   11.9560  -29.5350  -21.1680 F   0  0  0  0  0
   12.3820  -28.9170  -23.3940 C   0  0  0  0  0
   11.9550  -28.8900  -24.7140 C   0  0  0  0  0
   12.7760  -28.3020  -25.6170 O   0  0  0  0  0
    2.8995  -33.7264  -25.0268 H   0  0  0  0  0
    1.7859  -34.2322  -23.7326 H   0  0  0  0  0
    3.2547  -33.3084  -23.3326 H   0  0  0  0  0
    2.3932  -36.4522  -25.2984 H   0  0  0  0  0
    3.6807  -38.5498  -25.0015 H   0  0  0  0  0
    5.6086  -38.6616  -23.4542 H   0  0  0  0  0
    6.2451  -36.6599  -22.1123 H   0  0  0  0  0
    2.4795  -33.6245  -18.7499 H   0  0  0  0  0
    3.6375  -34.7794  -18.0453 H   0  0  0  0  0
    3.1336  -33.3455  -17.1173 H   0  0  0  0  0
    4.6441  -31.6889  -16.9563 H   0  0  0  0  0
    6.5319  -30.3371  -17.7772 H   0  0  0  0  0
    7.5105  -30.7709  -20.0312 H   0  0  0  0  0
    6.1329  -34.1210  -24.6909 H   0  0  0  0  0
    7.6494  -34.5016  -23.9597 H   0  0  0  0  0
    3.9265  -30.4441  -26.4745 H   0  0  0  0  0
    7.1488  -27.3224  -26.4220 H   0  0  0  0  0
    8.5658  -27.9868  -25.6023 H   0  0  0  0  0
   10.4724  -29.5034  -26.1723 H   0  0  0  0  0
    9.7225  -30.5949  -22.0824 H   0  0  0  0  0
   13.3349  -28.4746  -23.1037 H   0  0  0  0  0
   13.5436  -27.9446  -25.1647 H   0  0  0  0  0
  1  2  1  0  0  0
  2  3  4  0  0  0
  2  7  4  0  0  0
  3  4  4  0  0  0
  4  5  4  0  0  0
  5  6  4  0  0  0
  6  7  4  0  0  0
  7  8  1  0  0  0
  8  9  1  0  0  0
  8 19  1  0  0  0
  9 10  2  0  0  0
  9 11  1  0  0  0
 11 12  4  0  0  0
 11 17  4  0  0  0
 12 13  1  0  0  0
 12 14  4  0  0  0
 14 15  4  0  0  0
 15 16  4  0  0  0
 16 17  4  0  0  0
 17 18  1  0  0  0
 18 19  2  0  0  0
 19 20  1  0  0  0
 20 21  1  0  0  0
 21 22  4  0  0  0
 21 23  4  0  0  0
 22 30  4  0  0  0
 23 24  4  0  0  0
 23 29  4  0  0  0
 24 25  4  0  0  0
 25 26  4  0  0  0
 26 27  4  0  0  0
 27 28  1  0  0  0
 27 29  4  0  0  0
 29 30  4  0  0  0
 30 31  1  0  0  0
 31 32  4  0  0  0
 31 33  4  0  0  0
 32 37  4  0  0  0
 33 34  4  0  0  0
 34 35  1  0  0  0
 34 36  4  0  0  0
 36 37  4  0  0  0
 37 38  1  0  0  0
  1 39  1  0  0  0
  1 40  1  0  0  0
  1 41  1  0  0  0
  3 42  1  0  0  0
  4 43  1  0  0  0
  5 44  1  0  0  0
  6 45  1  0  0  0
 13 46  1  0  0  0
 13 47  1  0  0  0
 13 48  1  0  0  0
 14 49  1  0  0  0
 15 50  1  0  0  0
 16 51  1  0  0  0
 20 52  1  0  0  0
 20 53  1  0  0  0
 25 54  1  0  0  0
 28 55  1  0  0  0
 28 56  1  0  0  0
 32 57  1  0  0  0
 33 58  1  0  0  0
 36 59  1  0  0  0
 38 60  1  0  0  0
M  END
$$$$
