3ua9_ligand
  -I-interpret- 

 52 57  0  0  0  0  0  0  0  0999 V2000
    5.9360   -1.8780    5.3260 C   0  0  0  0  0
    6.2830   -3.0610    4.7580 N   0  0  0  0  0
    6.7880   -3.1290    3.5290 C   0  0  0  0  0
    6.9990   -1.9520    2.7920 C   0  0  0  0  0
    6.6600   -0.7070    3.3360 C   0  0  0  0  0
    6.1190   -0.6700    4.6220 C   0  0  0  0  0
    5.7730    0.5450    5.2010 C   0  0  0  0  0
    5.2350    0.5790    6.4760 C   0  0  0  0  0
    5.0690   -0.6160    7.1760 C   0  0  0  0  0
    5.4270   -1.8550    6.6230 C   0  0  0  0  0
    5.2340   -3.0360    7.2450 N   0  0  0  0  0
    4.4890   -3.2080    8.3470 C   0  0  0  0  0
    3.9460   -2.3050    8.9480 O   0  0  0  0  0
    4.2950   -4.6510    8.7750 C   0  0  0  0  0
    5.3730   -5.5170    8.8170 C   0  0  0  0  0
    5.2170   -6.8560    9.1690 C   0  0  0  0  0
    3.0400   -5.1480    9.0690 C   0  0  0  0  0
    2.8700   -6.4870    9.4340 C   0  0  0  0  0
    3.9580   -7.3380    9.4890 C   0  0  0  0  0
    3.8030   -8.6110    9.8060 N   0  0  0  0  0
    3.7340   -9.1130   11.0270 C   0  0  0  0  0
    3.7980   -8.4520   12.0440 O   0  0  0  0  0
    3.5570  -10.6140   11.0050 C   0  0  0  0  0
    4.8260  -11.3500   11.4390 C   0  0  0  0  0
    4.6380  -12.6430   10.6500 C   0  0  0  0  0
    6.1000  -10.8200   10.7610 C   0  0  0  0  0
    5.9750  -11.3140    9.3150 C   0  0  0  0  0
    4.6120  -11.9850    9.2970 C   0  0  0  0  0
    3.4870  -10.9520    9.5200 C   0  0  0  0  0
    3.7610   -9.5900    8.8850 C   0  0  0  0  0
    3.7980   -9.4200    7.6710 O   0  0  0  0  0
    7.0377   -4.0970    3.0945 H   0  0  0  0  0
    7.4287   -2.0080    1.7918 H   0  0  0  0  0
    6.8149    0.2109    2.7689 H   0  0  0  0  0
    5.9255    1.4731    4.6501 H   0  0  0  0  0
    4.9447    1.5278    6.9273 H   0  0  0  0  0
    4.6491   -0.5866    8.1815 H   0  0  0  0  0
    5.6879   -3.8588    6.8483 H   0  0  0  0  0
    6.3666   -5.1435    8.5692 H   0  0  0  0  0
    6.0806   -7.5207    9.1925 H   0  0  0  0  0
    2.1731   -4.4893    9.0159 H   0  0  0  0  0
    1.8754   -6.8614    9.6762 H   0  0  0  0  0
    2.7127  -10.8860   11.6385 H   0  0  0  0  0
    4.9343  -11.3314   12.5234 H   0  0  0  0  0
    3.7794  -13.2604   10.9139 H   0  0  0  0  0
    5.3812  -13.4256   10.8028 H   0  0  0  0  0
    7.0084  -11.1780   11.2455 H   0  0  0  0  0
    6.1837   -9.7350   10.8238 H   0  0  0  0  0
    6.7812  -11.9896    9.0292 H   0  0  0  0  0
    6.0578  -10.5082    8.5857 H   0  0  0  0  0
    4.4522  -12.5651    8.3881 H   0  0  0  0  0
    2.5673  -11.3800    9.1211 H   0  0  0  0  0
  1  2  4  0  0  0
  1  6  4  0  0  0
  1 10  4  0  0  0
  2  3  4  0  0  0
  3  4  4  0  0  0
  4  5  4  0  0  0
  5  6  4  0  0  0
  6  7  4  0  0  0
  7  8  4  0  0  0
  8  9  4  0  0  0
  9 10  4  0  0  0
 10 11  1  0  0  0
 11 12  1  0  0  0
 12 13  2  0  0  0
 12 14  1  0  0  0
 14 15  4  0  0  0
 14 17  4  0  0  0
 15 16  4  0  0  0
 16 19  4  0  0  0
 17 18  4  0  0  0
 18 19  4  0  0  0
 19 20  1  0  0  0
 20 21  1  0  0  0
 20 30  1  0  0  0
 21 22  2  0  0  0
 21 23  1  0  0  0
 23 24  1  0  0  0
 23 29  1  0  0  0
 24 25  1  0  0  0
 24 26  1  0  0  0
 25 28  1  0  0  0
 26 27  1  0  0  0
 27 28  1  0  0  0
 28 29  1  0  0  0
 29 30  1  0  0  0
 30 31  2  0  0  0
  3 32  1  0  0  0
  4 33  1  0  0  0
  5 34  1  0  0  0
  7 35  1  0  0  0
  8 36  1  0  0  0
  9 37  1  0  0  0
 11 38  1  0  0  0
 15 39  1  0  0  0
 16 40  1  0  0  0
 17 41  1  0  0  0
 18 42  1  0  0  0
 23 43  1  0  0  0
 24 44  1  0  0  0
 25 45  1  0  0  0
 25 46  1  0  0  0
 26 47  1  0  0  0
 26 48  1  0  0  0
 27 49  1  0  0  0
 27 50  1  0  0  0
 28 51  1  0  0  0
 29 52  1  0  0  0
M  END
$$$$
