5xvk_ligand
  -I-interpret- 

 19 19  0  0  0  0  0  0  0  0999 V2000
   14.9590   19.6060   16.1810 C   0  0  0  0  0
   14.9460   18.5900   15.1130 C   0  0  0  0  0
   13.8500   18.5140   14.2810 C   0  0  0  0  0
   13.8250   17.5750   13.2730 C   0  0  0  0  0
   14.9030   16.7300   13.1240 C   0  0  0  0  0
   17.0580   15.9300   13.7600 C   0  0  0  0  0
   16.0070   17.7300   14.9330 C   0  0  0  0  0
   15.9430   16.8360   13.9480 N   0  0  0  0  0
   13.6930   20.0810   16.4280 N   0  0  0  0  0
   15.9790   19.9940   16.7180 O   0  0  0  0  0
   13.0082   19.1925   14.4195 H   0  0  0  0  0
   12.9670   17.5019   12.6048 H   0  0  0  0  0
   14.9042   15.9781   12.3349 H   0  0  0  0  0
   16.7123   14.9023   13.8716 H   0  0  0  0  0
   17.4729   16.0687   12.7616 H   0  0  0  0  0
   17.8247   16.1398   14.5058 H   0  0  0  0  0
   16.8805   17.7802   15.5831 H   0  0  0  0  0
   13.5514   20.8230   17.1134 H   0  0  0  0  0
   12.8952   19.6915   15.9258 H   0  0  0  0  0
  1  2  1  0  0  0
  1  9  1  0  0  0
  1 10  2  0  0  0
  2  3  4  0  0  0
  2  7  4  0  0  0
  3  4  4  0  0  0
  4  5  4  0  0  0
  5  8  4  0  0  0
  8  6  1  0  0  0
  7  8  4  0  0  0
  3 11  1  0  0  0
  4 12  1  0  0  0
  5 13  1  0  0  0
  6 14  1  0  0  0
  6 15  1  0  0  0
  6 16  1  0  0  0
  7 17  1  0  0  0
  9 18  1  0  0  0
  9 19  1  0  0  0
M  END
$$$$
