4c1t_ligand
  -I-interpret- 

 71 74  0  0  0  0  0  0  0  0999 V2000
   21.0420  112.1020   17.8470 O   0  0  0  0  0
   19.6570  111.9520   17.5710 C   0  0  0  0  0
   18.8450  113.0590   18.1960 C   0  0  0  0  0
   19.2770  114.3460   17.6700 O   0  0  0  0  0
   18.9740  113.2060   19.7080 C   0  0  0  0  0
   18.1330  112.3210   20.4270 O   0  0  0  0  0
   18.6480  114.6770   19.9280 C   0  0  0  0  0
   19.2930  115.1680   21.0940 O   0  0  0  0  0
   19.3110  115.3050   18.7070 C   0  0  0  0  0
   18.3510  117.4710   16.2240 C   0  0  0  0  0
   19.2880  117.1770   17.3620 C   0  0  0  0  0
   20.2680  118.1700   17.9610 C   0  0  0  0  0
   20.9070  118.9090   16.8010 C   0  0  0  0  0
   19.9690  119.1230   15.6350 C   0  0  0  0  0
   18.6100  116.4720   18.3470 O   0  0  0  0  0
   21.2540  117.5240   18.6950 O   0  0  0  0  0
   21.3830  120.1330   17.2420 O   0  0  0  0  0
   18.9990  118.2120   15.2560 O   0  0  0  0  0
   14.0980  115.8870   13.8840 C   0  0  0  0  0
   15.3650  115.4810   13.1710 C   0  0  0  0  0
   16.7300  115.3530   13.8090 C   0  0  0  0  0
   16.9090  116.5630   14.7030 C   0  0  0  0  0
   15.6260  117.0770   15.3150 C   0  0  0  0  0
   15.1620  114.4200   12.3040 O   0  0  0  0  0
   17.7100  115.3380   12.8280 O   0  0  0  0  0
   17.8020  116.2470   15.7120 O   0  0  0  0  0
   14.3670  116.9310   14.7520 O   0  0  0  0  0
    8.9180  112.9190   11.4800 O   0  0  0  0  0
    9.5370  114.1150   11.7950 C   0  0  0  0  0
   10.0770  114.0770   13.1970 C   0  0  0  0  0
   11.0570  115.0780   13.7640 C   0  0  0  0  0
   12.2000  115.0950   12.7630 C   0  0  0  0  0
   11.7140  115.0410   11.3290 C   0  0  0  0  0
    9.0840  113.7680   14.1130 O   0  0  0  0  0
   11.4680  114.6630   15.0220 O   0  0  0  0  0
   13.0380  116.1940   12.9500 O   0  0  0  0  0
   10.5770  114.3600   10.9140 O   0  0  0  0  0
   21.5286  111.3836   17.4362 H   0  0  0  0  0
   19.3231  111.0017   17.9876 H   0  0  0  0  0
   19.5146  111.9872   16.4909 H   0  0  0  0  0
   17.8183  112.7838   17.9547 H   0  0  0  0  0
   19.9607  112.9351   20.0837 H   0  0  0  0  0
   18.3922  111.4151   20.2435 H   0  0  0  0  0
   17.5834  114.8781   20.0479 H   0  0  0  0  0
   18.8848  114.7801   21.8715 H   0  0  0  0  0
   20.3438  115.5877   18.9108 H   0  0  0  0  0
   17.5143  118.0732   16.5781 H   0  0  0  0  0
   20.0418  116.6246   16.8010 H   0  0  0  0  0
   19.7470  118.8476   18.6374 H   0  0  0  0  0
   21.7211  118.2820   16.4374 H   0  0  0  0  0
   20.6431  119.1315   14.7785 H   0  0  0  0  0
   19.3827  119.9864   15.9493 H   0  0  0  0  0
   21.8574  118.1750   19.0607 H   0  0  0  0  0
   21.7876  120.6011   16.5079 H   0  0  0  0  0
   13.7359  115.0464   14.4759 H   0  0  0  0  0
   15.5055  116.4625   12.7182 H   0  0  0  0  0
   16.8125  114.4285   14.3804 H   0  0  0  0  0
   17.2847  117.3652   14.0679 H   0  0  0  0  0
   15.7704  118.1571   15.2888 H   0  0  0  0  0
   15.5460  116.4823   16.2250 H   0  0  0  0  0
   15.9908  114.1964   11.8742 H   0  0  0  0  0
   18.5730  115.2566   13.2406 H   0  0  0  0  0
    8.5799  112.9616   10.5825 H   0  0  0  0  0
    8.7968  114.9114   11.7180 H   0  0  0  0  0
   10.8052  113.2852   13.0210 H   0  0  0  0  0
   10.6372  116.0751   13.8972 H   0  0  0  0  0
   12.7769  114.1894   12.9507 H   0  0  0  0  0
   12.5140  114.4972   10.8267 H   0  0  0  0  0
   11.4567  116.0804   11.1254 H   0  0  0  0  0
    9.4591  113.7514   14.9965 H   0  0  0  0  0
   12.0903  115.3001   15.3804 H   0  0  0  0  0
  2  1  1  0  0  0
  3  2  1  0  0  0
  4  3  1  0  0  0
  5  3  1  0  0  0
  9  4  1  0  0  0
  5  6  1  0  0  0
  7  5  1  0  0  0
  7  8  1  0  0  0
  9  7  1  0  0  0
 15  9  1  0  0  0
 10 11  1  0  0  0
 10 18  1  0  0  0
 26 10  1  0  0  0
 11 12  1  0  0  0
 11 15  1  0  0  0
 12 13  1  0  0  0
 12 16  1  0  0  0
 14 13  1  0  0  0
 13 17  1  0  0  0
 18 14  1  0  0  0
 19 20  1  0  0  0
 19 27  1  0  0  0
 36 19  1  0  0  0
 20 21  1  0  0  0
 20 24  1  0  0  0
 21 22  1  0  0  0
 21 25  1  0  0  0
 23 22  1  0  0  0
 22 26  1  0  0  0
 27 23  1  0  0  0
 29 28  1  0  0  0
 30 29  1  0  0  0
 29 37  1  0  0  0
 31 30  1  0  0  0
 30 34  1  0  0  0
 32 31  1  0  0  0
 31 35  1  0  0  0
 32 33  1  0  0  0
 32 36  1  0  0  0
 33 37  1  0  0  0
  1 38  1  0  0  0
  2 39  1  0  0  0
  2 40  1  0  0  0
  3 41  1  0  0  0
  5 42  1  0  0  0
  6 43  1  0  0  0
  7 44  1  0  0  0
  8 45  1  0  0  0
  9 46  1  0  0  0
 10 47  1  0  0  0
 11 48  1  0  0  0
 12 49  1  0  0  0
 13 50  1  0  0  0
 14 51  1  0  0  0
 14 52  1  0  0  0
 16 53  1  0  0  0
 17 54  1  0  0  0
 19 55  1  0  0  0
 20 56  1  0  0  0
 21 57  1  0  0  0
 22 58  1  0  0  0
 23 59  1  0  0  0
 23 60  1  0  0  0
 24 61  1  0  0  0
 25 62  1  0  0  0
 28 63  1  0  0  0
 29 64  1  0  0  0
 30 65  1  0  0  0
 31 66  1  0  0  0
 32 67  1  0  0  0
 33 68  1  0  0  0
 33 69  1  0  0  0
 34 70  1  0  0  0
 35 71  1  0  0  0
M  END
$$$$
