1y6q_ligand
  -I-interpret- 

 39 41  0  0  0  0  0  0  0  0999 V2000
   53.7900   75.1190   21.0330 C   0  0  0  0  0
   55.6790   74.3550   19.8430 C   0  0  0  0  0
   54.8770   74.0900   18.7010 C   0  0  0  0  0
   53.4970   74.3660   18.7960 C   0  0  0  0  0
   56.5700   68.2030   23.2220 C   0  0  0  0  0
   55.7080   69.7770   23.5630 S   0  0  0  0  0
   56.9130   70.5670   22.4960 C   0  0  0  0  0
   58.2510   71.2650   22.3400 C   0  0  0  0  0
   58.5780   72.0500   21.0660 C   0  0  0  0  0
   58.8430   73.4480   21.5300 N   0  3  0  0  0
   58.2450   74.0610   20.3350 C   0  0  0  0  0
   57.0260   73.9740   19.4560 C   0  0  0  0  0
   56.9820   73.5270   18.1810 C   0  0  0  0  0
   55.7000   73.5930   17.7220 N   0  0  0  0  0
   52.6690   74.1190   17.7070 N   0  0  0  0  0
   52.9990   74.8770   19.9740 N   0  0  0  0  0
   55.1080   74.8660   20.9800 N   0  0  0  0  0
   57.8580   73.6670   22.6390 C   0  0  0  0  0
   57.8620   72.3290   23.4120 C   0  0  0  0  0
   59.1610   72.3450   24.0480 O   0  0  0  0  0
   53.3565   75.5258   21.9466 H   0  0  0  0  0
   56.5445   68.0008   22.1512 H   0  0  0  0  0
   57.6054   68.2778   23.5544 H   0  0  0  0  0
   56.0727   67.3944   23.7576 H   0  0  0  0  0
   56.3336   71.4840   22.3893 H   0  0  0  0  0
   57.2637   69.6288   22.0661 H   0  0  0  0  0
   59.1015   70.5843   22.3785 H   0  0  0  0  0
   57.7602   72.0113   20.3465 H   0  0  0  0  0
   59.4355   71.6291   20.5410 H   0  0  0  0  0
   59.7801   73.7282   21.8194 H   0  0  0  0  0
   58.9418   73.6286   19.6169 H   0  0  0  0  0
   57.9875   75.0109   20.8035 H   0  0  0  0  0
   57.8382   73.1695   17.6090 H   0  0  0  0  0
   53.0601   73.7400   16.8446 H   0  0  0  0  0
   51.6704   74.3168   17.7704 H   0  0  0  0  0
   56.8670   73.9259   22.2663 H   0  0  0  0  0
   58.1301   74.5111   23.2727 H   0  0  0  0  0
   56.9586   72.1753   24.0021 H   0  0  0  0  0
   59.1507   72.9677   24.7786 H   0  0  0  0  0
  1 16  4  0  0  0
 17  1  4  0  0  0
  2  3  4  0  0  0
 12  2  4  0  0  0
  2 17  4  0  0  0
  3  4  4  0  0  0
  3 14  4  0  0  0
  4 15  1  0  0  0
  4 16  4  0  0  0
  6  5  1  0  0  0
  7  6  1  0  0  0
  8  7  1  0  0  0
  9  8  1  0  0  0
  8 19  1  0  0  0
 10  9  1  0  0  0
 11 10  1  0  0  0
 10 18  1  0  0  0
 11 12  1  0  0  0
 12 13  4  0  0  0
 13 14  4  0  0  0
 18 19  1  0  0  0
 19 20  1  0  0  0
  1 21  1  0  0  0
  5 22  1  0  0  0
  5 23  1  0  0  0
  5 24  1  0  0  0
  7 25  1  0  0  0
  7 26  1  0  0  0
  8 27  1  0  0  0
  9 28  1  0  0  0
  9 29  1  0  0  0
 10 30  1  0  0  0
 11 31  1  0  0  0
 11 32  1  0  0  0
 13 33  1  0  0  0
 15 34  1  0  0  0
 15 35  1  0  0  0
 18 36  1  0  0  0
 18 37  1  0  0  0
 19 38  1  0  0  0
 20 39  1  0  0  0
M  END
$$$$
