1k1p_ligand
  -I-interpret- 

 63 65  0  0  0  0  0  0  0  0999 V2000
   40.2620   24.9760   55.8330 C   0  0  0  0  0
   39.0840   25.9120   55.3820 C   0  0  0  0  0
   37.7310   25.3530   55.9250 C   0  0  0  0  0
   37.7780   25.2940   57.4640 C   0  0  0  0  0
   38.9620   24.4070   57.9160 C   0  0  0  0  0
   40.3050   24.9610   57.3840 C   0  0  0  0  0
   42.7580   25.0960   56.0500 N   0  3  0  0  0
   41.6120   25.2920   55.1120 C   0  0  0  0  0
   41.7490   24.4670   53.8410 C   0  0  0  0  0
   42.3380   23.4110   53.8620 O   0  0  0  0  0
   41.0590   24.8760   52.7780 N   0  0  0  0  0
   41.3670   24.3570   51.3970 C   0  0  0  0  0
   42.8260   23.8700   51.1850 C   0  0  0  0  0
   43.7430   24.6850   51.3900 O   0  0  0  0  0
   43.0530   22.6320   50.7290 N   0  0  0  0  0
   44.4260   22.1590   50.4740 C   0  0  0  0  0
   44.7950   21.0400   51.4280 C   0  0  0  0  0
   45.0830   21.3600   52.7650 C   0  0  0  0  0
   45.4330   20.3360   53.6710 C   0  0  0  0  0
   45.5050   18.9900   53.2470 C   0  0  0  0  0
   45.2370   18.6750   51.9070 C   0  0  0  0  0
   44.8830   19.6920   51.0110 C   0  0  0  0  0
   45.8740   17.9020   54.2140 C   0  0  0  0  0
   46.6570   18.1780   55.2140 N   0  0  0  0  0
   45.4050   16.6840   54.0250 N   0  0  0  0  0
   41.0450   25.7450   50.8200 C   0  0  0  0  0
   41.2710   26.2580   52.2740 C   0  0  0  0  0
   44.0940   25.5280   55.5730 C   0  0  0  0  0
   45.2120   25.1060   56.4780 C   0  0  0  0  0
   45.0270   25.1420   57.7020 O   0  0  0  0  0
   46.3050   24.7400   55.9750 O   0  0  0  0  0
   40.0781   23.9523   55.5070 H   0  0  0  0  0
   39.0487   25.9496   54.2932 H   0  0  0  0  0
   39.2464   26.9142   55.7787 H   0  0  0  0  0
   37.5674   24.3509   55.5285 H   0  0  0  0  0
   36.9168   26.0066   55.6119 H   0  0  0  0  0
   36.8459   24.8704   57.8379 H   0  0  0  0  0
   37.9091   26.3009   57.8603 H   0  0  0  0  0
   38.8170   23.4019   57.5199 H   0  0  0  0  0
   38.9951   24.3967   59.0054 H   0  0  0  0  0
   40.4610   25.9727   57.7585 H   0  0  0  0  0
   41.1254   24.3291   57.7242 H   0  0  0  0  0
   42.8267   24.0897   56.2017 H   0  0  0  0  0
   42.5528   25.6713   56.8669 H   0  0  0  0  0
   41.6200   26.3389   54.8085 H   0  0  0  0  0
   40.8666   23.4685   51.0121 H   0  0  0  0  0
   42.2654   22.0075   50.5556 H   0  0  0  0  0
   45.1170   22.9890   50.6213 H   0  0  0  0  0
   44.4847   21.7838   49.4523 H   0  0  0  0  0
   45.0363   22.3956   53.1017 H   0  0  0  0  0
   45.6502   20.5862   54.7094 H   0  0  0  0  0
   45.3039   17.6426   51.5639 H   0  0  0  0  0
   44.6713   19.4391   49.9721 H   0  0  0  0  0
   47.0141   19.1257   55.3357 H   0  0  0  0  0
   45.6554   15.9352   54.6708 H   0  0  0  0  0
   44.7919   16.4908   53.2331 H   0  0  0  0  0
   40.1365   25.9533   50.2549 H   0  0  0  0  0
   41.5671   26.1621   49.9589 H   0  0  0  0  0
   42.1786   26.8044   52.5303 H   0  0  0  0  0
   40.6769   27.0840   52.6651 H   0  0  0  0  0
   44.0939   26.6174   55.5356 H   0  0  0  0  0
   44.2631   25.0630   54.6018 H   0  0  0  0  0
   46.2456   24.7823   55.0178 H   0  0  0  0  0
  1  2  1  0  0  0
  1  6  1  0  0  0
  1  8  1  0  0  0
  2  3  1  0  0  0
  3  4  1  0  0  0
  4  5  1  0  0  0
  5  6  1  0  0  0
  8  7  1  0  0  0
  7 28  1  0  0  0
  8  9  1  0  0  0
  9 10  2  0  0  0
  9 11  1  0  0  0
 11 12  1  0  0  0
 11 27  1  0  0  0
 12 13  1  0  0  0
 12 26  1  0  0  0
 13 14  2  0  0  0
 13 15  1  0  0  0
 15 16  1  0  0  0
 16 17  1  0  0  0
 17 18  4  0  0  0
 17 22  4  0  0  0
 18 19  4  0  0  0
 19 20  4  0  0  0
 20 21  4  0  0  0
 20 23  1  0  0  0
 21 22  4  0  0  0
 23 24  2  0  0  0
 23 25  1  0  0  0
 26 27  1  0  0  0
 28 29  1  0  0  0
 29 30  2  0  0  0
 29 31  1  0  0  0
  1 32  1  0  0  0
  2 33  1  0  0  0
  2 34  1  0  0  0
  3 35  1  0  0  0
  3 36  1  0  0  0
  4 37  1  0  0  0
  4 38  1  0  0  0
  5 39  1  0  0  0
  5 40  1  0  0  0
  6 41  1  0  0  0
  6 42  1  0  0  0
  7 43  1  0  0  0
  7 44  1  0  0  0
  8 45  1  0  0  0
 12 46  1  0  0  0
 15 47  1  0  0  0
 16 48  1  0  0  0
 16 49  1  0  0  0
 18 50  1  0  0  0
 19 51  1  0  0  0
 21 52  1  0  0  0
 22 53  1  0  0  0
 24 54  1  0  0  0
 25 55  1  0  0  0
 25 56  1  0  0  0
 26 57  1  0  0  0
 26 58  1  0  0  0
 27 59  1  0  0  0
 27 60  1  0  0  0
 28 61  1  0  0  0
 28 62  1  0  0  0
 31 63  1  0  0  0
M  END
$$$$
