4yhq_ligand
  -I-interpret- 

 75 78  0  0  0  0  0  0  0  0999 V2000
  -18.0230    0.0850   -6.4920 N   0  0  0  0  0
  -17.6380    0.0220   -5.1850 C   0  0  0  0  0
  -18.0380   -1.0480   -4.3970 C   0  0  0  0  0
  -17.6860   -1.1330   -3.0480 C   0  0  0  0  0
  -16.8660   -0.1740   -2.4350 C   0  0  0  0  0
  -16.4890    0.9100   -3.2500 C   0  0  0  0  0
  -16.8570    1.0240   -4.6280 C   0  0  0  0  0
  -16.4840   -0.2170   -0.8150 S   0  0  0  0  0
  -16.5810   -1.5760   -0.3580 O   0  0  0  0  0
  -15.2290    0.4640   -0.6020 O   0  0  0  0  0
  -17.5610    0.5810   -0.0080 N   0  0  0  0  0
  -17.5500    2.0700   -0.1410 C   0  0  0  0  0
  -18.0150    2.8660    1.0590 C   0  0  0  0  0
  -16.9780    2.7290    2.1810 C   0  0  0  0  0
  -18.1730    4.3620    0.8040 C   0  0  0  0  0
  -18.8380   -0.1160    0.2960 C   0  0  0  0  0
  -19.0980   -0.4140    1.7600 C   0  0  0  0  0
  -20.4920   -0.7600    1.8940 O   0  0  0  0  0
  -18.2270   -1.5680    2.2440 C   0  0  0  0  0
  -18.3230   -1.6660    3.7230 N   0  0  0  0  0
  -17.3730   -1.1410    4.5410 C   0  0  0  0  0
  -16.3310   -0.6330    4.2700 O   0  0  0  0  0
  -17.7110   -1.3240    5.8890 O   0  0  0  0  0
  -16.7470   -1.1070    6.9280 C   0  0  0  0  0
  -17.4530   -0.2560    7.9730 C   0  0  0  0  0
  -18.2420   -1.2170    8.6900 O   0  0  0  0  0
  -17.5870   -2.4880    8.6830 C   0  0  0  0  0
  -18.4870   -3.4230    8.0230 O   0  0  0  0  0
  -17.9900   -3.9800    6.8110 C   0  0  0  0  0
  -16.5090   -3.6740    6.8410 C   0  0  0  0  0
  -16.4260   -2.4020    7.7140 C   0  0  0  0  0
  -18.6050   -2.9680    1.7000 C   0  0  0  0  0
  -18.1170   -4.9340    3.2090 C   0  0  0  0  0
  -17.3130   -5.9150    3.7790 C   0  0  0  0  0
  -15.9570   -5.8930    3.4610 C   0  0  0  0  0
  -15.4300   -4.9450    2.5730 C   0  0  0  0  0
  -16.2790   -3.9690    1.9980 C   0  0  0  0  0
  -17.6290   -3.9930    2.2760 C   0  0  0  0  0
  -15.9970   -3.4950    5.6030 F   0  0  0  0  0
  -15.7040   -4.5000    7.4530 F   0  0  0  0  0
  -18.6040   -0.6536   -6.8887 H   0  0  0  0  0
  -17.7299    0.8707   -7.0727 H   0  0  0  0  0
  -18.6407   -1.8403   -4.8410 H   0  0  0  0  0
  -18.0590   -1.9680   -2.4549 H   0  0  0  0  0
  -15.8857    1.7033   -2.8087 H   0  0  0  0  0
  -16.5320    1.8763   -5.2247 H   0  0  0  0  0
  -18.2489    2.3038   -0.9441 H   0  0  0  0  0
  -16.5081    2.3485   -0.2992 H   0  0  0  0  0
  -18.9939    2.4597    1.3135 H   0  0  0  0  0
  -16.8756    1.6785    2.4531 H   0  0  0  0  0
  -16.0177    3.1113    1.8351 H   0  0  0  0  0
  -17.3065    3.3002    3.0493 H   0  0  0  0  0
  -17.2142    4.7803    0.4978 H   0  0  0  0  0
  -18.9081    4.5191    0.0147 H   0  0  0  0  0
  -18.5092    4.8516    1.7180 H   0  0  0  0  0
  -18.7891   -1.0805   -0.2095 H   0  0  0  0  0
  -19.6366    0.5515   -0.0278 H   0  0  0  0  0
  -18.8541    0.4589    2.3655 H   0  0  0  0  0
  -20.6853   -0.9542    2.8141 H   0  0  0  0  0
  -17.2306   -1.3268    1.8737 H   0  0  0  0  0
  -19.1252   -2.1411    4.1368 H   0  0  0  0  0
  -15.8474   -0.6923    6.4731 H   0  0  0  0  0
  -18.0530    0.5413    7.5343 H   0  0  0  0  0
  -16.7596    0.2862    8.6159 H   0  0  0  0  0
  -17.2988   -2.7704    9.6956 H   0  0  0  0  0
  -18.4793   -3.5575    5.9334 H   0  0  0  0  0
  -18.1873   -5.0496    6.7389 H   0  0  0  0  0
  -15.4223   -2.3592    8.1369 H   0  0  0  0  0
  -18.5482   -2.9715    0.6115 H   0  0  0  0  0
  -19.6240   -3.2186    1.9948 H   0  0  0  0  0
  -19.1680   -4.8895    3.4944 H   0  0  0  0  0
  -17.7269   -6.6702    4.4472 H   0  0  0  0  0
  -15.2914   -6.6288    3.9124 H   0  0  0  0  0
  -14.3685   -4.9593    2.3257 H   0  0  0  0  0
  -15.8680   -3.2036    1.3398 H   0  0  0  0  0
  2  1  1  0  0  0
  3  2  4  0  0  0
  7  2  4  0  0  0
  4  3  4  0  0  0
  5  4  4  0  0  0
  5  6  4  0  0  0
  8  5  1  0  0  0
  6  7  4  0  0  0
  8  9  2  0  0  0
  8 10  2  0  0  0
 11  8  1  0  0  0
 11 12  1  0  0  0
 16 11  1  0  0  0
 12 13  1  0  0  0
 13 14  1  0  0  0
 13 15  1  0  0  0
 17 16  1  0  0  0
 17 18  1  0  0  0
 19 17  1  0  0  0
 19 20  1  0  0  0
 32 19  1  0  0  0
 20 21  1  0  0  0
 21 22  2  0  0  0
 21 23  1  0  0  0
 23 24  1  0  0  0
 24 25  1  0  0  0
 24 31  1  0  0  0
 25 26  1  0  0  0
 27 26  1  0  0  0
 27 28  1  0  0  0
 31 27  1  0  0  0
 29 28  1  0  0  0
 30 29  1  0  0  0
 31 30  1  0  0  0
 30 39  1  0  0  0
 30 40  1  0  0  0
 38 32  1  0  0  0
 33 34  4  0  0  0
 33 38  4  0  0  0
 34 35  4  0  0  0
 35 36  4  0  0  0
 36 37  4  0  0  0
 37 38  4  0  0  0
  1 41  1  0  0  0
  1 42  1  0  0  0
  3 43  1  0  0  0
  4 44  1  0  0  0
  6 45  1  0  0  0
  7 46  1  0  0  0
 12 47  1  0  0  0
 12 48  1  0  0  0
 13 49  1  0  0  0
 14 50  1  0  0  0
 14 51  1  0  0  0
 14 52  1  0  0  0
 15 53  1  0  0  0
 15 54  1  0  0  0
 15 55  1  0  0  0
 16 56  1  0  0  0
 16 57  1  0  0  0
 17 58  1  0  0  0
 18 59  1  0  0  0
 19 60  1  0  0  0
 20 61  1  0  0  0
 24 62  1  0  0  0
 25 63  1  0  0  0
 25 64  1  0  0  0
 27 65  1  0  0  0
 29 66  1  0  0  0
 29 67  1  0  0  0
 31 68  1  0  0  0
 32 69  1  0  0  0
 32 70  1  0  0  0
 33 71  1  0  0  0
 34 72  1  0  0  0
 35 73  1  0  0  0
 36 74  1  0  0  0
 37 75  1  0  0  0
M  END
$$$$
