3ayd_ligand
  -I-interpret- 

 63 65  0  0  0  0  0  0  0  0999 V2000
  -22.0540   19.4680   28.8190 C   0  0  0  0  0
  -23.0920   19.9870   28.0530 C   0  0  0  0  0
  -23.4370   19.3930   26.8440 C   0  0  0  0  0
  -22.7360   18.2790   26.3940 C   0  0  0  0  0
  -21.6800   17.7770   27.1480 C   0  0  0  0  0
  -21.3410   18.3650   28.3610 C   0  0  0  0  0
  -23.0400   17.6700   25.2160 O   0  0  0  0  0
  -21.8030   19.9560   30.0310 N   0  0  0  0  0
  -22.5520   21.0690   30.4980 O   0  0  0  0  0
  -20.8080   19.3270   30.8280 O   0  0  0  0  0
  -24.0030   19.2650   23.7290 O   0  0  0  0  0
  -24.2480   18.1540   24.6080 C   0  0  0  0  0
  -24.8520   17.0030   23.8210 C   0  0  0  0  0
  -25.0500   15.8450   24.7050 N   0  0  0  0  0
  -23.8740   16.5870   22.7370 C   0  0  0  0  0
  -24.4680   15.5020   22.0110 O   0  0  0  0  0
  -23.6050   17.7830   21.8360 C   0  0  0  0  0
  -24.8130   18.1800   21.1690 O   0  0  0  0  0
  -23.0760   18.9330   22.6820 C   0  0  0  0  0
  -22.9030   20.1680   21.7950 C   0  0  0  0  0
  -22.4530   21.2670   22.5920 O   0  0  0  0  0
  -26.1060   15.7320   25.5200 C   0  0  0  0  0
  -27.1170   16.6340   25.6470 O   0  0  0  0  0
  -26.1030   14.5500   26.4910 C   0  0  0  0  0
  -23.5020   14.7890   21.2270 C   0  0  0  0  0
  -24.0200   13.3720   21.0330 C   0  0  0  0  0
  -23.1230   12.6060   20.0760 C   0  0  0  0  0
  -23.0210   13.3860   18.7770 C   0  0  0  0  0
  -22.4830   14.7730   19.0880 C   0  0  0  0  0
  -22.3510   15.5870   17.7990 C   0  0  0  0  0
  -24.0670   12.6930   22.2960 O   0  0  0  0  0
  -23.7080   11.3200   19.8220 O   0  0  0  0  0
  -24.3260   13.5000   18.1920 O   0  0  0  0  0
  -23.3970   15.4540   19.9590 O   0  0  0  0  0
  -21.8610   16.8900   18.1250 O   0  0  0  0  0
  -23.6378   20.8636   28.4019 H   0  0  0  0  0
  -24.2554   19.7996   26.2499 H   0  0  0  0  0
  -21.1154   16.9179   26.7855 H   0  0  0  0  0
  -20.5182   17.9626   28.9520 H   0  0  0  0  0
  -24.9244   18.5084   25.3858 H   0  0  0  0  0
  -25.8036   17.3221   23.3960 H   0  0  0  0  0
  -24.3553   15.0982   24.6970 H   0  0  0  0  0
  -22.9212   16.2588   23.1524 H   0  0  0  0  0
  -22.8655   17.5121   21.0825 H   0  0  0  0  0
  -24.6320   18.9346   20.6038 H   0  0  0  0  0
  -22.1263   18.6277   23.1213 H   0  0  0  0  0
  -23.8574   20.4205   21.3330 H   0  0  0  0  0
  -22.1683   19.9575   21.0178 H   0  0  0  0  0
  -22.3446   22.0414   22.0351 H   0  0  0  0  0
  -26.0379   14.9217   27.5136 H   0  0  0  0  0
  -27.0231   13.9786   26.3686 H   0  0  0  0  0
  -25.2459   13.9105   26.2802 H   0  0  0  0  0
  -22.5248   14.7590   21.7089 H   0  0  0  0  0
  -25.0236   13.4234   20.6109 H   0  0  0  0  0
  -22.1296   12.4758   20.5053 H   0  0  0  0  0
  -22.3560   12.8752   18.0806 H   0  0  0  0  0
  -21.5069   14.6715   19.5624 H   0  0  0  0  0
  -23.3231   15.6689   17.3127 H   0  0  0  0  0
  -21.6585   15.0915   17.1186 H   0  0  0  0  0
  -24.3946   11.8000   22.1660 H   0  0  0  0  0
  -23.1472   10.8284   19.2175 H   0  0  0  0  0
  -24.2652   13.9927   17.3703 H   0  0  0  0  0
  -21.7749   17.4085   17.3217 H   0  0  0  0  0
  1  2  4  0  0  0
  1  6  4  0  0  0
  1  8  1  0  0  0
  2  3  4  0  0  0
  3  4  4  0  0  0
  4  5  4  0  0  0
  4  7  1  0  0  0
  5  6  4  0  0  0
  7 12  1  0  0  0
  8  9  2  0  0  0
  8 10  2  0  0  0
 12 11  1  0  0  0
 11 19  1  0  0  0
 12 13  1  0  0  0
 13 14  1  0  0  0
 13 15  1  0  0  0
 14 22  1  0  0  0
 15 16  1  0  0  0
 15 17  1  0  0  0
 16 25  1  0  0  0
 17 18  1  0  0  0
 17 19  1  0  0  0
 19 20  1  0  0  0
 20 21  1  0  0  0
 22 23  2  0  0  0
 22 24  1  0  0  0
 25 26  1  0  0  0
 25 34  1  0  0  0
 26 27  1  0  0  0
 26 31  1  0  0  0
 27 28  1  0  0  0
 27 32  1  0  0  0
 28 29  1  0  0  0
 28 33  1  0  0  0
 29 30  1  0  0  0
 29 34  1  0  0  0
 30 35  1  0  0  0
  2 36  1  0  0  0
  3 37  1  0  0  0
  5 38  1  0  0  0
  6 39  1  0  0  0
 12 40  1  0  0  0
 13 41  1  0  0  0
 14 42  1  0  0  0
 15 43  1  0  0  0
 17 44  1  0  0  0
 18 45  1  0  0  0
 19 46  1  0  0  0
 20 47  1  0  0  0
 20 48  1  0  0  0
 21 49  1  0  0  0
 24 50  1  0  0  0
 24 51  1  0  0  0
 24 52  1  0  0  0
 25 53  1  0  0  0
 26 54  1  0  0  0
 27 55  1  0  0  0
 28 56  1  0  0  0
 29 57  1  0  0  0
 30 58  1  0  0  0
 30 59  1  0  0  0
 31 60  1  0  0  0
 32 61  1  0  0  0
 33 62  1  0  0  0
 35 63  1  0  0  0
M  END
$$$$
