1q5k_ligand
  -I-interpret- 

 33 34  0  0  0  0  0  0  0  0999 V2000
   22.4890   23.5710    6.7560 C   0  0  0  0  0
   21.5370   24.4340    7.9290 S   0  0  0  0  0
   21.6340   23.3800    5.7730 N   0  0  0  0  0
   23.8170   23.1860    6.8220 N   0  0  0  0  0
   20.0340   24.4850    6.9870 C   0  0  0  0  0
   20.4050   23.8240    5.8600 C   0  0  0  0  0
   24.6410   23.5450    7.8400 C   0  0  0  0  0
   18.7490   25.0910    7.3530 N   0  0  0  0  0
   25.9330   23.1230    7.7830 N   0  0  0  0  0
   24.2360   24.2330    8.7800 O   0  0  0  0  0
   17.9620   25.4350    6.4810 O   0  0  0  0  0
   18.4810   25.2650    8.5270 O   0  0  0  0  0
   26.9180   23.4530    8.8270 C   0  0  0  0  0
   26.9360   22.3610    9.8650 C   0  0  0  0  0
   26.8230   21.0020    9.4750 C   0  0  0  0  0
   27.0620   22.7010   11.2270 C   0  0  0  0  0
   26.8360   19.9850   10.4500 C   0  0  0  0  0
   27.0760   21.6910   12.2070 C   0  0  0  0  0
   26.9640   20.3240   11.8250 C   0  0  0  0  0
   26.9710   19.3380   12.7790 O   0  0  0  0  0
   28.3340   18.9430   13.0220 C   0  0  0  0  0
   24.1937   22.6064    6.0720 H   0  0  0  0  0
   19.6963   23.6667    5.0469 H   0  0  0  0  0
   26.2305   22.5573    6.9881 H   0  0  0  0  0
   26.6450   24.3972    9.2982 H   0  0  0  0  0
   27.9070   23.5430    8.3776 H   0  0  0  0  0
   26.7260   20.7443    8.4204 H   0  0  0  0  0
   27.1487   23.7469   11.5215 H   0  0  0  0  0
   26.7481   18.9405   10.1509 H   0  0  0  0  0
   27.1727   21.9557   13.2599 H   0  0  0  0  0
   28.7727   18.5683   12.0972 H   0  0  0  0  0
   28.9033   19.8037   13.3731 H   0  0  0  0  0
   28.3543   18.1590   13.7790 H   0  0  0  0  0
  1  2  4  0  0  0
  1  3  4  0  0  0
  1  4  1  0  0  0
  2  5  4  0  0  0
  3  6  4  0  0  0
  4  7  1  0  0  0
  5  6  4  0  0  0
  5  8  1  0  0  0
  7  9  1  0  0  0
  7 10  2  0  0  0
  8 11  2  0  0  0
  8 12  2  0  0  0
  9 13  1  0  0  0
 13 14  1  0  0  0
 14 15  4  0  0  0
 14 16  4  0  0  0
 15 17  4  0  0  0
 16 18  4  0  0  0
 17 19  4  0  0  0
 18 19  4  0  0  0
 19 20  1  0  0  0
 20 21  1  0  0  0
  4 22  1  0  0  0
  6 23  1  0  0  0
  9 24  1  0  0  0
 13 25  1  0  0  0
 13 26  1  0  0  0
 15 27  1  0  0  0
 16 28  1  0  0  0
 17 29  1  0  0  0
 18 30  1  0  0  0
 21 31  1  0  0  0
 21 32  1  0  0  0
 21 33  1  0  0  0
M  END
$$$$
