4pns_ligand
  -I-interpret- 

 19 20  0  0  0  0  0  0  0  0999 V2000
   24.3190   46.4360   -0.7540 C   0  0  0  0  0
   25.1980   47.5000   -0.2250 C   0  0  0  0  0
   26.3410   47.2820    0.5910 C   0  0  0  0  0
   28.2410   48.1330    1.9200 N   0  0  0  0  0
   27.1390   48.3340    1.0970 C   0  0  0  0  0
   26.7400   49.7050    0.7860 C   0  0  0  0  0
   25.6340   49.9640   -0.0020 C   0  0  0  0  0
   24.8710   48.8630   -0.5340 C   0  0  0  0  0
   23.7400   49.2180   -1.3290 O   0  0  0  0  0
   22.8980   48.1550   -1.8190 C   0  0  0  0  0
   22.0030   48.5240   -2.5310 O   0  0  0  0  0
   23.1960   46.7800   -1.4330 C   0  0  0  0  0
   26.7980   45.3670    1.1200 I   0  0  0  0  0
   24.5703   45.3866   -0.6003 H   0  0  0  0  0
   28.5109   47.1868    2.1889 H   0  0  0  0  0
   28.7798   48.9317    2.2550 H   0  0  0  0  0
   27.3235   50.5364    1.1815 H   0  0  0  0  0
   25.3417   50.9914   -0.2190 H   0  0  0  0  0
   22.4871   45.9967   -1.7012 H   0  0  0  0  0
  1  2  1  0  0  0
  1 12  2  0  0  0
  2  3  4  0  0  0
  2  8  4  0  0  0
  3  5  4  0  0  0
  3 13  1  0  0  0
  5  4  1  0  0  0
  5  6  4  0  0  0
  6  7  4  0  0  0
  7  8  4  0  0  0
  8  9  1  0  0  0
  9 10  1  0  0  0
 10 11  2  0  0  0
 10 12  1  0  0  0
  1 14  1  0  0  0
  4 15  1  0  0  0
  4 16  1  0  0  0
  6 17  1  0  0  0
  7 18  1  0  0  0
 12 19  1  0  0  0
M  END
$$$$
