5w6o_ligand
  -I-interpret- 

 92 99  0  0  0  0  0  0  0  0999 V2000
   -2.7950  -17.5420   31.9830 C   0  0  0  0  0
   -2.1180  -16.6390   32.8160 C   0  0  0  0  0
   -0.9740  -17.0310   33.5070 C   0  0  0  0  0
   -0.5010  -18.3310   33.3910 C   0  0  0  0  0
   -1.1600  -19.2380   32.5760 C   0  0  0  0  0
   -2.2960  -18.8490   31.8690 C   0  0  0  0  0
   -3.7290  -12.9040   24.7380 C   0  0  0  0  0
   -6.0640  -13.3030   25.0860 C   0  0  0  0  0
   -5.9070  -12.9820   26.4420 C   0  0  0  0  0
   -5.0530  -13.5330   22.8670 C   0  0  0  0  0
   -5.2740  -14.7570   22.2200 C   0  0  0  0  0
   -5.1550  -13.6470   18.6180 C   0  0  0  0  0
   -5.4000  -12.2700   17.9770 N   0  0  0  0  0
   -4.2700  -11.5380   17.5120 C   0  0  0  0  0
   -4.4120  -10.2740   16.9410 C   0  0  0  0  0
   -5.6760   -9.6880   16.7700 C   0  0  0  0  0
   -6.8080  -10.4170   17.2490 C   0  0  0  0  0
    0.8810  -18.8210   34.2360 Cl  0  0  0  0  0
   -3.8670  -17.1840   31.2690 N   0  0  0  0  0
   -4.9460  -18.2090   31.1700 C   0  0  0  0  0
   -3.9330  -15.9880   30.5590 C   0  0  0  0  0
   -5.1790  -15.3990   30.3320 C   0  0  0  0  0
   -5.3200  -14.2230   29.6320 C   0  0  0  0  0
   -2.7820  -15.3010   30.0200 C   0  0  0  0  0
   -1.4380  -15.7430   30.1360 C   0  0  0  0  0
   -0.3470  -15.0530   29.6260 C   0  0  0  0  0
   -0.5450  -13.8740   28.9430 C   0  0  0  0  0
   -1.8370  -13.4050   28.8030 C   0  0  0  0  0
   -2.9660  -14.0780   29.3120 C   0  0  0  0  0
   -4.2140  -13.5550   29.1270 N   0  0  0  0  0
   -4.5230  -12.2920   28.3620 C   0  0  0  0  0
   -4.6610  -12.6100   26.9710 C   0  0  0  0  0
   -3.5740  -12.5820   26.0850 C   0  0  0  0  0
   -4.9690  -13.2860   24.2310 C   0  0  0  0  0
   -4.8750  -12.3930   22.0970 C   0  0  0  0  0
   -4.9030  -12.4410   20.7160 C   0  0  0  0  0
   -5.3100  -14.8000   20.8010 C   0  0  0  0  0
   -5.1290  -13.6370   20.0350 C   0  0  0  0  0
   -6.6350  -11.7010   17.8510 C   0  0  0  0  0
   -7.7720  -12.3950   18.3030 C   0  0  0  0  0
   -9.0540  -11.8570   18.2010 C   0  0  0  0  0
   -9.2380  -10.6130   17.6150 C   0  0  0  0  0
   -8.1290   -9.9130   17.1530 C   0  0  0  0  0
   -5.8320   -8.4200   16.2230 N   0  0  0  0  0
   -6.5230   -7.3730   17.0400 C   0  0  0  0  0
   -5.2540   -7.9730   15.0560 C   0  0  0  0  0
   -5.4540   -6.6240   14.6450 C   0  0  0  0  0
   -4.8920   -6.0950   13.4940 C   0  0  0  0  0
   -4.1020   -6.8950   12.6930 C   0  0  0  0  0
   -3.4700   -6.2380   11.3300 Cl  0  0  0  0  0
   -3.8670   -8.2200   13.0510 C   0  0  0  0  0
   -4.4280   -8.7490   14.2140 C   0  0  0  0  0
   -2.4909  -15.6204   32.9236 H   0  0  0  0  0
   -0.4491  -16.3156   34.1401 H   0  0  0  0  0
   -0.7884  -20.2589   32.4878 H   0  0  0  0  0
   -2.8015  -19.5658   31.2219 H   0  0  0  0  0
   -2.8677  -12.8563   24.0717 H   0  0  0  0  0
   -7.0491  -13.5669   24.7012 H   0  0  0  0  0
   -6.7738  -13.0223   27.1016 H   0  0  0  0  0
   -5.4170  -15.6679   22.8012 H   0  0  0  0  0
   -4.1749  -13.9861   18.2825 H   0  0  0  0  0
   -5.9815  -14.2911   18.3178 H   0  0  0  0  0
   -3.2754  -11.9743   17.6043 H   0  0  0  0  0
   -3.5235   -9.7298   16.6209 H   0  0  0  0  0
   -5.6113   -9.4346   15.7118 H   0  0  0  0  0
   -5.8895  -17.7746   31.5004 H   0  0  0  0  0
   -5.0388  -18.5382   30.1350 H   0  0  0  0  0
   -4.6954  -19.0607   31.8024 H   0  0  0  0  0
   -6.0710  -15.8883   30.7232 H   0  0  0  0  0
   -5.7371  -13.5293   30.3620 H   0  0  0  0  0
   -5.8836  -14.5099   28.7442 H   0  0  0  0  0
   -1.2514  -16.6818   30.6575 H   0  0  0  0  0
    0.6614  -15.4425   29.7655 H   0  0  0  0  0
    0.2971  -13.3240   28.5229 H   0  0  0  0  0
   -1.9912  -12.4660   28.2714 H   0  0  0  0  0
   -3.7139  -11.5741   28.4961 H   0  0  0  0  0
   -5.4505  -11.8556   28.7328 H   0  0  0  0  0
   -2.5884  -12.3028   26.4575 H   0  0  0  0  0
   -4.7091  -11.4366   22.5929 H   0  0  0  0  0
   -4.7451  -11.5248   20.1471 H   0  0  0  0  0
   -5.4810  -15.7517   20.2979 H   0  0  0  0  0
   -7.6469  -13.3829   18.7462 H   0  0  0  0  0
   -9.9109  -12.4131   18.5812 H   0  0  0  0  0
  -10.2380  -10.1903   17.5181 H   0  0  0  0  0
   -8.2823   -8.9347   16.6975 H   0  0  0  0  0
   -7.5350   -7.7045   17.2723 H   0  0  0  0  0
   -5.9703   -7.2129   17.9657 H   0  0  0  0  0
   -6.5650   -6.4420   16.4747 H   0  0  0  0  0
   -6.0773   -5.9785   15.2638 H   0  0  0  0  0
   -5.0724   -5.0547   13.2231 H   0  0  0  0  0
   -3.2403   -8.8485   12.4182 H   0  0  0  0  0
   -4.2236   -9.7864   14.4788 H   0  0  0  0  0
  1  2  4  0  0  0
  1  6  4  0  0  0
 19  1  1  0  0  0
  2  3  4  0  0  0
  3  4  4  0  0  0
  5  4  4  0  0  0
  4 18  1  0  0  0
  6  5  4  0  0  0
  7 33  4  0  0  0
 34  7  4  0  0  0
  8  9  4  0  0  0
 34  8  4  0  0  0
  9 32  4  0  0  0
 10 11  4  0  0  0
 10 34  1  0  0  0
 35 10  4  0  0  0
 11 37  4  0  0  0
 12 13  1  0  0  0
 38 12  1  0  0  0
 13 14  1  0  0  0
 13 39  1  0  0  0
 14 15  2  0  0  0
 15 16  1  0  0  0
 17 16  1  0  0  0
 16 44  1  0  0  0
 39 17  4  0  0  0
 17 43  4  0  0  0
 19 20  1  0  0  0
 21 19  1  0  0  0
 22 21  2  0  0  0
 24 21  1  0  0  0
 23 22  1  0  0  0
 30 23  1  0  0  0
 24 25  4  0  0  0
 29 24  4  0  0  0
 25 26  4  0  0  0
 27 26  4  0  0  0
 28 27  4  0  0  0
 29 28  4  0  0  0
 30 29  1  0  0  0
 31 30  1  0  0  0
 32 31  1  0  0  0
 33 32  4  0  0  0
 36 35  4  0  0  0
 36 38  4  0  0  0
 37 38  4  0  0  0
 39 40  4  0  0  0
 40 41  4  0  0  0
 41 42  4  0  0  0
 42 43  4  0  0  0
 44 45  1  0  0  0
 44 46  1  0  0  0
 46 47  4  0  0  0
 46 52  4  0  0  0
 47 48  4  0  0  0
 48 49  4  0  0  0
 49 50  1  0  0  0
 49 51  4  0  0  0
 51 52  4  0  0  0
  2 53  1  0  0  0
  3 54  1  0  0  0
  5 55  1  0  0  0
  6 56  1  0  0  0
  7 57  1  0  0  0
  8 58  1  0  0  0
  9 59  1  0  0  0
 11 60  1  0  0  0
 12 61  1  0  0  0
 12 62  1  0  0  0
 14 63  1  0  0  0
 15 64  1  0  0  0
 16 65  1  0  0  0
 20 66  1  0  0  0
 20 67  1  0  0  0
 20 68  1  0  0  0
 22 69  1  0  0  0
 23 70  1  0  0  0
 23 71  1  0  0  0
 25 72  1  0  0  0
 26 73  1  0  0  0
 27 74  1  0  0  0
 28 75  1  0  0  0
 31 76  1  0  0  0
 31 77  1  0  0  0
 33 78  1  0  0  0
 35 79  1  0  0  0
 36 80  1  0  0  0
 37 81  1  0  0  0
 40 82  1  0  0  0
 41 83  1  0  0  0
 42 84  1  0  0  0
 43 85  1  0  0  0
 45 86  1  0  0  0
 45 87  1  0  0  0
 45 88  1  0  0  0
 47 89  1  0  0  0
 48 90  1  0  0  0
 51 91  1  0  0  0
 52 92  1  0  0  0
M  END
$$$$
