5xs2_ligand
  -I-interpret- 

 22 23  0  0  0  0  0  0  0  0999 V2000
    8.3130   26.7100  -10.1040 C   0  0  0  0  0
    8.3330   27.1110   -8.7570 C   0  0  0  0  0
    4.7520   22.1760  -12.3600 N   0  0  0  0  0
    5.8120   23.0630  -12.7020 C   0  0  0  0  0
    6.3340   22.9840  -13.8020 O   0  0  0  0  0
    6.2140   24.0920  -11.7010 C   0  0  0  0  0
    7.3860   24.8370  -11.6760 C   0  0  0  0  0
    8.6640   24.6880  -12.8400 Cl  0  0  0  0  0
    7.3540   25.6550  -10.5620 C   0  0  0  0  0
    6.1310   25.4170   -9.9390 C   0  0  0  0  0
    5.4620   24.4600  -10.6280 N   0  0  0  0  0
    9.1080   27.4190  -11.0220 C   0  0  0  0  0
    9.9340   28.4470  -10.5640 C   0  0  0  0  0
    9.9440   28.7800   -9.2490 N   0  0  0  0  0
    9.1820   28.1350   -8.3370 C   0  0  0  0  0
    7.6807   26.6185   -8.0358 H   0  0  0  0  0
    4.4328   21.4792  -13.0331 H   0  0  0  0  0
    4.3118   22.2374  -11.4419 H   0  0  0  0  0
    5.7699   25.9195   -9.0417 H   0  0  0  0  0
    9.0795   27.1680  -12.0823 H   0  0  0  0  0
   10.5729   28.9838  -11.2652 H   0  0  0  0  0
    9.2307   28.4125   -7.2840 H   0  0  0  0  0
  1  2  4  0  0  0
  9  1  1  0  0  0
  1 12  4  0  0  0
  2 15  4  0  0  0
  4  3  1  0  0  0
  4  5  2  0  0  0
  6  4  1  0  0  0
  7  6  4  0  0  0
  6 11  4  0  0  0
  7  8  1  0  0  0
  7  9  4  0  0  0
  9 10  4  0  0  0
 10 11  4  0  0  0
 12 13  4  0  0  0
 13 14  4  0  0  0
 14 15  4  0  0  0
  2 16  1  0  0  0
  3 17  1  0  0  0
  3 18  1  0  0  0
 10 19  1  0  0  0
 12 20  1  0  0  0
 13 21  1  0  0  0
 15 22  1  0  0  0
M  END
$$$$
