3f9w_ligand
  -I-interpret- 

155155  0  0  0  0  0  0  0  0999 V2000
   -9.6120   12.7620   -8.8880 N   0  3  0  0  0
   -9.2940   11.4880   -8.1890 C   0  0  0  0  0
   -8.1310   10.7740   -8.8910 C   0  0  0  0  0
   -8.2420   10.3640  -10.0500 O   0  0  0  0  0
  -10.5220   10.5900   -8.1310 C   0  0  0  0  0
   -7.0110   10.6590   -8.1850 N   0  0  0  0  0
   -5.8130   10.0320   -8.7360 C   0  0  0  0  0
   -5.6280    8.6730   -8.0820 C   0  0  0  0  0
   -6.1500    8.4340   -6.9930 O   0  0  0  0  0
   -4.5870   10.9150   -8.4700 C   0  0  0  0  0
   -4.5950   12.2540   -9.2180 C   0  0  0  0  0
   -3.4820   13.1930   -8.7570 C   0  0  0  0  0
   -2.1570   12.5660   -8.8030 N   0  0  0  0  0
   -1.3860   12.4500   -9.8830 C   0  0  0  0  0
   -1.7820   12.9110  -11.0700 N   0  0  0  0  0
   -0.2060   11.8430   -9.7720 N   0  0  0  0  0
   -4.9090    7.7750   -8.7510 N   0  0  0  0  0
   -4.4320    6.5460   -8.1230 C   0  0  0  0  0
   -2.9060    6.5720   -8.1160 C   0  0  0  0  0
   -2.2840    7.4790   -8.6780 O   0  0  0  0  0
   -4.9140    5.3010   -8.8720 C   0  0  0  0  0
   -4.2910    5.1540  -10.2260 C   0  0  0  0  0
   -3.0670    4.5460  -10.4240 N   0  0  0  0  0
   -4.6910    5.6000  -11.4390 C   0  0  0  0  0
   -2.7600    4.5950  -11.7090 C   0  0  0  0  0
   -3.7200    5.2470  -12.3430 N   0  0  0  0  0
   -2.3060    5.5710   -7.4840 N   0  0  0  0  0
   -0.8540    5.4470   -7.4660 C   0  0  0  0  0
   -0.4280    4.1520   -8.1270 C   0  0  0  0  0
   -1.2610    3.3000   -8.4740 O   0  0  0  0  0
   -0.3670    5.4410   -6.0220 C   0  0  0  0  0
   -0.4400    6.8000   -5.3630 C   0  0  0  0  0
   -0.1790    6.6630   -3.8640 C   0  0  0  0  0
   -0.3800    7.9510   -3.2070 N   0  0  0  0  0
   -0.9840    8.1050   -2.0340 C   0  0  0  0  0
   -1.4500    7.0500   -1.3680 N   0  0  0  0  0
   -1.1230    9.3230   -1.5310 N   0  0  0  0  0
    0.8860    4.0160   -8.3020 N   0  0  0  0  0
    1.5110    2.7130   -8.5250 C   0  0  0  0  0
    2.3160    2.4750   -7.2370 C   0  0  0  0  0
    2.9790    3.3960   -6.7290 O   0  0  0  0  0
    2.3980    2.7220   -9.7870 C   0  0  0  0  0
    1.6060    3.0060  -11.0750 C   0  0  0  0  0
    2.4970    3.3360  -12.2810 C   0  0  0  0  0
    1.6480    3.8260  -13.4570 C   0  0  0  0  0
    2.4850    4.1620  -14.6420 N   0  3  0  0  0
    2.2000    1.2770   -6.6720 N   0  0  0  0  0
    2.7790    0.9950   -5.3330 C   0  0  0  0  0
    3.4230   -0.3740   -5.3140 C   0  0  0  0  0
    2.7980   -1.3600   -5.7000 O   0  0  0  0  0
    1.7050    1.0290   -4.2130 C   0  0  0  0  0
    2.3900    1.0080   -2.8450 C   0  0  0  0  0
    0.8320    2.2500   -4.3220 C   0  0  0  0  0
    4.6840   -0.4530   -4.8780 N   0  0  0  0  0
    5.3430   -1.7590   -4.8510 C   0  0  0  0  0
    4.8110   -2.5950   -3.6920 C   0  0  0  0  0
    4.7030   -2.0860   -2.5940 O   0  0  0  0  0
    6.8630   -1.6080   -4.7530 C   0  0  0  0  0
    7.6920   -2.8850   -4.8830 C   0  0  0  0  0
    7.4830   -3.5360   -6.2460 C   0  0  0  0  0
    9.1690   -2.5960   -4.6650 C   0  0  0  0  0
    4.4770   -3.8570   -3.9740 N   0  0  0  0  0
    3.9500   -4.8190   -2.9850 C   0  0  0  0  0
    4.7810   -6.1100   -3.0080 C   0  0  0  0  0
    5.9880   -6.0700   -3.2350 O   0  0  0  0  0
    2.4610   -5.1290   -3.2440 C   0  0  0  0  0
    1.5200   -3.9120   -3.1820 C   0  0  0  0  0
    0.0770   -4.3280   -3.4490 C   0  0  0  0  0
   -0.5390   -4.9200   -2.2630 N   0  0  0  0  0
   -1.4950   -4.3470   -1.5400 C   0  0  0  0  0
   -2.0060   -3.1700   -1.8940 N   0  0  0  0  0
   -1.9630   -4.9780   -0.4690 N   0  0  0  0  0
   -8.7788   13.3496   -8.9171 H   0  0  0  0  0
   -9.9197   12.5590   -9.8391 H   0  0  0  0  0
  -10.3548   13.2479   -8.3855 H   0  0  0  0  0
   -8.9922   11.7164   -7.1668 H   0  0  0  0  0
  -10.8283   10.3296   -9.1442 H   0  0  0  0  0
  -10.2808    9.6820   -7.5783 H   0  0  0  0  0
  -11.3330   11.1177   -7.6291 H   0  0  0  0  0
   -6.9876   11.0190   -7.2309 H   0  0  0  0  0
   -5.9233    9.9105   -9.8136 H   0  0  0  0  0
   -3.7137   10.3615   -8.8150 H   0  0  0  0  0
   -4.5836   11.1443   -7.4044 H   0  0  0  0  0
   -5.5489   12.7427   -9.0196 H   0  0  0  0  0
   -4.4410   12.0468  -10.2770 H   0  0  0  0  0
   -3.6852   13.4703   -7.7226 H   0  0  0  0  0
   -3.4693   14.0517   -9.4282 H   0  0  0  0  0
   -1.7933   12.1846   -7.9297 H   0  0  0  0  0
   -1.1820   12.7978  -11.8871 H   0  0  0  0  0
   -2.6849   13.3768  -11.1608 H   0  0  0  0  0
    0.0954   11.4752   -8.8696 H   0  0  0  0  0
   -4.6847    7.9502   -9.7305 H   0  0  0  0  0
   -4.8291    6.4957   -7.1092 H   0  0  0  0  0
   -5.9912    5.3935   -9.0107 H   0  0  0  0  0
   -4.6334    4.4290   -8.2812 H   0  0  0  0  0
   -5.6127    6.1392  -11.6578 H   0  0  0  0  0
   -1.8672    4.1701  -12.1679 H   0  0  0  0  0
   -2.8728    4.8741   -7.0009 H   0  0  0  0  0
   -0.4237    6.2886   -8.0088 H   0  0  0  0  0
    0.6783    5.1322   -6.0273 H   0  0  0  0  0
   -1.0114    4.7659   -5.4589 H   0  0  0  0  0
   -1.4323    7.2232   -5.5188 H   0  0  0  0  0
    0.3135    7.4542   -5.8017 H   0  0  0  0  0
    0.8481    6.3342   -3.7057 H   0  0  0  0  0
   -0.8698    5.9323   -3.4433 H   0  0  0  0  0
   -0.0344    8.7865   -3.6791 H   0  0  0  0  0
   -1.9148    7.1789   -0.4692 H   0  0  0  0  0
   -1.3421    6.1132   -1.7567 H   0  0  0  0  0
   -0.7679   10.1301   -2.0437 H   0  0  0  0  0
    1.4753    4.8483   -8.2797 H   0  0  0  0  0
    0.7904    1.9163   -8.7098 H   0  0  0  0  0
    2.8477    1.7339   -9.8843 H   0  0  0  0  0
    3.1362    3.5153   -9.6689 H   0  0  0  0  0
    0.9744    3.8742  -10.8867 H   0  0  0  0  0
    1.0439    2.1047  -11.3196 H   0  0  0  0  0
    3.0330    2.4359  -12.5821 H   0  0  0  0  0
    3.1980    4.1215  -11.9989 H   0  0  0  0  0
    1.1186    4.7264  -13.1454 H   0  0  0  0  0
    0.9603    3.0285  -13.7386 H   0  0  0  0  0
    1.8842    4.4832  -15.4011 H   0  0  0  0  0
    3.1441    4.8996  -14.3931 H   0  0  0  0  0
    2.9980    3.3325  -14.9406 H   0  0  0  0  0
    1.7035    0.5366   -7.1678 H   0  0  0  0  0
    3.5171    1.7748   -5.1451 H   0  0  0  0  0
    1.0708    0.1498   -4.3264 H   0  0  0  0  0
    2.9836    0.0986   -2.7512 H   0  0  0  0  0
    3.0393    1.8785   -2.7518 H   0  0  0  0  0
    1.6333    1.0320   -2.0608 H   0  0  0  0  0
    1.4486    3.1448   -4.2365 H   0  0  0  0  0
    0.3249    2.2475   -5.2868 H   0  0  0  0  0
    0.0925    2.2390   -3.5213 H   0  0  0  0  0
    5.1789    0.3837   -4.5691 H   0  0  0  0  0
    5.1182   -2.2729   -5.7856 H   0  0  0  0  0
    7.0616   -1.2228   -3.7529 H   0  0  0  0  0
    7.1555   -0.9748   -5.5906 H   0  0  0  0  0
    7.3543   -3.5783   -4.1126 H   0  0  0  0  0
    6.4298   -3.7883   -6.3691 H   0  0  0  0  0
    7.7854   -2.8410   -7.0294 H   0  0  0  0  0
    8.0850   -4.4424   -6.3104 H   0  0  0  0  0
    9.5111   -1.8775   -5.4098 H   0  0  0  0  0
    9.3136   -2.1831   -3.6667 H   0  0  0  0  0
    9.7372   -3.5210   -4.7628 H   0  0  0  0  0
    4.5935   -4.1774   -4.9353 H   0  0  0  0  0
    4.0278   -4.3664   -1.9965 H   0  0  0  0  0
    4.2969   -7.0686   -2.8217 H   0  0  0  0  0
    2.1415   -5.8130   -2.4578 H   0  0  0  0  0
    2.3947   -5.5256   -4.2571 H   0  0  0  0  0
    1.8248   -3.1933   -3.9427 H   0  0  0  0  0
    1.5802   -3.4719   -2.1866 H   0  0  0  0  0
    0.0742   -5.0711   -4.2465 H   0  0  0  0  0
   -0.4920   -3.4408   -3.7268 H   0  0  0  0  0
   -0.2110   -5.8400   -1.9691 H   0  0  0  0  0
   -2.7564   -2.7533   -1.3430 H   0  0  0  0  0
   -1.6472   -2.6848   -2.7163 H   0  0  0  0  0
   -1.5885   -5.8909   -0.2107 H   0  0  0  0  0
  1  2  1  0  0  0
  2  3  1  0  0  0
  2  5  1  0  0  0
  3  4  2  0  0  0
  3  6  1  0  0  0
  6  7  1  0  0  0
  7  8  1  0  0  0
  7 10  1  0  0  0
  8  9  2  0  0  0
  8 17  1  0  0  0
 10 11  1  0  0  0
 11 12  1  0  0  0
 12 13  1  0  0  0
 13 14  1  0  0  0
 14 15  1  0  0  0
 14 16  2  0  0  0
 17 18  1  0  0  0
 18 19  1  0  0  0
 18 21  1  0  0  0
 19 20  2  0  0  0
 19 27  1  0  0  0
 21 22  1  0  0  0
 22 23  4  0  0  0
 22 24  4  0  0  0
 23 25  4  0  0  0
 24 26  4  0  0  0
 25 26  4  0  0  0
 27 28  1  0  0  0
 28 29  1  0  0  0
 28 31  1  0  0  0
 29 30  2  0  0  0
 29 38  1  0  0  0
 31 32  1  0  0  0
 32 33  1  0  0  0
 33 34  1  0  0  0
 34 35  1  0  0  0
 35 36  1  0  0  0
 35 37  2  0  0  0
 38 39  1  0  0  0
 39 40  1  0  0  0
 39 42  1  0  0  0
 40 41  2  0  0  0
 40 47  1  0  0  0
 42 43  1  0  0  0
 43 44  1  0  0  0
 44 45  1  0  0  0
 45 46  1  0  0  0
 47 48  1  0  0  0
 48 49  1  0  0  0
 48 51  1  0  0  0
 49 50  2  0  0  0
 49 54  1  0  0  0
 51 52  1  0  0  0
 51 53  1  0  0  0
 54 55  1  0  0  0
 55 56  1  0  0  0
 55 58  1  0  0  0
 56 57  2  0  0  0
 56 62  1  0  0  0
 58 59  1  0  0  0
 59 60  1  0  0  0
 59 61  1  0  0  0
 62 63  1  0  0  0
 63 64  1  0  0  0
 63 66  1  0  0  0
 64 65  2  0  0  0
 66 67  1  0  0  0
 67 68  1  0  0  0
 68 69  1  0  0  0
 69 70  1  0  0  0
 70 71  1  0  0  0
 70 72  2  0  0  0
  1 73  1  0  0  0
  1 74  1  0  0  0
  1 75  1  0  0  0
  2 76  1  0  0  0
  5 77  1  0  0  0
  5 78  1  0  0  0
  5 79  1  0  0  0
  6 80  1  0  0  0
  7 81  1  0  0  0
 10 82  1  0  0  0
 10 83  1  0  0  0
 11 84  1  0  0  0
 11 85  1  0  0  0
 12 86  1  0  0  0
 12 87  1  0  0  0
 13 88  1  0  0  0
 15 89  1  0  0  0
 15 90  1  0  0  0
 16 91  1  0  0  0
 17 92  1  0  0  0
 18 93  1  0  0  0
 21 94  1  0  0  0
 21 95  1  0  0  0
 24 96  1  0  0  0
 25 97  1  0  0  0
 27 98  1  0  0  0
 28 99  1  0  0  0
 31100  1  0  0  0
 31101  1  0  0  0
 32102  1  0  0  0
 32103  1  0  0  0
 33104  1  0  0  0
 33105  1  0  0  0
 34106  1  0  0  0
 36107  1  0  0  0
 36108  1  0  0  0
 37109  1  0  0  0
 38110  1  0  0  0
 39111  1  0  0  0
 42112  1  0  0  0
 42113  1  0  0  0
 43114  1  0  0  0
 43115  1  0  0  0
 44116  1  0  0  0
 44117  1  0  0  0
 45118  1  0  0  0
 45119  1  0  0  0
 46120  1  0  0  0
 46121  1  0  0  0
 46122  1  0  0  0
 47123  1  0  0  0
 48124  1  0  0  0
 51125  1  0  0  0
 52126  1  0  0  0
 52127  1  0  0  0
 52128  1  0  0  0
 53129  1  0  0  0
 53130  1  0  0  0
 53131  1  0  0  0
 54132  1  0  0  0
 55133  1  0  0  0
 58134  1  0  0  0
 58135  1  0  0  0
 59136  1  0  0  0
 60137  1  0  0  0
 60138  1  0  0  0
 60139  1  0  0  0
 61140  1  0  0  0
 61141  1  0  0  0
 61142  1  0  0  0
 62143  1  0  0  0
 63144  1  0  0  0
 64145  1  0  0  0
 66146  1  0  0  0
 66147  1  0  0  0
 67148  1  0  0  0
 67149  1  0  0  0
 68150  1  0  0  0
 68151  1  0  0  0
 69152  1  0  0  0
 71153  1  0  0  0
 71154  1  0  0  0
 72155  1  0  0  0
M  END
$$$$
