### 
### Created by X-TOOL on Mon Sep 10 21:12:57 2018
### 

@<TRIPOS>MOLECULE
3f9w_ligand
  159   159     1     0     0
SMALL
GAST_HUCK


@<TRIPOS>ATOM
      1 N          -9.6120   12.7620   -8.8880 N.4       1 LYS         0.2377
      2 CA         -9.2940   11.4880   -8.1890 C.3       1 LYS         0.0621
      3 C          -8.1310   10.7740   -8.8910 C.2       1 LYS         0.2264
      4 O          -8.2420   10.3640  -10.0500 O.2       1 LYS        -0.3907
      5 CB        -10.5220   10.5900   -8.1310 C.3       1 LYS        -0.0040
      6 N          -7.0110   10.6590   -8.1850 N.am      1 ARG        -0.2610
      7 CA         -5.8130   10.0320   -8.7360 C.3       1 ARG         0.1312
      8 C          -5.6280    8.6730   -8.0820 C.2       1 ARG         0.2040
      9 O          -6.1500    8.4340   -6.9930 O.2       1 ARG        -0.3944
     10 CB         -4.5870   10.9150   -8.4700 C.3       1 ARG        -0.0092
     11 CG         -4.5950   12.2540   -9.2180 C.3       1 ARG        -0.0156
     12 CD         -3.4820   13.1930   -8.7570 C.3       1 ARG         0.0627
     13 NE         -2.1570   12.5660   -8.8030 N.pl3     1 ARG        -0.2723
     14 CZ         -1.3860   12.4500   -9.8830 C.cat     1 ARG         0.2882
     15 NH1        -1.7820   12.9110  -11.0700 N.pl3     1 ARG        -0.2849
     16 NH2        -0.2060   11.8430   -9.7720 N.pl3     1 ARG        -0.2849
     17 N          -4.9090    7.7750   -8.7510 N.am      1 HIS        -0.2625
     18 CA         -4.4320    6.5460   -8.1230 C.3       1 HIS         0.1369
     19 C          -2.9060    6.5720   -8.1160 C.2       1 HIS         0.2054
     20 O          -2.2840    7.4790   -8.6780 O.2       1 HIS        -0.3942
     21 CB         -4.9140    5.3010   -8.8720 C.3       1 HIS         0.0145
     22 CG         -4.2910    5.1540  -10.2260 C.2       1 HIS        -0.0027
     23 ND1        -3.0670    4.5460  -10.4240 N.2       1 HIS        -0.3252
     24 CD2        -4.6910    5.6000  -11.4390 C.2       1 HIS         0.0291
     25 CE1        -2.7600    4.5950  -11.7090 C.2       1 HIS         0.0907
     26 NE2        -3.7200    5.2470  -12.3430 N.pl3     1 HIS        -0.2752
     27 N          -2.3060    5.5710   -7.4840 N.am      1 ARG        -0.2636
     28 CA         -0.8540    5.4470   -7.4660 C.3       1 ARG         0.1311
     29 C          -0.4280    4.1520   -8.1270 C.2       1 ARG         0.2039
     30 O          -1.2610    3.3000   -8.4740 O.2       1 ARG        -0.3944
     31 CB         -0.3670    5.4410   -6.0220 C.3       1 ARG        -0.0092
     32 CG         -0.4400    6.8000   -5.3630 C.3       1 ARG        -0.0156
     33 CD         -0.1790    6.6630   -3.8640 C.3       1 ARG         0.0627
     34 NE         -0.3800    7.9510   -3.2070 N.pl3     1 ARG        -0.2723
     35 CZ         -0.9840    8.1050   -2.0340 C.cat     1 ARG         0.2882
     36 NH1        -1.4500    7.0500   -1.3680 N.pl3     1 ARG        -0.2849
     37 NH2        -1.1230    9.3230   -1.5310 N.pl3     1 ARG        -0.2849
     38 N           0.8860    4.0160   -8.3020 N.am      1 LYS        -0.2637
     39 CA          1.5110    2.7130   -8.5250 C.3       1 LYS         0.1310
     40 C           2.3160    2.4750   -7.2370 C.2       1 LYS         0.2039
     41 O           2.9790    3.3960   -6.7290 O.2       1 LYS        -0.3944
     42 CB          2.3980    2.7220   -9.7870 C.3       1 LYS        -0.0122
     43 CG          1.6060    3.0060  -11.0750 C.3       1 LYS        -0.0440
     44 CD          2.4970    3.3360  -12.2810 C.3       1 LYS        -0.0124
     45 CE          1.6480    3.8260  -13.4570 C.3       1 LYS        -0.0354
     46 NZ          2.4850    4.1620  -14.6420 N.4       1 LYS         0.2185
     47 N           2.2000    1.2770   -6.6720 N.am      1 VAL        -0.2635
     48 CA          2.7790    0.9950   -5.3330 C.3       1 VAL         0.1332
     49 C           3.4230   -0.3740   -5.3140 C.2       1 VAL         0.2041
     50 O           2.7980   -1.3600   -5.7000 O.2       1 VAL        -0.3944
     51 CB          1.7050    1.0290   -4.2130 C.3       1 VAL        -0.0063
     52 CG1         2.3900    1.0080   -2.8450 C.3       1 VAL        -0.0584
     53 CG2         0.8320    2.2500   -4.3220 C.3       1 VAL        -0.0584
     54 N           4.6840   -0.4530   -4.8780 N.am      1 LEU        -0.2637
     55 CA          5.3430   -1.7590   -4.8510 C.3       1 LEU         0.1312
     56 C           4.8110   -2.5950   -3.6920 C.2       1 LEU         0.2040
     57 O           4.7030   -2.0860   -2.5940 O.2       1 LEU        -0.3944
     58 CB          6.8630   -1.6080   -4.7530 C.3       1 LEU        -0.0101
     59 CG          7.6920   -2.8850   -4.8830 C.3       1 LEU        -0.0425
     60 CD1         7.4830   -3.5360   -6.2460 C.3       1 LEU        -0.0625
     61 CD2         9.1690   -2.5960   -4.6650 C.3       1 LEU        -0.0625
     62 N           4.4770   -3.8570   -3.9740 N.am      1 ARG        -0.2650
     63 CA          3.9500   -4.8190   -2.9850 C.3       1 ARG         0.1129
     64 C           4.7810   -6.1100   -3.0080 C.2       1 ARG         0.1245
     65 O           5.9880   -6.0700   -3.2350 O.2       1 ARG        -0.3725
     66 CB          2.4610   -5.1290   -3.2440 C.3       1 ARG        -0.0105
     67 CG          1.5200   -3.9120   -3.1820 C.3       1 ARG        -0.0155
     68 CD          0.0770   -4.3280   -3.4490 C.3       1 ARG         0.0627
     69 NE         -0.5390   -4.9200   -2.2630 N.pl3     1 ARG        -0.2723
     70 CZ         -1.4950   -4.3470   -1.5400 C.cat     1 ARG         0.2882
     71 NH1        -2.0060   -3.1700   -1.8940 N.pl3     1 ARG        -0.2849
     72 NH2        -1.9630   -4.9780   -0.4690 N.pl3     1 ARG        -0.2849
     73 H1        -10.3765   13.2212   -8.4182 H         1 LYS         0.2015
     74 H2         -9.8729   12.5660   -9.8417 H         1 LYS         0.2015
     75 H3         -8.8022   13.3621   -8.8777 H         1 LYS         0.2015
     76 H4         -8.9872   11.7226   -7.1590 H         1 LYS         0.1095
     77 H5        -10.2678    9.6543   -7.6115 H         1 LYS         0.0310
     78 H6        -10.8582   10.3620   -9.1532 H         1 LYS         0.0310
     79 H7        -11.3273   11.1047   -7.5863 H         1 LYS         0.0310
     80 H8         -6.9880   11.0120   -7.2496 H         1 ARG         0.1884
     81 H9         -5.9350    9.9017   -9.8214 H         1 ARG         0.0800
     82 H10        -3.6890   10.3570   -8.7735 H         1 ARG         0.0313
     83 H11        -4.5415   11.1242   -7.3910 H         1 ARG         0.0313
     84 H12        -5.5638   12.7464   -9.0480 H         1 ARG         0.0301
     85 H13        -4.4671   12.0576  -10.2927 H         1 ARG         0.0301
     86 H14        -3.6890   13.5026   -7.7220 H         1 ARG         0.0689
     87 H15        -3.4753   14.0781   -9.4101 H         1 ARG         0.0689
     88 H16        -1.7897   12.1808   -7.9212 H         1 ARG         0.2642
     89 H17        -1.1695   12.8105  -11.8919 H         1 ARG         0.2615
     90 H18        -2.7004   13.3675  -11.1649 H         1 ARG         0.2615
     91 H19         0.1050   11.4850   -8.8577 H         1 ARG         0.2615
     92 H20         0.3958   11.7315  -10.6005 H         1 ARG         0.2615
     93 H21        -4.6891    7.9467   -9.7113 H         1 HIS         0.1885
     94 H22        -4.8038    6.5041   -7.0886 H         1 HIS         0.0817
     95 H23        -6.0053    5.3658   -8.9937 H         1 HIS         0.0420
     96 H24        -4.6639    4.4130   -8.2730 H         1 HIS         0.0420
     97 H25        -5.6118    6.1387  -11.6576 H         1 HIS         0.0729
     98 H26        -1.8681    4.1705  -12.1675 H         1 HIS         0.1199
     99 H27        -3.7365    5.4561  -13.3514 H         1 HIS         0.2361
    100 H28        -2.8617    4.8877   -7.0104 H         1 ARG         0.1883
    101 H29        -0.4088    6.2971   -8.0037 H         1 ARG         0.0800
    102 H30         0.6791    5.1011   -6.0072 H         1 ARG         0.0313
    103 H31        -0.9887    4.7395   -5.4463 H         1 ARG         0.0313
    104 H32        -1.4401    7.2296   -5.5217 H         1 ARG         0.0301
    105 H33         0.3181    7.4622   -5.8066 H         1 ARG         0.0301
    106 H34         0.8564    6.3286   -3.7027 H         1 ARG         0.0689
    107 H35        -0.8736    5.9238   -3.4385 H         1 ARG         0.0689
    108 H36        -0.0310    8.7947   -3.6837 H         1 ARG         0.2642
    109 H37        -1.9169    7.1799   -0.4591 H         1 ARG         0.2615
    110 H38        -1.3435    6.1042   -1.7618 H         1 ARG         0.2615
    111 H39        -0.7620   10.1378   -2.0475 H         1 ARG         0.2615
    112 H40        -1.5921    9.4550   -0.6235 H         1 ARG         0.2615
    113 H41         1.4637    4.8320   -8.2801 H         1 LYS         0.1883
    114 H42         0.7431    1.9341   -8.6413 H         1 LYS         0.0800
    115 H43         2.8821    1.7389   -9.8825 H         1 LYS         0.0312
    116 H44         3.1671    3.4996   -9.6696 H         1 LYS         0.0312
    117 H45         0.9377    3.8602  -10.8917 H         1 LYS         0.0269
    118 H46         1.0061    2.1167  -11.3182 H         1 LYS         0.0269
    119 H47         3.0465    2.4323  -12.5831 H         1 LYS         0.0317
    120 H48         3.2120    4.1226  -11.9983 H         1 LYS         0.0317
    121 H49         1.0941    4.7241  -13.1463 H         1 LYS         0.0813
    122 H50         0.9367    3.0349  -13.7365 H         1 LYS         0.0813
    123 H51         1.8922    4.4796  -15.3929 H         1 LYS         0.1994
    124 H52         2.9925    3.3430  -14.9381 H         1 LYS         0.1994
    125 H53         3.1368    4.8909  -14.3972 H         1 LYS         0.1994
    126 H54         1.7133    0.5512   -7.1580 H         1 VAL         0.1883
    127 H55         3.5421    1.7574   -5.1177 H         1 VAL         0.0802
    128 H56         1.0707    0.1354   -4.3087 H         1 VAL         0.0343
    129 H57         1.6273    1.0321   -2.0527 H         1 VAL         0.0234
    130 H58         3.0456    1.8861   -2.7497 H         1 VAL         0.0234
    131 H59         2.9894    0.0907   -2.7491 H         1 VAL         0.0234
    132 H60         0.3408    2.2628   -5.3061 H         1 VAL         0.0234
    133 H61         1.4492    3.1534   -4.2085 H         1 VAL         0.0234
    134 H62         0.0679    2.2262   -3.5311 H         1 VAL         0.0234
    135 H63         5.1692    0.3673   -4.5751 H         1 LEU         0.1883
    136 H64         5.1101   -2.2817   -5.7904 H         1 LEU         0.0800
    137 H65         7.0907   -1.1618   -3.7737 H         1 LEU         0.0315
    138 H66         7.1815   -0.9218   -5.5516 H         1 LEU         0.0315
    139 H67         7.3589   -3.5907   -4.1077 H         1 LEU         0.0298
    140 H68         8.0900   -4.4509   -6.3123 H         1 LEU         0.0232
    141 H69         7.7879   -2.8356   -7.0375 H         1 LEU         0.0232
    142 H70         6.4204   -3.7912   -6.3714 H         1 LEU         0.0232
    143 H71         9.3093   -2.1269   -3.6800 H         1 LEU         0.0232
    144 H72         9.5292   -1.9149   -5.4501 H         1 LEU         0.0232
    145 H73         9.7369   -3.5371   -4.7071 H         1 LEU         0.0232
    146 H74         4.5912   -4.1711   -4.9165 H         1 ARG         0.1884
    147 H75         4.0374   -4.3679   -1.9856 H         1 ARG         0.0790
    148 H76         4.2973   -7.0678   -2.8218 H         1 ARG         0.1373
    149 H77         2.1279   -5.8560   -2.4887 H         1 ARG         0.0314
    150 H78         2.3751   -5.5754   -4.2457 H         1 ARG         0.0314
    151 H79         1.8297   -3.1778   -3.9403 H         1 ARG         0.0301
    152 H80         1.5849   -3.4567   -2.1828 H         1 ARG         0.0301
    153 H81         0.0630   -5.0658   -4.2648 H         1 ARG         0.0689
    154 H82        -0.5013   -3.4409   -3.7468 H         1 ARG         0.0689
    155 H83        -0.2078   -5.8490   -1.9662 H         1 ARG         0.2642
    156 H84        -2.7468   -2.7377   -1.3237 H         1 ARG         0.2615
    157 H85        -1.6606   -2.6915   -2.7382 H         1 ARG         0.2615
    158 H86        -1.5681   -5.8888   -0.1944 H         1 ARG         0.2615
    159 H87        -2.7208   -4.5565    0.0869 H         1 ARG         0.2615
@<TRIPOS>BOND
     1    1    2 1  
     2    2    3 1  
     3    2    5 1  
     4    3    4 2  
     5    3    6 am 
     6    6    7 1  
     7    7    8 1  
     8    7   10 1  
     9    8    9 2  
    10    8   17 am 
    11   10   11 1  
    12   11   12 1  
    13   12   13 1  
    14   13   14 ar 
    15   14   15 ar 
    16   14   16 ar 
    17   17   18 1  
    18   18   19 1  
    19   18   21 1  
    20   19   20 2  
    21   19   27 am 
    22   21   22 1  
    23   22   23 1  
    24   22   24 2  
    25   23   25 2  
    26   24   26 1  
    27   25   26 1  
    28   27   28 1  
    29   28   29 1  
    30   28   31 1  
    31   29   30 2  
    32   29   38 am 
    33   31   32 1  
    34   32   33 1  
    35   33   34 1  
    36   34   35 ar 
    37   35   36 ar 
    38   35   37 ar 
    39   38   39 1  
    40   39   40 1  
    41   39   42 1  
    42   40   41 2  
    43   40   47 am 
    44   42   43 1  
    45   43   44 1  
    46   44   45 1  
    47   45   46 1  
    48   47   48 1  
    49   48   49 1  
    50   48   51 1  
    51   49   50 2  
    52   49   54 am 
    53   51   52 1  
    54   51   53 1  
    55   54   55 1  
    56   55   56 1  
    57   55   58 1  
    58   56   57 2  
    59   56   62 am 
    60   58   59 1  
    61   59   60 1  
    62   59   61 1  
    63   62   63 1  
    64   63   64 1  
    65   63   66 1  
    66   64   65 2  
    67   66   67 1  
    68   67   68 1  
    69   68   69 1  
    70   69   70 ar 
    71   70   71 ar 
    72   70   72 ar 
    73    1   73 1  
    74    1   74 1  
    75    1   75 1  
    76    2   76 1  
    77    5   77 1  
    78    5   78 1  
    79    5   79 1  
    80    6   80 1  
    81    7   81 1  
    82   10   82 1  
    83   10   83 1  
    84   11   84 1  
    85   11   85 1  
    86   12   86 1  
    87   12   87 1  
    88   13   88 1  
    89   15   89 1  
    90   15   90 1  
    91   16   91 1  
    92   16   92 1  
    93   17   93 1  
    94   18   94 1  
    95   21   95 1  
    96   21   96 1  
    97   24   97 1  
    98   25   98 1  
    99   26   99 1  
   100   27  100 1  
   101   28  101 1  
   102   31  102 1  
   103   31  103 1  
   104   32  104 1  
   105   32  105 1  
   106   33  106 1  
   107   33  107 1  
   108   34  108 1  
   109   36  109 1  
   110   36  110 1  
   111   37  111 1  
   112   37  112 1  
   113   38  113 1  
   114   39  114 1  
   115   42  115 1  
   116   42  116 1  
   117   43  117 1  
   118   43  118 1  
   119   44  119 1  
   120   44  120 1  
   121   45  121 1  
   122   45  122 1  
   123   46  123 1  
   124   46  124 1  
   125   46  125 1  
   126   47  126 1  
   127   48  127 1  
   128   51  128 1  
   129   52  129 1  
   130   52  130 1  
   131   52  131 1  
   132   53  132 1  
   133   53  133 1  
   134   53  134 1  
   135   54  135 1  
   136   55  136 1  
   137   58  137 1  
   138   58  138 1  
   139   59  139 1  
   140   60  140 1  
   141   60  141 1  
   142   60  142 1  
   143   61  143 1  
   144   61  144 1  
   145   61  145 1  
   146   62  146 1  
   147   63  147 1  
   148   64  148 1  
   149   66  149 1  
   150   66  150 1  
   151   67  151 1  
   152   67  152 1  
   153   68  153 1  
   154   68  154 1  
   155   69  155 1  
   156   71  156 1  
   157   71  157 1  
   158   72  158 1  
   159   72  159 1  
@<TRIPOS>SUBSTRUCTURE
     1 LYS         1

