5h9s_ligand
  -I-interpret- 

 60 63  0  0  0  0  0  0  0  0999 V2000
  -24.1340  -25.0730  -36.8840 S   0  0  0  0  0
  -24.8070  -27.5990  -36.2480 C   0  0  0  0  0
  -24.7570  -29.0760  -36.6390 C   0  0  0  0  0
  -24.5720  -28.3900  -38.9930 C   0  0  0  0  0
  -25.0820  -28.5570  -40.4180 C   0  0  0  0  0
  -26.5090  -34.0540  -31.5690 C   0  0  0  0  0
  -24.0650  -26.7870  -37.3030 C   0  0  0  0  0
  -22.5710  -24.3760  -37.3030 C   0  0  0  0  0
  -24.6490  -27.0150  -38.5920 O   0  0  0  0  0
  -21.5500  -25.0140  -36.5210 O   0  0  0  0  0
  -20.2450  -24.5170  -36.7880 C   0  0  0  0  0
  -19.2270  -25.3480  -36.0070 C   0  0  0  0  0
  -24.5490  -29.7530  -41.0070 O   0  0  0  0  0
  -19.1450  -26.6790  -36.5450 O   0  0  0  0  0
  -25.3600  -29.2600  -38.0190 C   0  0  0  0  0
  -20.2180  -23.0420  -36.3960 C   0  0  0  0  0
  -26.7140  -28.8120  -37.9730 O   0  0  0  0  0
  -20.5290  -22.9270  -35.0040 O   0  0  0  0  0
  -21.2370  -22.2680  -37.2290 C   0  0  0  0  0
  -21.2740  -20.8820  -36.8660 O   0  0  0  0  0
  -22.6190  -22.8790  -37.0350 C   0  0  0  0  0
  -24.1950  -27.3940  -34.9640 O   0  0  0  0  0
  -23.5450  -22.2720  -37.9440 O   0  0  0  0  0
  -25.4360  -29.9240  -35.6290 N   0  0  0  0  0
  -26.4230  -29.3170  -34.8450 N   0  0  0  0  0
  -26.8660  -30.3430  -33.9860 N   0  0  0  0  0
  -26.1650  -31.4670  -34.2750 C   0  0  0  0  0
  -25.2650  -31.1980  -35.2940 C   0  0  0  0  0
  -26.2700  -32.7880  -33.6020 C   0  0  0  0  0
  -26.4270  -32.8290  -32.2220 C   0  0  0  0  0
  -26.4200  -35.2370  -32.3010 C   0  0  0  0  0
  -26.2490  -35.1940  -33.6830 C   0  0  0  0  0
  -26.1670  -33.9670  -34.3340 C   0  0  0  0  0
  -26.6740  -34.0900  -30.2320 F   0  0  0  0  0
  -25.8473  -27.2791  -36.1880 H   0  0  0  0  0
  -23.7156  -29.3964  -36.6708 H   0  0  0  0  0
  -23.5304  -28.7105  -38.9726 H   0  0  0  0  0
  -24.7641  -27.6990  -41.0103 H   0  0  0  0  0
  -26.1696  -28.6266  -40.3986 H   0  0  0  0  0
  -23.0211  -27.0988  -37.3368 H   0  0  0  0  0
  -22.3429  -24.5342  -38.3571 H   0  0  0  0  0
  -19.9862  -24.5978  -37.8437 H   0  0  0  0  0
  -19.5417  -25.4058  -34.9650 H   0  0  0  0  0
  -18.2486  -24.8738  -36.0843 H   0  0  0  0  0
  -24.8805  -29.8420  -41.9035 H   0  0  0  0  0
  -18.5024  -27.1865  -36.0439 H   0  0  0  0  0
  -25.3239  -30.3030  -38.3335 H   0  0  0  0  0
  -19.2279  -22.6262  -36.5830 H   0  0  0  0  0
  -27.2103  -29.3593  -37.3601 H   0  0  0  0  0
  -20.5141  -22.0015  -34.7493 H   0  0  0  0  0
  -20.9371  -22.3347  -38.2748 H   0  0  0  0  0
  -21.9232  -20.4277  -37.4079 H   0  0  0  0  0
  -22.9391  -22.7048  -36.0077 H   0  0  0  0  0
  -24.6643  -27.9065  -34.3016 H   0  0  0  0  0
  -23.5798  -21.3268  -37.7799 H   0  0  0  0  0
  -24.5542  -31.8967  -35.7352 H   0  0  0  0  0
  -26.4858  -31.9019  -31.6519 H   0  0  0  0  0
  -26.4844  -36.1981  -31.7908 H   0  0  0  0  0
  -26.1796  -36.1202  -34.2534 H   0  0  0  0  0
  -26.0226  -33.9294  -35.4137 H   0  0  0  0  0
  7  1  1  0  0  0
  1  8  1  0  0  0
  3  2  1  0  0  0
  2  7  1  0  0  0
  2 22  1  0  0  0
  3 15  1  0  0  0
 24  3  1  0  0  0
  4  5  1  0  0  0
  4  9  1  0  0  0
 15  4  1  0  0  0
  5 13  1  0  0  0
 30  6  4  0  0  0
  6 31  4  0  0  0
  6 34  1  0  0  0
  7  9  1  0  0  0
  8 10  1  0  0  0
  8 21  1  0  0  0
 10 11  1  0  0  0
 11 12  1  0  0  0
 11 16  1  0  0  0
 12 14  1  0  0  0
 15 17  1  0  0  0
 16 18  1  0  0  0
 19 16  1  0  0  0
 19 20  1  0  0  0
 21 19  1  0  0  0
 21 23  1  0  0  0
 24 25  4  0  0  0
 28 24  4  0  0  0
 26 25  4  0  0  0
 27 26  4  0  0  0
 27 28  4  0  0  0
 29 27  1  0  0  0
 29 30  4  0  0  0
 29 33  4  0  0  0
 31 32  4  0  0  0
 32 33  4  0  0  0
  2 35  1  0  0  0
  3 36  1  0  0  0
  4 37  1  0  0  0
  5 38  1  0  0  0
  5 39  1  0  0  0
  7 40  1  0  0  0
  8 41  1  0  0  0
 11 42  1  0  0  0
 12 43  1  0  0  0
 12 44  1  0  0  0
 13 45  1  0  0  0
 14 46  1  0  0  0
 15 47  1  0  0  0
 16 48  1  0  0  0
 17 49  1  0  0  0
 18 50  1  0  0  0
 19 51  1  0  0  0
 20 52  1  0  0  0
 21 53  1  0  0  0
 22 54  1  0  0  0
 23 55  1  0  0  0
 28 56  1  0  0  0
 30 57  1  0  0  0
 31 58  1  0  0  0
 32 59  1  0  0  0
 33 60  1  0  0  0
M  END
$$$$
