6fa3_ligand
  -I-interpret- 

 76 80  0  0  0  0  0  0  0  0999 V2000
   26.7360   92.5920   29.4610 O   0  0  0  0  0
   27.2980   92.2950   28.4130 C   0  0  0  0  0
   26.8190   91.1140   27.5670 C   0  0  0  0  0
   26.9960   89.7610   28.2820 C   0  0  0  0  0
   26.4370   88.5870   27.4590 C   0  0  0  0  0
   25.0820   88.8140   27.0330 O   0  0  0  0  0
   24.8810   90.0440   26.3150 C   0  0  0  0  0
   25.3440   91.2420   27.1600 C   0  0  0  0  0
   28.2950   92.9560   27.9700 N   0  0  0  0  0
   28.9980   94.1050   28.5320 C   0  0  0  0  0
   28.6660   95.4580   27.8490 C   0  0  0  0  0
   27.5470   95.5660   26.7740 C   0  0  0  0  0
   27.5060   96.9630   26.3110 O   0  0  0  0  0
   28.6290   97.8380   26.3020 C   0  0  0  0  0
   28.6000   99.1650   25.8190 C   0  0  0  0  0
   29.7780   99.9840   25.7870 C   0  0  0  0  0
   30.9800   99.4550   26.2620 C   0  0  0  0  0
   29.8630   95.9970   27.2430 O   0  0  0  0  0
   29.8600   97.3300   26.7740 C   0  0  0  0  0
   31.0330   98.1330   26.7900 C   0  0  0  0  0
   32.3230   97.5090   27.2980 C   0  0  0  0  0
   32.3340   96.7070   28.4200 N   0  0  0  0  0
   33.5590   97.6920   26.6280 C   0  0  0  0  0
   34.7610   97.1180   27.1190 C   0  0  0  0  0
   34.7670   96.2690   28.2730 C   0  0  0  0  0
   33.4910   96.1190   28.8910 C   0  0  0  0  0
   33.3720   95.2980   29.9790 O   0  0  0  0  0
   33.0960   93.9130   29.6930 C   0  0  0  0  0
   35.8270   95.5460   28.8560 N   0  0  0  0  0
   37.1540   95.3160   28.5190 C   0  0  0  0  0
   37.7620   95.6950   27.3240 C   0  0  0  0  0
   39.1200   95.4880   27.0820 C   0  0  0  0  0
   39.9390   94.9050   28.0200 C   0  0  0  0  0
   39.3910   94.4850   29.2290 C   0  0  0  0  0
   38.0100   94.6960   29.4720 C   0  0  0  0  0
   40.3290   93.8440   30.2500 C   0  0  0  0  0
   40.7580   92.4430   29.9630 N   0  3  0  0  0
   41.7470   92.0360   30.9760 C   0  0  0  0  0
   41.3560   92.1960   28.6260 C   0  0  0  0  0
   27.4487   91.1410   26.6777 H   0  0  0  0  0
   26.4502   89.8030   29.2245 H   0  0  0  0  0
   28.0630   89.5932   28.4283 H   0  0  0  0  0
   26.4486   87.6973   28.0886 H   0  0  0  0  0
   27.0562   88.4731   26.5692 H   0  0  0  0  0
   23.8196   90.1557   26.0937 H   0  0  0  0  0
   25.4619   90.0151   25.3931 H   0  0  0  0  0
   25.2297   92.1473   26.5638 H   0  0  0  0  0
   24.7395   91.2769   28.0664 H   0  0  0  0  0
   28.6610   92.6277   27.0763 H   0  0  0  0  0
   30.0641   93.9283   28.3893 H   0  0  0  0  0
   28.6902   94.1893   29.5742 H   0  0  0  0  0
   28.2568   96.0035   28.6993 H   0  0  0  0  0
   26.5847   95.2778   27.1972 H   0  0  0  0  0
   27.7555   94.8956   25.9402 H   0  0  0  0  0
   27.6571   99.5783   25.4608 H   0  0  0  0  0
   29.7353  101.0016   25.3986 H   0  0  0  0  0
   31.8864  100.0595   26.2284 H   0  0  0  0  0
   33.5870   98.2870   25.7151 H   0  0  0  0  0
   35.7000   97.3278   26.6068 H   0  0  0  0  0
   32.1548   93.8363   29.1486 H   0  0  0  0  0
   33.9025   93.5008   29.0866 H   0  0  0  0  0
   33.0226   93.3578   30.6282 H   0  0  0  0  0
   35.5572   95.0859   29.7254 H   0  0  0  0  0
   37.1559   96.1693   26.5521 H   0  0  0  0  0
   39.5424   95.7961   26.1256 H   0  0  0  0  0
   41.0024   94.7735   27.8199 H   0  0  0  0  0
   37.5887   94.3715   30.4235 H   0  0  0  0  0
   39.7769   93.8068   31.1891 H   0  0  0  0  0
   41.2373   94.4466   30.2490 H   0  0  0  0  0
   39.8953   91.8993   29.9852 H   0  0  0  0  0
   42.6071   92.7041   30.9312 H   0  0  0  0  0
   41.2944   92.0902   31.9661 H   0  0  0  0  0
   42.0688   91.0136   30.7776 H   0  0  0  0  0
   40.6317   92.4517   27.8526 H   0  0  0  0  0
   42.2475   92.8121   28.5087 H   0  0  0  0  0
   41.6260   91.1436   28.5390 H   0  0  0  0  0
  1  2  2  0  0  0
  2  3  1  0  0  0
  2  9  1  0  0  0
  3  4  1  0  0  0
  3  8  1  0  0  0
  4  5  1  0  0  0
  5  6  1  0  0  0
  6  7  1  0  0  0
  7  8  1  0  0  0
  9 10  1  0  0  0
 10 11  1  0  0  0
 11 12  1  0  0  0
 11 18  1  0  0  0
 12 13  1  0  0  0
 13 14  1  0  0  0
 14 15  4  0  0  0
 14 19  4  0  0  0
 15 16  4  0  0  0
 16 17  4  0  0  0
 17 20  4  0  0  0
 18 19  1  0  0  0
 19 20  4  0  0  0
 20 21  1  0  0  0
 21 22  4  0  0  0
 21 23  4  0  0  0
 22 26  4  0  0  0
 23 24  4  0  0  0
 24 25  4  0  0  0
 25 26  4  0  0  0
 25 29  1  0  0  0
 26 27  1  0  0  0
 27 28  1  0  0  0
 29 30  1  0  0  0
 30 31  4  0  0  0
 30 35  4  0  0  0
 31 32  4  0  0  0
 32 33  4  0  0  0
 33 34  4  0  0  0
 34 35  4  0  0  0
 34 36  1  0  0  0
 36 37  1  0  0  0
 37 38  1  0  0  0
 37 39  1  0  0  0
  3 40  1  0  0  0
  4 41  1  0  0  0
  4 42  1  0  0  0
  5 43  1  0  0  0
  5 44  1  0  0  0
  7 45  1  0  0  0
  7 46  1  0  0  0
  8 47  1  0  0  0
  8 48  1  0  0  0
  9 49  1  0  0  0
 10 50  1  0  0  0
 10 51  1  0  0  0
 11 52  1  0  0  0
 12 53  1  0  0  0
 12 54  1  0  0  0
 15 55  1  0  0  0
 16 56  1  0  0  0
 17 57  1  0  0  0
 23 58  1  0  0  0
 24 59  1  0  0  0
 28 60  1  0  0  0
 28 61  1  0  0  0
 28 62  1  0  0  0
 29 63  1  0  0  0
 31 64  1  0  0  0
 32 65  1  0  0  0
 33 66  1  0  0  0
 35 67  1  0  0  0
 36 68  1  0  0  0
 36 69  1  0  0  0
 37 70  1  0  0  0
 38 71  1  0  0  0
 38 72  1  0  0  0
 38 73  1  0  0  0
 39 74  1  0  0  0
 39 75  1  0  0  0
 39 76  1  0  0  0
M  END
$$$$
