1vik_ligand
  -I-interpret- 

162167  0  0  0  0  0  0  0  0999 V2000
    4.5720   29.4190    7.5580 C   0  0  0  0  0
    3.3220   28.6550    5.7290 C   0  0  0  0  0
    2.6500   28.0420    7.9010 C   0  0  0  0  0
    3.8590   28.2140    7.0490 C   0  0  0  0  0
    4.7130   26.6440    6.7830 S   0  0  0  0  0
    5.6770   26.8400    7.8090 O   0  0  0  0  0
    4.0000   25.5350    6.7480 O   0  0  0  0  0
    5.7710   27.2110    5.4110 C   0  0  0  0  0
    6.7440   26.2810    4.7030 C   0  0  0  0  0
    6.8690   26.8580    3.2470 C   0  0  0  0  0
    5.8030   26.1270    2.3690 C   0  0  0  0  0
    4.7150   25.5350    3.0410 C   0  0  0  0  0
    3.7390   24.8730    2.2780 C   0  0  0  0  0
    3.8710   24.8170    0.8710 C   0  0  0  0  0
    4.9580   25.4090    0.2090 C   0  0  0  0  0
    5.0840   25.3450   -1.2020 C   0  0  0  0  0
    6.1910   25.9490   -1.8650 C   0  0  0  0  0
    7.1710   26.6180   -1.1170 C   0  0  0  0  0
    7.0680   26.6950    0.3080 C   0  0  0  0  0
    5.9590   26.0880    0.9670 C   0  0  0  0  0
    8.1540   26.3890    5.3330 C   0  0  0  0  0
    8.8070   27.4340    5.2420 O   0  0  0  0  0
    8.6250   25.3160    5.9640 N   0  0  0  0  0
    9.9490   25.3480    6.5700 C   0  0  0  0  0
   10.0240   25.4550    8.0940 C   0  0  0  0  0
    9.1630   26.4760    8.8350 C   0  0  0  0  0
   11.5020   25.5560    8.5310 C   0  0  0  0  0
   10.7140   24.1250    6.0070 C   0  0  0  0  0
   10.8650   23.0740    6.6230 O   0  0  0  0  0
   11.2020   24.3040    4.7680 N   0  0  0  0  0
   11.9730   23.1540    4.1240 C   0  0  0  0  0
   11.3340   22.8100    2.7800 C   0  0  0  0  0
   10.0850   21.9700    2.8210 C   0  0  0  0  0
   10.1360   20.5840    2.6440 C   0  0  0  0  0
    8.9200   19.8190    2.6950 C   0  0  0  0  0
    7.6820   20.4670    2.9200 C   0  0  0  0  0
    7.6390   21.8700    3.0980 C   0  0  0  0  0
    8.8270   22.6110    3.0500 C   0  0  0  0  0
   13.3740   23.7540    3.7120 C   0  0  0  0  0
   13.0260   24.8820    2.8580 O   0  0  0  0  0
   14.3590   24.1020    4.8650 C   0  0  0  0  0
   15.5580   24.7130    4.4230 O   0  0  0  0  0
   14.7360   23.0950    5.9730 C   0  0  0  0  0
   15.4210   23.7360    7.2130 C   0  0  0  0  0
   15.7690   22.7600    8.3190 C   0  0  0  0  0
   14.8750   22.3630    9.3290 C   0  0  0  0  0
   15.3000   21.4310   10.3240 C   0  0  0  0  0
   16.6090   20.9220   10.2790 C   0  0  0  0  0
   17.5090   21.3220    9.2680 C   0  0  0  0  0
   17.0800   22.2470    8.2800 C   0  0  0  0  0
   15.6250   22.0590    5.4130 N   0  0  0  0  0
   15.2160   20.8130    5.1340 C   0  0  0  0  0
   14.0980   20.2850    5.2680 O   0  0  0  0  0
   16.3030   19.8880    4.5550 C   0  0  0  0  0
   15.6070   18.8160    3.6440 C   0  0  0  0  0
   14.6890   19.4990    2.6410 C   0  0  0  0  0
   16.4830   17.7570    2.9920 C   0  0  0  0  0
   16.9440   19.1840    5.7110 N   0  0  0  0  0
   18.2980   19.0120    5.6930 C   0  0  0  0  0
   19.0170   19.4260    4.7700 O   0  0  0  0  0
   18.8460   18.2920    6.9060 C   0  0  0  0  0
   19.4420   19.4160    7.7880 C   0  0  0  0  0
   19.7600   18.9000    9.1780 C   0  0  0  0  0
   21.0330   19.1810    9.7490 C   0  0  0  0  0
   21.3240   18.7030   11.0450 C   0  0  0  0  0
   20.3800   17.9590   11.7650 C   0  0  0  0  0
   19.1270   17.6730   11.2180 C   0  0  0  0  0
   18.1880   16.9220   11.9650 C   0  0  0  0  0
   16.9270   16.6510   11.3830 C   0  0  0  0  0
   16.6060   17.1190   10.0910 C   0  0  0  0  0
   17.5500   17.8780    9.3350 C   0  0  0  0  0
   18.8170   18.1550    9.9030 C   0  0  0  0  0
   20.0420   17.3280    6.6470 C   0  0  0  0  0
   19.4510   15.7990    5.8430 S   0  0  0  0  0
   17.9900   15.2810    6.3770 O   0  0  0  0  0
   19.2630   15.7150    4.2900 O   0  0  0  0  0
   20.6510   14.6030    6.3960 C   0  0  0  0  0
   22.0620   15.0720    6.5750 C   0  0  0  0  0
   20.6480   14.0370    7.8830 C   0  0  0  0  0
   20.3820   13.1200    5.9360 C   0  0  0  0  0
    4.9974   29.2011    8.5376 H   0  0  0  0  0
    5.3699   29.6870    6.8655 H   0  0  0  0  0
    3.8685   30.2474    7.6420 H   0  0  0  0  0
    4.1460   28.7809    5.0267 H   0  0  0  0  0
    2.6311   27.9022    5.3494 H   0  0  0  0  0
    2.7978   29.6030    5.8498 H   0  0  0  0  0
    1.9600   27.3519    7.4154 H   0  0  0  0  0
    2.9446   27.6409    8.8708 H   0  0  0  0  0
    2.1635   29.0077    8.0384 H   0  0  0  0  0
    6.4199   27.9517    5.8782 H   0  0  0  0  0
    5.0573   27.4758    4.6308 H   0  0  0  0  0
    6.3988   25.2485    4.7564 H   0  0  0  0  0
    7.8714   26.6919    2.8524 H   0  0  0  0  0
    6.6969   27.9343    3.2439 H   0  0  0  0  0
    4.6328   25.5895    4.1265 H   0  0  0  0  0
    2.8848   24.4051    2.7675 H   0  0  0  0  0
    3.1095   24.3012    0.2860 H   0  0  0  0  0
    4.3240   24.8270   -1.7870 H   0  0  0  0  0
    6.2761   25.8914   -2.9501 H   0  0  0  0  0
    8.0165   27.0822   -1.6246 H   0  0  0  0  0
    7.8324   27.2143    0.8860 H   0  0  0  0  0
    8.0580   24.4702    6.0233 H   0  0  0  0  0
   10.4156   26.2936    6.2938 H   0  0  0  0  0
    9.5442   24.5295    8.4122 H   0  0  0  0  0
    9.4123   27.4791    8.4888 H   0  0  0  0  0
    8.1104   26.2732    8.6376 H   0  0  0  0  0
    9.3541   26.4018    9.9056 H   0  0  0  0  0
   12.0385   24.6661    8.2018 H   0  0  0  0  0
   11.9528   26.4407    8.0814 H   0  0  0  0  0
   11.5540   25.6322    9.6171 H   0  0  0  0  0
   11.0613   25.1837    4.2713 H   0  0  0  0  0
   12.0067   22.3000    4.8004 H   0  0  0  0  0
   12.0740   22.2218    2.2373 H   0  0  0  0  0
   11.0422   23.7608    2.3339 H   0  0  0  0  0
   11.0904   20.0874    2.4687 H   0  0  0  0  0
    8.9515   18.7378    2.5601 H   0  0  0  0  0
    6.7612   19.8849    2.9562 H   0  0  0  0  0
    6.6869   22.3715    3.2715 H   0  0  0  0  0
    8.7921   23.6915    3.1892 H   0  0  0  0  0
   13.9758   23.0001    3.2045 H   0  0  0  0  0
   13.8289   25.3133    2.5564 H   0  0  0  0  0
   13.6670   24.7742    5.3723 H   0  0  0  0  0
   16.1181   24.9006    5.1798 H   0  0  0  0  0
   13.7966   22.6689    6.3254 H   0  0  0  0  0
   14.7134   24.4514    7.6321 H   0  0  0  0  0
   16.3585   24.1719    6.8678 H   0  0  0  0  0
   13.8620   22.7648    9.3524 H   0  0  0  0  0
   14.6149   21.1172   11.1116 H   0  0  0  0  0
   16.9340   20.2080   11.0357 H   0  0  0  0  0
   18.5237   20.9246    9.2460 H   0  0  0  0  0
   17.7648   22.5599    7.4918 H   0  0  0  0  0
   16.5983   22.3027    5.2292 H   0  0  0  0  0
   17.0369   20.4503    3.9776 H   0  0  0  0  0
   15.0313   18.2130    4.3462 H   0  0  0  0  0
   13.9260   20.0649    3.1755 H   0  0  0  0  0
   15.2737   20.1746    2.0167 H   0  0  0  0  0
   14.2120   18.7450    2.0149 H   0  0  0  0  0
   17.2190   18.2410    2.3500 H   0  0  0  0  0
   16.9945   17.1839    3.7653 H   0  0  0  0  0
   15.8610   17.0899    2.3951 H   0  0  0  0  0
   16.3834   18.8420    6.4915 H   0  0  0  0  0
   18.0330   17.6924    7.3154 H   0  0  0  0  0
   18.7122   20.2213    7.8710 H   0  0  0  0  0
   20.3629   19.7730    7.3269 H   0  0  0  0  0
   21.7729   19.7572    9.1934 H   0  0  0  0  0
   22.2955   18.9154   11.4913 H   0  0  0  0  0
   20.6263   17.5991   12.7639 H   0  0  0  0  0
   18.4305   16.5611   12.9645 H   0  0  0  0  0
   16.1919   16.0715   11.9415 H   0  0  0  0  0
   15.6269   16.8987    9.6656 H   0  0  0  0  0
   17.2994   18.2382    8.3372 H   0  0  0  0  0
   20.5101   17.0745    7.5982 H   0  0  0  0  0
   20.7635   17.8198    5.9946 H   0  0  0  0  0
   22.4428   15.4453    5.6243 H   0  0  0  0  0
   22.0868   15.8705    7.3165 H   0  0  0  0  0
   22.6797   14.2403    6.9139 H   0  0  0  0  0
   20.7809   14.8608    8.5842 H   0  0  0  0  0
   19.6977   13.5406    8.0795 H   0  0  0  0  0
   21.4633   13.3232    8.0003 H   0  0  0  0  0
   19.4161   12.7915    6.3197 H   0  0  0  0  0
   20.3765   13.0741    4.8470 H   0  0  0  0  0
   21.1680   12.4723    6.3243 H   0  0  0  0  0
  1  4  1  0  0  0
  4  2  1  0  0  0
  4  3  1  0  0  0
  4  5  1  0  0  0
  5  6  2  0  0  0
  5  7  2  0  0  0
  5  8  1  0  0  0
  8  9  1  0  0  0
  9 10  1  0  0  0
  9 21  1  0  0  0
 10 11  1  0  0  0
 11 12  4  0  0  0
 11 20  4  0  0  0
 12 13  4  0  0  0
 13 14  4  0  0  0
 14 15  4  0  0  0
 15 16  4  0  0  0
 15 20  4  0  0  0
 16 17  4  0  0  0
 17 18  4  0  0  0
 18 19  4  0  0  0
 19 20  4  0  0  0
 21 22  2  0  0  0
 21 23  1  0  0  0
 23 24  1  0  0  0
 24 25  1  0  0  0
 24 28  1  0  0  0
 25 26  1  0  0  0
 25 27  1  0  0  0
 28 29  2  0  0  0
 28 30  1  0  0  0
 30 31  1  0  0  0
 31 32  1  0  0  0
 31 39  1  0  0  0
 32 33  1  0  0  0
 33 34  4  0  0  0
 33 38  4  0  0  0
 34 35  4  0  0  0
 35 36  4  0  0  0
 36 37  4  0  0  0
 37 38  4  0  0  0
 39 40  1  0  0  0
 39 41  1  0  0  0
 41 42  1  0  0  0
 41 43  1  0  0  0
 43 44  1  0  0  0
 43 51  1  0  0  0
 44 45  1  0  0  0
 45 46  4  0  0  0
 45 50  4  0  0  0
 46 47  4  0  0  0
 47 48  4  0  0  0
 48 49  4  0  0  0
 49 50  4  0  0  0
 51 52  1  0  0  0
 52 53  2  0  0  0
 52 54  1  0  0  0
 54 55  1  0  0  0
 54 58  1  0  0  0
 55 56  1  0  0  0
 55 57  1  0  0  0
 58 59  1  0  0  0
 59 60  2  0  0  0
 59 61  1  0  0  0
 61 62  1  0  0  0
 61 73  1  0  0  0
 62 63  1  0  0  0
 63 64  4  0  0  0
 63 72  4  0  0  0
 64 65  4  0  0  0
 65 66  4  0  0  0
 66 67  4  0  0  0
 67 68  4  0  0  0
 67 72  4  0  0  0
 68 69  4  0  0  0
 69 70  4  0  0  0
 70 71  4  0  0  0
 71 72  4  0  0  0
 73 74  1  0  0  0
 74 75  2  0  0  0
 74 76  2  0  0  0
 74 77  1  0  0  0
 77 78  1  0  0  0
 77 79  1  0  0  0
 77 80  1  0  0  0
  1 81  1  0  0  0
  1 82  1  0  0  0
  1 83  1  0  0  0
  2 84  1  0  0  0
  2 85  1  0  0  0
  2 86  1  0  0  0
  3 87  1  0  0  0
  3 88  1  0  0  0
  3 89  1  0  0  0
  8 90  1  0  0  0
  8 91  1  0  0  0
  9 92  1  0  0  0
 10 93  1  0  0  0
 10 94  1  0  0  0
 12 95  1  0  0  0
 13 96  1  0  0  0
 14 97  1  0  0  0
 16 98  1  0  0  0
 17 99  1  0  0  0
 18100  1  0  0  0
 19101  1  0  0  0
 23102  1  0  0  0
 24103  1  0  0  0
 25104  1  0  0  0
 26105  1  0  0  0
 26106  1  0  0  0
 26107  1  0  0  0
 27108  1  0  0  0
 27109  1  0  0  0
 27110  1  0  0  0
 30111  1  0  0  0
 31112  1  0  0  0
 32113  1  0  0  0
 32114  1  0  0  0
 34115  1  0  0  0
 35116  1  0  0  0
 36117  1  0  0  0
 37118  1  0  0  0
 38119  1  0  0  0
 39120  1  0  0  0
 40121  1  0  0  0
 41122  1  0  0  0
 42123  1  0  0  0
 43124  1  0  0  0
 44125  1  0  0  0
 44126  1  0  0  0
 46127  1  0  0  0
 47128  1  0  0  0
 48129  1  0  0  0
 49130  1  0  0  0
 50131  1  0  0  0
 51132  1  0  0  0
 54133  1  0  0  0
 55134  1  0  0  0
 56135  1  0  0  0
 56136  1  0  0  0
 56137  1  0  0  0
 57138  1  0  0  0
 57139  1  0  0  0
 57140  1  0  0  0
 58141  1  0  0  0
 61142  1  0  0  0
 62143  1  0  0  0
 62144  1  0  0  0
 64145  1  0  0  0
 65146  1  0  0  0
 66147  1  0  0  0
 68148  1  0  0  0
 69149  1  0  0  0
 70150  1  0  0  0
 71151  1  0  0  0
 73152  1  0  0  0
 73153  1  0  0  0
 78154  1  0  0  0
 78155  1  0  0  0
 78156  1  0  0  0
 79157  1  0  0  0
 79158  1  0  0  0
 79159  1  0  0  0
 80160  1  0  0  0
 80161  1  0  0  0
 80162  1  0  0  0
M  END
$$$$
