### 
### Created by X-TOOL on Mon Sep 10 21:12:46 2018
### 

@<TRIPOS>MOLECULE
1vik_ligand
  162   167     1     0     0
SMALL
GAST_HUCK


@<TRIPOS>ATOM
      1 C1          4.5720   29.4190    7.5580 C.3       1 BAY        -0.0405
      2 C2          3.3220   28.6550    5.7290 C.3       1 BAY        -0.0405
      3 C3          2.6500   28.0420    7.9010 C.3       1 BAY        -0.0405
      4 C4          3.8590   28.2140    7.0490 C.3       1 BAY         0.0796
      5 S5          4.7130   26.6440    6.7830 S.o2      1 BAY        -0.0237
      6 O6          5.6770   26.8400    7.8090 O.2       1 BAY        -0.1737
      7 O7          4.0000   25.5350    6.7480 O.2       1 BAY        -0.1737
      8 C8          5.7710   27.2110    5.4110 C.3       1 BAY         0.0878
      9 C9          6.7440   26.2810    4.7030 C.3       1 BAY         0.0783
     10 C10         6.8690   26.8580    3.2470 C.3       1 BAY         0.0044
     11 C11         5.8030   26.1270    2.3690 C.ar      1 BAY        -0.0298
     12 C12         4.7150   25.5350    3.0410 C.ar      1 BAY        -0.0606
     13 C13         3.7390   24.8730    2.2780 C.ar      1 BAY        -0.0707
     14 C14         3.8710   24.8170    0.8710 C.ar      1 BAY        -0.0631
     15 C15         4.9580   25.4090    0.2090 C.ar      1 BAY        -0.0243
     16 C16         5.0840   25.3450   -1.2020 C.ar      1 BAY        -0.0569
     17 C17         6.1910   25.9490   -1.8650 C.ar      1 BAY        -0.0629
     18 C18         7.1710   26.6180   -1.1170 C.ar      1 BAY        -0.0625
     19 C19         7.0680   26.6950    0.3080 C.ar      1 BAY        -0.0548
     20 C20         5.9590   26.0880    0.9670 C.ar      1 BAY        -0.0120
     21 C21         8.1540   26.3890    5.3330 C.2       1 BAY         0.1850
     22 O22         8.8070   27.4340    5.2420 O.2       1 BAY        -0.3964
     23 N23         8.6250   25.3160    5.9640 N.am      1 BAY        -0.2650
     24 C24         9.9490   25.3480    6.5700 C.3       1 BAY         0.1331
     25 C25        10.0240   25.4550    8.0940 C.3       1 BAY        -0.0063
     26 C26         9.1630   26.4760    8.8350 C.3       1 BAY        -0.0584
     27 C27        11.5020   25.5560    8.5310 C.3       1 BAY        -0.0584
     28 C28        10.7140   24.1250    6.0070 C.2       1 BAY         0.2024
     29 O29        10.8650   23.0740    6.6230 O.2       1 BAY        -0.3945
     30 N30        11.2020   24.3040    4.7680 N.am      1 BAY        -0.2774
     31 C31        11.9730   23.1540    4.1240 C.3       1 BAY         0.0799
     32 C32        11.3340   22.8100    2.7800 C.3       1 BAY         0.0065
     33 C33        10.0850   21.9700    2.8210 C.ar      1 BAY        -0.0408
     34 C34        10.1360   20.5840    2.6440 C.ar      1 BAY        -0.0603
     35 C35         8.9200   19.8190    2.6950 C.ar      1 BAY        -0.0686
     36 C36         7.6820   20.4670    2.9200 C.ar      1 BAY        -0.0687
     37 C37         7.6390   21.8700    3.0980 C.ar      1 BAY        -0.0686
     38 C38         8.8270   22.6110    3.0500 C.ar      1 BAY        -0.0603
     39 C39        13.3740   23.7540    3.7120 C.3       1 BAY         0.1079
     40 O40        13.0260   24.8820    2.8580 O.3       1 BAY        -0.3867
     41 C41        14.3590   24.1020    4.8650 C.3       1 BAY         0.1079
     42 O42        15.5580   24.7130    4.4230 O.3       1 BAY        -0.3867
     43 C43        14.7360   23.0950    5.9730 C.3       1 BAY         0.0799
     44 C44        15.4210   23.7360    7.2130 C.3       1 BAY         0.0065
     45 C45        15.7690   22.7600    8.3190 C.ar      1 BAY        -0.0408
     46 C46        14.8750   22.3630    9.3290 C.ar      1 BAY        -0.0603
     47 C47        15.3000   21.4310   10.3240 C.ar      1 BAY        -0.0686
     48 C48        16.6090   20.9220   10.2790 C.ar      1 BAY        -0.0687
     49 C49        17.5090   21.3220    9.2680 C.ar      1 BAY        -0.0686
     50 C50        17.0800   22.2470    8.2800 C.ar      1 BAY        -0.0603
     51 N51        15.6250   22.0590    5.4130 N.am      1 BAY        -0.2774
     52 C52        15.2160   20.8130    5.1340 C.2       1 BAY         0.2024
     53 O53        14.0980   20.2850    5.2680 O.2       1 BAY        -0.3945
     54 C54        16.3030   19.8880    4.5550 C.3       1 BAY         0.1331
     55 C55        15.6070   18.8160    3.6440 C.3       1 BAY        -0.0063
     56 C56        14.6890   19.4990    2.6410 C.3       1 BAY        -0.0584
     57 C57        16.4830   17.7570    2.9920 C.3       1 BAY        -0.0584
     58 N58        16.9440   19.1840    5.7110 N.am      1 BAY        -0.2650
     59 C59        18.2980   19.0120    5.6930 C.2       1 BAY         0.1850
     60 O60        19.0170   19.4260    4.7700 O.2       1 BAY        -0.3964
     61 C61        18.8460   18.2920    6.9060 C.3       1 BAY         0.0783
     62 C62        19.4420   19.4160    7.7880 C.3       1 BAY         0.0044
     63 C63        19.7600   18.9000    9.1780 C.ar      1 BAY        -0.0298
     64 C64        21.0330   19.1810    9.7490 C.ar      1 BAY        -0.0606
     65 C65        21.3240   18.7030   11.0450 C.ar      1 BAY        -0.0707
     66 C66        20.3800   17.9590   11.7650 C.ar      1 BAY        -0.0631
     67 C67        19.1270   17.6730   11.2180 C.ar      1 BAY        -0.0243
     68 C68        18.1880   16.9220   11.9650 C.ar      1 BAY        -0.0569
     69 C69        16.9270   16.6510   11.3830 C.ar      1 BAY        -0.0629
     70 C70        16.6060   17.1190   10.0910 C.ar      1 BAY        -0.0625
     71 C71        17.5500   17.8780    9.3350 C.ar      1 BAY        -0.0548
     72 C72        18.8170   18.1550    9.9030 C.ar      1 BAY        -0.0120
     73 C73        20.0420   17.3280    6.6470 C.3       1 BAY         0.0878
     74 S74        19.4510   15.7990    5.8430 S.o2      1 BAY        -0.0237
     75 O75        17.9900   15.2810    6.3770 O.2       1 BAY        -0.1737
     76 O76        19.2630   15.7150    4.2900 O.2       1 BAY        -0.1737
     77 C77        20.6510   14.6030    6.3960 C.3       1 BAY         0.0796
     78 C78        22.0620   15.0720    6.5750 C.3       1 BAY        -0.0405
     79 C79        20.6480   14.0370    7.8830 C.3       1 BAY        -0.0405
     80 C80        20.3820   13.1200    5.9360 C.3       1 BAY        -0.0405
     81 H1          3.8631   30.2558    7.6432 H         1 BAY         0.0251
     82 H2          5.3775   29.6906    6.8599 H         1 BAY         0.0251
     83 H3          5.0018   29.2004    8.5467 H         1 BAY         0.0251
     84 H4          2.7927   29.6117    5.8496 H         1 BAY         0.0251
     85 H5          2.6246   27.8961    5.3448 H         1 BAY         0.0251
     86 H6          4.1527   28.7825    5.0193 H         1 BAY         0.0251
     87 H7          2.1581   29.0160    8.0404 H         1 BAY         0.0251
     88 H8          2.9459   27.6373    8.8801 H         1 BAY         0.0251
     89 H9          1.9528   27.3458    7.4120 H         1 BAY         0.0251
     90 H10         6.3736   28.0403    5.8099 H         1 BAY         0.0530
     91 H11         5.0905   27.5922    4.6353 H         1 BAY         0.0530
     92 H12         6.3841   25.2416    4.7109 H         1 BAY         0.0578
     93 H13         7.8777   26.6683    2.8514 H         1 BAY         0.0466
     94 H14         6.6749   27.9407    3.2524 H         1 BAY         0.0466
     95 H15         4.6333   25.5892    4.1206 H         1 BAY         0.0530
     96 H16         2.8895   24.4077    2.7648 H         1 BAY         0.0595
     97 H17         3.1137   24.3040    0.2892 H         1 BAY         0.0542
     98 H18         4.3282   24.8298   -1.7837 H         1 BAY         0.0609
     99 H19         6.2756   25.8917   -2.9442 H         1 BAY         0.0616
    100 H20         8.0119   27.0797   -1.6218 H         1 BAY         0.0601
    101 H21         7.8282   27.2115    0.8828 H         1 BAY         0.0628
    102 H22         8.0691   24.4868    6.0221 H         1 BAY         0.1883
    103 H23        10.4468   26.2525    6.1905 H         1 BAY         0.0802
    104 H24         9.6606   24.4820    8.4563 H         1 BAY         0.0343
    105 H25         9.3549   26.4021    9.9156 H         1 BAY         0.0234
    106 H26         8.1004   26.2724    8.6366 H         1 BAY         0.0234
    107 H27         9.4136   27.4888    8.4866 H         1 BAY         0.0234
    108 H28        12.0980   24.8113    7.9831 H         1 BAY         0.0234
    109 H29        11.5789   25.3642    9.6114 H         1 BAY         0.0234
    110 H30        11.8817   26.5644    8.3097 H         1 BAY         0.0234
    111 H31        11.0641   25.1665    4.2811 H         1 BAY         0.1857
    112 H32        12.0508   22.2829    4.7911 H         1 BAY         0.0605
    113 H33        12.0821   22.2662    2.1845 H         1 BAY         0.0449
    114 H34        11.0831   23.7561    2.2781 H         1 BAY         0.0449
    115 H35        11.0851   20.0902    2.4697 H         1 BAY         0.0557
    116 H36         8.9513   18.7438    2.5609 H         1 BAY         0.0599
    117 H37         6.7662   19.8881    2.9560 H         1 BAY         0.0559
    118 H38         6.6921   22.3687    3.2705 H         1 BAY         0.0599
    119 H39         8.7923   23.6856    3.1884 H         1 BAY         0.0557
    120 H40        13.8912   23.0032    3.0966 H         1 BAY         0.0645
    121 H41        13.8205   25.3088    2.5596 H         1 BAY         0.2100
    122 H42        13.8154   24.8890    5.4083 H         1 BAY         0.0645
    123 H43        15.3516   25.5231    3.9718 H         1 BAY         0.2100
    124 H44        13.8078   22.6142    6.3155 H         1 BAY         0.0605
    125 H45        14.7401   24.4943    7.6269 H         1 BAY         0.0449
    126 H46        16.3502   24.2207    6.8789 H         1 BAY         0.0449
    127 H47        13.8676   22.7626    9.3523 H         1 BAY         0.0557
    128 H48        14.6187   21.1189   11.1072 H         1 BAY         0.0599
    129 H49        16.9322   20.2119   11.0316 H         1 BAY         0.0559
    130 H50        18.5181   20.9267    9.2461 H         1 BAY         0.0599
    131 H51        17.7611   22.5582    7.4962 H         1 BAY         0.0557
    132 H52        16.5792   22.2979    5.2328 H         1 BAY         0.1857
    133 H53        17.0459   20.4626    3.9824 H         1 BAY         0.0802
    134 H54        14.9504   18.2514    4.3223 H         1 BAY         0.0343
    135 H55        14.2070   18.7390    2.0084 H         1 BAY         0.0234
    136 H56        15.2779   20.1812    2.0103 H         1 BAY         0.0234
    137 H57        13.9184   20.0705    3.1791 H         1 BAY         0.0234
    138 H58        17.1264   17.2933    3.7542 H         1 BAY         0.0234
    139 H59        17.1097   18.2249    2.2185 H         1 BAY         0.0234
    140 H60        15.8464   16.9870    2.5318 H         1 BAY         0.0234
    141 H61        16.3944   18.8487    6.4762 H         1 BAY         0.1883
    142 H62        18.0350   17.7506    7.4150 H         1 BAY         0.0578
    143 H63        18.7141   20.2370    7.8662 H         1 BAY         0.0466
    144 H64        20.3661   19.7883    7.3217 H         1 BAY         0.0466
    145 H65        21.7688   19.7540    9.1965 H         1 BAY         0.0530
    146 H66        22.2902   18.9143   11.4888 H         1 BAY         0.0595
    147 H67        20.6250   17.6011   12.7584 H         1 BAY         0.0542
    148 H68        18.4291   16.5631   12.9590 H         1 BAY         0.0609
    149 H69        16.1959   16.0747   11.9385 H         1 BAY         0.0616
    150 H70        15.6323   16.8999    9.6679 H         1 BAY         0.0601
    151 H71        17.3008   18.2362    8.3427 H         1 BAY         0.0628
    152 H72        20.5192   17.0744    7.6051 H         1 BAY         0.0530
    153 H73        20.7741   17.8238    5.9926 H         1 BAY         0.0530
    154 H74        22.6865   14.2335    6.9171 H         1 BAY         0.0251
    155 H75        22.0884   15.8779    7.3232 H         1 BAY         0.0251
    156 H76        22.4475   15.4490    5.6162 H         1 BAY         0.0251
    157 H77        21.4705   13.3164    8.0027 H         1 BAY         0.0251
    158 H78        19.6894   13.5357    8.0826 H         1 BAY         0.0251
    159 H79        20.7821   14.8675    8.5917 H         1 BAY         0.0251
    160 H80        21.1746   12.4653    6.3272 H         1 BAY         0.0251
    161 H81        20.3762   13.0723    4.8371 H         1 BAY         0.0251
    162 H82        19.4075   12.7872    6.3226 H         1 BAY         0.0251
@<TRIPOS>BOND
     1    1    4 1  
     2    4    2 1  
     3    4    3 1  
     4    4    5 1  
     5    5    6 2  
     6    5    7 2  
     7    5    8 1  
     8    8    9 1  
     9    9   10 1  
    10    9   21 1  
    11   10   11 1  
    12   11   12 ar 
    13   11   20 ar 
    14   12   13 ar 
    15   13   14 ar 
    16   14   15 ar 
    17   15   16 ar 
    18   15   20 ar 
    19   16   17 ar 
    20   17   18 ar 
    21   18   19 ar 
    22   19   20 ar 
    23   21   22 2  
    24   21   23 am 
    25   23   24 1  
    26   24   25 1  
    27   24   28 1  
    28   25   26 1  
    29   25   27 1  
    30   28   29 2  
    31   28   30 am 
    32   30   31 1  
    33   31   32 1  
    34   31   39 1  
    35   32   33 1  
    36   33   34 ar 
    37   33   38 ar 
    38   34   35 ar 
    39   35   36 ar 
    40   36   37 ar 
    41   37   38 ar 
    42   39   40 1  
    43   39   41 1  
    44   41   42 1  
    45   41   43 1  
    46   43   44 1  
    47   43   51 1  
    48   44   45 1  
    49   45   46 ar 
    50   45   50 ar 
    51   46   47 ar 
    52   47   48 ar 
    53   48   49 ar 
    54   49   50 ar 
    55   51   52 am 
    56   52   53 2  
    57   52   54 1  
    58   54   55 1  
    59   54   58 1  
    60   55   56 1  
    61   55   57 1  
    62   58   59 am 
    63   59   60 2  
    64   59   61 1  
    65   61   62 1  
    66   61   73 1  
    67   62   63 1  
    68   63   64 ar 
    69   63   72 ar 
    70   64   65 ar 
    71   65   66 ar 
    72   66   67 ar 
    73   67   68 ar 
    74   67   72 ar 
    75   68   69 ar 
    76   69   70 ar 
    77   70   71 ar 
    78   71   72 ar 
    79   73   74 1  
    80   74   75 2  
    81   74   76 2  
    82   74   77 1  
    83   77   78 1  
    84   77   79 1  
    85   77   80 1  
    86    1   81 1  
    87    1   82 1  
    88    1   83 1  
    89    2   84 1  
    90    2   85 1  
    91    2   86 1  
    92    3   87 1  
    93    3   88 1  
    94    3   89 1  
    95    8   90 1  
    96    8   91 1  
    97    9   92 1  
    98   10   93 1  
    99   10   94 1  
   100   12   95 1  
   101   13   96 1  
   102   14   97 1  
   103   16   98 1  
   104   17   99 1  
   105   18  100 1  
   106   19  101 1  
   107   23  102 1  
   108   24  103 1  
   109   25  104 1  
   110   26  105 1  
   111   26  106 1  
   112   26  107 1  
   113   27  108 1  
   114   27  109 1  
   115   27  110 1  
   116   30  111 1  
   117   31  112 1  
   118   32  113 1  
   119   32  114 1  
   120   34  115 1  
   121   35  116 1  
   122   36  117 1  
   123   37  118 1  
   124   38  119 1  
   125   39  120 1  
   126   40  121 1  
   127   41  122 1  
   128   42  123 1  
   129   43  124 1  
   130   44  125 1  
   131   44  126 1  
   132   46  127 1  
   133   47  128 1  
   134   48  129 1  
   135   49  130 1  
   136   50  131 1  
   137   51  132 1  
   138   54  133 1  
   139   55  134 1  
   140   56  135 1  
   141   56  136 1  
   142   56  137 1  
   143   57  138 1  
   144   57  139 1  
   145   57  140 1  
   146   58  141 1  
   147   61  142 1  
   148   62  143 1  
   149   62  144 1  
   150   64  145 1  
   151   65  146 1  
   152   66  147 1  
   153   68  148 1  
   154   69  149 1  
   155   70  150 1  
   156   71  151 1  
   157   73  152 1  
   158   73  153 1  
   159   78  154 1  
   160   78  155 1  
   161   78  156 1  
   162   79  157 1  
   163   79  158 1  
   164   79  159 1  
   165   80  160 1  
   166   80  161 1  
   167   80  162 1  
@<TRIPOS>SUBSTRUCTURE
     1 BAY         1

