3zly_ligand
  -I-interpret- 

 17 18  0  0  0  0  0  0  0  0999 V2000
  -18.5080   26.5200   -3.1050 C   0  0  0  0  0
  -18.2710   25.4210   -3.2890 N   0  0  0  0  0
  -18.7500   27.9220   -2.8960 C   0  0  0  0  0
  -17.6590   28.7860   -2.8010 C   0  0  0  0  0
  -17.8520   30.1490   -2.6800 C   0  0  0  0  0
  -19.1350   30.6740   -2.6270 C   0  0  0  0  0
  -20.2320   29.8190   -2.7170 C   0  0  0  0  0
  -21.5620   30.0650   -2.7450 N   0  0  0  0  0
  -22.2870   28.9180   -2.8650 N   0  0  0  0  0
  -21.4100   27.8870   -2.9340 C   0  0  0  0  0
  -20.0700   28.4240   -2.8480 C   0  0  0  0  0
  -21.8090   26.6140   -3.0700 N   0  0  0  0  0
  -16.6465   28.3830   -2.8224 H   0  0  0  0  0
  -16.9912   30.8154   -2.6259 H   0  0  0  0  0
  -19.2842   31.7480   -2.5157 H   0  0  0  0  0
  -22.8035   26.3944   -3.1252 H   0  0  0  0  0
  -21.1179   25.8653   -3.1182 H   0  0  0  0  0
  1  2  3  0  0  0
  1  3  1  0  0  0
  3  4  4  0  0  0
  3 11  4  0  0  0
  4  5  4  0  0  0
  5  6  4  0  0  0
  6  7  4  0  0  0
  7  8  4  0  0  0
  7 11  4  0  0  0
  8  9  4  0  0  0
  9 10  4  0  0  0
 10 11  4  0  0  0
 10 12  1  0  0  0
  4 13  1  0  0  0
  5 14  1  0  0  0
  6 15  1  0  0  0
 12 16  1  0  0  0
 12 17  1  0  0  0
M  END
$$$$
