5q14_ligand
  -I-interpret- 

 61 65  0  0  0  0  0  0  0  0999 V2000
   13.2640   24.1690    3.8230 N   0  0  0  0  0
   13.5180   25.6800    2.1720 N   0  0  0  0  0
   12.0260   24.8040    3.6730 C   0  0  0  0  0
   12.2040   25.7300    2.6470 C   0  0  0  0  0
   10.8190   24.6380    4.3370 C   0  0  0  0  0
   13.6470   23.0700    4.7890 C   0  0  0  0  0
   11.1330   26.5370    2.2580 C   0  0  0  0  0
    9.2080   18.0850    0.7230 C   0  0  0  0  0
   10.2410   18.9720    1.3340 C   0  0  0  0  0
   10.9340   21.1470    2.0120 C   0  0  0  0  0
   12.1380   20.6730    2.4810 C   0  0  0  0  0
   11.4530   18.4630    1.8060 C   0  0  0  0  0
   12.4080   19.3040    2.3820 C   0  0  0  0  0
   13.5380   23.5320    6.2530 C   0  0  0  0  0
   15.8380   23.1970    2.0010 C   0  0  0  0  0
   12.8290   21.8190    4.4660 C   0  0  0  0  0
   12.9840   21.5990    3.0310 O   0  0  0  0  0
    9.9850   20.3340    1.4440 C   0  0  0  0  0
   10.6770   22.4710    2.1140 F   0  0  0  0  0
    9.4880   16.8290    0.7180 O   0  0  0  0  0
    8.1740   18.5310    0.2720 O   0  0  0  0  0
   14.0890   22.4660    7.2210 C   0  0  0  0  0
   13.9690   22.8970    8.6910 C   0  0  0  0  0
   14.6800   24.2170    8.9390 C   0  0  0  0  0
   14.1600   25.3220    7.9730 C   0  0  0  0  0
   14.2570   24.8640    6.4860 C   0  0  0  0  0
    9.7810   25.4350    3.9350 C   0  0  0  0  0
    9.9300   26.3650    2.9210 C   0  0  0  0  0
   14.1060   24.7380    2.8950 C   0  0  0  0  0
   15.5140   24.3370    2.7370 C   0  0  0  0  0
   16.5440   25.0650    3.3330 C   0  0  0  0  0
   17.8690   24.6700    3.1860 C   0  0  0  0  0
   18.1550   23.5410    2.4450 C   0  0  0  0  0
   17.1550   22.7990    1.8520 C   0  0  0  0  0
   19.8110   23.0370    2.2570 Cl  0  0  0  0  0
    8.8730   27.1190    2.5780 F   0  0  0  0  0
    8.5740   25.3130    4.5470 F   0  0  0  0  0
   10.7030   23.9091    5.1390 H   0  0  0  0  0
   14.6993   22.8143    4.6648 H   0  0  0  0  0
   11.2401   27.2744    1.4625 H   0  0  0  0  0
   11.6563   17.3953    1.7238 H   0  0  0  0  0
   13.3509   18.8990    2.7494 H   0  0  0  0  0
   12.4767   23.6761    6.4555 H   0  0  0  0  0
   15.0436   22.6122    1.5373 H   0  0  0  0  0
   11.7810   21.9512    4.7351 H   0  0  0  0  0
   13.1782   20.9594    5.0380 H   0  0  0  0  0
    9.0441   20.7504    1.0843 H   0  0  0  0  0
   10.3491   16.6927    1.1199 H   0  0  0  0  0
   15.1454   22.3186    6.9966 H   0  0  0  0  0
   13.5073   21.5540    7.0870 H   0  0  0  0  0
   14.4298   22.1319    9.3157 H   0  0  0  0  0
   12.9131   23.0211    8.9312 H   0  0  0  0  0
   15.7472   24.0767    8.7672 H   0  0  0  0  0
   14.4868   24.5306    9.9649 H   0  0  0  0  0
   14.7734   26.2136    8.1027 H   0  0  0  0  0
   13.1147   25.5241    8.2068 H   0  0  0  0  0
   13.7837   25.6224    5.8624 H   0  0  0  0  0
   15.3098   24.7334    6.2358 H   0  0  0  0  0
   16.3077   25.9526    3.9199 H   0  0  0  0  0
   18.6712   25.2442    3.6497 H   0  0  0  0  0
   17.3993   21.9088    1.2723 H   0  0  0  0  0
  1  3  4  0  0  0
  1  6  1  0  0  0
 29  1  4  0  0  0
  2  4  4  0  0  0
 29  2  4  0  0  0
  4  3  4  0  0  0
  3  5  4  0  0  0
  4  7  4  0  0  0
  5 27  4  0  0  0
  6 14  1  0  0  0
  6 16  1  0  0  0
  7 28  4  0  0  0
  9  8  1  0  0  0
  8 20  1  0  0  0
  8 21  2  0  0  0
 12  9  4  0  0  0
 18  9  4  0  0  0
 11 10  4  0  0  0
 10 18  4  0  0  0
 10 19  1  0  0  0
 11 13  4  0  0  0
 17 11  1  0  0  0
 13 12  4  0  0  0
 14 22  1  0  0  0
 14 26  1  0  0  0
 30 15  4  0  0  0
 15 34  4  0  0  0
 16 17  1  0  0  0
 22 23  1  0  0  0
 23 24  1  0  0  0
 25 24  1  0  0  0
 26 25  1  0  0  0
 28 27  4  0  0  0
 27 37  1  0  0  0
 28 36  1  0  0  0
 29 30  1  0  0  0
 30 31  4  0  0  0
 31 32  4  0  0  0
 32 33  4  0  0  0
 33 34  4  0  0  0
 33 35  1  0  0  0
  5 38  1  0  0  0
  6 39  1  0  0  0
  7 40  1  0  0  0
 12 41  1  0  0  0
 13 42  1  0  0  0
 14 43  1  0  0  0
 15 44  1  0  0  0
 16 45  1  0  0  0
 16 46  1  0  0  0
 18 47  1  0  0  0
 20 48  1  0  0  0
 22 49  1  0  0  0
 22 50  1  0  0  0
 23 51  1  0  0  0
 23 52  1  0  0  0
 24 53  1  0  0  0
 24 54  1  0  0  0
 25 55  1  0  0  0
 25 56  1  0  0  0
 26 57  1  0  0  0
 26 58  1  0  0  0
 31 59  1  0  0  0
 32 60  1  0  0  0
 34 61  1  0  0  0
M  END
$$$$
