2yay_ligand
  -I-interpret- 

 46 47  0  0  0  0  0  0  0  0999 V2000
   -5.8790   28.1630   -4.0830 O   0  0  0  0  0
   -6.9370   28.7960   -3.5900 C   0  0  0  0  0
   -7.9880   29.0280   -4.5010 C   0  0  0  0  0
   -9.1340   29.6000   -4.0120 C   0  0  0  0  0
   -7.0560   29.1280   -2.2860 N   0  0  0  0  0
   -8.1760   29.7010   -1.8490 C   0  0  0  0  0
   -8.2680   30.0760   -0.6660 O   0  0  0  0  0
   -9.2000   29.9760   -2.7150 N   0  0  0  0  0
  -10.4170   30.6040   -2.2050 C   0  0  0  0  0
  -10.2720   31.9760   -1.6370 C   0  0  0  0  0
  -11.6010   32.6620   -1.8040 C   0  0  0  0  0
  -12.2980   32.8540   -0.5440 O   0  0  0  0  0
  -11.4380   30.7800   -3.2210 O   0  0  0  0  0
  -12.3400   31.7200   -2.7070 C   0  0  0  0  0
  -12.9910   32.3640   -3.9130 C   0  0  0  0  0
  -13.5650   31.3400   -4.7380 O   0  0  0  0  0
  -14.4530   31.7580   -6.0610 P   0  0  0  0  0
  -14.4520   30.5530   -6.9150 O   0  0  0  0  0
  -13.8830   33.0630   -6.5690 O   0  0  0  0  0
  -16.0440   32.0980   -5.6570 N   0  0  0  0  0
  -16.5870   33.3430   -4.6940 P   0  0  0  0  0
  -15.8360   34.7270   -4.8210 O   0  0  0  0  0
  -16.6840   32.8670   -3.2470 O   0  0  0  0  0
  -18.0240   33.5690   -5.4180 O   0  0  0  0  0
  -18.0470   33.8930   -7.0420 P   0  0  0  0  0
  -18.1110   32.5770   -7.8260 O   0  0  0  0  0
  -16.7590   34.6080   -7.5350 O   0  0  0  0  0
  -19.2700   34.7670   -7.0640 O   0  0  0  0  0
   -5.2224   28.0528   -3.3913 H   0  0  0  0  0
   -7.8929   28.7627   -5.5539 H   0  0  0  0  0
   -9.8908   28.8216   -4.1095 H   0  0  0  0  0
   -9.2351   30.5300   -4.5714 H   0  0  0  0  0
   -6.2907   28.9405   -1.6383 H   0  0  0  0  0
  -10.6813   29.8905   -1.4245 H   0  0  0  0  0
   -9.4855   32.5266   -2.1530 H   0  0  0  0  0
   -9.9900   31.9308   -0.5851 H   0  0  0  0  0
  -11.5061   33.6718   -2.2031 H   0  0  0  0  0
  -13.1358   33.2936   -0.7068 H   0  0  0  0  0
  -13.1261   31.2950   -2.0829 H   0  0  0  0  0
  -12.2438   32.9177   -4.4816 H   0  0  0  0  0
  -13.7707   33.0518   -3.5858 H   0  0  0  0  0
  -13.9657   33.7339   -5.8874 H   0  0  0  0  0
  -16.7549   31.4761   -6.0420 H   0  0  0  0  0
  -15.7989   34.9861   -5.7446 H   0  0  0  0  0
  -17.2764   32.1112   -7.7359 H   0  0  0  0  0
  -16.0199   33.9966   -7.4955 H   0  0  0  0  0
  1  2  1  0  0  0
  2  3  2  0  0  0
  2  5  1  0  0  0
  3  4  1  0  0  0
  4  8  1  0  0  0
  5  6  1  0  0  0
  6  7  2  0  0  0
  6  8  1  0  0  0
  8  9  1  0  0  0
  9 10  1  0  0  0
  9 13  1  0  0  0
 10 11  1  0  0  0
 11 12  1  0  0  0
 11 14  1  0  0  0
 13 14  1  0  0  0
 14 15  1  0  0  0
 15 16  1  0  0  0
 16 17  1  0  0  0
 17 18  2  0  0  0
 17 19  1  0  0  0
 17 20  1  0  0  0
 20 21  1  0  0  0
 21 22  1  0  0  0
 21 23  2  0  0  0
 21 24  1  0  0  0
 24 25  1  0  0  0
 25 26  1  0  0  0
 25 27  1  0  0  0
 25 28  2  0  0  0
  1 29  1  0  0  0
  3 30  1  0  0  0
  4 31  1  0  0  0
  4 32  1  0  0  0
  5 33  1  0  0  0
  9 34  1  0  0  0
 10 35  1  0  0  0
 10 36  1  0  0  0
 11 37  1  0  0  0
 12 38  1  0  0  0
 14 39  1  0  0  0
 15 40  1  0  0  0
 15 41  1  0  0  0
 19 42  1  0  0  0
 20 43  1  0  0  0
 22 44  1  0  0  0
 26 45  1  0  0  0
 27 46  1  0  0  0
M  END
$$$$
