3d4q_ligand
  -I-interpret- 

 55 59  0  0  0  0  0  0  0  0999 V2000
   87.5860    6.9220   -7.5930 C   0  0  0  0  0
   86.1670    7.2950   -7.6370 N   0  3  0  0  0
   81.6530    4.6490   -5.7640 C   0  0  0  0  0
   82.7000    5.5100   -6.1410 C   0  0  0  0  0
   82.5440    6.4220   -7.1840 C   0  0  0  0  0
   81.1940    6.4880   -7.9520 C   0  0  0  0  0
   80.1590    5.5860   -7.5350 C   0  0  0  0  0
   80.4380    4.6840   -6.4410 C   0  0  0  0  0
   81.8330    9.3240   -7.5860 C   0  0  0  0  0
   85.7210    8.5800   -8.0120 N   0  0  0  0  0
   80.9140   10.3890   -7.8650 C   0  0  0  0  0
   82.5030   11.5550   -9.1340 C   0  0  0  0  0
   89.8700    7.4050   -7.8600 C   0  0  0  0  0
   83.5760   10.4790   -8.9100 C   0  0  0  0  0
   85.1430    6.4040   -7.3060 C   0  0  0  0  0
   83.2120    9.4050   -8.1440 C   0  0  0  0  0
   83.7340    7.1640   -7.4610 C   0  0  0  0  0
   87.7740    5.4600   -8.0120 C   0  0  0  0  0
   89.2320    4.9460   -7.7250 C   0  0  0  0  0
   84.0570    8.4330   -7.8780 C   0  0  0  0  0
   81.2270   11.4930   -8.6190 N   0  0  0  0  0
   90.2100    5.9550   -8.2090 N   0  3  0  0  0
   88.4150    7.7280   -8.2820 C   0  0  0  0  0
   78.7450    5.3560   -8.0390 C   0  0  0  0  0
   78.1780    4.1230   -7.0480 C   0  0  0  0  0
   79.3620    3.8420   -6.1140 C   0  0  0  0  0
   79.4410    3.0460   -5.1830 N   0  0  0  0  0
   78.2300    2.3440   -5.0280 O   0  0  0  0  0
   87.8776    7.0512   -6.5507 H   0  0  0  0  0
   87.1610    7.0668   -7.6504 H   0  0  0  0  0
   81.7943    3.9517   -4.9382 H   0  0  0  0  0
   83.6498    5.4632   -5.6083 H   0  0  0  0  0
   81.0403    7.1894   -8.7721 H   0  0  0  0  0
   81.5286    8.4722   -6.9778 H   0  0  0  0  0
   86.2712    9.3916   -8.2930 H   0  0  0  0  0
   79.9070   10.3178   -7.4540 H   0  0  0  0  0
   82.7680   12.4223   -9.7386 H   0  0  0  0  0
   90.5519    8.0696   -8.3905 H   0  0  0  0  0
   89.9697    7.5464   -6.7838 H   0  0  0  0  0
   84.5745   10.5663   -9.3385 H   0  0  0  0  0
   85.2681    6.0585   -6.2798 H   0  0  0  0  0
   85.1739    5.5393   -7.9689 H   0  0  0  0  0
   87.5926    5.3874   -9.0843 H   0  0  0  0  0
   87.0784    4.8490   -7.4366 H   0  0  0  0  0
   89.3952    4.0007   -8.2427 H   0  0  0  0  0
   89.3623    4.7949   -6.6534 H   0  0  0  0  0
   91.0991    5.7440   -7.7559 H   0  0  0  0  0
   90.2188    5.8916   -9.2270 H   0  0  0  0  0
   88.1863    8.7717   -8.0664 H   0  0  0  0  0
   88.2912    7.5643   -9.3525 H   0  0  0  0  0
   78.7137    5.0929   -9.0963 H   0  0  0  0  0
   78.1292    6.2538   -7.9862 H   0  0  0  0  0
   77.8716    3.2415   -7.6112 H   0  0  0  0  0
   77.2754    4.4043   -6.5056 H   0  0  0  0  0
   78.3103    1.7272   -4.2967 H   0  0  0  0  0
  2  1  1  0  0  0
  1 18  1  0  0  0
  1 23  1  0  0  0
 10  2  1  0  0  0
  2 15  1  0  0  0
  4  3  4  0  0  0
  3  8  4  0  0  0
  5  4  4  0  0  0
  5  6  4  0  0  0
 17  5  1  0  0  0
  6  7  4  0  0  0
  7  8  4  0  0  0
  7 24  1  0  0  0
  8 26  1  0  0  0
  9 11  4  0  0  0
 16  9  4  0  0  0
 20 10  1  0  0  0
 11 21  4  0  0  0
 14 12  4  0  0  0
 12 21  4  0  0  0
 13 22  1  0  0  0
 23 13  1  0  0  0
 16 14  4  0  0  0
 15 17  1  0  0  0
 16 20  1  0  0  0
 17 20  2  0  0  0
 18 19  1  0  0  0
 19 22  1  0  0  0
 24 25  1  0  0  0
 25 26  1  0  0  0
 26 27  2  0  0  0
 27 28  1  0  0  0
  1 29  1  0  0  0
  2 30  1  0  0  0
  3 31  1  0  0  0
  4 32  1  0  0  0
  6 33  1  0  0  0
  9 34  1  0  0  0
 10 35  1  0  0  0
 11 36  1  0  0  0
 12 37  1  0  0  0
 13 38  1  0  0  0
 13 39  1  0  0  0
 14 40  1  0  0  0
 15 41  1  0  0  0
 15 42  1  0  0  0
 18 43  1  0  0  0
 18 44  1  0  0  0
 19 45  1  0  0  0
 19 46  1  0  0  0
 22 47  1  0  0  0
 22 48  1  0  0  0
 23 49  1  0  0  0
 23 50  1  0  0  0
 24 51  1  0  0  0
 24 52  1  0  0  0
 25 53  1  0  0  0
 25 54  1  0  0  0
 28 55  1  0  0  0
M  END
$$$$
