5nk4_ligand
  -I-interpret- 

 57 60  0  0  0  0  0  0  0  0999 V2000
  -81.1520   -7.8430    3.9170 F   0  0  0  0  0
  -80.3400   -8.8200    3.5730 C   0  0  0  0  0
  -79.9380   -9.3630    4.7890 F   0  0  0  0  0
  -79.1690   -8.3370    2.7710 C   0  0  0  0  0
  -78.2590   -9.4450    2.4230 N   0  3  0  0  0
  -78.8660  -10.7870    2.5310 C   0  0  0  0  0
  -80.2890  -10.8150    1.9980 C   0  0  0  0  0
  -81.1610   -9.7600    2.7060 C   0  0  0  0  0
  -82.1650  -10.2760    3.6450 N   0  0  0  0  0
  -82.2220  -11.4670    4.2620 C   0  0  0  0  0
  -81.4510  -12.4190    4.1390 O   0  0  0  0  0
  -83.2530  -11.4970    5.1810 C   0  0  0  0  0
  -84.5850  -11.4210    4.7910 C   0  0  0  0  0
  -82.9010  -11.5420    6.5200 C   0  0  0  0  0
  -83.8890  -11.5400    7.4880 C   0  0  0  0  0
  -85.2180  -11.4800    7.0970 C   0  0  0  0  0
  -85.5940  -11.4380    5.7520 C   0  0  0  0  0
  -86.8660  -11.3670    5.3050 N   0  0  0  0  0
  -87.9430  -11.8810    5.9350 C   0  0  0  0  0
  -88.0230  -12.7080    7.3550 S   0  0  0  0  0
  -89.1950  -11.7860    5.4600 N   0  0  0  0  0
  -90.1290  -12.3760    6.2500 C   0  0  0  0  0
  -89.6180  -12.9470    7.3580 C   0  0  0  0  0
  -90.2330  -13.6090    8.3560 C   0  0  0  0  0
  -89.5770  -13.9120    9.3540 O   0  0  0  0  0
  -91.5510  -13.9110    8.2260 N   0  0  0  0  0
  -92.1740  -14.5420    9.2540 C   0  0  0  0  0
  -92.2620  -15.9350    9.2930 C   0  0  0  0  0
  -91.5870  -16.9340    8.0590 Cl  0  0  0  0  0
  -92.9160  -16.5520   10.3550 C   0  0  0  0  0
  -93.4780  -15.7900   11.3740 C   0  0  0  0  0
  -93.3940  -14.4020   11.3290 C   0  0  0  0  0
  -92.7470  -13.7740   10.2690 C   0  0  0  0  0
  -92.6840  -12.3860   10.2490 C   0  0  0  0  0
  -78.6171   -7.6111    3.3681 H   0  0  0  0  0
  -79.5419   -7.8932    1.8479 H   0  0  0  0  0
  -77.4817   -9.4133    3.0826 H   0  0  0  0  0
  -77.9880   -9.3158    1.4482 H   0  0  0  0  0
  -78.8920  -11.0648    3.5847 H   0  0  0  0  0
  -78.2675  -11.4796    1.9393 H   0  0  0  0  0
  -80.7134  -11.8020    2.1822 H   0  0  0  0  0
  -80.2684  -10.5944    0.9308 H   0  0  0  0  0
  -81.6420   -9.2846    1.8512 H   0  0  0  0  0
  -82.9303   -9.6367    3.8597 H   0  0  0  0  0
  -84.8402  -11.3481    3.7338 H   0  0  0  0  0
  -81.8507  -11.5788    6.8093 H   0  0  0  0  0
  -83.6262  -11.5850    8.5449 H   0  0  0  0  0
  -85.9935  -11.4651    7.8628 H   0  0  0  0  0
  -87.0258  -10.8861    4.4198 H   0  0  0  0  0
  -91.1922  -12.3865    6.0101 H   0  0  0  0  0
  -92.0606  -13.6694    7.3761 H   0  0  0  0  0
  -92.9883  -17.6391   10.3886 H   0  0  0  0  0
  -93.9834  -16.2796   12.2065 H   0  0  0  0  0
  -93.8363  -13.8047   12.1263 H   0  0  0  0  0
  -91.6406  -12.0708   10.2551 H   0  0  0  0  0
  -93.1719  -12.0144    9.3479 H   0  0  0  0  0
  -93.1903  -11.9879   11.1284 H   0  0  0  0  0
  1  2  1  0  0  0
  2  3  1  0  0  0
  2  4  1  0  0  0
  2  8  1  0  0  0
  4  5  1  0  0  0
  5  6  1  0  0  0
  6  7  1  0  0  0
  7  8  1  0  0  0
  8  9  1  0  0  0
  9 10  1  0  0  0
 10 11  2  0  0  0
 10 12  1  0  0  0
 12 13  4  0  0  0
 12 14  4  0  0  0
 13 17  4  0  0  0
 14 15  4  0  0  0
 15 16  4  0  0  0
 16 17  4  0  0  0
 17 18  1  0  0  0
 18 19  1  0  0  0
 19 20  4  0  0  0
 19 21  4  0  0  0
 20 23  4  0  0  0
 21 22  4  0  0  0
 22 23  4  0  0  0
 23 24  1  0  0  0
 24 25  2  0  0  0
 24 26  1  0  0  0
 26 27  1  0  0  0
 27 28  4  0  0  0
 27 33  4  0  0  0
 28 29  1  0  0  0
 28 30  4  0  0  0
 30 31  4  0  0  0
 31 32  4  0  0  0
 32 33  4  0  0  0
 33 34  1  0  0  0
  4 35  1  0  0  0
  4 36  1  0  0  0
  5 37  1  0  0  0
  5 38  1  0  0  0
  6 39  1  0  0  0
  6 40  1  0  0  0
  7 41  1  0  0  0
  7 42  1  0  0  0
  8 43  1  0  0  0
  9 44  1  0  0  0
 13 45  1  0  0  0
 14 46  1  0  0  0
 15 47  1  0  0  0
 16 48  1  0  0  0
 18 49  1  0  0  0
 22 50  1  0  0  0
 26 51  1  0  0  0
 30 52  1  0  0  0
 31 53  1  0  0  0
 32 54  1  0  0  0
 34 55  1  0  0  0
 34 56  1  0  0  0
 34 57  1  0  0  0
M  END
$$$$
