4y2u_ligand
  -I-interpret- 

 38 39  0  0  0  0  0  0  0  0999 V2000
  -16.1220  -13.3570   68.3650 C   0  0  0  0  0
  -17.3550  -13.7330   68.8330 C   0  0  0  0  0
  -15.9650  -12.0950   67.8440 C   0  0  0  0  0
  -18.4160  -12.8620   68.7750 C   0  0  0  0  0
  -17.0260  -11.2170   67.7760 C   0  0  0  0  0
  -18.2550  -11.6100   68.2450 C   0  0  0  0  0
  -17.3140   -8.3010   64.5450 C   0  0  0  0  0
  -16.8230   -9.8540   67.1850 C   0  0  0  0  0
  -19.2980  -10.1820   66.8490 C   0  0  0  0  0
  -18.1410   -9.2180   66.7780 C   0  0  0  0  0
  -18.0240   -5.3980   62.4510 C   0  0  0  0  0
  -15.8690   -6.4700   62.0500 C   0  0  0  0  0
  -17.8710   -7.7220   61.6610 C   0  0  0  0  0
  -17.2690   -6.6970   62.5790 C   0  0  0  0  0
  -19.3320  -10.7380   68.1810 N   0  0  0  0  0
  -18.2010   -8.3770   65.5900 N   0  0  0  0  0
  -16.6440   -9.2560   64.1930 O   0  0  0  0  0
  -17.2860   -7.0140   64.0080 O   0  0  0  0  0
  -15.2800  -14.0480   68.4056 H   0  0  0  0  0
  -17.4941  -14.7289   69.2536 H   0  0  0  0  0
  -14.9864  -11.7833   67.4788 H   0  0  0  0  0
  -19.3911  -13.1694   69.1530 H   0  0  0  0  0
  -16.2001   -9.9537   66.2961 H   0  0  0  0  0
  -16.3525   -9.2198   67.9364 H   0  0  0  0  0
  -19.1737  -10.9754   66.1120 H   0  0  0  0  0
  -20.2331   -9.6658   66.6317 H   0  0  0  0  0
  -18.2335   -8.4656   67.5612 H   0  0  0  0  0
  -17.5189   -4.6268   63.0326 H   0  0  0  0  0
  -18.0579   -5.1007   61.4029 H   0  0  0  0  0
  -19.0391   -5.5308   62.8253 H   0  0  0  0  0
  -15.9220   -6.1631   61.0054 H   0  0  0  0  0
  -15.3830   -5.6893   62.6352 H   0  0  0  0  0
  -15.2974   -7.3947   62.1298 H   0  0  0  0  0
  -18.9150   -7.8810   61.9308 H   0  0  0  0  0
  -17.8103   -7.3668   60.6323 H   0  0  0  0  0
  -17.3230   -8.6594   61.7560 H   0  0  0  0  0
  -20.0056  -10.5330   68.9190 H   0  0  0  0  0
  -19.0117   -7.7613   65.5260 H   0  0  0  0  0
  1  2  4  0  0  0
  3  1  4  0  0  0
  4  2  4  0  0  0
  5  3  4  0  0  0
  6  4  4  0  0  0
  5  6  4  0  0  0
  8  5  1  0  0  0
 15  6  1  0  0  0
  7 16  1  0  0  0
  7 17  2  0  0  0
 18  7  1  0  0  0
 10  8  1  0  0  0
 10  9  1  0  0  0
  9 15  1  0  0  0
 16 10  1  0  0  0
 14 11  1  0  0  0
 14 12  1  0  0  0
 14 13  1  0  0  0
 14 18  1  0  0  0
  1 19  1  0  0  0
  2 20  1  0  0  0
  3 21  1  0  0  0
  4 22  1  0  0  0
  8 23  1  0  0  0
  8 24  1  0  0  0
  9 25  1  0  0  0
  9 26  1  0  0  0
 10 27  1  0  0  0
 11 28  1  0  0  0
 11 29  1  0  0  0
 11 30  1  0  0  0
 12 31  1  0  0  0
 12 32  1  0  0  0
 12 33  1  0  0  0
 13 34  1  0  0  0
 13 35  1  0  0  0
 13 36  1  0  0  0
 15 37  1  0  0  0
 16 38  1  0  0  0
M  END
$$$$
