3ivv_ligand
  -I-interpret- 

115114  0  0  0  0  0  0  0  0999 V2000
   18.5610   17.5380   -3.1550 N   0  3  0  0  0
   19.6860   18.2890   -2.5150 C   0  0  0  0  0
   20.5390   17.3840   -1.6260 C   0  0  0  0  0
   20.0700   16.9070   -0.5930 O   0  0  0  0  0
   19.1420   19.4760   -1.7140 C   0  0  0  0  0
   21.7950   17.1630   -2.0270 N   0  0  0  0  0
   22.6980   16.2120   -1.3530 C   0  0  0  0  0
   22.1290   14.7840   -1.2620 C   0  0  0  0  0
   22.2420   14.1330   -0.2210 O   0  0  0  0  0
   23.1020   16.7350    0.0390 C   0  0  0  0  0
   21.5360   14.3120   -2.3590 N   0  0  0  0  0
   20.9540   12.9640   -2.4200 C   0  0  0  0  0
   22.0040   11.9740   -2.9090 C   0  0  0  0  0
   22.6440   12.1980   -3.9460 O   0  0  0  0  0
   19.7240   12.9140   -3.3700 C   0  0  0  0  0
   19.2410   11.4810   -3.5850 C   0  0  0  0  0
   18.5810   13.7720   -2.8440 C   0  0  0  0  0
   22.2120   10.8990   -2.1540 N   0  0  0  0  0
   23.1260    9.8430   -2.5660 C   0  0  0  0  0
   22.4870    8.4880   -2.3180 C   0  0  0  0  0
   21.4530    8.3810   -1.6610 O   0  0  0  0  0
   24.4640    9.9110   -1.8050 C   0  0  0  0  0
   24.2150    9.7410   -0.4140 O   0  0  0  0  0
   25.1610   11.2470   -2.0210 C   0  0  0  0  0
   23.1350    7.4560   -2.8420 N   0  0  0  0  0
   22.7380    6.0780   -2.6160 C   0  0  0  0  0
   23.8910    5.3480   -1.9700 C   0  0  0  0  0
   25.0560    5.6650   -2.2360 O   0  0  0  0  0
   22.3930    5.4180   -3.9510 C   0  0  0  0  0
   22.1080    4.0340   -3.8010 O   0  0  0  0  0
   23.5770    4.3580   -1.1410 N   0  0  0  0  0
   24.6040    3.5780   -0.4750 C   0  0  0  0  0
   25.3130    2.6120   -1.4230 C   0  0  0  0  0
   26.3340    2.0330   -1.0500 O   0  0  0  0  0
   24.0380    2.8000    0.7440 C   0  0  0  0  0
   23.0950    1.8140    0.3010 O   0  0  0  0  0
   23.3830    3.7380    1.7450 C   0  0  0  0  0
   24.7690    2.4380   -2.6280 N   0  0  0  0  0
   25.4090    1.6550   -3.6860 C   0  0  0  0  0
   25.4150    2.4420   -4.9970 C   0  0  0  0  0
   24.6400    3.3810   -5.1810 O   0  0  0  0  0
   24.6550    0.3290   -3.9370 C   0  0  0  0  0
   23.3380    0.6240   -4.4100 O   0  0  0  0  0
   24.5910   -0.5370   -2.6680 C   0  0  0  0  0
   26.2950    2.0390   -5.9130 N   0  0  0  0  0
   26.3160    2.5610   -7.2720 C   0  0  0  0  0
   26.6470    1.4240   -8.2300 C   0  0  0  0  0
   27.3590    0.4820   -7.8680 O   0  0  0  0  0
   27.3350    3.6970   -7.4180 C   0  0  0  0  0
   26.8940    4.8870   -6.7770 O   0  0  0  0  0
   26.1160    1.5120   -9.4430 N   0  0  0  0  0
   26.3070    0.4720  -10.4530 C   0  0  0  0  0
   26.2890    1.0920  -11.8410 C   0  0  0  0  0
   25.4980    2.0030  -12.1050 O   0  0  0  0  0
   25.2260   -0.5980  -10.3280 C   0  0  0  0  0
   27.1720    0.6020  -12.7140 N   0  0  0  0  0
   18.9367   16.7513   -3.6845 H   0  0  0  0  0
   17.9298   17.1924   -2.4321 H   0  0  0  0  0
   18.0523   18.1602   -3.7831 H   0  0  0  0  0
   20.3308   18.6637   -3.3099 H   0  0  0  0  0
   18.5278   19.1074   -0.8925 H   0  0  0  0  0
   19.9745   20.0557   -1.3152 H   0  0  0  0  0
   18.5380   20.1066   -2.3664 H   0  0  0  0  0
   22.1447   17.6758   -2.8364 H   0  0  0  0  0
   23.5882   16.1415   -1.9780 H   0  0  0  0  0
   22.2271   16.7473    0.6891 H   0  0  0  0  0
   23.8632   16.0811    0.4645 H   0  0  0  0  0
   23.5004   17.7452   -0.0554 H   0  0  0  0  0
   21.4845   14.9078   -3.1853 H   0  0  0  0  0
   20.6224   12.6986   -1.4162 H   0  0  0  0  0
   20.0484   13.3171   -4.3294 H   0  0  0  0  0
   20.0437   10.8909   -4.0273 H   0  0  0  0  0
   18.9554   11.0476   -2.6265 H   0  0  0  0  0
   18.3805   11.4855   -4.2540 H   0  0  0  0  0
   18.2764   13.4074   -1.8630 H   0  0  0  0  0
   18.9134   14.8068   -2.7614 H   0  0  0  0  0
   17.7380   13.7137   -3.5325 H   0  0  0  0  0
   21.7194   10.8122   -1.2650 H   0  0  0  0  0
   23.3294    9.9819   -3.6278 H   0  0  0  0  0
   25.1122    9.1204   -2.1831 H   0  0  0  0  0
   25.0454    9.7824    0.0660 H   0  0  0  0  0
   25.3604   11.3837   -3.0839 H   0  0  0  0  0
   24.5189   12.0522   -1.6640 H   0  0  0  0  0
   26.1010   11.2584   -1.4692 H   0  0  0  0  0
   23.9483    7.6387   -3.4298 H   0  0  0  0  0
   21.8626    6.0414   -1.9675 H   0  0  0  0  0
   23.2520    5.5197   -4.6142 H   0  0  0  0  0
   21.5066    5.9073   -4.3547 H   0  0  0  0  0
   21.8969    3.6572   -4.6583 H   0  0  0  0  0
   22.5950    4.1420   -0.9694 H   0  0  0  0  0
   25.3398    4.2990   -0.1188 H   0  0  0  0  0
   24.8701    2.3049    1.2445 H   0  0  0  0  0
   22.7505    1.3383    1.0604 H   0  0  0  0  0
   24.1201    4.4562    2.1041 H   0  0  0  0  0
   22.5628    4.2683    1.2612 H   0  0  0  0  0
   22.9981    3.1597    2.5849 H   0  0  0  0  0
   23.8656    2.8704   -2.8212 H   0  0  0  0  0
   26.4266    1.4430   -3.3580 H   0  0  0  0  0
   25.1982   -0.2440   -4.6885 H   0  0  0  0  0
   22.8647   -0.1962   -4.5677 H   0  0  0  0  0
   25.6031   -0.7736   -2.3397 H   0  0  0  0  0
   24.0714    0.0107   -1.8818 H   0  0  0  0  0
   24.0533   -1.4597   -2.8861 H   0  0  0  0  0
   26.9839    1.3341   -5.6506 H   0  0  0  0  0
   25.3348    2.9726   -7.5086 H   0  0  0  0  0
   27.4641    3.9072   -8.4797 H   0  0  0  0  0
   28.2685    3.3822   -6.9515 H   0  0  0  0  0
   27.5555    5.5736   -6.8893 H   0  0  0  0  0
   25.5565    2.3317   -9.6784 H   0  0  0  0  0
   27.2748   -0.0034  -10.2933 H   0  0  0  0  0
   25.2776   -1.0509   -9.3379 H   0  0  0  0  0
   24.2464   -0.1413  -10.4695 H   0  0  0  0  0
   25.3846   -1.3634  -11.0877 H   0  0  0  0  0
   27.2189    0.9817  -13.6595 H   0  0  0  0  0
   27.7998   -0.1521  -12.4356 H   0  0  0  0  0
  1  2  1  0  0  0
  2  3  1  0  0  0
  2  5  1  0  0  0
  3  4  2  0  0  0
  3  6  1  0  0  0
  6  7  1  0  0  0
  7  8  1  0  0  0
  7 10  1  0  0  0
  8  9  2  0  0  0
  8 11  1  0  0  0
 11 12  1  0  0  0
 12 13  1  0  0  0
 12 15  1  0  0  0
 13 14  2  0  0  0
 13 18  1  0  0  0
 15 16  1  0  0  0
 15 17  1  0  0  0
 18 19  1  0  0  0
 19 20  1  0  0  0
 19 22  1  0  0  0
 20 21  2  0  0  0
 20 25  1  0  0  0
 22 23  1  0  0  0
 22 24  1  0  0  0
 25 26  1  0  0  0
 26 27  1  0  0  0
 26 29  1  0  0  0
 27 28  2  0  0  0
 27 31  1  0  0  0
 29 30  1  0  0  0
 31 32  1  0  0  0
 32 33  1  0  0  0
 32 35  1  0  0  0
 33 34  2  0  0  0
 33 38  1  0  0  0
 35 36  1  0  0  0
 35 37  1  0  0  0
 38 39  1  0  0  0
 39 40  1  0  0  0
 39 42  1  0  0  0
 40 41  2  0  0  0
 40 45  1  0  0  0
 42 43  1  0  0  0
 42 44  1  0  0  0
 45 46  1  0  0  0
 46 47  1  0  0  0
 46 49  1  0  0  0
 47 48  2  0  0  0
 47 51  1  0  0  0
 49 50  1  0  0  0
 51 52  1  0  0  0
 52 53  1  0  0  0
 52 55  1  0  0  0
 53 54  2  0  0  0
 53 56  1  0  0  0
  1 57  1  0  0  0
  1 58  1  0  0  0
  1 59  1  0  0  0
  2 60  1  0  0  0
  5 61  1  0  0  0
  5 62  1  0  0  0
  5 63  1  0  0  0
  6 64  1  0  0  0
  7 65  1  0  0  0
 10 66  1  0  0  0
 10 67  1  0  0  0
 10 68  1  0  0  0
 11 69  1  0  0  0
 12 70  1  0  0  0
 15 71  1  0  0  0
 16 72  1  0  0  0
 16 73  1  0  0  0
 16 74  1  0  0  0
 17 75  1  0  0  0
 17 76  1  0  0  0
 17 77  1  0  0  0
 18 78  1  0  0  0
 19 79  1  0  0  0
 22 80  1  0  0  0
 23 81  1  0  0  0
 24 82  1  0  0  0
 24 83  1  0  0  0
 24 84  1  0  0  0
 25 85  1  0  0  0
 26 86  1  0  0  0
 29 87  1  0  0  0
 29 88  1  0  0  0
 30 89  1  0  0  0
 31 90  1  0  0  0
 32 91  1  0  0  0
 35 92  1  0  0  0
 36 93  1  0  0  0
 37 94  1  0  0  0
 37 95  1  0  0  0
 37 96  1  0  0  0
 38 97  1  0  0  0
 39 98  1  0  0  0
 42 99  1  0  0  0
 43100  1  0  0  0
 44101  1  0  0  0
 44102  1  0  0  0
 44103  1  0  0  0
 45104  1  0  0  0
 46105  1  0  0  0
 49106  1  0  0  0
 49107  1  0  0  0
 50108  1  0  0  0
 51109  1  0  0  0
 52110  1  0  0  0
 55111  1  0  0  0
 55112  1  0  0  0
 55113  1  0  0  0
 56114  1  0  0  0
 56115  1  0  0  0
M  END
$$$$
