#	Name:			3ivv_ligand
#	Creating user name:	wangrx
#	Creation time:		Thu Sep 13 11:23:02 2018

#	Modifying user name:	wangrx
#	Modification time:	Thu Sep 13 11:24:11 2018

@<TRIPOS>MOLECULE
3ivv_ligand
  115   114     1     0     0
SMALL
GAST_HUCK


@<TRIPOS>ATOM
      1 N          18.5610   17.5380   -3.1550 N.4       1 ASP         0.2377 
      2 CA         19.6860   18.2890   -2.5150 C.3       1 ASP         0.0621 
      3 C          20.5390   17.3840   -1.6260 C.2       1 ASP         0.2264 
      4 O          20.0700   16.9070   -0.5930 O.2       1 ASP        -0.3907 
      5 CB         19.1420   19.4760   -1.7140 C.3       1 ASP        -0.0040 
      6 N          21.7950   17.1630   -2.0270 N.am      1 ASP        -0.2613 
      7 CA         22.6980   16.2120   -1.3530 C.3       1 ASP         0.1283 
      8 C          22.1290   14.7840   -1.2620 C.2       1 ASP         0.2036 
      9 O          22.2420   14.1330   -0.2210 O.2       1 ASP        -0.3944 
     10 CB         23.1020   16.7350    0.0390 C.3       1 ASP        -0.0244 
     11 N          21.5360   14.3120   -2.3590 N.am      1 ASP        -0.2635 
     12 CA         20.9540   12.9640   -2.4200 C.3       1 ASP         0.1333 
     13 C          22.0040   11.9740   -2.9090 C.2       1 ASP         0.2042 
     14 O          22.6440   12.1980   -3.9460 O.2       1 ASP        -0.3944 
     15 CB         19.7240   12.9140   -3.3700 C.3       1 ASP        -0.0063 
     16 CG1        19.2410   11.4810   -3.5850 C.3       1 ASP        -0.0584 
     17 CG2        18.5810   13.7720   -2.8440 C.3       1 ASP        -0.0584 
     18 N          22.2120   10.8990   -2.1540 N.am      1 ASP        -0.2613 
     19 CA         23.1260    9.8430   -2.5660 C.3       1 ASP         0.1565 
     20 C          22.4870    8.4880   -2.3180 C.2       1 ASP         0.2065 
     21 O          21.4530    8.3810   -1.6610 O.2       1 ASP        -0.3943 
     22 CB         24.4640    9.9110   -1.8050 C.3       1 ASP         0.0924 
     23 OG1        24.2150    9.7410   -0.4140 O.3       1 ASP        -0.3874 
     24 CG2        25.1610   11.2470   -2.0210 C.3       1 ASP        -0.0346 
     25 N          23.1350    7.4560   -2.8420 N.am      1 ASP        -0.2615 
     26 CA         22.7380    6.0780   -2.6160 C.3       1 ASP         0.1539 
     27 C          23.8910    5.3480   -1.9700 C.2       1 ASP         0.2063 
     28 O          25.0560    5.6650   -2.2360 O.2       1 ASP        -0.3943 
     29 CB         22.3930    5.4180   -3.9510 C.3       1 ASP         0.0843 
     30 OG         22.1080    4.0340   -3.8010 O.3       1 ASP        -0.3903 
     31 N          23.5770    4.3580   -1.1410 N.am      1 ASP        -0.2613 
     32 CA         24.6040    3.5780   -0.4750 C.3       1 ASP         0.1565 
     33 C          25.3130    2.6120   -1.4230 C.2       1 ASP         0.2065 
     34 O          26.3340    2.0330   -1.0500 O.2       1 ASP        -0.3943 
     35 CB         24.0380    2.8000    0.7440 C.3       1 ASP         0.0924 
     36 OG1        23.0950    1.8140    0.3010 O.3       1 ASP        -0.3874 
     37 CG2        23.3830    3.7380    1.7450 C.3       1 ASP        -0.0346 
     38 N          24.7690    2.4380   -2.6280 N.am      1 ASP        -0.2613 
     39 CA         25.4090    1.6550   -3.6860 C.3       1 ASP         0.1565 
     40 C          25.4150    2.4420   -4.9970 C.2       1 ASP         0.2065 
     41 O          24.6400    3.3810   -5.1810 O.2       1 ASP        -0.3943 
     42 CB         24.6550    0.3290   -3.9370 C.3       1 ASP         0.0924 
     43 OG1        23.3380    0.6240   -4.4100 O.3       1 ASP        -0.3874 
     44 CG2        24.5910   -0.5370   -2.6680 C.3       1 ASP        -0.0346 
     45 N          26.2950    2.0390   -5.9130 N.am      1 ASP        -0.2615 
     46 CA         26.3160    2.5610   -7.2720 C.3       1 ASP         0.1539 
     47 C          26.6470    1.4240   -8.2300 C.2       1 ASP         0.2062 
     48 O          27.3590    0.4820   -7.8680 O.2       1 ASP        -0.3943 
     49 CB         27.3350    3.6970   -7.4180 C.3       1 ASP         0.0843 
     50 OG         26.8940    4.8870   -6.7770 O.3       1 ASP        -0.3903 
     51 N          26.1160    1.5120   -9.4430 N.am      1 ASP        -0.2639 
     52 CA         26.3070    0.4720  -10.4530 C.3       1 ASP         0.1279 
     53 C          26.2890    1.0920  -11.8410 C.2       1 ASP         0.1989 
     54 O          25.4980    2.0030  -12.1050 O.2       1 ASP        -0.3947 
     55 CB         25.2260   -0.5980  -10.3280 C.3       1 ASP        -0.0244 
     56 N          27.1720    0.6020  -12.7140 N.am      1 ASP        -0.2990 
     57 H1         18.0229   18.1659   -3.7314 H         1 ASP         0.2015 
     58 H2         17.9680   17.1471   -2.4397 H         1 ASP         0.2015 
     59 H3         18.9342   16.7952   -3.7251 H         1 ASP         0.2015 
     60 H4         20.3308   18.6813   -3.3152 H         1 ASP         0.1095 
     61 H5         19.9783   20.0188   -1.2493 H         1 ASP         0.0310 
     62 H6         18.4626   19.1092   -0.9306 H         1 ASP         0.0310 
     63 H7         18.5946   20.1524   -2.3869 H         1 ASP         0.0310 
     64 H8         22.1379   17.6658   -2.8205 H         1 ASP         0.1884 
     65 H9         23.6128   16.1532   -1.9610 H         1 ASP         0.0797 
     66 H10        23.7743   16.0106    0.5219 H         1 ASP         0.0277 
     67 H11        22.2014   16.8676    0.6565 H         1 ASP         0.0277 
     68 H12        23.6188   17.7002   -0.0677 H         1 ASP         0.0277 
     69 H13        21.4855   14.8961   -3.1691 H         1 ASP         0.1883 
     70 H14        20.6306   12.6753   -1.4090 H         1 ASP         0.0802 
     71 H15        20.0352   13.3192   -4.3442 H         1 ASP         0.0343 
     72 H16        18.3725   11.4842   -4.2601 H         1 ASP         0.0234 
     73 H17        18.9524   11.0424   -2.6184 H         1 ASP         0.0234 
     74 H18        20.0502   10.8844   -4.0314 H         1 ASP         0.0234 
     75 H19        18.9358   14.8020   -2.6916 H         1 ASP         0.0234 
     76 H20        18.2245   13.3617   -1.8877 H         1 ASP         0.0234 
     77 H21        17.7571   13.7721   -3.5728 H         1 ASP         0.0234 
     78 H22        21.7291   10.8139   -1.2825 H         1 ASP         0.1884 
     79 H23        23.3269    9.9550   -3.6417 H         1 ASP         0.0826 
     80 H24        25.1199    9.1033   -2.1619 H         1 ASP         0.0639 
     81 H25        23.6375   10.4314   -0.1101 H         1 ASP         0.2101 
     82 H26        26.1098   11.2597   -1.4646 H         1 ASP         0.0257 
     83 H27        24.5140   12.0605   -1.6611 H         1 ASP         0.0257 
     84 H28        25.3629   11.3861   -3.0933 H         1 ASP         0.0257 
     85 H29        23.9324    7.6351   -3.4183 H         1 ASP         0.1884 
     86 H30        21.8606    6.0474   -1.9533 H         1 ASP         0.0823 
     87 H31        23.2464    5.5329   -4.6354 H         1 ASP         0.0606 
     88 H32        21.5110    5.9183   -4.3774 H         1 ASP         0.0606 
     89 H33        21.3678    3.9259   -3.2154 H         1 ASP         0.2097 
     90 H34        22.6143    4.1463   -0.9727 H         1 ASP         0.1884 
     91 H35        25.3570    4.2863   -0.0991 H         1 ASP         0.0826 
     92 H36        24.8722    2.2874    1.2453 H         1 ASP         0.0639 
     93 H37        22.3810    2.2430   -0.1559 H         1 ASP         0.2101 
     94 H38        22.9941    3.1555    2.5932 H         1 ASP         0.0257 
     95 H39        22.5550    4.2739    1.2579 H         1 ASP         0.0257 
     96 H40        24.1259    4.4634    2.1083 H         1 ASP         0.0257 
     97 H41        23.8833    2.8619   -2.8174 H         1 ASP         0.1884 
     98 H42        26.4438    1.4333   -3.3861 H         1 ASP         0.0826 
     99 H43        25.1913   -0.2367   -4.7131 H         1 ASP         0.0639 
    100 H44        22.8760    1.1371   -3.7576 H         1 ASP         0.2101 
    101 H45        24.0486   -1.4686   -2.8868 H         1 ASP         0.0257 
    102 H46        24.0667    0.0146   -1.8737 H         1 ASP         0.0257 
    103 H47        25.6119   -0.7766   -2.3357 H         1 ASP         0.0257 
    104 H48        26.9704    1.3479   -5.6557 H         1 ASP         0.1884 
    105 H49        25.3182    2.9547   -7.5156 H         1 ASP         0.0823 
    106 H50        27.4868    3.9040   -8.4876 H         1 ASP         0.0606 
    107 H51        28.2873    3.3814   -6.9668 H         1 ASP         0.0606 
    108 H52        26.7657    4.7177   -5.8510 H         1 ASP         0.2097 
    109 H53        25.5674    2.3156   -9.6738 H         1 ASP         0.1883 
    110 H54        27.2870   -0.0007  -10.2914 H         1 ASP         0.0797 
    111 H55        25.3850   -1.3710  -11.0942 H         1 ASP         0.0277 
    112 H56        24.2369   -0.1384  -10.4706 H         1 ASP         0.0277 
    113 H57        25.2770   -1.0559   -9.3291 H         1 ASP         0.0277 
    114 H58        27.2110    0.9672  -13.6441 H         1 ASP         0.1815 
    115 H59        27.7945   -0.1303  -12.4379 H         1 ASP         0.1815 
@<TRIPOS>BOND
     1    1    2 1    
     2    2    3 1    
     3    2    5 1    
     4    3    4 2    
     5    3    6 am   
     6    6    7 1    
     7    7    8 1    
     8    7   10 1    
     9    8    9 2    
    10    8   11 am   
    11   11   12 1    
    12   12   13 1    
    13   12   15 1    
    14   13   14 2    
    15   13   18 am   
    16   15   16 1    
    17   15   17 1    
    18   18   19 1    
    19   19   20 1    
    20   19   22 1    
    21   20   21 2    
    22   20   25 am   
    23   22   23 1    
    24   22   24 1    
    25   25   26 1    
    26   26   27 1    
    27   26   29 1    
    28   27   28 2    
    29   27   31 am   
    30   29   30 1    
    31   31   32 1    
    32   32   33 1    
    33   32   35 1    
    34   33   34 2    
    35   33   38 am   
    36   35   36 1    
    37   35   37 1    
    38   38   39 1    
    39   39   40 1    
    40   39   42 1    
    41   40   41 2    
    42   40   45 am   
    43   42   43 1    
    44   42   44 1    
    45   45   46 1    
    46   46   47 1    
    47   46   49 1    
    48   47   48 2    
    49   47   51 am   
    50   49   50 1    
    51   51   52 1    
    52   52   53 1    
    53   52   55 1    
    54   53   54 2    
    55   53   56 am   
    56    1   57 1    
    57    1   58 1    
    58    1   59 1    
    59    2   60 1    
    60    5   61 1    
    61    5   62 1    
    62    5   63 1    
    63    6   64 1    
    64    7   65 1    
    65   10   66 1    
    66   10   67 1    
    67   10   68 1    
    68   11   69 1    
    69   12   70 1    
    70   15   71 1    
    71   16   72 1    
    72   16   73 1    
    73   16   74 1    
    74   17   75 1    
    75   17   76 1    
    76   17   77 1    
    77   18   78 1    
    78   19   79 1    
    79   22   80 1    
    80   23   81 1    
    81   24   82 1    
    82   24   83 1    
    83   24   84 1    
    84   25   85 1    
    85   26   86 1    
    86   29   87 1    
    87   29   88 1    
    88   30   89 1    
    89   31   90 1    
    90   32   91 1    
    91   35   92 1    
    92   36   93 1    
    93   37   94 1    
    94   37   95 1    
    95   37   96 1    
    96   38   97 1    
    97   39   98 1    
    98   42   99 1    
    99   43  100 1    
   100   44  101 1    
   101   44  102 1    
   102   44  103 1    
   103   45  104 1    
   104   46  105 1    
   105   49  106 1    
   106   49  107 1    
   107   50  108 1    
   108   51  109 1    
   109   52  110 1    
   110   55  111 1    
   111   55  112 1    
   112   55  113 1    
   113   56  114 1    
   114   56  115 1    
@<TRIPOS>SUBSTRUCTURE
     1 ASP         1 PERM              0 ****  ****    0 ROOT 
