5eif_ligand
  -I-interpret- 

 20 20  0  0  0  0  0  0  0  0999 V2000
   19.1880   42.8700  -14.0060 O   0  0  0  0  0
   20.3870   43.1900  -13.8040 C   0  0  0  0  0
   20.7210   43.5650  -12.5490 O   0  0  0  0  0
   21.4220   43.1980  -14.8330 C   0  0  0  0  0
   21.2100   42.3250  -15.9360 C   0  0  0  0  0
   22.1620   42.2760  -16.9650 C   0  0  0  0  0
   23.2980   43.1170  -16.8840 C   0  0  0  0  0
   24.3470   43.0600  -17.9870 C   0  0  0  0  0
   23.5160   43.9690  -15.8160 C   0  0  0  0  0
   22.5820   44.0260  -14.7430 C   0  0  0  0  0
   22.8460   44.8970  -13.6850 N   0  0  0  0  0
   21.6553   43.7838  -12.5196 H   0  0  0  0  0
   20.3175   41.7009  -15.9810 H   0  0  0  0  0
   22.0295   41.6025  -17.8118 H   0  0  0  0  0
   24.7588   42.0523  -18.0433 H   0  0  0  0  0
   23.8850   43.3189  -18.9397 H   0  0  0  0  0
   25.1452   43.7681  -17.7645 H   0  0  0  0  0
   24.4056   44.5986  -15.7960 H   0  0  0  0  0
   22.1880   44.9713  -12.9092 H   0  0  0  0  0
   23.6970   45.4593  -13.6875 H   0  0  0  0  0
  1  2  2  0  0  0
  2  3  1  0  0  0
  2  4  1  0  0  0
  4  5  4  0  0  0
  4 10  4  0  0  0
  5  6  4  0  0  0
  6  7  4  0  0  0
  7  8  1  0  0  0
  7  9  4  0  0  0
  9 10  4  0  0  0
 10 11  1  0  0  0
  3 12  1  0  0  0
  5 13  1  0  0  0
  6 14  1  0  0  0
  8 15  1  0  0  0
  8 16  1  0  0  0
  8 17  1  0  0  0
  9 18  1  0  0  0
 11 19  1  0  0  0
 11 20  1  0  0  0
M  END
$$$$
