4hyi_ligand
  -I-interpret- 

 50 54  0  0  0  0  0  0  0  0999 V2000
   10.8900   -5.4550   14.4340 C   0  0  0  0  0
   10.1970   -4.4870   13.7040 C   0  0  0  0  0
   10.9360   -3.5690   12.9660 C   0  0  0  0  0
   12.3460   -3.6310   12.9630 C   0  0  0  0  0
   13.0620   -4.6060   13.6880 C   0  0  0  0  0
   12.2820   -5.5370   14.4440 C   0  0  0  0  0
   14.4650   -4.5870   13.7040 N   0  0  0  0  0
   15.1550   -5.8400   13.9340 C   0  0  0  0  0
   16.6750   -5.7070   13.9020 C   0  0  0  0  0
   17.1730   -4.6080   14.7990 N   0  3  0  0  0
   16.4340   -3.3820   14.5650 C   0  0  0  0  0
   14.9370   -3.4900   14.6590 C   0  0  0  0  0
   13.1320   -2.7800   12.1770 N   0  0  0  0  0
   12.7900   -1.5660   11.6460 C   0  0  0  0  0
   11.7540   -0.9360   11.8140 O   0  0  0  0  0
   13.8750   -1.0160   10.7870 C   0  0  0  0  0
   15.1080   -1.6190   10.6150 N   0  0  0  0  0
   15.8530   -0.8920    9.8010 C   0  0  0  0  0
   15.1500    0.5560    9.2660 S   0  0  0  0  0
   13.7240    0.1620   10.1160 C   0  0  0  0  0
   17.1410   -1.1660    9.5000 N   0  0  0  0  0
   17.8760   -0.2240    8.7740 N   0  0  0  0  0
   19.1030   -0.6580    8.7700 C   0  0  0  0  0
   19.2390   -1.8680    9.4960 C   0  0  0  0  0
   20.2520   -2.7440    9.7890 C   0  0  0  0  0
   20.0430   -3.8970   10.5690 C   0  0  0  0  0
   18.7400   -4.1680   11.0450 C   0  0  0  0  0
   17.6760   -3.3040   10.7670 C   0  0  0  0  0
   17.9630   -2.1690    9.9730 C   0  0  0  0  0
   10.3196   -6.1758   15.0198 H   0  0  0  0  0
    9.1076   -4.4520   13.7125 H   0  0  0  0  0
   10.4248   -2.7991   12.3880 H   0  0  0  0  0
   12.7769   -6.3121   15.0291 H   0  0  0  0  0
   14.8675   -6.5255   13.1368 H   0  0  0  0  0
   14.8760   -6.1922   14.9271 H   0  0  0  0  0
   16.9713   -5.4689   12.8804 H   0  0  0  0  0
   17.1032   -6.6469   14.2504 H   0  0  0  0  0
   18.1596   -4.4417   14.6007 H   0  0  0  0  0
   17.0439   -4.8909   15.7705 H   0  0  0  0  0
   16.6565   -3.0798   13.5416 H   0  0  0  0  0
   16.7412   -2.6846   15.3444 H   0  0  0  0  0
   14.6465   -3.7372   15.6801 H   0  0  0  0  0
   14.4789   -2.5391   14.3868 H   0  0  0  0  0
   14.0774   -3.1053   11.9749 H   0  0  0  0  0
   12.8178    0.7677   10.1220 H   0  0  0  0  0
   19.9276   -0.1516    8.2683 H   0  0  0  0  0
   21.2519   -2.5411    9.4055 H   0  0  0  0  0
   20.8700   -4.5679   10.8014 H   0  0  0  0  0
   18.5616   -5.0648   11.6383 H   0  0  0  0  0
   16.6718   -3.4963   11.1448 H   0  0  0  0  0
  1  2  4  0  0  0
  1  6  4  0  0  0
  2  3  4  0  0  0
  3  4  4  0  0  0
  4  5  4  0  0  0
  4 13  1  0  0  0
  5  6  4  0  0  0
  5  7  1  0  0  0
  7  8  1  0  0  0
  7 12  1  0  0  0
  8  9  1  0  0  0
  9 10  1  0  0  0
 10 11  1  0  0  0
 11 12  1  0  0  0
 13 14  1  0  0  0
 14 15  2  0  0  0
 14 16  1  0  0  0
 16 17  4  0  0  0
 16 20  4  0  0  0
 17 18  4  0  0  0
 18 19  4  0  0  0
 18 21  1  0  0  0
 19 20  4  0  0  0
 21 22  4  0  0  0
 21 29  4  0  0  0
 22 23  4  0  0  0
 23 24  4  0  0  0
 24 25  4  0  0  0
 24 29  4  0  0  0
 25 26  4  0  0  0
 26 27  4  0  0  0
 27 28  4  0  0  0
 28 29  4  0  0  0
  1 30  1  0  0  0
  2 31  1  0  0  0
  3 32  1  0  0  0
  6 33  1  0  0  0
  8 34  1  0  0  0
  8 35  1  0  0  0
  9 36  1  0  0  0
  9 37  1  0  0  0
 10 38  1  0  0  0
 10 39  1  0  0  0
 11 40  1  0  0  0
 11 41  1  0  0  0
 12 42  1  0  0  0
 12 43  1  0  0  0
 13 44  1  0  0  0
 20 45  1  0  0  0
 23 46  1  0  0  0
 25 47  1  0  0  0
 26 48  1  0  0  0
 27 49  1  0  0  0
 28 50  1  0  0  0
M  END
$$$$
