4qme_ligand
  -I-interpret- 

 52 53  0  0  0  0  0  0  0  0999 V2000
    8.0690   41.8320  -22.8690 C   0  0  0  0  0
    8.1810   40.4540  -22.2430 C   0  0  0  0  0
    9.4530   39.9200  -22.3890 O   0  0  0  0  0
    7.8730   40.6020  -20.8650 O   0  0  0  0  0
    9.2640   42.2900  -23.7280 C   0  0  0  0  0
    9.5030   44.0940  -23.5580 P   0  0  0  0  0
    8.9760   44.9770  -24.7690 O   0  0  0  0  0
    8.9060   44.6000  -22.3080 O   0  0  0  0  0
   11.2560   44.4620  -23.5750 C   0  0  0  0  0
   11.3590   45.9320  -23.4310 N   0  3  0  0  0
   12.0020   43.6700  -22.5360 C   0  0  0  0  0
   13.5060   43.9120  -22.5620 C   0  0  0  0  0
   14.5310   42.7410  -22.4200 C   0  0  0  0  0
   14.5850   41.7010  -23.4030 C   0  0  0  0  0
   15.5260   40.6550  -23.2740 C   0  0  0  0  0
   16.4110   40.6540  -22.1800 C   0  0  0  0  0
   16.3730   41.6980  -21.2010 C   0  0  0  0  0
   15.4220   42.7520  -21.3250 C   0  0  0  0  0
    6.8470   41.8680  -23.7400 C   0  0  0  0  0
    5.4960   41.8430  -22.9420 C   0  0  0  0  0
    5.4330   42.0870  -21.5790 C   0  0  0  0  0
    4.2110   42.0550  -20.9170 C   0  0  0  0  0
    3.0560   41.7880  -21.6180 C   0  0  0  0  0
    3.1170   41.5470  -22.9740 C   0  0  0  0  0
    4.3330   41.5840  -23.6310 C   0  0  0  0  0
    8.0281   42.5172  -22.0223 H   0  0  0  0  0
    7.4953   39.7671  -22.7390 H   0  0  0  0  0
    9.6530   39.8234  -23.3229 H   0  0  0  0  0
    6.9919   40.9718  -20.7731 H   0  0  0  0  0
    9.0660   42.0519  -24.7731 H   0  0  0  0  0
   10.1646   41.7762  -23.3918 H   0  0  0  0  0
    9.3591   44.6555  -25.5884 H   0  0  0  0  0
   11.7376   44.1579  -24.5043 H   0  0  0  0  0
   10.8256   46.3834  -24.1740 H   0  0  0  0  0
   10.9842   46.2107  -22.5242 H   0  0  0  0  0
   12.3379   46.2110  -23.4959 H   0  0  0  0  0
   11.8340   42.6131  -22.7429 H   0  0  0  0  0
   11.6345   43.9800  -21.5577 H   0  0  0  0  0
   13.6847   44.5200  -21.6752 H   0  0  0  0  0
   13.6884   44.2939  -23.5665 H   0  0  0  0  0
   13.9001   41.7164  -24.2508 H   0  0  0  0  0
   15.5660   39.8565  -24.0148 H   0  0  0  0  0
   17.1360   39.8467  -22.0764 H   0  0  0  0  0
   17.0698   41.6866  -20.3629 H   0  0  0  0  0
   15.3832   43.5531  -20.5869 H   0  0  0  0  0
    6.8696   40.9767  -24.3670 H   0  0  0  0  0
    6.8755   42.8028  -24.2998 H   0  0  0  0  0
    6.3454   42.3049  -21.0239 H   0  0  0  0  0
    4.1670   42.2411  -19.8439 H   0  0  0  0  0
    2.0961   41.7673  -21.1020 H   0  0  0  0  0
    2.2051   41.3269  -23.5291 H   0  0  0  0  0
    4.3710   41.4062  -24.7057 H   0  0  0  0  0
  1  2  1  0  0  0
  1  5  1  0  0  0
  1 19  1  0  0  0
  2  3  1  0  0  0
  2  4  1  0  0  0
  5  6  1  0  0  0
  6  7  1  0  0  0
  6  8  2  0  0  0
  6  9  1  0  0  0
  9 10  1  0  0  0
  9 11  1  0  0  0
 11 12  1  0  0  0
 12 13  1  0  0  0
 13 14  4  0  0  0
 13 18  4  0  0  0
 14 15  4  0  0  0
 15 16  4  0  0  0
 16 17  4  0  0  0
 17 18  4  0  0  0
 19 20  1  0  0  0
 20 21  4  0  0  0
 20 25  4  0  0  0
 21 22  4  0  0  0
 22 23  4  0  0  0
 23 24  4  0  0  0
 24 25  4  0  0  0
  1 26  1  0  0  0
  2 27  1  0  0  0
  3 28  1  0  0  0
  4 29  1  0  0  0
  5 30  1  0  0  0
  5 31  1  0  0  0
  7 32  1  0  0  0
  9 33  1  0  0  0
 10 34  1  0  0  0
 10 35  1  0  0  0
 10 36  1  0  0  0
 11 37  1  0  0  0
 11 38  1  0  0  0
 12 39  1  0  0  0
 12 40  1  0  0  0
 14 41  1  0  0  0
 15 42  1  0  0  0
 16 43  1  0  0  0
 17 44  1  0  0  0
 18 45  1  0  0  0
 19 46  1  0  0  0
 19 47  1  0  0  0
 21 48  1  0  0  0
 22 49  1  0  0  0
 23 50  1  0  0  0
 24 51  1  0  0  0
 25 52  1  0  0  0
M  END
$$$$
