### 
### Created by X-TOOL on Mon Sep 10 21:13:16 2018
### 

@<TRIPOS>MOLECULE
4qme_ligand
   51    52     1     0     0
SMALL
GAST_HUCK


@<TRIPOS>ATOM
      1 CAO         8.0690   41.8320  -22.8690 C.3       1 37B         0.0354
      2 CAP         8.1810   40.4540  -22.2430 C.3       1 37B         0.1592
      3 OAY         9.4530   39.9200  -22.3890 O.3       1 37B        -0.3667
      4 OAX         7.8730   40.6020  -20.8650 O.3       1 37B        -0.3667
      5 CAE         9.2640   42.2900  -23.7280 C.3       1 37B         0.0279
      6 PAD         9.5030   44.0940  -23.5580 P.3       1 37B         0.0361
      7 OAF         8.9760   44.9770  -24.7690 O.co2     1 37B        -0.6155
      8 OAG         8.9060   44.6000  -22.3080 O.co2     1 37B        -0.6155
      9 CAB        11.2560   44.4620  -23.5750 C.3       1 37B         0.0390
     10 NAC        11.3590   45.9320  -23.4310 N.4       1 37B         0.2337
     11 CAA        12.0020   43.6700  -22.5360 C.3       1 37B         0.0167
     12 CAH        13.5060   43.9120  -22.5620 C.3       1 37B        -0.0124
     13 CAI        14.5310   42.7410  -22.4200 C.ar      1 37B        -0.0428
     14 CAJ        14.5850   41.7010  -23.4030 C.ar      1 37B        -0.0603
     15 CAK        15.5260   40.6550  -23.2740 C.ar      1 37B        -0.0686
     16 CAL        16.4110   40.6540  -22.1800 C.ar      1 37B        -0.0687
     17 CAM        16.3730   41.6980  -21.2010 C.ar      1 37B        -0.0686
     18 CAN        15.4220   42.7520  -21.3250 C.ar      1 37B        -0.0603
     19 CAQ         6.8470   41.8680  -23.7400 C.3       1 37B        -0.0103
     20 CAR         5.4960   41.8430  -22.9420 C.ar      1 37B        -0.0425
     21 CAS         5.4330   42.0870  -21.5790 C.ar      1 37B        -0.0603
     22 CAT         4.2110   42.0550  -20.9170 C.ar      1 37B        -0.0686
     23 CAU         3.0560   41.7880  -21.6180 C.ar      1 37B        -0.0687
     24 CAV         3.1170   41.5470  -22.9740 C.ar      1 37B        -0.0686
     25 CAW         4.3330   41.5840  -23.6310 C.ar      1 37B        -0.0603
     26 H           7.9501   42.5567  -22.0501 H         1 37B         0.0387
     27 H           7.4553   39.7767  -22.7170 H         1 37B         0.0910
     28 H           9.4887   39.0697  -21.9667 H         1 37B         0.2125
     29 H           8.5056   41.1842  -20.4610 H         1 37B         0.2125
     30 H           9.0687   42.0465  -24.7828 H         1 37B         0.0473
     31 H          10.1734   41.7692  -23.3937 H         1 37B         0.0473
     32 H          11.6699   44.1815  -24.5548 H         1 37B         0.1066
     33 H          12.3300   46.2026  -23.4337 H         1 37B         0.2013
     34 H          10.9338   46.2151  -22.5621 H         1 37B         0.2013
     35 H          10.8835   46.3790  -24.1992 H         1 37B         0.2013
     36 H          11.8170   42.6001  -22.7125 H         1 37B         0.0359
     37 H          11.6202   43.9492  -21.5429 H         1 37B         0.0359
     38 H          13.7206   44.6115  -21.7407 H         1 37B         0.0428
     39 H          13.7240   44.3983  -23.5243 H         1 37B         0.0428
     40 H          13.9039   41.7163  -24.2461 H         1 37B         0.0557
     41 H          15.5658   39.8608  -24.0107 H         1 37B         0.0599
     42 H          17.1320   39.8511  -22.0770 H         1 37B         0.0559
     43 H          17.0660   41.6867  -20.3675 H         1 37B         0.0599
     44 H          15.3834   43.5487  -20.5910 H         1 37B         0.0557
     45 H           6.8713   40.9937  -24.4071 H         1 37B         0.0431
     46 H           6.8771   42.7888  -24.3410 H         1 37B         0.0431
     47 H           6.3404   42.3037  -21.0270 H         1 37B         0.0557
     48 H           4.1673   42.2401  -19.8498 H         1 37B         0.0599
     49 H           2.1014   41.7674  -21.1048 H         1 37B         0.0559
     50 H           2.2101   41.3281  -23.5260 H         1 37B         0.0599
     51 H           4.3708   41.4072  -24.6998 H         1 37B         0.0557
@<TRIPOS>BOND
     1    1    2 1  
     2    1    5 1  
     3    1   19 1  
     4    2    3 1  
     5    2    4 1  
     6    5    6 1  
     7    6    7 ar 
     8    6    8 ar 
     9    6    9 1  
    10    9   10 1  
    11    9   11 1  
    12   11   12 1  
    13   12   13 1  
    14   13   14 ar 
    15   13   18 ar 
    16   14   15 ar 
    17   15   16 ar 
    18   16   17 ar 
    19   17   18 ar 
    20   19   20 1  
    21   20   21 ar 
    22   20   25 ar 
    23   21   22 ar 
    24   22   23 ar 
    25   23   24 ar 
    26   24   25 ar 
    27    1   26 1  
    28    2   27 1  
    29    3   28 1  
    30    4   29 1  
    31    5   30 1  
    32    5   31 1  
    33    9   32 1  
    34   10   33 1  
    35   10   34 1  
    36   10   35 1  
    37   11   36 1  
    38   11   37 1  
    39   12   38 1  
    40   12   39 1  
    41   14   40 1  
    42   15   41 1  
    43   16   42 1  
    44   17   43 1  
    45   18   44 1  
    46   19   45 1  
    47   19   46 1  
    48   21   47 1  
    49   22   48 1  
    50   23   49 1  
    51   24   50 1  
    52   25   51 1  
@<TRIPOS>SUBSTRUCTURE
     1 37B         1

