6dhc_ligand
  -I-interpret- 

 96 97  0  0  0  0  0  0  0  0999 V2000
    1.8120  -15.1050   29.4830 N   0  3  0  0  0
    0.0090  -15.1340   28.2300 C   0  0  0  0  0
   -1.1310  -15.1940   29.2820 O   0  0  0  0  0
   -1.5790  -16.6410   29.2690 C   0  0  0  0  0
   -0.8000  -17.2620   28.3580 C   0  0  0  0  0
    0.4740  -16.3400   28.2990 C   0  0  0  0  0
    1.1240  -16.2860   29.4860 C   0  0  0  0  0
    1.5820  -17.5400   30.2440 C   0  0  0  0  0
    2.1630  -18.3350   29.6130 O   0  0  0  0  0
    1.1340  -14.3250   28.6420 O   0  0  0  0  0
    1.2860  -17.7230   31.6930 N   0  0  0  0  0
    1.7600  -18.9220   32.3540 C   0  0  0  0  0
    3.2310  -18.9840   31.8760 C   0  0  0  0  0
    4.5420  -19.7880   32.8590 S   0  0  0  0  0
    5.8260  -18.5490   33.1630 C   0  0  0  0  0
    1.5590  -18.8300   33.8990 C   0  0  0  0  0
    2.5400  -18.8890   34.5330 O   0  0  0  0  0
   -1.6960  -15.6480   34.7510 C   0  0  0  0  0
   -2.7860  -15.7770   32.4930 C   0  0  0  0  0
   -1.6330  -16.3400   33.3550 C   0  0  0  0  0
   -1.6250  -17.9190   33.3450 C   0  0  0  0  0
    0.3370  -18.7190   34.8100 N   0  0  0  0  0
   -1.1480  -18.5890   34.6480 C   0  0  0  0  0
   -1.9070  -19.8790   34.9500 C   0  0  0  0  0
   -2.5190  -20.3920   33.8300 O   0  0  0  0  0
   -1.0020  -20.9810   35.5740 C   0  0  0  0  0
   -1.8410  -21.9130   36.4600 C   0  0  0  0  0
   -1.2820  -23.3070   36.4420 C   0  0  0  0  0
   -1.8060  -21.4160   37.9190 C   0  0  0  0  0
   -0.8210  -20.9330   38.3680 O   0  0  0  0  0
   -3.0070  -21.5380   38.7750 N   0  0  0  0  0
   -2.9460  -21.0910   40.1170 C   0  0  0  0  0
   -2.2080  -22.1910   40.9110 C   0  0  0  0  0
   -2.5600  -23.3020   40.7400 O   0  0  0  0  0
   -4.4180  -20.9260   40.5990 C   0  0  0  0  0
   -4.4950  -20.1980   41.9620 C   0  0  0  0  0
   -5.1540  -22.2640   40.6570 C   0  0  0  0  0
    1.8220  -19.5680   42.2960 C   0  0  0  0  0
    1.0180  -20.8920   42.0310 C   0  0  0  0  0
    1.5610  -22.0420   42.8950 C   0  0  0  0  0
   -0.4830  -20.7110   42.1930 C   0  0  0  0  0
   -1.1000  -22.0120   41.8430 N   0  0  0  0  0
    2.7817  -15.2286   29.1918 H   0  0  0  0  0
    1.8748  -14.6972   30.4158 H   0  0  0  0  0
   -0.3673  -14.7506   27.2816 H   0  0  0  0  0
   -2.6344  -16.7258   29.0102 H   0  0  0  0  0
   -1.4749  -17.0960   30.2540 H   0  0  0  0  0
   -1.2875  -17.3733   27.3894 H   0  0  0  0  0
   -0.5659  -18.2907   28.6319 H   0  0  0  0  0
    1.1169  -16.7000   27.4958 H   0  0  0  0  0
    0.4249  -16.3020   30.3221 H   0  0  0  0  0
    0.7600  -17.0180   32.2094 H   0  0  0  0  0
    1.2242  -19.8394   32.1102 H   0  0  0  0  0
    3.5354  -17.9376   31.8543 H   0  0  0  0  0
    3.1795  -19.5939   30.9741 H   0  0  0  0  0
    6.2229  -18.1977   32.2106 H   0  0  0  0  0
    5.3971  -17.7100   33.7109 H   0  0  0  0  0
    6.6285  -18.9957   33.7500 H   0  0  0  0  0
   -1.5836  -14.5710   34.6266 H   0  0  0  0  0
   -2.6569  -15.8628   35.2185 H   0  0  0  0  0
   -0.8913  -16.0283   35.3802 H   0  0  0  0  0
   -3.7384  -15.9908   32.9781 H   0  0  0  0  0
   -2.6651  -14.6990   32.3861 H   0  0  0  0  0
   -2.7646  -16.2456   31.5091 H   0  0  0  0  0
   -0.6542  -16.0995   32.9400 H   0  0  0  0  0
   -0.9241  -18.2206   32.5666 H   0  0  0  0  0
   -2.6578  -18.2334   33.1947 H   0  0  0  0  0
    0.6036  -18.7387   35.7943 H   0  0  0  0  0
   -1.4128  -17.8730   35.4261 H   0  0  0  0  0
   -2.6648  -19.5967   35.6809 H   0  0  0  0  0
   -2.9834  -21.1995   34.0620 H   0  0  0  0  0
   -0.2302  -20.5086   36.1816 H   0  0  0  0  0
   -0.5444  -21.5635   34.7744 H   0  0  0  0  0
   -2.8600  -21.9144   36.0732 H   0  0  0  0  0
   -1.2914  -23.6877   35.4207 H   0  0  0  0  0
   -0.2583  -23.2914   36.8159 H   0  0  0  0  0
   -1.8921  -23.9500   37.0764 H   0  0  0  0  0
   -3.8679  -21.9391   38.4029 H   0  0  0  0  0
   -2.4219  -20.1438   40.2447 H   0  0  0  0  0
   -4.9209  -20.3047   39.8579 H   0  0  0  0  0
   -3.9503  -20.7730   42.7109 H   0  0  0  0  0
   -4.0505  -19.2071   41.8688 H   0  0  0  0  0
   -5.5382  -20.1028   42.2632 H   0  0  0  0  0
   -5.1684  -22.7126   39.6637 H   0  0  0  0  0
   -4.6404  -22.9299   41.3505 H   0  0  0  0  0
   -6.1763  -22.1004   40.9980 H   0  0  0  0  0
    1.7302  -19.2928   43.3467 H   0  0  0  0  0
    2.8722  -19.7270   42.0511 H   0  0  0  0  0
    1.4193  -18.7691   41.6733 H   0  0  0  0  0
    1.1709  -21.1588   40.9853 H   0  0  0  0  0
    2.6100  -22.2125   42.6530 H   0  0  0  0  0
    1.4681  -21.7784   43.9486 H   0  0  0  0  0
    0.9885  -22.9475   42.6938 H   0  0  0  0  0
   -0.8536  -19.9153   41.5467 H   0  0  0  0  0
   -0.7346  -20.4200   43.2128 H   0  0  0  0  0
   -0.7205  -22.8475   42.2884 H   0  0  0  0  0
  7  1  1  0  0  0
  1 10  1  0  0  0
  2  3  1  0  0  0
  6  2  1  0  0  0
  2 10  1  0  0  0
  4  3  1  0  0  0
  5  4  1  0  0  0
  6  5  1  0  0  0
  7  6  1  0  0  0
  8  7  1  0  0  0
  8  9  2  0  0  0
 11  8  1  0  0  0
 12 11  1  0  0  0
 12 13  1  0  0  0
 16 12  1  0  0  0
 13 14  1  0  0  0
 14 15  1  0  0  0
 16 17  2  0  0  0
 22 16  1  0  0  0
 20 18  1  0  0  0
 20 19  1  0  0  0
 21 20  1  0  0  0
 23 21  1  0  0  0
 23 22  1  0  0  0
 24 23  1  0  0  0
 24 25  1  0  0  0
 26 24  1  0  0  0
 27 26  1  0  0  0
 27 28  1  0  0  0
 29 27  1  0  0  0
 29 30  2  0  0  0
 31 29  1  0  0  0
 32 31  1  0  0  0
 33 32  1  0  0  0
 32 35  1  0  0  0
 33 34  2  0  0  0
 42 33  1  0  0  0
 35 36  1  0  0  0
 35 37  1  0  0  0
 39 38  1  0  0  0
 39 40  1  0  0  0
 41 39  1  0  0  0
 41 42  1  0  0  0
  1 43  1  0  0  0
  1 44  1  0  0  0
  2 45  1  0  0  0
  4 46  1  0  0  0
  4 47  1  0  0  0
  5 48  1  0  0  0
  5 49  1  0  0  0
  6 50  1  0  0  0
  7 51  1  0  0  0
 11 52  1  0  0  0
 12 53  1  0  0  0
 13 54  1  0  0  0
 13 55  1  0  0  0
 15 56  1  0  0  0
 15 57  1  0  0  0
 15 58  1  0  0  0
 18 59  1  0  0  0
 18 60  1  0  0  0
 18 61  1  0  0  0
 19 62  1  0  0  0
 19 63  1  0  0  0
 19 64  1  0  0  0
 20 65  1  0  0  0
 21 66  1  0  0  0
 21 67  1  0  0  0
 22 68  1  0  0  0
 23 69  1  0  0  0
 24 70  1  0  0  0
 25 71  1  0  0  0
 26 72  1  0  0  0
 26 73  1  0  0  0
 27 74  1  0  0  0
 28 75  1  0  0  0
 28 76  1  0  0  0
 28 77  1  0  0  0
 31 78  1  0  0  0
 32 79  1  0  0  0
 35 80  1  0  0  0
 36 81  1  0  0  0
 36 82  1  0  0  0
 36 83  1  0  0  0
 37 84  1  0  0  0
 37 85  1  0  0  0
 37 86  1  0  0  0
 38 87  1  0  0  0
 38 88  1  0  0  0
 38 89  1  0  0  0
 39 90  1  0  0  0
 40 91  1  0  0  0
 40 92  1  0  0  0
 40 93  1  0  0  0
 41 94  1  0  0  0
 41 95  1  0  0  0
 42 96  1  0  0  0
M  END
$$$$
