### 
### Created by X-TOOL on Wed Jan  1 15:39:34 2020
### 

@<TRIPOS>MOLECULE
6eww_ligand
  150   149     1     0     0
SMALL
GAST_HUCK


@<TRIPOS>ATOM
      1 N          29.2280   10.9470   30.3140 N.4       1 ARG         0.2379
      2 CA         28.6810   12.2730   30.0260 C.3       1 ARG         0.0651
      3 C          29.4900   13.0190   28.9440 C.2       1 ARG         0.2267
      4 O          30.4210   12.4720   28.3330 O.2       1 ARG        -0.3907
      5 CB         28.6130   13.1110   31.3090 C.3       1 ARG         0.0110
      6 CG         29.9630   13.2950   32.0070 C.3       1 ARG        -0.0125
      7 CD         29.8790   14.2800   33.1660 C.3       1 ARG         0.0629
      8 NE         31.2040   14.7260   33.5880 N.pl3     1 ARG        -0.2723
      9 CZ         31.9510   15.6170   32.9300 C.cat     1 ARG         0.2882
     10 NH1        31.5120   16.1700   31.8040 N.pl3     1 ARG        -0.2849
     11 NH2        33.1470   15.9530   33.4000 N.pl3     1 ARG        -0.2849
     12 N          29.1150   14.2760   28.7180 N.am      1 LYS        -0.2610
     13 CA         29.6890   15.1100   27.6650 C.3       1 LYS         0.1311
     14 C          30.7260   16.0610   28.2670 C.2       1 LYS         0.2039
     15 O          30.4260   16.8070   29.2090 O.2       1 LYS        -0.3944
     16 CB         28.5670   15.8850   26.9520 C.3       1 LYS        -0.0122
     17 CG         28.9610   16.6080   25.6840 C.3       1 LYS        -0.0440
     18 CD         27.8900   17.5980   25.2450 C.3       1 LYS        -0.0124
     19 CE         26.7360   16.8830   24.5330 C.3       1 LYS        -0.0354
     20 NZ         26.9780   16.6060   23.0800 N.4       1 LYS         0.2185
     21 N          31.9430   16.0300   27.7310 N.am      1 LEU        -0.2637
     22 CA         32.9570   17.0060   28.1470 C.3       1 LEU         0.1312
     23 C          32.4920   18.4270   27.8120 C.2       1 LEU         0.2040
     24 O          32.5220   19.3140   28.6550 O.2       1 LEU        -0.3944
     25 CB         34.3140   16.7230   27.4840 C.3       1 LEU        -0.0101
     26 CG         35.0940   15.4380   27.8440 C.3       1 LEU        -0.0425
     27 CD1        36.6030   15.7030   27.8010 C.3       1 LEU        -0.0625
     28 CD2        34.6960   14.7890   29.2010 C.3       1 LEU        -0.0625
     29 N          32.0250   18.6190   26.5840 N.am      1 SEP        -0.2613
     30 CA         31.7060   19.9370   26.0450 C.3       1 SEP         0.1586
     31 CB         31.7730   19.8900   24.5120 C.3       1 SEP         0.1184
     32 OG         30.7680   19.0300   23.9880 O.3       1 SEP        -0.2714
     33 C          30.3350   20.4290   26.5030 C.2       1 SEP         0.2065
     34 O          29.5650   19.6780   27.0920 O.2       1 SEP        -0.3943
     35 P          30.9920   18.8370   22.4120 P.3       1 SEP         0.2010
     36 O1P        30.9160   20.2740   21.6920 O.co2     1 SEP        -0.5537
     37 O2P        32.4320   18.2040   22.0530 O.co2     1 SEP        -0.5537
     38 O3P        29.8580   17.8480   21.8600 O.co2     1 SEP        -0.5537
     39 N          30.0390   21.6920   26.2220 N.am      1 LEU        -0.2636
     40 CA         28.8120   22.3490   26.6610 C.3       1 LEU         0.1312
     41 C          27.5580   21.6580   26.1580 C.2       1 LEU         0.2039
     42 O          27.5730   21.0570   25.0910 O.2       1 LEU        -0.3944
     43 CB         28.8140   23.8130   26.1860 C.3       1 LEU        -0.0101
     44 CG         27.7690   24.7740   26.7820 C.3       1 LEU        -0.0425
     45 CD1        28.3100   25.3440   28.0590 C.3       1 LEU        -0.0625
     46 CD2        27.4250   25.9110   25.8260 C.3       1 LEU        -0.0625
     47 N          26.4780   21.7270   26.9360 N.am      1 GLN        -0.2640
     48 CA         25.1780   21.2140   26.5020 C.3       1 GLN         0.1282
     49 C          24.4670   22.2870   25.6820 C.2       1 GLN         0.2036
     50 O          24.1320   23.3590   26.2010 O.2       1 GLN        -0.3944
     51 CB         24.3210   20.8020   27.6960 C.3       1 GLN        -0.0244
     52 N          24.2520   22.0010   24.3930 N.am      1 GLU        -0.2636
     53 CA         23.5020   22.8830   23.5060 C.3       1 GLU         0.1324
     54 C          22.5530   22.0980   22.6040 C.2       1 GLU         0.2034
     55 O          22.1980   22.5840   21.5250 O.2       1 GLU        -0.3944
     56 CB         24.4370   23.7370   22.6150 C.3       1 GLU        -0.0008
     57 CG         25.5840   24.4140   23.3420 C.3       1 GLU         0.0044
     58 CD         26.5680   25.1510   22.4150 C.2       1 GLU         0.0350
     59 OE1        27.7310   24.7020   22.3270 O.co2     1 GLU        -0.5690
     60 OE2        26.1980   26.1890   21.8010 O.co2     1 GLU        -0.5690
     61 N          22.1560   20.8910   22.9930 N.am      1 ARG        -0.2695
     62 CA         21.2580   20.0900   22.1670 C.3       1 ARG         0.0945
     63 C          19.8300   20.1640   22.7070 C.2       1 ARG         0.0601
     64 O          18.8850   20.4250   21.9710 O.co2     1 ARG        -0.5666
     65 CB         21.7310   18.6380   22.1170 C.3       1 ARG        -0.0148
     66 CG         22.8530   18.3600   21.1210 C.3       1 ARG        -0.0162
     67 CD         23.3200   16.9310   21.2750 C.3       1 ARG         0.0627
     68 NE         22.4500   16.0010   20.5570 N.pl3     1 ARG        -0.2723
     69 CZ         22.7830   14.7540   20.2210 C.cat     1 ARG         0.2882
     70 NH1        23.9800   14.2750   20.5480 N.pl3     1 ARG        -0.2849
     71 NH2        21.9270   13.9880   19.5470 N.pl3     1 ARG        -0.2849
     72 OXT        19.5880   19.9650   23.8920 O.co2     1 ARG        -0.5666
     73 H1         28.6690   10.4998   31.0236 H         1 ARG         0.2015
     74 H2         30.1767   11.0388   30.6420 H         1 ARG         0.2015
     75 H3         29.2152   10.3887   29.4748 H         1 ARG         0.2015
     76 H4         27.6567   12.1393   29.6480 H         1 ARG         0.1098
     77 H5         27.9264   12.6142   32.0102 H         1 ARG         0.0347
     78 H6         28.2186   14.1052   31.0519 H         1 ARG         0.0347
     79 H7         30.6928   13.6705   31.2746 H         1 ARG         0.0302
     80 H8         30.2985   12.3211   32.3928 H         1 ARG         0.0302
     81 H9         29.3796   13.7907   34.0152 H         1 ARG         0.0689
     82 H10        29.2917   15.1546   32.8496 H         1 ARG         0.0689
     83 H11        31.5901   14.3251   34.4547 H         1 ARG         0.2642
     84 H12        32.0965   16.8558   31.3051 H         1 ARG         0.2615
     85 H13        30.5873   15.9127   31.4303 H         1 ARG         0.2615
     86 H14        33.4953   15.5295   34.2719 H         1 ARG         0.2615
     87 H15        33.7262   16.6371   32.8926 H         1 ARG         0.2615
     88 H16        28.4032   14.6700   29.2994 H         1 LYS         0.1884
     89 H17        30.1908   14.4630   26.9305 H         1 LYS         0.0800
     90 H18        28.1742   16.6325   27.6570 H         1 LYS         0.0312
     91 H19        27.7726   15.1681   26.6972 H         1 LYS         0.0312
     92 H20        29.1123   15.8683   24.8840 H         1 LYS         0.0269
     93 H21        29.8996   17.1535   25.8614 H         1 LYS         0.0269
     94 H22        28.3379   18.3302   24.5571 H         1 LYS         0.0317
     95 H23        27.4978   18.1192   26.1307 H         1 LYS         0.0317
     96 H24        25.8376   17.5121   24.6177 H         1 LYS         0.0813
     97 H25        26.5609   15.9232   25.0411 H         1 LYS         0.0813
     98 H26        26.1760   16.1368   22.6893 H         1 LYS         0.1994
     99 H27        27.7917   16.0194   22.9807 H         1 LYS         0.1994
    100 H28        27.1290   17.4754   22.5928 H         1 LYS         0.1994
    101 H29        32.1675   15.3400   27.0429 H         1 LEU         0.1883
    102 H30        33.0833   16.9280   29.2369 H         1 LEU         0.0800
    103 H31        34.9700   17.5719   27.7271 H         1 LEU         0.0315
    104 H32        34.1380   16.6946   26.3986 H         1 LEU         0.0315
    105 H33        34.8641   14.6995   27.0619 H         1 LEU         0.0298
    106 H34        37.1447   14.7810   28.0590 H         1 LEU         0.0232
    107 H35        36.8575   16.4921   28.5238 H         1 LEU         0.0232
    108 H36        36.8899   16.0259   26.7894 H         1 LEU         0.0232
    109 H37        33.6115   14.6056   29.2156 H         1 LEU         0.0232
    110 H38        34.9642   15.4672   30.0245 H         1 LEU         0.0232
    111 H39        35.2308   13.8354   29.3223 H         1 LEU         0.0232
    112 H40        31.8848   17.8201   25.9990 H         1 SEP         0.1884
    113 H41        32.4619   20.6493   26.4073 H         1 SEP         0.0827
    114 H42        32.7617   19.5177   24.2056 H         1 SEP         0.0662
    115 H43        31.6233   20.9042   24.1133 H         1 SEP         0.0662
    116 H44        30.6917   22.2218   25.6805 H         1 LEU         0.1883
    117 H45        28.7921   22.3340   27.7607 H         1 LEU         0.0800
    118 H46        28.6629   23.8024   25.0965 H         1 LEU         0.0315
    119 H47        29.8065   24.2285   26.4146 H         1 LEU         0.0315
    120 H48        26.8511   24.2075   26.9978 H         1 LEU         0.0298
    121 H49        27.5715   26.0330   28.4948 H         1 LEU         0.0232
    122 H50        29.2423   25.8895   27.8511 H         1 LEU         0.0232
    123 H51        28.5130   24.5278   28.7679 H         1 LEU         0.0232
    124 H52        27.0279   25.4944   24.8886 H         1 LEU         0.0232
    125 H53        28.3310   26.4970   25.6120 H         1 LEU         0.0232
    126 H54        26.6679   26.5619   26.2876 H         1 LEU         0.0232
    127 H55        26.5584   22.1413   27.8426 H         1 GLN         0.1883
    128 H56        25.3405   20.3300   25.8678 H         1 GLN         0.0797
    129 H57        23.3528   20.4216   27.3385 H         1 GLN         0.0277
    130 H58        24.1550   21.6735   28.3463 H         1 GLN         0.0277
    131 H59        24.8375   20.0139   28.2636 H         1 GLN         0.0277
    132 H60        24.6203   21.1482   24.0227 H         1 GLU         0.1883
    133 H61        22.9049   23.5617   24.1328 H         1 GLU         0.0801
    134 H62        23.8294   24.5189   22.1360 H         1 GLU         0.0330
    135 H63        24.8643   23.0802   21.8430 H         1 GLU         0.0330
    136 H64        26.1421   23.6461   23.8977 H         1 GLU         0.0433
    137 H65        25.1623   25.1440   24.0485 H         1 GLU         0.0433
    138 H66        22.4779   20.5253   23.8663 H         1 ARG         0.1875
    139 H67        21.2674   20.4964   21.1449 H         1 ARG         0.0726
    140 H68        20.8708   18.0079   21.8468 H         1 ARG         0.0307
    141 H69        22.0882   18.3606   23.1197 H         1 ARG         0.0307
    142 H70        23.6930   19.0432   21.3147 H         1 ARG         0.0301
    143 H71        22.4818   18.5162   20.0974 H         1 ARG         0.0301
    144 H72        23.3194   16.6682   22.3431 H         1 ARG         0.0689
    145 H73        24.3416   16.8442   20.8766 H         1 ARG         0.0689
    146 H74        21.5118   16.3329   20.2914 H         1 ARG         0.2642
    147 H75        24.2377   13.3120   20.2888 H         1 ARG         0.2615
    148 H76        24.6492   14.8670   21.0604 H         1 ARG         0.2615
    149 H77        20.9989   14.3545   19.2915 H         1 ARG         0.2615
    150 H78        22.1931   13.0291   19.2812 H         1 ARG         0.2615
@<TRIPOS>BOND
     1    1    2 1  
     2    2    3 1  
     3    2    5 1  
     4    3    4 2  
     5    3   12 am 
     6    5    6 1  
     7    6    7 1  
     8    7    8 1  
     9    8    9 ar 
    10    9   10 ar 
    11    9   11 ar 
    12   12   13 1  
    13   13   14 1  
    14   13   16 1  
    15   14   15 2  
    16   14   21 am 
    17   16   17 1  
    18   17   18 1  
    19   18   19 1  
    20   19   20 1  
    21   21   22 1  
    22   22   23 1  
    23   22   25 1  
    24   23   24 2  
    25   23   29 am 
    26   25   26 1  
    27   26   27 1  
    28   26   28 1  
    29   29   30 1  
    30   30   31 1  
    31   30   33 1  
    32   31   32 1  
    33   32   35 1  
    34   33   34 2  
    35   33   39 am 
    36   35   36 ar 
    37   35   37 ar 
    38   35   38 ar 
    39   39   40 1  
    40   40   41 1  
    41   40   43 1  
    42   41   42 2  
    43   41   47 am 
    44   43   44 1  
    45   44   45 1  
    46   44   46 1  
    47   47   48 1  
    48   48   49 1  
    49   48   51 1  
    50   49   50 2  
    51   49   52 am 
    52   52   53 1  
    53   53   54 1  
    54   53   56 1  
    55   54   55 2  
    56   54   61 am 
    57   56   57 1  
    58   57   58 1  
    59   58   59 ar 
    60   58   60 ar 
    61   61   62 1  
    62   62   63 1  
    63   62   65 1  
    64   63   64 ar 
    65   63   72 ar 
    66   65   66 1  
    67   66   67 1  
    68   67   68 1  
    69   68   69 ar 
    70   69   70 ar 
    71   69   71 ar 
    72    1   73 1  
    73    1   74 1  
    74    1   75 1  
    75    2   76 1  
    76    5   77 1  
    77    5   78 1  
    78    6   79 1  
    79    6   80 1  
    80    7   81 1  
    81    7   82 1  
    82    8   83 1  
    83   10   84 1  
    84   10   85 1  
    85   11   86 1  
    86   11   87 1  
    87   12   88 1  
    88   13   89 1  
    89   16   90 1  
    90   16   91 1  
    91   17   92 1  
    92   17   93 1  
    93   18   94 1  
    94   18   95 1  
    95   19   96 1  
    96   19   97 1  
    97   20   98 1  
    98   20   99 1  
    99   20  100 1  
   100   21  101 1  
   101   22  102 1  
   102   25  103 1  
   103   25  104 1  
   104   26  105 1  
   105   27  106 1  
   106   27  107 1  
   107   27  108 1  
   108   28  109 1  
   109   28  110 1  
   110   28  111 1  
   111   29  112 1  
   112   30  113 1  
   113   31  114 1  
   114   31  115 1  
   115   39  116 1  
   116   40  117 1  
   117   43  118 1  
   118   43  119 1  
   119   44  120 1  
   120   45  121 1  
   121   45  122 1  
   122   45  123 1  
   123   46  124 1  
   124   46  125 1  
   125   46  126 1  
   126   47  127 1  
   127   48  128 1  
   128   51  129 1  
   129   51  130 1  
   130   51  131 1  
   131   52  132 1  
   132   53  133 1  
   133   56  134 1  
   134   56  135 1  
   135   57  136 1  
   136   57  137 1  
   137   61  138 1  
   138   62  139 1  
   139   65  140 1  
   140   65  141 1  
   141   66  142 1  
   142   66  143 1  
   143   67  144 1  
   144   67  145 1  
   145   68  146 1  
   146   70  147 1  
   147   70  148 1  
   148   71  149 1  
   149   71  150 1  
@<TRIPOS>SUBSTRUCTURE
     1 ARG         1

