6eww_ligand
  -I-interpret- 

152151  0  0  0  0  0  0  0  0999 V2000
   29.2280   10.9470   30.3140 N   0  3  0  0  0
   28.6810   12.2730   30.0260 C   0  0  0  0  0
   29.4900   13.0190   28.9440 C   0  0  0  0  0
   30.4210   12.4720   28.3330 O   0  0  0  0  0
   28.6130   13.1110   31.3090 C   0  0  0  0  0
   29.9630   13.2950   32.0070 C   0  0  0  0  0
   29.8790   14.2800   33.1660 C   0  0  0  0  0
   31.2040   14.7260   33.5880 N   0  0  0  0  0
   31.9510   15.6170   32.9300 C   0  0  0  0  0
   31.5120   16.1700   31.8040 N   0  0  0  0  0
   33.1470   15.9530   33.4000 N   0  0  0  0  0
   29.1150   14.2760   28.7180 N   0  0  0  0  0
   29.6890   15.1100   27.6650 C   0  0  0  0  0
   30.7260   16.0610   28.2670 C   0  0  0  0  0
   30.4260   16.8070   29.2090 O   0  0  0  0  0
   28.5670   15.8850   26.9520 C   0  0  0  0  0
   28.9610   16.6080   25.6840 C   0  0  0  0  0
   27.8900   17.5980   25.2450 C   0  0  0  0  0
   26.7360   16.8830   24.5330 C   0  0  0  0  0
   26.9780   16.6060   23.0800 N   0  3  0  0  0
   31.9430   16.0300   27.7310 N   0  0  0  0  0
   32.9570   17.0060   28.1470 C   0  0  0  0  0
   32.4920   18.4270   27.8120 C   0  0  0  0  0
   32.5220   19.3140   28.6550 O   0  0  0  0  0
   34.3140   16.7230   27.4840 C   0  0  0  0  0
   35.0940   15.4380   27.8440 C   0  0  0  0  0
   36.6030   15.7030   27.8010 C   0  0  0  0  0
   34.6960   14.7890   29.2010 C   0  0  0  0  0
   32.0250   18.6190   26.5840 N   0  0  0  0  0
   31.7060   19.9370   26.0450 C   0  0  0  0  0
   31.7730   19.8900   24.5120 C   0  0  0  0  0
   30.7680   19.0300   23.9880 O   0  0  0  0  0
   30.3350   20.4290   26.5030 C   0  0  0  0  0
   29.5650   19.6780   27.0920 O   0  0  0  0  0
   30.9920   18.8370   22.4120 P   0  0  0  0  0
   30.9160   20.2740   21.6920 O   0  0  0  0  0
   32.4320   18.2040   22.0530 O   0  0  0  0  0
   29.8580   17.8480   21.8600 O   0  0  0  0  0
   30.0390   21.6920   26.2220 N   0  0  0  0  0
   28.8120   22.3490   26.6610 C   0  0  0  0  0
   27.5580   21.6580   26.1580 C   0  0  0  0  0
   27.5730   21.0570   25.0910 O   0  0  0  0  0
   28.8140   23.8130   26.1860 C   0  0  0  0  0
   27.7690   24.7740   26.7820 C   0  0  0  0  0
   28.3100   25.3440   28.0590 C   0  0  0  0  0
   27.4250   25.9110   25.8260 C   0  0  0  0  0
   26.4780   21.7270   26.9360 N   0  0  0  0  0
   25.1780   21.2140   26.5020 C   0  0  0  0  0
   24.4670   22.2870   25.6820 C   0  0  0  0  0
   24.1320   23.3590   26.2010 O   0  0  0  0  0
   24.3210   20.8020   27.6960 C   0  0  0  0  0
   24.2520   22.0010   24.3930 N   0  0  0  0  0
   23.5020   22.8830   23.5060 C   0  0  0  0  0
   22.5530   22.0980   22.6040 C   0  0  0  0  0
   22.1980   22.5840   21.5250 O   0  0  0  0  0
   24.4370   23.7370   22.6150 C   0  0  0  0  0
   25.5840   24.4140   23.3420 C   0  0  0  0  0
   26.5680   25.1510   22.4150 C   0  0  0  0  0
   27.7310   24.7020   22.3270 O   0  0  0  0  0
   26.1980   26.1890   21.8010 O   0  0  0  0  0
   22.1560   20.8910   22.9930 N   0  0  0  0  0
   21.2580   20.0900   22.1670 C   0  0  0  0  0
   19.8300   20.1640   22.7070 C   0  0  0  0  0
   18.8850   20.4250   21.9710 O   0  0  0  0  0
   21.7310   18.6380   22.1170 C   0  0  0  0  0
   22.8530   18.3600   21.1210 C   0  0  0  0  0
   23.3200   16.9310   21.2750 C   0  0  0  0  0
   22.4500   16.0010   20.5570 N   0  0  0  0  0
   22.7830   14.7540   20.2210 C   0  0  0  0  0
   23.9800   14.2750   20.5480 N   0  0  0  0  0
   21.9270   13.9880   19.5470 N   0  0  0  0  0
   19.5880   19.9650   23.8920 O   0  0  0  0  0
   29.2670   10.4022   29.4526 H   0  0  0  0  0
   30.1675   11.0444   30.6990 H   0  0  0  0  0
   28.6295   10.4732   30.9905 H   0  0  0  0  0
   27.6743   12.1275   29.6343 H   0  0  0  0  0
   27.9594   12.5842   32.0043 H   0  0  0  0  0
   28.2570   14.1023   31.0284 H   0  0  0  0  0
   30.6721   13.6873   31.2780 H   0  0  0  0  0
   30.2752   12.3289   32.4037 H   0  0  0  0  0
   29.3986   13.7816   34.0080 H   0  0  0  0  0
   29.3104   15.1503   32.8384 H   0  0  0  0  0
   31.5864   14.3290   34.4462 H   0  0  0  0  0
   32.0923   16.8466   31.3081 H   0  0  0  0  0
   30.5948   15.9179   31.4358 H   0  0  0  0  0
   33.4934   15.5310   34.2616 H   0  0  0  0  0
   28.3889   14.6779   29.3111 H   0  0  0  0  0
   30.1919   14.4831   26.9286 H   0  0  0  0  0
   28.2343   16.6527   27.6506 H   0  0  0  0  0
   27.8209   15.1450   26.6625 H   0  0  0  0  0
   29.0910   15.8691   24.8933 H   0  0  0  0  0
   29.8816   17.1596   25.8747 H   0  0  0  0  0
   28.3374   18.3121   24.5536 H   0  0  0  0  0
   27.4967   18.1008   26.1285 H   0  0  0  0  0
   25.8686   17.5404   24.5921 H   0  0  0  0  0
   26.6068   15.9186   25.0243 H   0  0  0  0  0
   26.1658   16.1313   22.6857 H   0  0  0  0  0
   27.1307   17.4864   22.5881 H   0  0  0  0  0
   27.8016   16.0125   22.9808 H   0  0  0  0  0
   32.1720   15.3262   27.0292 H   0  0  0  0  0
   33.0856   16.9156   29.2256 H   0  0  0  0  0
   34.9573   17.5364   27.8196 H   0  0  0  0  0
   34.0833   16.6150   26.4242 H   0  0  0  0  0
   34.8153   14.7080   27.0841 H   0  0  0  0  0
   36.8860   16.0229   26.7982 H   0  0  0  0  0
   36.8538   16.4851   28.5176 H   0  0  0  0  0
   37.1386   14.7888   28.0568 H   0  0  0  0  0
   34.8727   15.5000   30.0080 H   0  0  0  0  0
   33.6402   14.5192   29.1774 H   0  0  0  0  0
   35.2973   13.8947   29.3648 H   0  0  0  0  0
   31.8820   17.8042   25.9873 H   0  0  0  0  0
   32.4419   20.6450   26.4262 H   0  0  0  0  0
   32.7504   19.5101   24.2146 H   0  0  0  0  0
   31.6131   20.8954   24.1224 H   0  0  0  0  0
   31.6054   20.8430   22.0422 H   0  0  0  0  0
   33.1250   18.7841   22.3767 H   0  0  0  0  0
   30.7048   22.2324   25.6696 H   0  0  0  0  0
   28.7938   22.2962   27.7496 H   0  0  0  0  0
   28.5890   23.7693   25.1204 H   0  0  0  0  0
   29.7802   24.2132   26.4933 H   0  0  0  0  0
   26.8542   24.2101   26.9645 H   0  0  0  0  0
   28.5107   24.5343   28.7605 H   0  0  0  0  0
   29.2338   25.8842   27.8517 H   0  0  0  0  0
   27.5774   26.0265   28.4899 H   0  0  0  0  0
   28.3261   26.4829   25.6045 H   0  0  0  0  0
   27.0195   25.4975   24.9026 H   0  0  0  0  0
   26.6844   26.5625   26.2899 H   0  0  0  0  0
   26.5600   22.1496   27.8607 H   0  0  0  0  0
   25.3354   20.3267   25.8888 H   0  0  0  0  0
   24.8339   20.0212   28.2576 H   0  0  0  0  0
   24.1573   21.6663   28.3396 H   0  0  0  0  0
   23.3619   20.4253   27.3405 H   0  0  0  0  0
   24.6277   21.1312   24.0153 H   0  0  0  0  0
   22.9251   23.5423   24.1546 H   0  0  0  0  0
   23.8237   24.5318   22.1904 H   0  0  0  0  0
   24.8845   23.0571   21.8901 H   0  0  0  0  0
   26.1466   23.6336   23.8544 H   0  0  0  0  0
   25.1488   25.1590   24.0081 H   0  0  0  0  0
   25.2755   26.3653   21.9998 H   0  0  0  0  0
   22.4843   20.5180   23.8838 H   0  0  0  0  0
   21.2688   20.4933   21.1544 H   0  0  0  0  0
   19.2053   20.5581   21.0758 H   0  0  0  0  0
   20.8761   18.0389   21.8036 H   0  0  0  0  0
   22.1219   18.3999   23.1062 H   0  0  0  0  0
   23.6854   19.0371   21.3128 H   0  0  0  0  0
   22.4853   18.5150   20.1067 H   0  0  0  0  0
   23.2998   16.6740   22.3341 H   0  0  0  0  0
   24.3257   16.8507   20.8623 H   0  0  0  0  0
   21.5209   16.3297   20.2939 H   0  0  0  0  0
   24.6427   14.8613   21.0555 H   0  0  0  0  0
   22.1905   13.0384   19.2838 H   0  0  0  0  0
   21.0079   14.3509   19.2940 H   0  0  0  0  0
  1  2  1  0  0  0
  2  3  1  0  0  0
  2  5  1  0  0  0
  3  4  2  0  0  0
  3 12  1  0  0  0
  5  6  1  0  0  0
  6  7  1  0  0  0
  7  8  1  0  0  0
  8  9  1  0  0  0
  9 10  1  0  0  0
  9 11  2  0  0  0
 12 13  1  0  0  0
 13 14  1  0  0  0
 13 16  1  0  0  0
 14 15  2  0  0  0
 14 21  1  0  0  0
 16 17  1  0  0  0
 17 18  1  0  0  0
 18 19  1  0  0  0
 19 20  1  0  0  0
 21 22  1  0  0  0
 22 23  1  0  0  0
 22 25  1  0  0  0
 23 24  2  0  0  0
 23 29  1  0  0  0
 25 26  1  0  0  0
 26 27  1  0  0  0
 26 28  1  0  0  0
 29 30  1  0  0  0
 30 31  1  0  0  0
 30 33  1  0  0  0
 31 32  1  0  0  0
 32 35  1  0  0  0
 33 34  2  0  0  0
 33 39  1  0  0  0
 35 36  1  0  0  0
 35 37  1  0  0  0
 35 38  2  0  0  0
 39 40  1  0  0  0
 40 41  1  0  0  0
 40 43  1  0  0  0
 41 42  2  0  0  0
 41 47  1  0  0  0
 43 44  1  0  0  0
 44 45  1  0  0  0
 44 46  1  0  0  0
 47 48  1  0  0  0
 48 49  1  0  0  0
 48 51  1  0  0  0
 49 50  2  0  0  0
 49 52  1  0  0  0
 52 53  1  0  0  0
 53 54  1  0  0  0
 53 56  1  0  0  0
 54 55  2  0  0  0
 54 61  1  0  0  0
 56 57  1  0  0  0
 57 58  1  0  0  0
 58 59  2  0  0  0
 58 60  1  0  0  0
 61 62  1  0  0  0
 62 63  1  0  0  0
 62 65  1  0  0  0
 63 64  1  0  0  0
 63 72  2  0  0  0
 65 66  1  0  0  0
 66 67  1  0  0  0
 67 68  1  0  0  0
 68 69  1  0  0  0
 69 70  2  0  0  0
 69 71  1  0  0  0
  1 73  1  0  0  0
  1 74  1  0  0  0
  1 75  1  0  0  0
  2 76  1  0  0  0
  5 77  1  0  0  0
  5 78  1  0  0  0
  6 79  1  0  0  0
  6 80  1  0  0  0
  7 81  1  0  0  0
  7 82  1  0  0  0
  8 83  1  0  0  0
 10 84  1  0  0  0
 10 85  1  0  0  0
 11 86  1  0  0  0
 12 87  1  0  0  0
 13 88  1  0  0  0
 16 89  1  0  0  0
 16 90  1  0  0  0
 17 91  1  0  0  0
 17 92  1  0  0  0
 18 93  1  0  0  0
 18 94  1  0  0  0
 19 95  1  0  0  0
 19 96  1  0  0  0
 20 97  1  0  0  0
 20 98  1  0  0  0
 20 99  1  0  0  0
 21100  1  0  0  0
 22101  1  0  0  0
 25102  1  0  0  0
 25103  1  0  0  0
 26104  1  0  0  0
 27105  1  0  0  0
 27106  1  0  0  0
 27107  1  0  0  0
 28108  1  0  0  0
 28109  1  0  0  0
 28110  1  0  0  0
 29111  1  0  0  0
 30112  1  0  0  0
 31113  1  0  0  0
 31114  1  0  0  0
 36115  1  0  0  0
 37116  1  0  0  0
 39117  1  0  0  0
 40118  1  0  0  0
 43119  1  0  0  0
 43120  1  0  0  0
 44121  1  0  0  0
 45122  1  0  0  0
 45123  1  0  0  0
 45124  1  0  0  0
 46125  1  0  0  0
 46126  1  0  0  0
 46127  1  0  0  0
 47128  1  0  0  0
 48129  1  0  0  0
 51130  1  0  0  0
 51131  1  0  0  0
 51132  1  0  0  0
 52133  1  0  0  0
 53134  1  0  0  0
 56135  1  0  0  0
 56136  1  0  0  0
 57137  1  0  0  0
 57138  1  0  0  0
 60139  1  0  0  0
 61140  1  0  0  0
 62141  1  0  0  0
 64142  1  0  0  0
 65143  1  0  0  0
 65144  1  0  0  0
 66145  1  0  0  0
 66146  1  0  0  0
 67147  1  0  0  0
 67148  1  0  0  0
 68149  1  0  0  0
 70150  1  0  0  0
 71151  1  0  0  0
 71152  1  0  0  0
M  END
$$$$
