### 
### Created by X-TOOL on Mon Sep 10 21:12:48 2018
### 

@<TRIPOS>MOLECULE
1hyv_ligand
   45    48     1     0     0
SMALL
GAST_HUCK


@<TRIPOS>ATOM
      1 AS          6.3270   46.1270  -10.7860 As        1 TTA         0.0000
      2 C1          5.5690   44.8690  -12.0190 C.ar      1 TTA        -0.1678
      3 C2          5.7010   43.4810  -11.9250 C.ar      1 TTA        -0.1703
      4 C3          5.0660   42.6850  -12.8860 C.ar      1 TTA        -0.1708
      5 C4          4.3080   43.2630  -13.8660 C.ar      1 TTA        -0.1708
      6 C5          4.1390   44.6550  -13.9800 C.ar      1 TTA        -0.1708
      7 C6          4.7740   45.5280  -13.0170 C.ar      1 TTA        -0.1703
      8 C7          4.9020   46.8720   -9.8160 C.ar      1 TTA        -0.1678
      9 C8          4.9700   47.3130   -8.4480 C.ar      1 TTA        -0.1703
     10 C9          3.8510   47.8310   -7.8040 C.ar      1 TTA        -0.1708
     11 C10         2.6150   47.8910   -8.5340 C.ar      1 TTA        -0.1708
     12 C11         2.5430   47.4240   -9.9100 C.ar      1 TTA        -0.1708
     13 C12         3.6600   46.9110  -10.5540 C.ar      1 TTA        -0.1703
     14 C13         7.4300   47.1920  -11.8940 C.ar      1 TTA        -0.1678
     15 C14         8.4130   48.1080  -11.2880 C.ar      1 TTA        -0.1703
     16 C15         9.3460   48.7900  -12.2120 C.ar      1 TTA        -0.1708
     17 C16         9.3010   48.4700  -13.6240 C.ar      1 TTA        -0.1708
     18 C17         8.4240   47.5120  -14.1910 C.ar      1 TTA        -0.1708
     19 C18         7.5240   46.8430  -13.3230 C.ar      1 TTA        -0.1703
     20 C19         7.4860   45.3330   -9.4720 C.ar      1 TTA        -0.1678
     21 C20         6.9520   45.1140   -8.1830 C.ar      1 TTA        -0.1703
     22 C21         7.8620   44.5340   -7.2500 C.ar      1 TTA        -0.1708
     23 C22         9.1260   44.2360   -7.5950 C.ar      1 TTA        -0.1708
     24 C23         9.7070   44.4610   -8.8980 C.ar      1 TTA        -0.1708
     25 C24         8.7880   45.0610   -9.8940 C.ar      1 TTA        -0.1703
     26 H2          6.2811   43.0314  -11.1272 H         1 TTA         0.0042
     27 H3          5.1757   41.6071  -12.8529 H         1 TTA         0.0042
     28 H4          3.8155   42.6205  -14.5869 H         1 TTA         0.0042
     29 H5          3.5387   45.0695  -14.7818 H         1 TTA         0.0042
     30 H6          4.6577   46.6053  -13.0467 H         1 TTA         0.0042
     31 H8          5.9085   47.2404   -7.9105 H         1 TTA         0.0042
     32 H9          3.9100   48.1799   -6.7794 H         1 TTA         0.0042
     33 H10         1.7274   48.2881   -8.0549 H         1 TTA         0.0042
     34 H11         1.5999   47.4778  -10.4417 H         1 TTA         0.0042
     35 H12         3.6030   46.5520  -11.5752 H         1 TTA         0.0042
     36 H14         8.4506   48.2740  -10.2174 H         1 TTA         0.0042
     37 H15        10.0543   49.5199  -11.8370 H         1 TTA         0.0042
     38 H16         9.9791   48.9950  -14.2870 H         1 TTA         0.0042
     39 H17         8.4406   47.2976  -15.2535 H         1 TTA         0.0042
     40 H18         6.8910   46.0573  -13.7193 H         1 TTA         0.0042
     41 H20         5.9305   45.3669   -7.9229 H         1 TTA         0.0042
     42 H21         7.5262   44.3290   -6.2399 H         1 TTA         0.0042
     43 H22         9.7594   43.7918   -6.8357 H         1 TTA         0.0042
     44 H23        10.7359   44.2104   -9.1296 H         1 TTA         0.0042
     45 H24         9.1127   45.2788  -10.9050 H         1 TTA         0.0042
@<TRIPOS>BOND
     1    1    2 1  
     2    1    8 1  
     3    1   14 1  
     4    1   20 1  
     5    2    3 ar 
     6    2    7 ar 
     7    3    4 ar 
     8    4    5 ar 
     9    5    6 ar 
    10    6    7 ar 
    11    8    9 ar 
    12    8   13 ar 
    13    9   10 ar 
    14   10   11 ar 
    15   11   12 ar 
    16   12   13 ar 
    17   14   15 ar 
    18   14   19 ar 
    19   15   16 ar 
    20   16   17 ar 
    21   17   18 ar 
    22   18   19 ar 
    23   20   21 ar 
    24   20   25 ar 
    25   21   22 ar 
    26   22   23 ar 
    27   23   24 ar 
    28   24   25 ar 
    29    3   26 1  
    30    4   27 1  
    31    5   28 1  
    32    6   29 1  
    33    7   30 1  
    34    9   31 1  
    35   10   32 1  
    36   11   33 1  
    37   12   34 1  
    38   13   35 1  
    39   15   36 1  
    40   16   37 1  
    41   17   38 1  
    42   18   39 1  
    43   19   40 1  
    44   21   41 1  
    45   22   42 1  
    46   23   43 1  
    47   24   44 1  
    48   25   45 1  
@<TRIPOS>SUBSTRUCTURE
     1 TTA         1

