2ce9_ligand
  -I-interpret- 

104108  0  0  0  0  0  0  0  0999 V2000
  -25.1260  -15.1240   33.5760 N   0  3  0  0  0
  -24.9950  -13.7870   34.2780 C   0  0  0  0  0
  -23.5700  -13.5000   34.6620 C   0  0  0  0  0
  -22.9220  -14.3650   35.2200 O   0  0  0  0  0
  -25.8510  -13.7690   35.5340 C   0  0  0  0  0
  -26.4150  -12.4200   35.8900 C   0  0  0  0  0
  -27.8420  -11.8290   34.9400 S   0  0  0  0  0
  -27.0710  -11.4820   33.3280 C   0  0  0  0  0
  -23.0520  -12.3150   34.3430 N   0  0  0  0  0
  -21.6780  -12.0000   34.7700 C   0  0  0  0  0
  -21.5630  -11.8100   36.2970 C   0  0  0  0  0
  -22.2740  -10.9640   36.8800 O   0  0  0  0  0
  -21.0970  -10.7990   34.0210 C   0  0  0  0  0
  -19.8060  -10.3160   34.6250 C   0  0  0  0  0
  -18.5760  -10.9010   34.4910 C   0  0  0  0  0
  -19.6180   -9.1510   35.4560 C   0  0  0  0  0
  -17.6430  -10.1810   35.1900 N   0  0  0  0  0
  -18.2480   -9.0990   35.7890 C   0  0  0  0  0
  -20.4800   -8.1700   35.9730 C   0  0  0  0  0
  -17.7010   -8.0700   36.6140 C   0  0  0  0  0
  -19.9470   -7.1300   36.7780 C   0  0  0  0  0
  -18.5760   -7.0850   37.0900 C   0  0  0  0  0
  -20.6600  -12.5840   36.9270 N   0  0  0  0  0
  -20.4460  -12.5420   38.3710 C   0  0  0  0  0
  -18.9620  -12.6320   38.6170 C   0  0  0  0  0
  -18.3990  -13.7030   38.4580 O   0  0  0  0  0
  -21.1440  -13.7190   39.0840 C   0  0  0  0  0
  -22.6290  -13.8620   38.7610 C   0  0  0  0  0
  -23.2410  -15.0170   39.5680 C   0  0  0  0  0
  -24.6980  -14.9420   39.5090 N   0  0  0  0  0
  -25.4950  -15.9970   39.6890 C   0  0  0  0  0
  -24.9560  -17.1830   39.9610 N   0  0  0  0  0
  -26.8170  -15.8690   39.6150 N   0  0  0  0  0
  -18.3240  -11.5230   39.0230 N   0  0  0  0  0
  -16.8460  -11.4830   39.0990 C   0  0  0  0  0
  -16.1500  -12.2260   40.2730 C   0  0  0  0  0
  -14.8890  -12.3590   40.2850 O   0  0  0  0  0
  -16.5470   -9.9840   39.1980 C   0  0  0  0  0
  -17.8170   -9.3600   39.8490 C   0  0  0  0  0
  -18.9570  -10.2210   39.3690 C   0  0  0  0  0
  -16.9330  -12.6810   41.2470 N   0  0  0  0  0
  -16.3610  -13.2480   42.4760 C   0  0  0  0  0
  -16.1200  -14.7680   42.3840 C   0  0  0  0  0
  -16.4110  -15.4700   41.3990 O   0  0  0  0  0
  -17.2610  -12.9020   43.6800 C   0  0  0  0  0
  -18.6540  -13.5000   43.6120 C   0  0  0  0  0
  -19.0330  -14.7290   44.0600 C   0  0  0  0  0
  -19.8480  -12.8810   43.0840 C   0  0  0  0  0
  -20.3690  -14.9290   43.8360 N   0  0  0  0  0
  -20.8990  -13.8050   43.2500 C   0  0  0  0  0
  -20.1220  -11.6470   42.4800 C   0  0  0  0  0
  -22.2040  -13.5440   42.8090 C   0  0  0  0  0
  -21.4250  -11.3800   42.0680 C   0  0  0  0  0
  -22.4470  -12.3420   42.2250 C   0  0  0  0  0
  -15.6230  -15.3830   43.3350 O   0  0  0  0  0
  -24.5477  -15.1236   32.7358 H   0  0  0  0  0
  -24.8171  -15.8673   34.2025 H   0  0  0  0  0
  -26.1011  -15.2776   33.3190 H   0  0  0  0  0
  -25.3315  -13.0204   33.5800 H   0  0  0  0  0
  -25.2087  -14.0730   36.3605 H   0  0  0  0  0
  -26.6986  -14.4292   35.3502 H   0  0  0  0  0
  -25.6152  -11.7067   35.6909 H   0  0  0  0  0
  -26.7655  -12.5115   36.9180 H   0  0  0  0  0
  -26.2913  -10.7307   33.4538 H   0  0  0  0  0
  -26.6339  -12.3982   32.9310 H   0  0  0  0  0
  -27.8277  -11.1100   32.6373 H   0  0  0  0  0
  -23.5980  -11.6368   33.8117 H   0  0  0  0  0
  -21.0777  -12.8708   34.5064 H   0  0  0  0  0
  -21.8202   -9.9853   34.0758 H   0  0  0  0  0
  -20.8950  -11.1069   32.9951 H   0  0  0  0  0
  -18.3698  -11.8033   33.9153 H   0  0  0  0  0
  -21.5479   -8.2072   35.7580 H   0  0  0  0  0
  -16.6403   -8.0515   36.8645 H   0  0  0  0  0
  -20.6101   -6.3541   37.1605 H   0  0  0  0  0
  -18.1903   -6.2749   37.7089 H   0  0  0  0  0
  -20.0995  -13.2294   36.3705 H   0  0  0  0  0
  -20.8654  -11.6167   38.7661 H   0  0  0  0  0
  -21.0664  -13.5348   40.1555 H   0  0  0  0  0
  -20.6543  -14.6325   38.7468 H   0  0  0  0  0
  -22.7434  -14.0711   37.6974 H   0  0  0  0  0
  -23.1407  -12.9355   39.0214 H   0  0  0  0  0
  -22.9175  -14.9431   40.6063 H   0  0  0  0  0
  -22.9111  -15.9665   39.1464 H   0  0  0  0  0
  -25.1287  -14.0368   39.3205 H   0  0  0  0  0
  -25.5565  -17.9934   40.1126 H   0  0  0  0  0
  -23.9424  -17.2816   40.0178 H   0  0  0  0  0
  -27.2310  -14.9576   39.4190 H   0  0  0  0  0
  -16.4469  -12.0149   38.2353 H   0  0  0  0  0
  -16.3395   -9.5487   38.2205 H   0  0  0  0  0
  -15.6530   -9.7893   39.7904 H   0  0  0  0  0
  -17.9484   -8.3162   39.5639 H   0  0  0  0  0
  -17.7499   -9.3444   40.9368 H   0  0  0  0  0
  -19.7310  -10.3331   40.1283 H   0  0  0  0  0
  -19.4711   -9.7782   38.5159 H   0  0  0  0  0
  -17.9463  -12.6357   41.1392 H   0  0  0  0  0
  -15.3789  -12.7960   42.6150 H   0  0  0  0  0
  -16.7883  -14.9152   40.7124 H   0  0  0  0  0
  -17.3778  -11.8183   43.6917 H   0  0  0  0  0
  -16.7796  -13.3116   44.5680 H   0  0  0  0  0
  -18.3666  -15.4518   44.5307 H   0  0  0  0  0
  -19.3312  -10.9108   42.3355 H   0  0  0  0  0
  -22.9974  -14.2814   42.9308 H   0  0  0  0  0
  -21.6595  -10.4153   41.6181 H   0  0  0  0  0
  -23.4522  -12.1150   41.8699 H   0  0  0  0  0
  1  2  1  0  0  0
  2  3  1  0  0  0
  2  5  1  0  0  0
  3  4  2  0  0  0
  3  9  1  0  0  0
  5  6  1  0  0  0
  6  7  1  0  0  0
  7  8  1  0  0  0
  9 10  1  0  0  0
 10 11  1  0  0  0
 10 13  1  0  0  0
 11 12  2  0  0  0
 11 23  1  0  0  0
 13 14  1  0  0  0
 14 15  4  0  0  0
 14 16  4  0  0  0
 15 17  4  0  0  0
 16 18  4  0  0  0
 16 19  4  0  0  0
 17 18  4  0  0  0
 18 20  4  0  0  0
 19 21  4  0  0  0
 20 22  4  0  0  0
 21 22  4  0  0  0
 23 24  1  0  0  0
 24 25  1  0  0  0
 24 27  1  0  0  0
 25 26  2  0  0  0
 25 34  1  0  0  0
 27 28  1  0  0  0
 28 29  1  0  0  0
 29 30  1  0  0  0
 30 31  1  0  0  0
 31 32  1  0  0  0
 31 33  2  0  0  0
 34 35  1  0  0  0
 34 40  1  0  0  0
 35 36  1  0  0  0
 35 38  1  0  0  0
 36 37  2  0  0  0
 36 41  1  0  0  0
 38 39  1  0  0  0
 39 40  1  0  0  0
 41 42  1  0  0  0
 42 43  1  0  0  0
 42 45  1  0  0  0
 43 44  1  0  0  0
 43 55  2  0  0  0
 45 46  1  0  0  0
 46 47  4  0  0  0
 46 48  4  0  0  0
 47 49  4  0  0  0
 48 50  4  0  0  0
 48 51  4  0  0  0
 49 50  4  0  0  0
 50 52  4  0  0  0
 51 53  4  0  0  0
 52 54  4  0  0  0
 53 54  4  0  0  0
  1 56  1  0  0  0
  1 57  1  0  0  0
  1 58  1  0  0  0
  2 59  1  0  0  0
  5 60  1  0  0  0
  5 61  1  0  0  0
  6 62  1  0  0  0
  6 63  1  0  0  0
  8 64  1  0  0  0
  8 65  1  0  0  0
  8 66  1  0  0  0
  9 67  1  0  0  0
 10 68  1  0  0  0
 13 69  1  0  0  0
 13 70  1  0  0  0
 15 71  1  0  0  0
 19 72  1  0  0  0
 20 73  1  0  0  0
 21 74  1  0  0  0
 22 75  1  0  0  0
 23 76  1  0  0  0
 24 77  1  0  0  0
 27 78  1  0  0  0
 27 79  1  0  0  0
 28 80  1  0  0  0
 28 81  1  0  0  0
 29 82  1  0  0  0
 29 83  1  0  0  0
 30 84  1  0  0  0
 32 85  1  0  0  0
 32 86  1  0  0  0
 33 87  1  0  0  0
 35 88  1  0  0  0
 38 89  1  0  0  0
 38 90  1  0  0  0
 39 91  1  0  0  0
 39 92  1  0  0  0
 40 93  1  0  0  0
 40 94  1  0  0  0
 41 95  1  0  0  0
 42 96  1  0  0  0
 44 97  1  0  0  0
 45 98  1  0  0  0
 45 99  1  0  0  0
 47100  1  0  0  0
 51101  1  0  0  0
 52102  1  0  0  0
 53103  1  0  0  0
 54104  1  0  0  0
M  END
$$$$
