6b2p_ligand
  -I-interpret- 

 37 40  0  0  0  0  0  0  0  0999 V2000
   87.5220   78.4010   28.2860 C   0  0  0  0  0
   87.8010   77.4650   29.3670 C   0  0  0  0  0
   88.4680   77.0480   31.5300 C   0  0  0  0  0
   87.6540   75.2690   30.1190 C   0  0  0  0  0
   87.3140   73.9440   29.8270 N   0  0  0  0  0
   86.8870   73.5510   28.5390 C   0  0  0  0  0
   86.1160   73.6960   26.4460 C   0  0  0  0  0
   85.7890   73.6330   23.8560 C   0  0  0  0  0
   84.4110   73.6100   24.5270 C   0  0  0  0  0
   88.2530   79.4790   27.9420 C   0  0  0  0  0
   87.7240   80.1920   26.8960 C   0  0  0  0  0
   86.5740   79.7030   26.4180 C   0  0  0  0  0
   86.0870   78.2640   27.2930 S   0  0  0  0  0
   88.2660   77.9000   30.5290 N   0  0  0  0  0
   88.1800   75.6950   31.3680 C   0  0  0  0  0
   87.4880   76.1950   29.1750 N   0  0  0  0  0
   86.4230   74.4060   27.5380 C   0  0  0  0  0
   86.3520   72.4040   26.7210 N   0  0  0  0  0
   86.8330   72.3370   28.0390 N   0  0  0  0  0
   85.5760   74.3190   25.1960 C   0  0  0  0  0
   88.4600   74.6500   32.7320 Cl  0  0  0  0  0
   85.6450   80.3840   25.0940 S   0  0  0  0  0
   84.3840   80.7260   25.6600 O   0  0  0  0  0
   86.5140   81.3080   24.4360 O   0  0  0  0  0
   85.3390   79.1560   24.0200 N   0  0  0  0  0
   88.8603   77.4098   32.4804 H   0  0  0  0  0
   87.3761   73.2421   30.5645 H   0  0  0  0  0
   86.2229   73.8545   22.8809 H   0  0  0  0  0
   86.4877   72.9360   23.3932 H   0  0  0  0  0
   83.6357   72.8876   24.7820 H   0  0  0  0  0
   83.3705   73.8073   24.2690 H   0  0  0  0  0
   89.1776   79.7584   28.4471 H   0  0  0  0  0
   88.2011   81.0831   26.4881 H   0  0  0  0  0
   86.3255   75.4876   27.6316 H   0  0  0  0  0
   85.7768   75.3254   25.5634 H   0  0  0  0  0
   84.3862   78.8147   23.8935 H   0  0  0  0  0
   86.1038   78.7427   23.4865 H   0  0  0  0  0
  2  1  1  0  0  0
  1 10  4  0  0  0
  1 13  4  0  0  0
  2 14  4  0  0  0
 16  2  4  0  0  0
  3 14  4  0  0  0
 15  3  4  0  0  0
  5  4  1  0  0  0
  4 15  4  0  0  0
  4 16  4  0  0  0
  6  5  1  0  0  0
 17  6  4  0  0  0
  6 19  4  0  0  0
  7 17  4  0  0  0
  7 18  4  0  0  0
 20  7  1  0  0  0
  8  9  1  0  0  0
  8 20  1  0  0  0
  9 20  1  0  0  0
 10 11  4  0  0  0
 11 12  4  0  0  0
 12 13  4  0  0  0
 12 22  1  0  0  0
 15 21  1  0  0  0
 18 19  4  0  0  0
 22 23  2  0  0  0
 22 24  2  0  0  0
 22 25  1  0  0  0
  3 26  1  0  0  0
  5 27  1  0  0  0
  8 28  1  0  0  0
  8 29  1  0  0  0
  9 30  1  0  0  0
  9 31  1  0  0  0
 10 32  1  0  0  0
 11 33  1  0  0  0
 17 34  1  0  0  0
 20 35  1  0  0  0
 25 36  1  0  0  0
 25 37  1  0  0  0
M  END
$$$$
