2azb_ligand
  -I-interpret- 

 66 67  0  0  0  0  0  0  0  0999 V2000
  -26.8470   37.2260   19.4730 C   0  0  0  0  0
  -26.7550   38.4970   19.6010 O   0  0  0  0  0
  -27.1880   36.6440   18.0940 O   0  0  0  0  0
  -27.9010   37.4160   17.1510 C   0  0  0  0  0
  -29.3770   37.6270   17.4000 C   0  0  0  0  0
  -29.8650   38.9920   17.4440 C   0  0  0  0  0
  -31.2670   39.2600   17.6770 C   0  0  0  0  0
  -32.1800   38.1470   17.8660 C   0  0  0  0  0
  -31.6770   36.7670   17.8200 C   0  0  0  0  0
  -30.2470   36.4850   17.5820 C   0  0  0  0  0
  -26.7100   36.2950   20.3820 N   0  0  0  0  0
  -26.4330   36.5970   21.6140 C   0  0  0  0  0
  -24.9340   36.4930   21.9900 C   0  0  0  0  0
  -24.2950   35.4450   21.6920 O   0  0  0  0  0
  -27.3800   35.6640   22.2700 C   0  0  0  0  0
  -24.5090   37.5580   22.6650 N   0  0  0  0  0
  -23.1720   37.7500   23.2530 C   0  0  0  0  0
  -23.3400   37.9860   24.7700 C   0  0  0  0  0
  -23.7300   39.0530   25.1190 O   0  0  0  0  0
  -22.3990   38.8580   22.4950 C   0  0  0  0  0
  -21.0300   39.0390   23.0890 C   0  0  0  0  0
  -22.3120   38.4580   21.0360 C   0  0  0  0  0
  -23.0240   36.9680   25.5520 N   0  0  0  0  0
  -23.0060   36.7260   27.0160 C   0  0  0  0  0
  -21.6650   36.0700   27.3160 C   0  0  0  0  0
  -21.3930   34.8410   26.7420 O   0  0  0  0  0
  -24.1590   36.2340   27.7960 C   0  0  0  0  0
  -25.5180   36.2230   27.2610 C   0  0  0  0  0
  -26.0690   35.0290   26.5620 C   0  0  0  0  0
  -26.2090   37.4310   27.4880 C   0  0  0  0  0
  -27.4110   35.0030   26.0280 C   0  0  0  0  0
  -27.5480   37.3780   26.9480 C   0  0  0  0  0
  -28.1250   36.2200   26.2480 C   0  0  0  0  0
  -27.8362   36.8671   16.2115 H   0  0  0  0  0
  -27.4519   38.4087   17.1830 H   0  0  0  0  0
  -29.1713   39.8205   17.3007 H   0  0  0  0  0
  -31.6340   40.2858   17.7103 H   0  0  0  0  0
  -33.2391   38.3351   18.0421 H   0  0  0  0  0
  -32.3704   35.9384   17.9638 H   0  0  0  0  0
  -29.8649   35.4648   17.5452 H   0  0  0  0  0
  -26.8226   35.3161   20.1185 H   0  0  0  0  0
  -26.5626   37.6382   21.9094 H   0  0  0  0  0
  -28.3968   35.9003   21.9564 H   0  0  0  0  0
  -27.1382   34.6409   21.9822 H   0  0  0  0  0
  -27.2989   35.7672   23.3521 H   0  0  0  0  0
  -25.1770   38.3190   22.7878 H   0  0  0  0  0
  -22.5495   36.8624   23.1401 H   0  0  0  0  0
  -22.9199   39.8115   22.5820 H   0  0  0  0  0
  -21.1248   39.3237   24.1369 H   0  0  0  0  0
  -20.4762   38.1032   23.0141 H   0  0  0  0  0
  -20.4999   39.8209   22.5452 H   0  0  0  0  0
  -21.7853   37.5074   20.9520 H   0  0  0  0  0
  -23.3176   38.3549   20.6283 H   0  0  0  0  0
  -21.7707   39.2249   20.4820 H   0  0  0  0  0
  -22.7190   36.1522   25.0211 H   0  0  0  0  0
  -23.1504   37.7168   27.4467 H   0  0  0  0  0
  -21.6682   35.8898   28.3910 H   0  0  0  0  0
  -20.9162   36.7489   26.9080 H   0  0  0  0  0
  -20.5205   34.5478   27.0146 H   0  0  0  0  0
  -24.2201   36.9360   28.6276 H   0  0  0  0  0
  -23.9349   35.1770   27.9395 H   0  0  0  0  0
  -25.4394   34.1463   26.4497 H   0  0  0  0  0
  -25.7874   38.2935   28.0042 H   0  0  0  0  0
  -27.8351   34.1427   25.5102 H   0  0  0  0  0
  -28.1765   38.2604   27.0680 H   0  0  0  0  0
  -29.1479   36.2945   25.8791 H   0  0  0  0  0
  1  2  2  0  0  0
  1  3  1  0  0  0
  1 11  1  0  0  0
  3  4  1  0  0  0
  4  5  1  0  0  0
  5  6  4  0  0  0
  5 10  4  0  0  0
  6  7  4  0  0  0
  7  8  4  0  0  0
  8  9  4  0  0  0
  9 10  4  0  0  0
 11 12  1  0  0  0
 12 13  1  0  0  0
 12 15  1  0  0  0
 13 14  2  0  0  0
 13 16  1  0  0  0
 16 17  1  0  0  0
 17 18  1  0  0  0
 17 20  1  0  0  0
 18 19  2  0  0  0
 18 23  1  0  0  0
 20 21  1  0  0  0
 20 22  1  0  0  0
 23 24  1  0  0  0
 24 25  1  0  0  0
 24 27  1  0  0  0
 25 26  1  0  0  0
 27 28  1  0  0  0
 28 29  4  0  0  0
 28 30  4  0  0  0
 29 31  4  0  0  0
 30 32  4  0  0  0
 31 33  4  0  0  0
 32 33  4  0  0  0
  4 34  1  0  0  0
  4 35  1  0  0  0
  6 36  1  0  0  0
  7 37  1  0  0  0
  8 38  1  0  0  0
  9 39  1  0  0  0
 10 40  1  0  0  0
 11 41  1  0  0  0
 12 42  1  0  0  0
 15 43  1  0  0  0
 15 44  1  0  0  0
 15 45  1  0  0  0
 16 46  1  0  0  0
 17 47  1  0  0  0
 20 48  1  0  0  0
 21 49  1  0  0  0
 21 50  1  0  0  0
 21 51  1  0  0  0
 22 52  1  0  0  0
 22 53  1  0  0  0
 22 54  1  0  0  0
 23 55  1  0  0  0
 24 56  1  0  0  0
 25 57  1  0  0  0
 25 58  1  0  0  0
 26 59  1  0  0  0
 27 60  1  0  0  0
 27 61  1  0  0  0
 29 62  1  0  0  0
 30 63  1  0  0  0
 31 64  1  0  0  0
 32 65  1  0  0  0
 33 66  1  0  0  0
M  END
$$$$
