5tzc_ligand
  -I-interpret- 

 43 46  0  0  0  0  0  0  0  0999 V2000
    5.5760    3.4000    8.6040 N   0  0  0  0  0
    6.8040    3.9980    8.6310 C   0  0  0  0  0
    7.1100    3.7140    6.2280 C   0  0  0  0  0
    8.5980    4.9480    9.0620 C   0  0  0  0  0
    3.8380    2.3760    7.3610 C   0  0  0  0  0
    8.8940    3.2580    2.8600 C   0  0  0  0  0
   10.1080    6.5200    3.6500 C   0  0  0  0  0
   10.7300    6.7880    6.0250 C   0  0  0  0  0
   10.9840    7.6990    7.0380 C   0  0  0  0  0
   10.6000    9.5920    5.6140 C   0  0  0  0  0
   10.3310    8.7240    4.5850 C   0  0  0  0  0
   10.3870    7.3440    4.8060 C   0  0  0  0  0
   10.9220    9.0570    6.8440 C   0  0  0  0  0
    5.9180    3.1250    6.1450 C   0  0  0  0  0
    5.1920    3.0090    7.4250 C   0  0  0  0  0
    7.7850    3.0730    3.8830 C   0  0  0  0  0
    8.0530    5.4090    4.6270 C   0  0  0  0  0
    9.0120    4.7290    2.4570 C   0  0  0  0  0
    8.0600    3.9540    5.0920 C   0  0  0  0  0
    7.4640    4.5070    9.6500 N   0  0  0  0  0
    8.6960    4.7380    7.7550 N   0  0  0  0  0
    7.5340    4.1400    7.4660 N   0  0  0  0  0
    9.0770    5.5930    3.6100 N   0  0  0  0  0
   10.8200    6.8170    2.7180 O   0  0  0  0  0
   11.1920    9.8280    7.9220 F   0  0  0  0  0
   10.1590    2.7990    3.2410 F   0  0  0  0  0
    8.4480    2.5040    1.8160 F   0  0  0  0  0
   11.4550    7.1980    8.7800 Br  0  0  0  0  0
    9.3854    5.4465    9.6274 H   0  0  0  0  0
    3.8214    1.4914    7.9976 H   0  0  0  0  0
    3.0887    3.0881    7.7067 H   0  0  0  0  0
    3.6208    2.0889    6.3322 H   0  0  0  0  0
   10.7958    5.7108    6.1780 H   0  0  0  0  0
   10.5604   10.6709    5.4637 H   0  0  0  0  0
   10.0744    9.1093    3.5982 H   0  0  0  0  0
    5.5099    2.7568    5.2037 H   0  0  0  0  0
    7.7479    2.0291    4.1945 H   0  0  0  0  0
    6.8298    3.3529    3.4387 H   0  0  0  0  0
    8.2576    6.0640    5.4739 H   0  0  0  0  0
    7.0762    5.6544    4.2102 H   0  0  0  0  0
    8.1305    4.9979    1.8749 H   0  0  0  0  0
    9.9284    4.8552    1.8805 H   0  0  0  0  0
    9.0379    3.6992    5.5006 H   0  0  0  0  0
  2  1  4  0  0  0
 15  1  4  0  0  0
  2 20  4  0  0  0
 22  2  4  0  0  0
  3 14  4  0  0  0
 19  3  1  0  0  0
  3 22  4  0  0  0
 20  4  4  0  0  0
  4 21  4  0  0  0
 15  5  1  0  0  0
 16  6  1  0  0  0
  6 18  1  0  0  0
  6 26  1  0  0  0
  6 27  1  0  0  0
  7 12  1  0  0  0
 23  7  1  0  0  0
  7 24  2  0  0  0
  8  9  4  0  0  0
 12  8  4  0  0  0
  9 13  4  0  0  0
  9 28  1  0  0  0
 11 10  4  0  0  0
 10 13  4  0  0  0
 12 11  4  0  0  0
 13 25  1  0  0  0
 14 15  4  0  0  0
 19 16  1  0  0  0
 17 19  1  0  0  0
 17 23  1  0  0  0
 18 23  1  0  0  0
 21 22  4  0  0  0
  4 29  1  0  0  0
  5 30  1  0  0  0
  5 31  1  0  0  0
  5 32  1  0  0  0
  8 33  1  0  0  0
 10 34  1  0  0  0
 11 35  1  0  0  0
 14 36  1  0  0  0
 16 37  1  0  0  0
 16 38  1  0  0  0
 17 39  1  0  0  0
 17 40  1  0  0  0
 18 41  1  0  0  0
 18 42  1  0  0  0
 19 43  1  0  0  0
M  END
$$$$
