4r7m_ligand
  -I-interpret- 

 43 45  0  0  0  0  0  0  0  0999 V2000
   80.5240   69.7790   31.7690 C   0  0  0  0  0
   90.5400   71.2070   29.5200 C   0  0  0  0  0
   91.7370   70.6840   29.0340 C   0  0  0  0  0
   92.6740   70.7000   31.2520 C   0  0  0  0  0
   92.8030   70.4310   29.8960 C   0  0  0  0  0
   93.9470   69.9320   29.4310 N   0  0  0  0  0
   91.4800   71.2180   31.7350 C   0  0  0  0  0
   90.4080   71.4600   30.8810 C   0  0  0  0  0
   89.2510   72.0050   31.4300 C   0  0  0  0  0
   89.0910   72.0090   32.6480 O   0  0  0  0  0
   88.3890   72.5790   30.5750 N   0  0  0  0  0
   87.2120   73.3140   31.0860 C   0  0  0  0  0
   86.9750   74.5810   30.2490 C   0  0  0  0  0
   85.8410   75.0330   30.0850 O   0  0  0  0  0
   88.0820   75.1450   29.7530 N   0  0  0  0  0
   87.8970   76.3320   28.9810 O   0  0  0  0  0
   86.0030   72.6260   31.2120 C   0  0  0  0  0
   85.5550   71.6370   30.3390 C   0  0  0  0  0
   84.3100   71.0420   30.5650 C   0  0  0  0  0
   85.2060   73.0260   32.2760 C   0  0  0  0  0
   83.9740   72.4400   32.5000 C   0  0  0  0  0
   83.5240   71.4460   31.6470 C   0  0  0  0  0
   82.3310   70.9160   31.9020 N   0  0  0  0  0
   81.6610   71.2040   32.8760 N   0  0  0  0  0
   80.5180   70.5280   32.8620 C   0  0  0  0  0
   81.6760   70.0280   31.1580 C   0  0  0  0  0
   79.7412   69.0963   31.4383 H   0  0  0  0  0
   89.7147   71.4159   28.8393 H   0  0  0  0  0
   91.8406   70.4708   27.9701 H   0  0  0  0  0
   93.5036   70.5060   31.9319 H   0  0  0  0  0
   94.0489   69.7315   28.4361 H   0  0  0  0  0
   94.7212   69.7503   30.0698 H   0  0  0  0  0
   91.3807   71.4383   32.7979 H   0  0  0  0  0
   88.5467   72.5077   29.5698 H   0  0  0  0  0
   87.5001   73.5266   32.1155 H   0  0  0  0  0
   89.0075   74.7489   29.9172 H   0  0  0  0  0
   88.7499   76.6504   28.6763 H   0  0  0  0  0
   86.1672   71.3310   29.4907 H   0  0  0  0  0
   83.9516   70.2606   29.8949 H   0  0  0  0  0
   85.5564   73.8129   32.9440 H   0  0  0  0  0
   83.3605   72.7584   33.3429 H   0  0  0  0  0
   79.7252   70.5795   33.6082 H   0  0  0  0  0
   82.0207   69.5877   30.2224 H   0  0  0  0  0
  1 25  4  0  0  0
 26  1  4  0  0  0
  2  3  4  0  0  0
  8  2  4  0  0  0
  3  5  4  0  0  0
  4  5  4  0  0  0
  7  4  4  0  0  0
  5  6  1  0  0  0
  8  7  4  0  0  0
  9  8  1  0  0  0
  9 10  2  0  0  0
 11  9  1  0  0  0
 12 11  1  0  0  0
 12 13  1  0  0  0
 17 12  1  0  0  0
 13 14  2  0  0  0
 13 15  1  0  0  0
 15 16  1  0  0  0
 18 17  4  0  0  0
 20 17  4  0  0  0
 19 18  4  0  0  0
 22 19  4  0  0  0
 21 20  4  0  0  0
 22 21  4  0  0  0
 23 22  1  0  0  0
 23 24  4  0  0  0
 23 26  4  0  0  0
 24 25  4  0  0  0
  1 27  1  0  0  0
  2 28  1  0  0  0
  3 29  1  0  0  0
  4 30  1  0  0  0
  6 31  1  0  0  0
  6 32  1  0  0  0
  7 33  1  0  0  0
 11 34  1  0  0  0
 12 35  1  0  0  0
 15 36  1  0  0  0
 16 37  1  0  0  0
 18 38  1  0  0  0
 19 39  1  0  0  0
 20 40  1  0  0  0
 21 41  1  0  0  0
 25 42  1  0  0  0
 26 43  1  0  0  0
M  END
$$$$
