3t3g_ligand
  -I-interpret- 

 33 34  0  0  0  0  0  0  0  0999 V2000
   34.0340   23.5280   28.9300 N   0  0  0  0  0
   38.0860   23.9480   29.9230 Br  0  0  0  0  0
   33.3570   24.3680   29.8510 C   0  0  0  0  0
   32.1300   24.4920   29.8320 O   0  0  0  0  0
   34.1310   25.1020   30.8030 N   0  0  0  0  0
   35.5310   24.9760   30.8270 C   0  0  0  0  0
   36.1480   25.6520   31.6370 O   0  0  0  0  0
   36.1830   24.1420   29.9100 C   0  0  0  0  0
   35.4410   23.4270   28.9630 C   0  0  0  0  0
   33.2410   22.7710   27.9410 C   0  0  0  0  0
   33.6860   23.1110   26.5190 C   0  0  0  0  0
   33.8200   24.5510   26.3780 O   0  0  0  0  0
   32.6670   22.4490   25.5770 C   0  0  0  0  0
   33.1710   22.4480   24.2510 O   0  0  0  0  0
   32.3800   20.9790   25.9870 C   0  0  0  0  0
   31.2850   20.4980   25.2420 O   0  0  0  0  0
   32.1340   20.7860   27.4910 C   0  0  0  0  0
   33.3270   21.3250   28.0360 O   0  0  0  0  0
   32.1720   19.3620   28.0130 C   0  0  0  0  0
   33.3050   18.6850   27.4530 O   0  0  0  0  0
   33.6654   25.7198   31.4677 H   0  0  0  0  0
   35.9541   22.7870   28.2452 H   0  0  0  0  0
   32.2178   23.0718   28.1660 H   0  0  0  0  0
   34.6731   22.7239   26.2662 H   0  0  0  0  0
   34.0996   24.7592   25.4835 H   0  0  0  0  0
   31.7423   23.0225   25.6414 H   0  0  0  0  0
   32.5314   22.0338   23.6671 H   0  0  0  0  0
   33.2797   20.4055   25.7642 H   0  0  0  0  0
   31.1037   19.5891   25.4922 H   0  0  0  0  0
   31.1541   21.1992   27.7303 H   0  0  0  0  0
   31.2573   18.8428   27.7268 H   0  0  0  0  0
   32.2526   19.3728   29.1000 H   0  0  0  0  0
   33.3320   17.7833   27.7814 H   0  0  0  0  0
  3  1  1  0  0  0
  1  9  1  0  0  0
  1 10  1  0  0  0
  8  2  1  0  0  0
  3  4  2  0  0  0
  5  3  1  0  0  0
  6  5  1  0  0  0
  6  7  2  0  0  0
  6  8  1  0  0  0
  8  9  2  0  0  0
 10 11  1  0  0  0
 10 18  1  0  0  0
 11 12  1  0  0  0
 11 13  1  0  0  0
 13 14  1  0  0  0
 13 15  1  0  0  0
 15 16  1  0  0  0
 15 17  1  0  0  0
 17 18  1  0  0  0
 17 19  1  0  0  0
 19 20  1  0  0  0
  5 21  1  0  0  0
  9 22  1  0  0  0
 10 23  1  0  0  0
 11 24  1  0  0  0
 12 25  1  0  0  0
 13 26  1  0  0  0
 14 27  1  0  0  0
 15 28  1  0  0  0
 16 29  1  0  0  0
 17 30  1  0  0  0
 19 31  1  0  0  0
 19 32  1  0  0  0
 20 33  1  0  0  0
M  END
$$$$
