5l72_ligand
  -I-interpret- 

 57 60  0  0  0  0  0  0  0  0999 V2000
  -11.6330  -30.9160   20.2790 N   0  0  0  0  0
   -4.2310  -34.8940   22.3030 N   0  3  0  0  0
  -10.2260  -30.4750   22.1830 C   0  0  0  0  0
  -11.4830  -30.4330   21.6010 C   0  0  0  0  0
  -11.7700  -33.4890   21.1490 C   0  0  0  0  0
   -8.7080  -30.0620   24.1240 C   0  0  0  0  0
   -8.3600  -29.0950   25.0680 C   0  0  0  0  0
   -6.5630  -28.2170   26.7480 C   0  0  0  0  0
   -6.5250  -31.0690   24.4510 C   0  0  0  0  0
   -4.1270  -33.6850   23.1150 C   0  0  0  0  0
   -4.1500  -37.3120   22.1840 C   0  0  0  0  0
   -7.7650  -31.0470   23.8080 C   0  0  0  0  0
   -6.4550  -33.3460   22.6080 O   0  0  0  0  0
   -5.4670  -32.9760   23.2410 C   0  0  0  0  0
   -3.4240  -34.8190   21.0810 C   0  0  0  0  0
   -3.6970  -36.0340   20.2220 C   0  0  0  0  0
   -3.4320  -37.2580   20.9310 O   0  0  0  0  0
   -3.8750  -36.1000   23.0470 C   0  0  0  0  0
   -5.4740  -31.9600   24.1230 N   0  0  0  0  0
   -6.2080  -30.1310   25.4460 C   0  0  0  0  0
   -5.0820  -30.0140   26.4280 C   0  0  0  0  0
   -5.2870  -28.7600   27.0720 O   0  0  0  0  0
   -7.1320  -29.1290   25.7180 C   0  0  0  0  0
  -10.0600  -30.0650   23.5050 C   0  0  0  0  0
  -11.1940  -29.6450   24.2030 C   0  0  0  0  0
  -12.4260  -29.5670   23.6790 N   0  0  0  0  0
  -11.5150  -32.4520   19.7600 S   0  0  0  0  0
  -12.5840  -32.6670   18.8340 O   0  0  0  0  0
  -10.1670  -32.6160   19.3150 O   0  0  0  0  0
  -12.5660  -29.9170   22.4080 C   0  0  0  0  0
  -13.7100  -29.6690   21.7260 O   0  0  0  0  0
  -14.5640  -28.6340   22.2120 C   0  0  0  0  0
  -11.8400  -30.2162   19.5664 H   0  0  0  0  0
   -5.2144  -34.9551   22.0393 H   0  0  0  0  0
   -9.3694  -30.8277   21.6086 H   0  0  0  0  0
  -12.7236  -33.2416   21.6153 H   0  0  0  0  0
  -11.7811  -34.5301   20.8264 H   0  0  0  0  0
  -10.9633  -33.3382   21.8664 H   0  0  0  0  0
   -9.0653  -28.2971   25.3002 H   0  0  0  0  0
   -7.0253  -27.3227   27.1658 H   0  0  0  0  0
   -3.4231  -33.0066   22.6329 H   0  0  0  0  0
   -3.7931  -33.9689   24.1130 H   0  0  0  0  0
   -3.8223  -38.1986   22.7269 H   0  0  0  0  0
   -5.2173  -37.3393   21.9645 H   0  0  0  0  0
   -7.9994  -31.8008   23.0563 H   0  0  0  0  0
   -2.3668  -34.7902   21.3446 H   0  0  0  0  0
   -3.6847  -33.9166   20.5279 H   0  0  0  0  0
   -3.0425  -35.9930   19.3514 H   0  0  0  0  0
   -4.7490  -36.0234   19.9367 H   0  0  0  0  0
   -4.4684  -36.1569   23.9596 H   0  0  0  0  0
   -2.8179  -36.0697   23.3112 H   0  0  0  0  0
   -4.5995  -31.8104   24.6262 H   0  0  0  0  0
   -4.2816  -30.7312   26.6097 H   0  0  0  0  0
  -11.0691  -29.3604   25.2477 H   0  0  0  0  0
  -14.8824  -28.8739   23.2265 H   0  0  0  0  0
  -14.0219  -27.6884   22.2140 H   0  0  0  0  0
  -15.4377  -28.5520   21.5654 H   0  0  0  0  0
  4  1  1  0  0  0
  1 27  1  0  0  0
 10  2  1  0  0  0
  2 15  1  0  0  0
  2 18  1  0  0  0
  3  4  4  0  0  0
 24  3  4  0  0  0
  4 30  4  0  0  0
 27  5  1  0  0  0
  6  7  4  0  0  0
 12  6  4  0  0  0
  6 24  1  0  0  0
  7 23  4  0  0  0
  8 22  4  0  0  0
 23  8  4  0  0  0
  9 12  4  0  0  0
 19  9  1  0  0  0
  9 20  4  0  0  0
 14 10  1  0  0  0
 11 17  1  0  0  0
 18 11  1  0  0  0
 14 13  2  0  0  0
 14 19  1  0  0  0
 15 16  1  0  0  0
 16 17  1  0  0  0
 20 21  4  0  0  0
 20 23  4  0  0  0
 21 22  4  0  0  0
 24 25  4  0  0  0
 25 26  4  0  0  0
 26 30  4  0  0  0
 27 28  2  0  0  0
 27 29  2  0  0  0
 30 31  1  0  0  0
 31 32  1  0  0  0
  1 33  1  0  0  0
  2 34  1  0  0  0
  3 35  1  0  0  0
  5 36  1  0  0  0
  5 37  1  0  0  0
  5 38  1  0  0  0
  7 39  1  0  0  0
  8 40  1  0  0  0
 10 41  1  0  0  0
 10 42  1  0  0  0
 11 43  1  0  0  0
 11 44  1  0  0  0
 12 45  1  0  0  0
 15 46  1  0  0  0
 15 47  1  0  0  0
 16 48  1  0  0  0
 16 49  1  0  0  0
 18 50  1  0  0  0
 18 51  1  0  0  0
 19 52  1  0  0  0
 21 53  1  0  0  0
 25 54  1  0  0  0
 32 55  1  0  0  0
 32 56  1  0  0  0
 32 57  1  0  0  0
M  END
$$$$
