1w51_ligand
  -I-interpret- 

 81 83  0  0  0  0  0  0  0  0999 V2000
   72.3560   46.9920    3.5200 C   0  0  0  0  0
   73.5900   46.1720    3.1170 C   0  0  0  0  0
   73.8500   44.9180    3.9660 C   0  0  0  0  0
   73.1400   44.9030    5.2580 N   0  0  0  0  0
   73.6150   45.7090    6.3930 C   0  0  0  0  0
   74.8110   44.9960    7.0480 C   0  0  0  0  0
   74.3920   44.4000    8.3940 C   0  0  0  0  0
   72.0920   44.0820    5.3510 C   0  0  0  0  0
   72.0000   43.2020    4.5120 O   0  0  0  0  0
   71.0710   44.1850    6.4150 C   0  0  0  0  0
   70.7120   43.0090    7.0590 C   0  0  0  0  0
   69.7650   43.0180    8.0580 C   0  0  0  0  0
   69.1430   44.1900    8.4100 C   0  0  0  0  0
   69.4930   45.3780    7.7700 C   0  0  0  0  0
   70.4440   45.3830    6.7560 C   0  0  0  0  0
   68.8040   46.5900    8.1880 C   0  0  0  0  0
   68.4820   46.7120    9.3610 O   0  0  0  0  0
   68.5230   47.5140    7.2450 N   0  0  0  0  0
   68.0950   48.8620    7.5410 C   0  0  0  0  0
   68.9470   49.8150    6.7290 C   0  0  0  0  0
   70.4250   49.6920    7.0380 C   0  0  0  0  0
   70.9080   49.8850    8.3150 C   0  0  0  0  0
   72.2740   49.8120    8.5500 C   0  0  0  0  0
   73.1720   49.5390    7.5460 C   0  0  0  0  0
   72.7020   49.3430    6.2760 C   0  0  0  0  0
   71.3350   49.4410    6.0270 C   0  0  0  0  0
   66.6480   48.9840    7.1130 C   0  0  0  0  0
   66.2790   50.3180    7.4100 O   0  0  0  0  0
   65.7770   47.9490    7.8560 C   0  0  0  0  0
   64.3220   48.1080    7.6170 N   0  3  0  0  0
   63.4920   47.7250    8.7910 C   0  0  0  0  0
   63.4630   48.7380    9.9420 C   0  0  0  0  0
   63.6040   48.3050   11.2600 C   0  0  0  0  0
   63.5950   49.2070   12.3280 C   0  0  0  0  0
   63.4300   50.5760   12.1090 C   0  0  0  0  0
   63.2720   51.0350   10.7950 C   0  0  0  0  0
   63.0860   52.3420   10.4320 O   0  0  0  0  0
   63.1810   53.2840   11.5090 C   0  0  0  0  0
   63.2940   50.1070    9.7430 C   0  0  0  0  0
   71.4648   46.3701    3.4360 H   0  0  0  0  0
   72.4676   47.3320    4.5496 H   0  0  0  0  0
   72.2626   47.8540    2.8595 H   0  0  0  0  0
   74.4543   46.8230    3.2486 H   0  0  0  0  0
   73.4173   45.8284    2.0971 H   0  0  0  0  0
   74.9173   44.8949    4.1860 H   0  0  0  0  0
   73.4920   44.0626    3.3931 H   0  0  0  0  0
   72.8129   45.8263    7.1217 H   0  0  0  0  0
   73.9219   46.6940    6.0414 H   0  0  0  0  0
   75.6135   45.7159    7.2088 H   0  0  0  0  0
   75.1541   44.1955    6.3926 H   0  0  0  0  0
   74.0455   45.1977    9.0511 H   0  0  0  0  0
   73.5874   43.6816    8.2371 H   0  0  0  0  0
   75.2457   43.8978    8.8491 H   0  0  0  0  0
   71.1843   42.0698    6.7711 H   0  0  0  0  0
   69.5082   42.0914    8.5713 H   0  0  0  0  0
   68.3784   44.1917    9.1869 H   0  0  0  0  0
   70.6953   46.3076    6.2363 H   0  0  0  0  0
   68.6184   47.2448    6.2658 H   0  0  0  0  0
   68.1955   49.0930    8.6015 H   0  0  0  0  0
   68.6383   50.8308    6.9757 H   0  0  0  0  0
   68.8055   49.5736    5.6755 H   0  0  0  0  0
   70.2211   50.0937    9.1352 H   0  0  0  0  0
   72.6458   49.9761    9.5614 H   0  0  0  0  0
   74.2396   49.4797    7.7577 H   0  0  0  0  0
   73.3924   49.1118    5.4649 H   0  0  0  0  0
   70.9722   49.3164    5.0067 H   0  0  0  0  0
   66.5056   48.7759    6.0526 H   0  0  0  0  0
   65.3632   50.4589    7.1590 H   0  0  0  0  0
   65.9477   48.0875    8.9236 H   0  0  0  0  0
   66.0605   46.9626    7.4888 H   0  0  0  0  0
   64.0662   47.4944    6.8434 H   0  0  0  0  0
   64.1460   49.0935    7.4214 H   0  0  0  0  0
   63.9293   46.8115    9.1940 H   0  0  0  0  0
   62.4672   47.6379    8.4299 H   0  0  0  0  0
   63.7238   47.2406   11.4618 H   0  0  0  0  0
   63.7185   48.8365   13.3456 H   0  0  0  0  0
   63.4242   51.2750   12.9454 H   0  0  0  0  0
   62.4238   53.0544   12.2587 H   0  0  0  0  0
   64.1714   53.2200   11.9596 H   0  0  0  0  0
   63.0197   54.2911   11.1244 H   0  0  0  0  0
   63.1734   50.4734    8.7235 H   0  0  0  0  0
  1  2  1  0  0  0
  2  3  1  0  0  0
  3  4  1  0  0  0
  4  5  1  0  0  0
  4  8  1  0  0  0
  5  6  1  0  0  0
  6  7  1  0  0  0
  8  9  2  0  0  0
  8 10  1  0  0  0
 10 11  4  0  0  0
 10 15  4  0  0  0
 11 12  4  0  0  0
 12 13  4  0  0  0
 13 14  4  0  0  0
 14 15  4  0  0  0
 14 16  1  0  0  0
 16 17  2  0  0  0
 16 18  1  0  0  0
 18 19  1  0  0  0
 19 20  1  0  0  0
 19 27  1  0  0  0
 20 21  1  0  0  0
 21 22  4  0  0  0
 21 26  4  0  0  0
 22 23  4  0  0  0
 23 24  4  0  0  0
 24 25  4  0  0  0
 25 26  4  0  0  0
 27 28  1  0  0  0
 27 29  1  0  0  0
 29 30  1  0  0  0
 30 31  1  0  0  0
 31 32  1  0  0  0
 32 33  4  0  0  0
 32 39  4  0  0  0
 33 34  4  0  0  0
 34 35  4  0  0  0
 35 36  4  0  0  0
 36 37  1  0  0  0
 36 39  4  0  0  0
 37 38  1  0  0  0
  1 40  1  0  0  0
  1 41  1  0  0  0
  1 42  1  0  0  0
  2 43  1  0  0  0
  2 44  1  0  0  0
  3 45  1  0  0  0
  3 46  1  0  0  0
  5 47  1  0  0  0
  5 48  1  0  0  0
  6 49  1  0  0  0
  6 50  1  0  0  0
  7 51  1  0  0  0
  7 52  1  0  0  0
  7 53  1  0  0  0
 11 54  1  0  0  0
 12 55  1  0  0  0
 13 56  1  0  0  0
 15 57  1  0  0  0
 18 58  1  0  0  0
 19 59  1  0  0  0
 20 60  1  0  0  0
 20 61  1  0  0  0
 22 62  1  0  0  0
 23 63  1  0  0  0
 24 64  1  0  0  0
 25 65  1  0  0  0
 26 66  1  0  0  0
 27 67  1  0  0  0
 28 68  1  0  0  0
 29 69  1  0  0  0
 29 70  1  0  0  0
 30 71  1  0  0  0
 30 72  1  0  0  0
 31 73  1  0  0  0
 31 74  1  0  0  0
 33 75  1  0  0  0
 34 76  1  0  0  0
 35 77  1  0  0  0
 38 78  1  0  0  0
 38 79  1  0  0  0
 38 80  1  0  0  0
 39 81  1  0  0  0
M  END
$$$$
