6hzb_ligand
  -I-interpret- 

122123  0  0  0  0  0  0  0  0999 V2000
   54.7160  -34.3430   -4.9760 N   0  0  0  0  0
   54.0590  -34.2550   -3.6420 C   0  0  0  0  0
   52.6820  -34.5430   -3.7330 C   0  0  0  0  0
   52.1160  -35.2050   -2.8630 O   0  0  0  0  0
   54.2800  -32.8550   -3.0580 C   0  0  0  0  0
   53.7110  -32.7510   -1.6220 C   0  0  0  0  0
   54.1090  -31.3910   -1.0460 C   0  0  0  0  0
   53.4960  -31.1580    0.2730 N   0  0  0  0  0
   52.3010  -30.5630    0.4480 C   0  0  0  0  0
   51.8190  -30.3620    1.6970 N   0  0  0  0  0
   51.6020  -30.1590   -0.6310 N   0  0  0  0  0
   51.9380  -34.1140   -4.8450 N   0  0  0  0  0
   50.4830  -34.4050   -4.9840 C   0  0  0  0  0
   50.2580  -34.8890   -6.2840 C   0  0  0  0  0
   50.9460  -34.4970   -7.2280 O   0  0  0  0  0
   49.6310  -33.1630   -4.6760 C   0  0  0  0  0
   49.8940  -32.6930   -3.2270 C   0  0  0  0  0
   49.1600  -33.6090   -2.2240 C   0  0  0  0  0
   49.3670  -33.1500   -0.8340 N   0  0  0  0  0
   50.2000  -33.7360    0.0610 C   0  0  0  0  0
   50.9280  -34.8070   -0.2780 N   0  0  0  0  0
   50.2890  -33.2660    1.3120 N   0  0  0  0  0
   49.2550  -35.8420   -6.5170 N   0  0  0  0  0
   48.9940  -36.4600   -7.8450 C   0  0  0  0  0
   47.6580  -36.3690   -8.2320 C   0  0  0  0  0
   46.7740  -36.4670   -7.3910 O   0  0  0  0  0
   49.1870  -37.9530   -7.6910 C   0  0  0  0  0
   50.5980  -38.3250   -7.3370 C   0  0  0  0  0
   51.4330  -38.1880   -8.5770 C   0  0  0  0  0
   52.7070  -38.9880   -8.3880 C   0  0  0  0  0
   53.6140  -38.3480   -7.4120 N   0  0  0  0  0
   47.4160  -36.2790   -9.5600 N   0  0  0  0  0
   46.0520  -36.2860  -10.1200 C   0  0  0  0  0
   45.4520  -37.6450   -9.7670 C   0  0  0  0  0
   46.1520  -38.6390   -9.8790 O   0  0  0  0  0
   46.0450  -36.0940  -11.6490 C   0  0  0  0  0
   46.4740  -34.6890  -12.0310 C   0  0  0  0  0
   46.5740  -34.5670  -13.5640 C   0  0  0  0  0
   47.4430  -33.3410  -13.8930 C   0  0  0  0  0
   47.2080  -32.8350  -15.2560 N   0  3  0  0  0
   44.1850  -37.6820   -9.3160 N   0  0  0  0  0
   43.5720  -38.9530   -8.8810 C   0  0  0  0  0
   43.6340  -39.0040   -7.4550 C   0  0  0  0  0
   42.5340  -38.6970   -6.6570 C   0  0  0  0  0
   42.6220  -38.7340   -5.2550 C   0  0  0  0  0
   43.8040  -39.0850   -4.6030 C   0  0  0  0  0
   43.9090  -39.1310   -3.1880 C   0  0  0  0  0
   45.0940  -39.3940   -2.6240 N   0  0  0  0  0
   42.8330  -38.8790   -2.4420 N   0  0  0  0  0
   44.8970  -39.3870   -5.4060 C   0  0  0  0  0
   44.8170  -39.3400   -6.8050 C   0  0  0  0  0
   54.7220  -35.5720   -5.6620 C   0  0  0  0  0
   55.3110  -35.6920   -6.9400 C   0  0  0  0  0
   56.4010  -36.7920   -7.0080 C   0  0  0  0  0
   55.9130  -38.2050   -6.5870 C   0  0  0  0  0
   54.9590  -38.7380   -7.4610 C   0  0  0  0  0
   54.1260  -36.5150   -5.1380 O   0  0  0  0  0
   55.2700  -39.6090   -8.2740 O   0  0  0  0  0
   55.1571  -33.5209   -5.3882 H   0  0  0  0  0
   54.5061  -34.9972   -2.9807 H   0  0  0  0  0
   53.7663  -32.1298   -3.6891 H   0  0  0  0  0
   55.3515  -32.6580   -3.0227 H   0  0  0  0  0
   54.1125  -33.5522   -1.0015 H   0  0  0  0  0
   52.6253  -32.8457   -1.6419 H   0  0  0  0  0
   53.7626  -30.6144   -1.7279 H   0  0  0  0  0
   55.1926  -31.3709   -0.9297 H   0  0  0  0  0
   54.0061  -31.4650    1.1012 H   0  0  0  0  0
   50.9187  -29.9009    1.8281 H   0  0  0  0  0
   52.3561  -30.6717    2.5069 H   0  0  0  0  0
   51.9795  -30.3052   -1.5672 H   0  0  0  0  0
   52.4086  -33.5867   -5.5804 H   0  0  0  0  0
   50.1822  -35.1613   -4.2590 H   0  0  0  0  0
   48.5760  -33.4132   -4.7876 H   0  0  0  0  0
   49.8965  -32.3635   -5.3677 H   0  0  0  0  0
   49.5267  -31.6733   -3.1118 H   0  0  0  0  0
   50.9650  -32.7347   -3.0286 H   0  0  0  0  0
   49.5563  -34.6198   -2.3202 H   0  0  0  0  0
   48.0929  -33.5833   -2.4445 H   0  0  0  0  0
   48.8437  -32.3308   -0.5250 H   0  0  0  0  0
   50.8601  -35.1924   -1.2199 H   0  0  0  0  0
   50.9031  -33.7231    1.9860 H   0  0  0  0  0
   49.7427  -32.4510    1.5907 H   0  0  0  0  0
   48.6712  -36.1275   -5.7308 H   0  0  0  0  0
   49.6464  -35.9564   -8.5583 H   0  0  0  0  0
   48.9487  -38.4203   -8.6465 H   0  0  0  0  0
   48.5400  -38.2911   -6.8816 H   0  0  0  0  0
   50.6377  -39.3488   -6.9651 H   0  0  0  0  0
   50.9763  -37.6707   -6.5516 H   0  0  0  0  0
   51.6738  -37.1391   -8.7501 H   0  0  0  0  0
   50.8826  -38.5623   -9.4401 H   0  0  0  0  0
   53.2211  -39.0473   -9.3473 H   0  0  0  0  0
   52.4400  -39.9758   -8.0125 H   0  0  0  0  0
   53.2787  -37.6591   -6.7386 H   0  0  0  0  0
   48.2078  -36.2034  -10.1986 H   0  0  0  0  0
   45.4776  -35.4578   -9.7049 H   0  0  0  0  0
   45.0314  -36.2585  -12.0145 H   0  0  0  0  0
   46.7456  -36.8026  -12.0907 H   0  0  0  0  0
   47.4486  -34.4793  -11.5902 H   0  0  0  0  0
   45.7367  -33.9761  -11.6618 H   0  0  0  0  0
   45.5803  -34.4488  -13.9961 H   0  0  0  0  0
   47.0227  -35.4676  -13.9831 H   0  0  0  0  0
   48.4887  -33.6397  -13.8200 H   0  0  0  0  0
   47.1869  -32.5481  -13.1903 H   0  0  0  0  0
   47.8053  -32.0255  -15.4246 H   0  0  0  0  0
   47.4269  -33.5671  -15.9316 H   0  0  0  0  0
   46.2296  -32.5631  -15.3525 H   0  0  0  0  0
   43.6405  -36.8205   -9.2740 H   0  0  0  0  0
   44.1079  -39.7982   -9.3129 H   0  0  0  0  0
   42.5363  -39.0071   -9.2163 H   0  0  0  0  0
   41.5897  -38.4236   -7.1279 H   0  0  0  0  0
   41.7433  -38.4817   -4.6614 H   0  0  0  0  0
   45.1843  -39.4038   -1.6081 H   0  0  0  0  0
   45.9067  -39.5846   -3.2101 H   0  0  0  0  0
   41.9437  -38.6554   -2.8887 H   0  0  0  0  0
   45.8400  -39.6674   -4.9367 H   0  0  0  0  0
   45.7023  -39.5721   -7.3970 H   0  0  0  0  0
   55.7868  -34.7400   -7.1755 H   0  0  0  0  0
   54.5233  -35.9631   -7.6430 H   0  0  0  0  0
   57.1891  -36.5050   -6.3119 H   0  0  0  0  0
   56.7219  -36.8608   -8.0474 H   0  0  0  0  0
   55.4498  -38.1168   -5.6043 H   0  0  0  0  0
   56.7768  -38.8698   -6.5935 H   0  0  0  0  0
  1  2  1  0  0  0
  1 52  1  0  0  0
  2  3  1  0  0  0
  2  5  1  0  0  0
  3  4  2  0  0  0
  3 12  1  0  0  0
  5  6  1  0  0  0
  6  7  1  0  0  0
  7  8  1  0  0  0
  8  9  1  0  0  0
  9 10  1  0  0  0
  9 11  2  0  0  0
 12 13  1  0  0  0
 13 14  1  0  0  0
 13 16  1  0  0  0
 14 15  2  0  0  0
 14 23  1  0  0  0
 16 17  1  0  0  0
 17 18  1  0  0  0
 18 19  1  0  0  0
 19 20  1  0  0  0
 20 21  2  0  0  0
 20 22  1  0  0  0
 23 24  1  0  0  0
 24 25  1  0  0  0
 24 27  1  0  0  0
 25 26  2  0  0  0
 25 32  1  0  0  0
 27 28  1  0  0  0
 28 29  1  0  0  0
 29 30  1  0  0  0
 30 31  1  0  0  0
 31 56  1  0  0  0
 32 33  1  0  0  0
 33 34  1  0  0  0
 33 36  1  0  0  0
 34 35  2  0  0  0
 34 41  1  0  0  0
 36 37  1  0  0  0
 37 38  1  0  0  0
 38 39  1  0  0  0
 39 40  1  0  0  0
 41 42  1  0  0  0
 42 43  1  0  0  0
 43 44  4  0  0  0
 43 51  4  0  0  0
 44 45  4  0  0  0
 45 46  4  0  0  0
 46 47  1  0  0  0
 46 50  4  0  0  0
 47 48  1  0  0  0
 47 49  2  0  0  0
 50 51  4  0  0  0
 52 53  1  0  0  0
 52 57  2  0  0  0
 53 54  1  0  0  0
 54 55  1  0  0  0
 55 56  1  0  0  0
 56 58  2  0  0  0
  1 59  1  0  0  0
  2 60  1  0  0  0
  5 61  1  0  0  0
  5 62  1  0  0  0
  6 63  1  0  0  0
  6 64  1  0  0  0
  7 65  1  0  0  0
  7 66  1  0  0  0
  8 67  1  0  0  0
 10 68  1  0  0  0
 10 69  1  0  0  0
 11 70  1  0  0  0
 12 71  1  0  0  0
 13 72  1  0  0  0
 16 73  1  0  0  0
 16 74  1  0  0  0
 17 75  1  0  0  0
 17 76  1  0  0  0
 18 77  1  0  0  0
 18 78  1  0  0  0
 19 79  1  0  0  0
 21 80  1  0  0  0
 22 81  1  0  0  0
 22 82  1  0  0  0
 23 83  1  0  0  0
 24 84  1  0  0  0
 27 85  1  0  0  0
 27 86  1  0  0  0
 28 87  1  0  0  0
 28 88  1  0  0  0
 29 89  1  0  0  0
 29 90  1  0  0  0
 30 91  1  0  0  0
 30 92  1  0  0  0
 31 93  1  0  0  0
 32 94  1  0  0  0
 33 95  1  0  0  0
 36 96  1  0  0  0
 36 97  1  0  0  0
 37 98  1  0  0  0
 37 99  1  0  0  0
 38100  1  0  0  0
 38101  1  0  0  0
 39102  1  0  0  0
 39103  1  0  0  0
 40104  1  0  0  0
 40105  1  0  0  0
 40106  1  0  0  0
 41107  1  0  0  0
 42108  1  0  0  0
 42109  1  0  0  0
 44110  1  0  0  0
 45111  1  0  0  0
 48112  1  0  0  0
 48113  1  0  0  0
 49114  1  0  0  0
 50115  1  0  0  0
 51116  1  0  0  0
 53117  1  0  0  0
 53118  1  0  0  0
 54119  1  0  0  0
 54120  1  0  0  0
 55121  1  0  0  0
 55122  1  0  0  0
M  END
$$$$
