1izh_ligand
  -I-interpret- 

 99101  0  0  0  0  0  0  0  0999 V2000
   17.7390   14.9760    5.8160 O   0  0  0  0  0
   18.7310   15.4960    5.3870 C   0  0  0  0  0
   19.5420   14.9160    4.4730 N   0  0  0  0  0
   19.0200   16.8930    5.8830 C   0  0  0  0  0
   19.6640   16.8490    7.2620 C   0  0  0  0  0
   18.8460   16.2080    8.3310 C   0  0  0  0  0
   17.9980   17.0110    9.0630 C   0  0  0  0  0
   17.1940   16.4610   10.0440 C   0  0  0  0  0
   17.3020   15.1160   10.3240 C   0  0  0  0  0
   18.1740   14.3070    9.6040 C   0  0  0  0  0
   18.9600   14.8350    8.6010 C   0  0  0  0  0
   17.7630   17.6720    5.8330 N   0  0  0  0  0
   17.7050   18.9640    5.4510 C   0  0  0  0  0
   18.6960   19.6900    5.2780 O   0  0  0  0  0
   16.2900   19.4800    5.3320 C   0  0  0  0  0
   15.7940   19.5590    3.8840 C   0  0  0  0  0
   15.6970   18.2300    3.1140 C   0  0  0  0  0
   17.0490   17.8280    2.5830 C   0  0  0  0  0
   17.7960   18.6550    2.0740 O   0  0  0  0  0
   17.3610   16.5420    2.6910 N   0  0  0  0  0
   16.1850   20.8720    5.6940 N   0  0  0  0  0
   15.0460   21.3940    6.1270 C   0  0  0  0  0
   14.0120   20.7170    6.2180 O   0  0  0  0  0
   15.0840   22.8800    6.4190 C   0  0  0  0  0
   15.6510   23.3280    7.7350 C   0  0  0  0  0
   15.5260   22.2030    8.6680 C   0  0  0  0  0
   14.3090   21.9370    9.2910 C   0  0  0  0  0
   14.2700   20.8360   10.1510 C   0  0  0  0  0
   15.4180   20.0660   10.3660 C   0  0  0  0  0
   16.5890   20.3380    9.7170 C   0  0  0  0  0
   16.6440   21.4230    8.8610 C   0  0  0  0  0
   13.6800   23.4380    6.3340 C   0  0  0  0  0
   13.4230   23.7170    4.8570 C   0  0  0  0  0
   14.0780   24.9530    4.5370 O   0  0  0  0  0
   11.9070   23.6980    4.5770 C   0  0  0  0  0
   11.2360   24.8030    5.2760 N   0  0  0  0  0
   10.7190   24.6790    6.4730 C   0  0  0  0  0
   10.7920   23.6130    7.0740 O   0  0  0  0  0
   10.0650   25.8830    7.0100 O   0  0  0  0  0
    9.5900   26.1170    8.3260 C   0  0  0  0  0
   10.7050   25.8170    9.3020 C   0  0  0  0  0
    8.3440   25.2760    8.5850 C   0  0  0  0  0
    9.2050   27.5960    8.4100 C   0  0  0  0  0
   11.5760   23.9060    3.1030 C   0  0  0  0  0
   10.0660   23.8980    2.8660 C   0  0  0  0  0
    9.4310   25.0740    2.5610 C   0  0  0  0  0
    8.0520   25.1340    2.3730 C   0  0  0  0  0
    7.2930   23.9690    2.4790 C   0  0  0  0  0
    7.9340   22.7860    2.7650 C   0  0  0  0  0
    9.3110   22.7290    2.9780 C   0  0  0  0  0
   19.3221   13.9876    4.1124 H   0  0  0  0  0
   20.3734   15.4071    4.1444 H   0  0  0  0  0
   19.7463   17.3954    5.2441 H   0  0  0  0  0
   19.8172   17.8843    7.5666 H   0  0  0  0  0
   20.5698   16.2508    7.1630 H   0  0  0  0  0
   17.9612   18.0828    8.8679 H   0  0  0  0  0
   16.4839   17.0831   10.5889 H   0  0  0  0  0
   16.6966   14.6812   11.1194 H   0  0  0  0  0
   18.2372   13.2436    9.8348 H   0  0  0  0  0
   19.6479   14.2061    8.0359 H   0  0  0  0  0
   16.8954   17.2077    6.1014 H   0  0  0  0  0
   15.7352   18.7864    5.9637 H   0  0  0  0  0
   16.5255   20.1640    3.3483 H   0  0  0  0  0
   14.7784   19.9515    3.9352 H   0  0  0  0  0
   15.0105   18.3551    2.2767 H   0  0  0  0  0
   15.3370   17.4544    3.7900 H   0  0  0  0  0
   18.2576   16.2036    2.3416 H   0  0  0  0  0
   16.7041   15.8924    3.1233 H   0  0  0  0  0
   17.0077   21.4698    5.6149 H   0  0  0  0  0
   15.7751   23.2569    5.6650 H   0  0  0  0  0
   15.1111   24.1980    8.1089 H   0  0  0  0  0
   16.6954   23.6192    7.6233 H   0  0  0  0  0
   13.4299   22.5573    9.1163 H   0  0  0  0  0
   13.3402   20.5759   10.6569 H   0  0  0  0  0
   15.3773   19.2315   11.0660 H   0  0  0  0  0
   17.4663   19.7098    9.8714 H   0  0  0  0  0
   17.5714   21.6603    8.3398 H   0  0  0  0  0
   13.5809   24.3460    6.9289 H   0  0  0  0  0
   12.9515   22.7326    6.7336 H   0  0  0  0  0
   13.8370   22.9475    4.2054 H   0  0  0  0  0
   13.9354   25.1589    3.6102 H   0  0  0  0  0
   11.5699   22.7177    4.9137 H   0  0  0  0  0
   11.1700   25.7069    4.8080 H   0  0  0  0  0
   11.0083   24.7754    9.1961 H   0  0  0  0  0
   11.5543   26.4672    9.0924 H   0  0  0  0  0
   10.3534   25.9928   10.3186 H   0  0  0  0  0
    7.5687   25.5474    7.8685 H   0  0  0  0  0
    8.5902   24.2201    8.4733 H   0  0  0  0  0
    7.9859   25.4617    9.5976 H   0  0  0  0  0
   10.0810   28.2105    8.2023 H   0  0  0  0  0
    8.4274   27.8099    7.6767 H   0  0  0  0  0
    8.8334   27.8171    9.4106 H   0  0  0  0  0
   12.0214   23.0932    2.5294 H   0  0  0  0  0
   11.9708   24.8732    2.7920 H   0  0  0  0  0
   10.0203   25.9857    2.4631 H   0  0  0  0  0
    7.5698   26.0845    2.1447 H   0  0  0  0  0
    6.2125   23.9953    2.3379 H   0  0  0  0  0
    7.3496   21.8680    2.8268 H   0  0  0  0  0
    9.7919   21.7835    3.2288 H   0  0  0  0  0
  1  2  2  0  0  0
  2  4  1  0  0  0
  2  3  1  0  0  0
  4 12  1  0  0  0
  4  5  1  0  0  0
  5  6  1  0  0  0
  6 11  4  0  0  0
  6  7  4  0  0  0
  7  8  4  0  0  0
  8  9  4  0  0  0
  9 10  4  0  0  0
 10 11  4  0  0  0
 12 13  1  0  0  0
 13 15  1  0  0  0
 13 14  2  0  0  0
 15 21  1  0  0  0
 15 16  1  0  0  0
 16 17  1  0  0  0
 17 18  1  0  0  0
 18 20  1  0  0  0
 18 19  2  0  0  0
 21 22  1  0  0  0
 22 24  1  0  0  0
 22 23  2  0  0  0
 24 32  1  0  0  0
 24 25  1  0  0  0
 25 26  1  0  0  0
 26 31  4  0  0  0
 26 27  4  0  0  0
 27 28  4  0  0  0
 28 29  4  0  0  0
 29 30  4  0  0  0
 30 31  4  0  0  0
 32 33  1  0  0  0
 33 35  1  0  0  0
 33 34  1  0  0  0
 35 44  1  0  0  0
 35 36  1  0  0  0
 36 37  1  0  0  0
 37 39  1  0  0  0
 37 38  2  0  0  0
 39 40  1  0  0  0
 40 43  1  0  0  0
 40 42  1  0  0  0
 40 41  1  0  0  0
 44 45  1  0  0  0
 45 50  4  0  0  0
 45 46  4  0  0  0
 46 47  4  0  0  0
 47 48  4  0  0  0
 48 49  4  0  0  0
 49 50  4  0  0  0
  3 51  1  0  0  0
  3 52  1  0  0  0
  4 53  1  0  0  0
  5 54  1  0  0  0
  5 55  1  0  0  0
  7 56  1  0  0  0
  8 57  1  0  0  0
  9 58  1  0  0  0
 10 59  1  0  0  0
 11 60  1  0  0  0
 12 61  1  0  0  0
 15 62  1  0  0  0
 16 63  1  0  0  0
 16 64  1  0  0  0
 17 65  1  0  0  0
 17 66  1  0  0  0
 20 67  1  0  0  0
 20 68  1  0  0  0
 21 69  1  0  0  0
 24 70  1  0  0  0
 25 71  1  0  0  0
 25 72  1  0  0  0
 27 73  1  0  0  0
 28 74  1  0  0  0
 29 75  1  0  0  0
 30 76  1  0  0  0
 31 77  1  0  0  0
 32 78  1  0  0  0
 32 79  1  0  0  0
 33 80  1  0  0  0
 34 81  1  0  0  0
 35 82  1  0  0  0
 36 83  1  0  0  0
 41 84  1  0  0  0
 41 85  1  0  0  0
 41 86  1  0  0  0
 42 87  1  0  0  0
 42 88  1  0  0  0
 42 89  1  0  0  0
 43 90  1  0  0  0
 43 91  1  0  0  0
 43 92  1  0  0  0
 44 93  1  0  0  0
 44 94  1  0  0  0
 46 95  1  0  0  0
 47 96  1  0  0  0
 48 97  1  0  0  0
 49 98  1  0  0  0
 50 99  1  0  0  0
M  END
$$$$
