6npe_ligand
  -I-interpret- 

 28 29  0  0  0  0  0  0  0  0999 V2000
   14.4560    8.5460  -35.0130 C   0  0  0  0  0
   12.3060    7.1760  -34.7630 C   0  0  0  0  0
    9.9390    7.5560  -35.1050 C   0  0  0  0  0
    8.6410    6.8390  -34.8880 C   0  0  0  0  0
    7.6780    7.7740  -34.3110 C   0  0  0  0  0
   17.9110    5.4320  -32.7510 C   0  0  0  0  0
   18.0180    6.6880  -33.3110 C   0  0  0  0  0
   16.8980    7.3060  -33.8220 C   0  0  0  0  0
   15.6980    6.6360  -33.7560 C   0  0  0  0  0
   15.5990    5.3830  -33.1940 C   0  0  0  0  0
   16.7110    4.7650  -32.6850 C   0  0  0  0  0
   14.4570    7.2320  -34.2750 C   0  0  0  0  0
   11.0100    6.7270  -34.9040 N   0  0  0  0  0
    6.9230    8.5260  -33.8490 N   0  0  0  0  0
   13.2450    6.4260  -34.2910 N   0  0  0  0  0
   10.0150    8.7360  -35.4080 O   0  0  0  0  0
   12.6910    8.8170  -35.2390 S   0  0  0  0  0
   19.3150    4.6650  -32.1200 Cl  0  0  0  0  0
   16.5920    3.1810  -31.9700 Cl  0  0  0  0  0
   15.0207    8.5271  -35.9451 H   0  0  0  0  0
   14.9594    9.3512  -34.4778 H   0  0  0  0  0
    8.7918    5.9986  -34.2104 H   0  0  0  0  0
    8.2646    6.4603  -35.8383 H   0  0  0  0  0
   18.9850    7.1895  -33.3490 H   0  0  0  0  0
   16.9607    8.2992  -34.2667 H   0  0  0  0  0
   14.6324    4.8808  -33.1538 H   0  0  0  0  0
   14.3924    7.7832  -33.3368 H   0  0  0  0  0
   10.8398    5.7224  -34.8559 H   0  0  0  0  0
 12  1  1  0  0  0
  1 17  1  0  0  0
  2 13  1  0  0  0
  2 15  2  0  0  0
 17  2  1  0  0  0
  3  4  1  0  0  0
 13  3  1  0  0  0
  3 16  2  0  0  0
  4  5  1  0  0  0
  5 14  3  0  0  0
  7  6  4  0  0  0
  6 11  4  0  0  0
  6 18  1  0  0  0
  8  7  4  0  0  0
  9  8  4  0  0  0
  9 10  4  0  0  0
  9 12  1  0  0  0
 10 11  4  0  0  0
 11 19  1  0  0  0
 12 15  1  0  0  0
  1 20  1  0  0  0
  1 21  1  0  0  0
  4 22  1  0  0  0
  4 23  1  0  0  0
  7 24  1  0  0  0
  8 25  1  0  0  0
 10 26  1  0  0  0
 12 27  1  0  0  0
 13 28  1  0  0  0
M  END
$$$$
