5d9p_ligand
  -I-interpret- 

 30 30  0  0  0  0  0  0  0  0999 V2000
   -1.5690  -38.1620   -4.5370 C   0  0  0  0  0
   -0.5970  -38.0610   -3.3560 C   0  0  0  0  0
    0.4510  -39.1450   -3.3850 C   0  0  0  0  0
   -0.2820  -40.4910   -3.4730 C   0  0  0  0  0
   -0.9830  -40.4420   -4.8630 C   0  0  0  0  0
   -1.5920  -41.7730   -5.2880 C   0  0  0  0  0
   -3.3670  -36.6490   -5.2650 C   0  0  0  0  0
   -4.6180  -35.9080   -4.8180 C   0  0  0  0  0
   -2.7580  -37.3340   -4.2820 N   0  0  0  0  0
    1.2460  -39.0290   -2.1850 O   0  0  0  0  0
    0.0210  -36.7870   -3.4210 O   0  0  0  0  0
    0.5760  -41.6160   -3.3730 O   0  0  0  0  0
   -2.0520  -39.4990   -4.6840 O   0  0  0  0  0
   -2.5420  -42.1580   -4.3050 O   0  0  0  0  0
   -2.9680  -36.6000   -6.4410 O   0  0  0  0  0
   -1.0278  -37.8377   -5.4258 H   0  0  0  0  0
   -1.1503  -38.1881   -2.4255 H   0  0  0  0  0
    1.1217  -39.0613   -4.2401 H   0  0  0  0  0
   -0.9720  -40.6166   -2.6386 H   0  0  0  0  0
   -0.2581  -40.1824   -5.6345 H   0  0  0  0  0
   -0.8138  -42.5312   -5.3754 H   0  0  0  0  0
   -2.0766  -41.6712   -6.2590 H   0  0  0  0  0
   -4.4879  -34.8399   -4.9924 H   0  0  0  0  0
   -5.4751  -36.2686   -5.3868 H   0  0  0  0  0
   -4.7843  -36.0864   -3.7556 H   0  0  0  0  0
   -3.1301  -37.2783   -3.3339 H   0  0  0  0  0
    1.6838  -38.1747   -2.1739 H   0  0  0  0  0
   -0.6534  -36.1041   -3.4020 H   0  0  0  0  0
    0.9943  -41.6222   -2.5089 H   0  0  0  0  0
   -2.9378  -42.9961   -4.5550 H   0  0  0  0  0
  1  2  1  0  0  0
  9  1  1  0  0  0
  1 13  1  0  0  0
  2  3  1  0  0  0
  2 11  1  0  0  0
  3  4  1  0  0  0
  3 10  1  0  0  0
  5  4  1  0  0  0
  4 12  1  0  0  0
  5  6  1  0  0  0
 13  5  1  0  0  0
  6 14  1  0  0  0
  7  8  1  0  0  0
  7  9  1  0  0  0
  7 15  2  0  0  0
  1 16  1  0  0  0
  2 17  1  0  0  0
  3 18  1  0  0  0
  4 19  1  0  0  0
  5 20  1  0  0  0
  6 21  1  0  0  0
  6 22  1  0  0  0
  8 23  1  0  0  0
  8 24  1  0  0  0
  8 25  1  0  0  0
  9 26  1  0  0  0
 10 27  1  0  0  0
 11 28  1  0  0  0
 12 29  1  0  0  0
 14 30  1  0  0  0
M  END
$$$$
