2qo1_ligand
  -I-interpret- 

 39 38  0  0  0  0  0  0  0  0999 V2000
   40.6950   39.7100   57.2840 O   0  0  0  0  0
   41.1620   40.4870   56.4150 C   0  0  0  0  0
   41.6120   41.6370   56.6280 O   0  0  0  0  0
   41.1900   40.0030   54.9530 C   0  0  0  0  0
   40.6840   38.5660   54.7750 C   0  0  0  0  0
   40.1810   38.3660   53.3430 C   0  0  0  0  0
   40.3830   36.9240   52.8710 C   0  0  0  0  0
   39.0750   36.1260   52.9630 C   0  0  0  0  0
   38.5240   35.8100   51.5690 C   0  0  0  0  0
   37.5180   36.8650   51.1010 C   0  0  0  0  0
   36.1160   36.2750   51.0760 C   0  0  0  0  0
   35.5590   36.3080   49.6590 C   0  0  0  0  0
   34.5190   35.2030   49.4510 C   0  0  0  0  0
   33.5790   35.5780   48.4220 O   0  0  0  0  0
   33.8840   35.0560   47.1980 C   0  0  0  0  0
   34.7810   34.2270   47.0650 O   0  0  0  0  0
   32.9850   35.5590   45.7850 S   0  0  0  0  0
   40.4180   38.8921   56.8646 H   0  0  0  0  0
   42.2272   40.0291   54.6189 H   0  0  0  0  0
   40.5322   40.6556   54.3790 H   0  0  0  0  0
   39.8667   38.3831   55.4726 H   0  0  0  0  0
   41.4999   37.8702   54.9705 H   0  0  0  0  0
   40.7454   39.0262   52.6844 H   0  0  0  0  0
   39.1146   38.5903   53.3181 H   0  0  0  0  0
   41.1280   36.4486   53.5090 H   0  0  0  0  0
   40.7107   36.9392   51.8315 H   0  0  0  0  0
   38.3392   36.7225   53.5024 H   0  0  0  0  0
   39.2740   35.1877   53.4808 H   0  0  0  0  0
   38.0147   34.8473   51.6126 H   0  0  0  0  0
   39.3575   35.7968   50.8667 H   0  0  0  0  0
   37.7857   37.1942   50.0970 H   0  0  0  0  0
   37.5386   37.7096   51.7897 H   0  0  0  0  0
   35.4693   36.8621   51.7281 H   0  0  0  0  0
   36.1568   35.2416   51.4202 H   0  0  0  0  0
   36.3788   36.1526   48.9577 H   0  0  0  0  0
   35.0806   37.2734   49.4941 H   0  0  0  0  0
   33.9778   35.0469   50.3842 H   0  0  0  0  0
   35.0300   34.2895   49.1469 H   0  0  0  0  0
   32.0673   36.4536   46.1406 H   0  0  0  0  0
  1  2  1  0  0  0
  2  3  2  0  0  0
  2  4  1  0  0  0
  4  5  1  0  0  0
  5  6  1  0  0  0
  6  7  1  0  0  0
  7  8  1  0  0  0
  8  9  1  0  0  0
  9 10  1  0  0  0
 10 11  1  0  0  0
 11 12  1  0  0  0
 12 13  1  0  0  0
 13 14  1  0  0  0
 14 15  1  0  0  0
 15 16  2  0  0  0
 15 17  1  0  0  0
  1 18  1  0  0  0
  4 19  1  0  0  0
  4 20  1  0  0  0
  5 21  1  0  0  0
  5 22  1  0  0  0
  6 23  1  0  0  0
  6 24  1  0  0  0
  7 25  1  0  0  0
  7 26  1  0  0  0
  8 27  1  0  0  0
  8 28  1  0  0  0
  9 29  1  0  0  0
  9 30  1  0  0  0
 10 31  1  0  0  0
 10 32  1  0  0  0
 11 33  1  0  0  0
 11 34  1  0  0  0
 12 35  1  0  0  0
 12 36  1  0  0  0
 13 37  1  0  0  0
 13 38  1  0  0  0
 17 39  1  0  0  0
M  END
$$$$
