### 
### Created by X-TOOL on Mon Sep 10 21:13:14 2018
### 

@<TRIPOS>MOLECULE
4gye_ligand
  130   131     1     0     0
SMALL
GAST_HUCK


@<TRIPOS>ATOM
      1 N         -13.3770   12.3090    6.2390 N.4       1 ILO         0.2379
      2 CA        -12.7960   13.5870    6.6510 C.3       1 ILO         0.0651
      3 CB        -12.7930   13.6240    8.1780 C.3       1 ILO         0.0118
      4 CG        -13.8580   12.7570    8.8390 C.3       1 ILO        -0.0041
      5 CD        -13.4850   12.3820   10.2710 C.3       1 ILO         0.0870
      6 NE        -13.0150   11.0040   10.3030 N.pl3     1 ILO        -0.2637
      7 CZ        -11.8390   10.6690   10.7780 C.cat     1 ILO         0.2031
      8 CH1       -10.9290   11.7310   11.3340 C.3       1 ILO         0.0072
      9 NH2       -11.4930    9.4630   10.7790 N.pl3     1 ILO        -0.2763
     10 C         -11.3490   13.5090    6.3800 C.2       1 ILO         0.2267
     11 OA2       -10.8870   12.5880    7.0100 O.2       1 ILO        -0.3907
     12 N         -10.4800   14.2000    5.6200 N.am      1 VAL        -0.2608
     13 CA        -10.2840   15.3140    4.7270 C.3       1 VAL         0.1332
     14 C         -10.0360   14.9960    3.2530 C.2       1 VAL         0.2025
     15 O          -9.1260   14.3200    2.7570 O.2       1 VAL        -0.3945
     16 CB         -9.1530   16.1260    5.3820 C.3       1 VAL        -0.0063
     17 CG1        -8.3820   15.4300    6.4920 C.3       1 VAL        -0.0584
     18 CG2        -8.1370   16.7910    4.4610 C.3       1 VAL        -0.0584
     19 N         -10.9160   15.5300    2.4350 N.am      1 PUK        -0.2749
     20 C1        -10.8880   15.3300    0.9900 C.3       1 PUK         0.0911
     21 C2        -10.4690   16.6110    0.2900 C.3       1 PUK        -0.0061
     22 C3        -12.2720   14.8840    0.5400 C.3       1 PUK         0.0089
     23 C4        -12.8390   13.8000    1.4680 C.ar      1 PUK        -0.0406
     24 C5        -12.3770   12.4750    1.4300 C.ar      1 PUK        -0.0603
     25 C6        -13.8590   14.0990    2.3920 C.ar      1 PUK        -0.0603
     26 C7        -12.9090   11.4960    2.2860 C.ar      1 PUK        -0.0686
     27 C8        -14.3820   13.1110    3.2670 C.ar      1 PUK        -0.0686
     28 C9        -13.9230   11.7850    3.2090 C.ar      1 PUK        -0.0687
     29 N2         -9.0850   16.9290    0.6320 N.4       1 PUK         0.2493
     30 C10        -8.1380   17.4030   -0.3690 C.3       1 PUK         0.0763
     31 C          -7.9920   16.4780   -1.5590 C.2       1 PUK         0.2289
     32 O          -7.9500   15.2480   -1.4950 O.2       1 PUK        -0.3905
     33 C12        -6.8450   17.6760    0.3850 C.3       1 PUK         0.0416
     34 C13        -5.6440   17.9270   -0.5010 C.ar      1 PUK        -0.0353
     35 C14        -5.4540   19.1600   -1.1320 C.ar      1 PUK        -0.0600
     36 C15        -4.6760   16.9190   -0.6870 C.ar      1 PUK        -0.0600
     37 C16        -4.3300   19.3280   -1.9580 C.ar      1 PUK        -0.0686
     38 C17        -3.5480   17.0940   -1.4950 C.ar      1 PUK        -0.0686
     39 C18        -3.3760   18.3080   -2.1440 C.ar      1 PUK        -0.0687
     40 N          -7.8970   17.0370   -2.7490 N.am      1 GLU        -0.2608
     41 CA         -7.7260   16.2740   -3.9850 C.3       1 GLU         0.1326
     42 C          -7.0430   17.1550   -4.9900 C.2       1 GLU         0.2040
     43 O          -7.4840   18.2780   -5.2170 O.2       1 GLU        -0.3944
     44 CB         -9.0900   15.7820   -4.4720 C.3       1 GLU        -0.0008
     45 CG         -9.1310   14.9790   -5.7870 C.3       1 GLU         0.0044
     46 CD         -8.8230   15.8590   -6.9950 C.2       1 GLU         0.0350
     47 OE1        -8.0360   15.4420   -8.0090 O.co2     1 GLU        -0.5690
     48 OE2        -9.2570   17.0130   -7.0600 O.co2     1 GLU        -0.5690
     49 N          -5.9680   16.6730   -5.6080 N.am      1 ALA        -0.2640
     50 CA         -5.2010   17.3390   -6.6480 C.3       1 ALA         0.1282
     51 C          -4.7210   16.2940   -7.6630 C.2       1 ALA         0.2031
     52 O          -4.7170   15.0920   -7.3730 O.2       1 ALA        -0.3944
     53 CB         -4.0020   17.9520   -5.9510 C.3       1 ALA        -0.0244
     54 N          -4.2660   16.6540   -8.8770 N.am      1 NLE        -0.2695
     55 CA         -3.7760   15.6340   -9.7800 C.3       1 NLE         0.0944
     56 C          -2.3230   15.5060   -9.4950 C.2       1 NLE         0.0601
     57 O          -1.6320   14.3770   -9.7490 O.co2     1 NLE        -0.5666
     58 OXT        -1.7540   16.4700   -9.0170 O.co2     1 NLE        -0.5666
     59 CB         -3.9340   16.0240  -11.2390 C.3       1 NLE        -0.0179
     60 CG         -5.3220   15.6460  -11.7480 C.3       1 NLE        -0.0497
     61 CD         -5.2220   15.0740  -13.1660 C.3       1 NLE        -0.0557
     62 CE         -6.5770   14.6930  -13.7080 C.3       1 NLE        -0.0653
     63 H1        -14.3705   12.3214    6.4087 H         1 ILO         0.2015
     64 H2        -12.9551   11.5619    6.7681 H         1 ILO         0.2015
     65 H3        -13.2058   12.1632    5.2564 H         1 ILO         0.2015
     66 H4        -13.2946   14.4493    6.1843 H         1 ILO         0.1098
     67 H5        -12.9532   14.6649    8.4957 H         1 ILO         0.0347
     68 H6        -11.8076   13.2816    8.5270 H         1 ILO         0.0347
     69 H7        -13.9801   11.8352    8.2513 H         1 ILO         0.0311
     70 H8        -14.8080   13.3113    8.8535 H         1 ILO         0.0311
     71 H9        -14.3680   12.4837   10.9190 H         1 ILO         0.0797
     72 H10       -12.6881   13.0500   10.6297 H         1 ILO         0.0797
     73 H11       -13.6304   10.2630    9.9382 H         1 ILO         0.3202
     74 H12        -9.9947   11.2672   11.6832 H         1 ILO         0.0245
     75 H13       -11.4253   12.2349   12.1764 H         1 ILO         0.0245
     76 H14       -10.7018   12.4671   10.5488 H         1 ILO         0.0245
     77 H15       -10.5712    9.1920   11.1502 H         1 ILO         0.3177
     78 H16       -12.1307    8.7440   10.4086 H         1 ILO         0.3177
     79 H17        -9.5928   13.7486    5.7153 H         1 VAL         0.1885
     80 H18       -11.2011   15.9209    4.7498 H         1 VAL         0.0802
     81 H19        -9.6834   16.9563    5.8711 H         1 VAL         0.0343
     82 H20        -7.6054   16.1063    6.8787 H         1 VAL         0.0234
     83 H21        -7.9103   14.5189    6.0953 H         1 VAL         0.0234
     84 H22        -9.0723   15.1613    7.3052 H         1 VAL         0.0234
     85 H23        -8.6643   17.3054    3.6440 H         1 VAL         0.0234
     86 H24        -7.4672   16.0262    4.0409 H         1 VAL         0.0234
     87 H25        -7.5463   17.5214    5.0333 H         1 VAL         0.0234
     88 H26       -11.6399   16.1011    2.8221 H         1 PUK         0.1859
     89 H27       -10.1603   14.5417    0.7472 H         1 PUK         0.0632
     90 H28       -11.1235   17.4344    0.6118 H         1 PUK         0.0839
     91 H29       -10.5553   16.4779   -0.7985 H         1 PUK         0.0839
     92 H30       -12.2041   14.4813   -0.4814 H         1 PUK         0.0450
     93 H31       -12.9481   15.7516    0.5479 H         1 PUK         0.0450
     94 H32       -11.5968   12.2026    0.7285 H         1 PUK         0.0557
     95 H33       -14.2541   15.1075    2.4361 H         1 PUK         0.0557
     96 H34       -12.5226   10.4847    2.2306 H         1 PUK         0.0599
     97 H35       -15.1443   13.3831    3.9881 H         1 PUK         0.0599
     98 H36       -14.3363   11.0164    3.8520 H         1 PUK         0.0559
     99 H37        -8.6887   16.0878    1.0210 H         1 PUK         0.2038
    100 H38        -9.1255   17.6417    1.3437 H         1 PUK         0.2038
    101 H39        -8.5085   18.3604   -0.7641 H         1 PUK         0.1123
    102 H40        -6.6272   16.8050    1.0206 H         1 PUK         0.0507
    103 H41        -6.9967   18.5629    1.0177 H         1 PUK         0.0507
    104 H42        -6.1596   19.9700   -0.9869 H         1 PUK         0.0557
    105 H43        -4.8117   15.9690   -0.1829 H         1 PUK         0.0557
    106 H44        -4.1922   20.2739   -2.4692 H         1 PUK         0.0599
    107 H45        -2.8226   16.2970   -1.6118 H         1 PUK         0.0599
    108 H46        -2.5180   18.4699   -2.7864 H         1 PUK         0.0559
    109 H47        -7.9443   18.0340   -2.8098 H         1 GLU         0.1885
    110 H48        -7.0881   15.3995   -3.7891 H         1 GLU         0.0801
    111 H49        -9.7301   16.6664   -4.6064 H         1 GLU         0.0330
    112 H50        -9.5101   15.1418   -3.6823 H         1 GLU         0.0330
    113 H51       -10.1344   14.5450   -5.9087 H         1 GLU         0.0433
    114 H52        -8.3860   14.1714   -5.7350 H         1 GLU         0.0433
    115 H53        -5.6573   15.7640   -5.3301 H         1 ALA         0.1883
    116 H54        -5.8025   18.1114   -7.1495 H         1 ALA         0.0797
    117 H55        -3.3765   18.4749   -6.6894 H         1 ALA         0.0277
    118 H56        -3.4131   17.1582   -5.4681 H         1 ALA         0.0277
    119 H57        -4.3465   18.6676   -5.1899 H         1 ALA         0.0277
    120 H58        -4.2663   17.6153   -9.1524 H         1 NLE         0.1875
    121 H59        -4.2984   14.6841   -9.5938 H         1 NLE         0.0726
    122 H60        -3.1743   15.5002  -11.8377 H         1 NLE         0.0305
    123 H61        -3.7954   17.1105  -11.3400 H         1 NLE         0.0305
    124 H62        -5.9617   16.5408  -11.7604 H         1 NLE         0.0267
    125 H63        -5.7615   14.8902  -11.0805 H         1 NLE         0.0267
    126 H64        -4.5814   14.1800  -13.1459 H         1 NLE         0.0263
    127 H65        -4.7739   15.8316  -13.8257 H         1 NLE         0.0263
    128 H66        -6.4646   14.2877  -14.7244 H         1 NLE         0.0230
    129 H67        -7.2235   15.5824  -13.7374 H         1 NLE         0.0230
    130 H68        -7.0311   13.9309  -13.0576 H         1 NLE         0.0230
@<TRIPOS>BOND
     1    1    2 1  
     2    2    3 1  
     3    2   10 1  
     4    3    4 1  
     5    4    5 1  
     6    5    6 1  
     7    6    7 ar 
     8    7    8 1  
     9    7    9 ar 
    10   10   11 2  
    11   10   12 am 
    12   12   13 1  
    13   13   14 1  
    14   13   16 1  
    15   14   15 2  
    16   14   19 am 
    17   16   17 1  
    18   16   18 1  
    19   19   20 1  
    20   20   21 1  
    21   20   22 1  
    22   21   29 1  
    23   22   23 1  
    24   23   24 ar 
    25   23   25 ar 
    26   24   26 ar 
    27   25   27 ar 
    28   26   28 ar 
    29   27   28 ar 
    30   29   30 1  
    31   30   31 1  
    32   30   33 1  
    33   31   32 2  
    34   31   40 am 
    35   33   34 1  
    36   34   35 ar 
    37   34   36 ar 
    38   35   37 ar 
    39   36   38 ar 
    40   37   39 ar 
    41   38   39 ar 
    42   40   41 1  
    43   41   42 1  
    44   41   44 1  
    45   42   43 2  
    46   42   49 am 
    47   44   45 1  
    48   45   46 1  
    49   46   47 ar 
    50   46   48 ar 
    51   49   50 1  
    52   50   51 1  
    53   50   53 1  
    54   51   52 2  
    55   51   54 am 
    56   54   55 1  
    57   55   56 1  
    58   55   59 1  
    59   56   57 ar 
    60   56   58 ar 
    61   59   60 1  
    62   60   61 1  
    63   61   62 1  
    64    1   63 1  
    65    1   64 1  
    66    1   65 1  
    67    2   66 1  
    68    3   67 1  
    69    3   68 1  
    70    4   69 1  
    71    4   70 1  
    72    5   71 1  
    73    5   72 1  
    74    6   73 1  
    75    8   74 1  
    76    8   75 1  
    77    8   76 1  
    78    9   77 1  
    79    9   78 1  
    80   12   79 1  
    81   13   80 1  
    82   16   81 1  
    83   17   82 1  
    84   17   83 1  
    85   17   84 1  
    86   18   85 1  
    87   18   86 1  
    88   18   87 1  
    89   19   88 1  
    90   20   89 1  
    91   21   90 1  
    92   21   91 1  
    93   22   92 1  
    94   22   93 1  
    95   24   94 1  
    96   25   95 1  
    97   26   96 1  
    98   27   97 1  
    99   28   98 1  
   100   29   99 1  
   101   29  100 1  
   102   30  101 1  
   103   33  102 1  
   104   33  103 1  
   105   35  104 1  
   106   36  105 1  
   107   37  106 1  
   108   38  107 1  
   109   39  108 1  
   110   40  109 1  
   111   41  110 1  
   112   44  111 1  
   113   44  112 1  
   114   45  113 1  
   115   45  114 1  
   116   49  115 1  
   117   50  116 1  
   118   53  117 1  
   119   53  118 1  
   120   53  119 1  
   121   54  120 1  
   122   55  121 1  
   123   59  122 1  
   124   59  123 1  
   125   60  124 1  
   126   60  125 1  
   127   61  126 1  
   128   61  127 1  
   129   62  128 1  
   130   62  129 1  
   131   62  130 1  
@<TRIPOS>SUBSTRUCTURE
     1 ILO         1

