4gye_ligand
  -I-interpret- 

131132  0  0  0  0  0  0  0  0999 V2000
  -13.3770   12.3090    6.2390 N   0  3  0  0  0
  -12.7960   13.5870    6.6510 C   0  0  0  0  0
  -12.7930   13.6240    8.1780 C   0  0  0  0  0
  -13.8580   12.7570    8.8390 C   0  0  0  0  0
  -13.4850   12.3820   10.2710 C   0  0  0  0  0
  -13.0150   11.0040   10.3030 N   0  0  0  0  0
  -11.8390   10.6690   10.7780 C   0  0  0  0  0
  -10.9290   11.7310   11.3340 C   0  0  0  0  0
  -11.4930    9.4630   10.7790 N   0  0  0  0  0
  -11.3490   13.5090    6.3800 C   0  0  0  0  0
  -10.8870   12.5880    7.0100 O   0  0  0  0  0
  -10.4800   14.2000    5.6200 N   0  0  0  0  0
  -10.2840   15.3140    4.7270 C   0  0  0  0  0
  -10.0360   14.9960    3.2530 C   0  0  0  0  0
   -9.1260   14.3200    2.7570 O   0  0  0  0  0
   -9.1530   16.1260    5.3820 C   0  0  0  0  0
   -8.3820   15.4300    6.4920 C   0  0  0  0  0
   -8.1370   16.7910    4.4610 C   0  0  0  0  0
  -10.9160   15.5300    2.4350 N   0  0  0  0  0
  -10.8880   15.3300    0.9900 C   0  0  0  0  0
  -10.4690   16.6110    0.2900 C   0  0  0  0  0
  -12.2720   14.8840    0.5400 C   0  0  0  0  0
  -12.8390   13.8000    1.4680 C   0  0  0  0  0
  -12.3770   12.4750    1.4300 C   0  0  0  0  0
  -13.8590   14.0990    2.3920 C   0  0  0  0  0
  -12.9090   11.4960    2.2860 C   0  0  0  0  0
  -14.3820   13.1110    3.2670 C   0  0  0  0  0
  -13.9230   11.7850    3.2090 C   0  0  0  0  0
   -9.0850   16.9290    0.6320 N   0  3  0  0  0
   -8.1380   17.4030   -0.3690 C   0  0  0  0  0
   -7.9920   16.4780   -1.5590 C   0  0  0  0  0
   -7.9500   15.2480   -1.4950 O   0  0  0  0  0
   -6.8450   17.6760    0.3850 C   0  0  0  0  0
   -5.6440   17.9270   -0.5010 C   0  0  0  0  0
   -5.4540   19.1600   -1.1320 C   0  0  0  0  0
   -4.6760   16.9190   -0.6870 C   0  0  0  0  0
   -4.3300   19.3280   -1.9580 C   0  0  0  0  0
   -3.5480   17.0940   -1.4950 C   0  0  0  0  0
   -3.3760   18.3080   -2.1440 C   0  0  0  0  0
   -7.8970   17.0370   -2.7490 N   0  0  0  0  0
   -7.7260   16.2740   -3.9850 C   0  0  0  0  0
   -7.0430   17.1550   -4.9900 C   0  0  0  0  0
   -7.4840   18.2780   -5.2170 O   0  0  0  0  0
   -9.0900   15.7820   -4.4720 C   0  0  0  0  0
   -9.1310   14.9790   -5.7870 C   0  0  0  0  0
   -8.8230   15.8590   -6.9950 C   0  0  0  0  0
   -8.0360   15.4420   -8.0090 O   0  0  0  0  0
   -9.2570   17.0130   -7.0600 O   0  0  0  0  0
   -5.9680   16.6730   -5.6080 N   0  0  0  0  0
   -5.2010   17.3390   -6.6480 C   0  0  0  0  0
   -4.7210   16.2940   -7.6630 C   0  0  0  0  0
   -4.7170   15.0920   -7.3730 O   0  0  0  0  0
   -4.0020   17.9520   -5.9510 C   0  0  0  0  0
   -4.2660   16.6540   -8.8770 N   0  0  0  0  0
   -3.7760   15.6340   -9.7800 C   0  0  0  0  0
   -2.3230   15.5060   -9.4950 C   0  0  0  0  0
   -1.6320   14.3770   -9.7490 O   0  0  0  0  0
   -1.7540   16.4700   -9.0170 O   0  0  0  0  0
   -3.9340   16.0240  -11.2390 C   0  0  0  0  0
   -5.3220   15.6460  -11.7480 C   0  0  0  0  0
   -5.2220   15.0740  -13.1660 C   0  0  0  0  0
   -6.5770   14.6930  -13.7080 C   0  0  0  0  0
  -14.3823   12.3226    6.4111 H   0  0  0  0  0
  -13.2031   12.1626    5.2447 H   0  0  0  0  0
  -12.9493   11.5539    6.7750 H   0  0  0  0  0
  -13.3280   14.4056    6.1662 H   0  0  0  0  0
  -12.9965   14.6541    8.4705 H   0  0  0  0  0
  -11.8257   13.2403    8.5024 H   0  0  0  0  0
  -13.9553   11.8380    8.2611 H   0  0  0  0  0
  -14.7887   13.3237    8.8672 H   0  0  0  0  0
  -14.3596   12.4834   10.9135 H   0  0  0  0  0
  -12.6958   13.0442   10.6270 H   0  0  0  0  0
  -13.6244   10.2702    9.9417 H   0  0  0  0  0
  -10.7287   11.5223   12.3849 H   0  0  0  0  0
   -9.9918   11.7324   10.7775 H   0  0  0  0  0
  -11.4098   12.7048   11.2409 H   0  0  0  0  0
  -10.5860    9.1930   11.1595 H   0  0  0  0  0
   -9.5750   13.7396    5.7172 H   0  0  0  0  0
  -11.2167   15.8694    4.6280 H   0  0  0  0  0
   -9.7788   16.9093    5.8096 H   0  0  0  0  0
   -9.0671   15.1643    7.2971 H   0  0  0  0  0
   -7.9152   14.5274    6.0977 H   0  0  0  0  0
   -7.6128   16.1010    6.8744 H   0  0  0  0  0
   -7.6360   16.0288    3.8642 H   0  0  0  0  0
   -8.6499   17.4914    3.8018 H   0  0  0  0  0
   -7.4011   17.3268    5.0606 H   0  0  0  0  0
  -11.6543   16.1125    2.8299 H   0  0  0  0  0
  -10.1595   14.5624    0.7290 H   0  0  0  0  0
  -11.1170   17.4266    0.6109 H   0  0  0  0  0
  -10.5531   16.4775   -0.7885 H   0  0  0  0  0
  -12.1935   14.4725   -0.4663 H   0  0  0  0  0
  -12.9391   15.7456    0.5653 H   0  0  0  0  0
  -11.5924   12.2010    0.7247 H   0  0  0  0  0
  -14.2563   15.1131    2.4363 H   0  0  0  0  0
  -12.5205   10.4791    2.2303 H   0  0  0  0  0
  -15.1485   13.3847    3.9921 H   0  0  0  0  0
  -14.3386   11.0121    3.8556 H   0  0  0  0  0
   -8.6968   16.0331    0.9271 H   0  0  0  0  0
   -9.1696   17.7152    1.2764 H   0  0  0  0  0
   -8.4952   18.3151   -0.8471 H   0  0  0  0  0
   -6.6258   16.7865    0.9756 H   0  0  0  0  0
   -7.0029   18.5803    0.9727 H   0  0  0  0  0
   -6.1635   19.9745   -0.9861 H   0  0  0  0  0
   -4.8124   15.9637   -0.1801 H   0  0  0  0  0
   -4.1914   20.2791   -2.4721 H   0  0  0  0  0
   -2.8186   16.2926   -1.6125 H   0  0  0  0  0
   -2.5133   18.4708   -2.7900 H   0  0  0  0  0
   -7.9452   18.0540   -2.8110 H   0  0  0  0  0
   -7.1057   15.3921   -3.8249 H   0  0  0  0  0
   -9.6757   16.6818   -4.6601 H   0  0  0  0  0
   -9.4473   15.0994   -3.7010 H   0  0  0  0  0
  -10.1335   14.5684   -5.9077 H   0  0  0  0  0
   -8.3775   14.1932   -5.7333 H   0  0  0  0  0
   -7.7620   14.5361   -7.8482 H   0  0  0  0  0
   -5.6511   15.7459   -5.3245 H   0  0  0  0  0
   -5.7902   18.0909   -7.1730 H   0  0  0  0  0
   -4.3447   18.6608   -5.1972 H   0  0  0  0  0
   -3.4194   17.1645   -5.4729 H   0  0  0  0  0
   -3.3830   18.4698   -6.6836 H   0  0  0  0  0
   -4.2663   17.6345   -9.1579 H   0  0  0  0  0
   -4.3390   14.7132   -9.6271 H   0  0  0  0  0
   -2.2230   13.7183  -10.1212 H   0  0  0  0  0
   -3.1852   15.4957  -11.8291 H   0  0  0  0  0
   -3.8048   17.1023  -11.3326 H   0  0  0  0  0
   -5.9528   16.5348  -11.7634 H   0  0  0  0  0
   -5.7538   14.8941  -11.0875 H   0  0  0  0  0
   -4.6002   14.1793  -13.1333 H   0  0  0  0  0
   -4.7934   15.8371  -13.8157 H   0  0  0  0  0
   -7.0258   13.9379  -13.0627 H   0  0  0  0  0
   -7.2166   15.5751  -13.7365 H   0  0  0  0  0
   -6.4643   14.2916  -14.7151 H   0  0  0  0  0
  1  2  1  0  0  0
  2  3  1  0  0  0
  2 10  1  0  0  0
  3  4  1  0  0  0
  4  5  1  0  0  0
  5  6  1  0  0  0
  6  7  1  0  0  0
  7  8  1  0  0  0
  7  9  2  0  0  0
 10 11  2  0  0  0
 10 12  1  0  0  0
 12 13  1  0  0  0
 13 14  1  0  0  0
 13 16  1  0  0  0
 14 15  2  0  0  0
 14 19  1  0  0  0
 16 17  1  0  0  0
 16 18  1  0  0  0
 19 20  1  0  0  0
 20 21  1  0  0  0
 20 22  1  0  0  0
 21 29  1  0  0  0
 22 23  1  0  0  0
 23 24  4  0  0  0
 23 25  4  0  0  0
 24 26  4  0  0  0
 25 27  4  0  0  0
 26 28  4  0  0  0
 27 28  4  0  0  0
 29 30  1  0  0  0
 30 31  1  0  0  0
 30 33  1  0  0  0
 31 32  2  0  0  0
 31 40  1  0  0  0
 33 34  1  0  0  0
 34 35  4  0  0  0
 34 36  4  0  0  0
 35 37  4  0  0  0
 36 38  4  0  0  0
 37 39  4  0  0  0
 38 39  4  0  0  0
 40 41  1  0  0  0
 41 42  1  0  0  0
 41 44  1  0  0  0
 42 43  2  0  0  0
 42 49  1  0  0  0
 44 45  1  0  0  0
 45 46  1  0  0  0
 46 47  1  0  0  0
 46 48  2  0  0  0
 49 50  1  0  0  0
 50 51  1  0  0  0
 50 53  1  0  0  0
 51 52  2  0  0  0
 51 54  1  0  0  0
 54 55  1  0  0  0
 55 56  1  0  0  0
 55 59  1  0  0  0
 56 57  1  0  0  0
 56 58  2  0  0  0
 59 60  1  0  0  0
 60 61  1  0  0  0
 61 62  1  0  0  0
  1 63  1  0  0  0
  1 64  1  0  0  0
  1 65  1  0  0  0
  2 66  1  0  0  0
  3 67  1  0  0  0
  3 68  1  0  0  0
  4 69  1  0  0  0
  4 70  1  0  0  0
  5 71  1  0  0  0
  5 72  1  0  0  0
  6 73  1  0  0  0
  8 74  1  0  0  0
  8 75  1  0  0  0
  8 76  1  0  0  0
  9 77  1  0  0  0
 12 78  1  0  0  0
 13 79  1  0  0  0
 16 80  1  0  0  0
 17 81  1  0  0  0
 17 82  1  0  0  0
 17 83  1  0  0  0
 18 84  1  0  0  0
 18 85  1  0  0  0
 18 86  1  0  0  0
 19 87  1  0  0  0
 20 88  1  0  0  0
 21 89  1  0  0  0
 21 90  1  0  0  0
 22 91  1  0  0  0
 22 92  1  0  0  0
 24 93  1  0  0  0
 25 94  1  0  0  0
 26 95  1  0  0  0
 27 96  1  0  0  0
 28 97  1  0  0  0
 29 98  1  0  0  0
 29 99  1  0  0  0
 30100  1  0  0  0
 33101  1  0  0  0
 33102  1  0  0  0
 35103  1  0  0  0
 36104  1  0  0  0
 37105  1  0  0  0
 38106  1  0  0  0
 39107  1  0  0  0
 40108  1  0  0  0
 41109  1  0  0  0
 44110  1  0  0  0
 44111  1  0  0  0
 45112  1  0  0  0
 45113  1  0  0  0
 47114  1  0  0  0
 49115  1  0  0  0
 50116  1  0  0  0
 53117  1  0  0  0
 53118  1  0  0  0
 53119  1  0  0  0
 54120  1  0  0  0
 55121  1  0  0  0
 57122  1  0  0  0
 59123  1  0  0  0
 59124  1  0  0  0
 60125  1  0  0  0
 60126  1  0  0  0
 61127  1  0  0  0
 61128  1  0  0  0
 62129  1  0  0  0
 62130  1  0  0  0
 62131  1  0  0  0
M  END
$$$$
