1g4o_ligand
  -I-interpret- 

 34 35  0  0  0  0  0  0  0  0999 V2000
   -3.8480    3.5450   14.6910 C   0  0  0  0  0
   -4.2370    2.3650   15.3650 C   0  0  0  0  0
   -5.5740    2.3350   15.9180 C   0  0  0  0  0
   -6.4120    3.4700   15.7530 C   0  0  0  0  0
   -5.9770    4.6190   15.0710 C   0  0  0  0  0
   -4.7000    4.6590   14.5450 C   0  0  0  0  0
   -4.1860    5.8880   13.8100 C   0  0  0  0  0
   -4.9130    6.8570   13.6790 O   0  0  0  0  0
   -2.8950    5.8980   13.3010 N   0  0  0  0  0
   -2.2190    6.9700   12.5800 C   0  0  0  0  0
   -6.0590    0.8320   16.7840 S   0  0  0  0  0
   -5.6290   -0.5400   16.0950 N   0  0  0  0  0
   -7.5390    1.0910   16.8390 O   0  0  0  0  0
   -5.5270    1.1290   18.0940 O   0  0  0  0  0
   -1.4690    7.9020   13.3820 C   0  0  0  0  0
   -1.8430    8.0700   14.7660 C   0  0  0  0  0
   -1.1590    8.9730   15.6310 C   0  0  0  0  0
   -0.0750    9.7300   15.1060 C   0  0  0  0  0
    0.3390    9.5950   13.7200 C   0  0  0  0  0
   -0.3680    8.6670   12.8410 C   0  0  0  0  0
   -2.8457    3.5960   14.2656 H   0  0  0  0  0
   -3.5605    1.5160   15.4638 H   0  0  0  0  0
   -7.4202    3.4491   16.1668 H   0  0  0  0  0
   -6.6434    5.4741   14.9576 H   0  0  0  0  0
   -2.3505    5.0485   13.4500 H   0  0  0  0  0
   -3.0026    7.5500   12.0925 H   0  0  0  0  0
   -1.4977    6.4860   11.9216 H   0  0  0  0  0
   -4.9964   -1.1773   16.5788 H   0  0  0  0  0
   -5.9865   -0.7804   15.1704 H   0  0  0  0  0
   -2.6750    7.4878   15.1622 H   0  0  0  0  0
   -1.4602    9.0813   16.6730 H   0  0  0  0  0
    0.4556   10.4252   15.7566 H   0  0  0  0  0
    1.1732   10.1834   13.3379 H   0  0  0  0  0
   -0.0715    8.5536   11.7983 H   0  0  0  0  0
  1  6  4  0  0  0
  1  2  4  0  0  0
  2  3  4  0  0  0
  3 11  1  0  0  0
  3  4  4  0  0  0
  4  5  4  0  0  0
  5  6  4  0  0  0
  6  7  1  0  0  0
  7  9  1  0  0  0
  7  8  2  0  0  0
  9 10  1  0  0  0
 10 15  1  0  0  0
 15 20  4  0  0  0
 15 16  4  0  0  0
 16 17  4  0  0  0
 17 18  4  0  0  0
 18 19  4  0  0  0
 19 20  4  0  0  0
 11 14  2  0  0  0
 11 13  2  0  0  0
 11 12  1  0  0  0
  1 21  1  0  0  0
  2 22  1  0  0  0
  4 23  1  0  0  0
  5 24  1  0  0  0
  9 25  1  0  0  0
 10 26  1  0  0  0
 10 27  1  0  0  0
 12 28  1  0  0  0
 12 29  1  0  0  0
 16 30  1  0  0  0
 17 31  1  0  0  0
 18 32  1  0  0  0
 19 33  1  0  0  0
 20 34  1  0  0  0
M  END
$$$$
