4gzp_ligand
  -I-interpret- 

 45 45  0  0  0  0  0  0  0  0999 V2000
   24.2680   -5.8850   12.7270 C   0  0  0  0  0
   23.0010   -5.6930   12.7970 O   0  0  0  0  0
   25.1050   -5.0540   12.3450 O   0  0  0  0  0
   24.8930   -7.1060   13.1720 C   0  0  0  0  0
   26.4160   -7.2310   13.0840 C   0  0  0  0  0
   26.8920   -8.0330   14.3250 C   0  0  0  0  0
   26.1200   -9.3260   14.3940 C   0  0  0  0  0
   26.7090  -10.2540   15.3540 N   0  0  0  0  0
   26.9190  -11.5210   14.9690 C   0  0  0  0  0
   26.5570  -11.9550   13.8750 O   0  0  0  0  0
   27.5900  -12.4100   15.9290 C   0  0  0  0  0
   24.6830   -9.0240   14.7390 C   0  0  0  0  0
   24.1240   -8.0540   13.7260 C   0  0  0  0  0
   23.9780  -10.2690   14.5770 O   0  0  0  0  0
   22.9180  -10.5040   15.5450 C   0  0  0  0  0
   21.8350   -9.4500   15.3290 C   0  0  0  0  0
   22.2580  -11.8710   15.3000 C   0  0  0  0  0
   23.3020  -12.9710   15.1950 C   0  0  0  0  0
   21.1140   -9.0960   16.6150 C   0  0  0  0  0
   28.2520   -8.4820   14.1850 N   0  3  0  0  0
   22.5753   -6.4896   13.1224 H   0  0  0  0  0
   26.8787   -6.2442   13.0679 H   0  0  0  0  0
   26.7036   -7.7437   12.1661 H   0  0  0  0  0
   26.7645   -7.3739   15.1837 H   0  0  0  0  0
   26.1628   -9.8146   13.4206 H   0  0  0  0  0
   26.9549   -9.9463   16.2949 H   0  0  0  0  0
   26.9270  -13.2379   16.1803 H   0  0  0  0  0
   28.5058  -12.7986   15.4836 H   0  0  0  0  0
   27.8328  -11.8502   16.8322 H   0  0  0  0  0
   24.5911   -8.6057   15.7413 H   0  0  0  0  0
   23.0748   -8.1260   13.4396 H   0  0  0  0  0
   23.3434  -10.4656   16.5478 H   0  0  0  0  0
   21.1027   -9.8550   14.6306 H   0  0  0  0  0
   22.3124   -8.5469   14.9487 H   0  0  0  0  0
   21.7017  -11.8272   14.3637 H   0  0  0  0  0
   21.5979  -12.0951   16.1379 H   0  0  0  0  0
   23.9745  -12.7538   14.3652 H   0  0  0  0  0
   23.8717  -13.0192   16.1230 H   0  0  0  0  0
   22.8057  -13.9259   15.0218 H   0  0  0  0  0
   20.6408   -9.9894   17.0225 H   0  0  0  0  0
   21.8310   -8.7023   17.3355 H   0  0  0  0  0
   20.3538   -8.3427   16.4083 H   0  0  0  0  0
   28.8715   -7.6737   14.1281 H   0  0  0  0  0
   28.5060   -9.0503   14.9930 H   0  0  0  0  0
   28.3391   -9.0391   13.3350 H   0  0  0  0  0
  1  2  1  0  0  0
  1  3  2  0  0  0
  1  4  1  0  0  0
  4  5  1  0  0  0
  4 13  2  0  0  0
  5  6  1  0  0  0
  6  7  1  0  0  0
  6 20  1  0  0  0
  7  8  1  0  0  0
  7 12  1  0  0  0
  8  9  1  0  0  0
  9 10  2  0  0  0
  9 11  1  0  0  0
 12 13  1  0  0  0
 12 14  1  0  0  0
 14 15  1  0  0  0
 15 16  1  0  0  0
 15 17  1  0  0  0
 16 19  1  0  0  0
 17 18  1  0  0  0
  2 21  1  0  0  0
  5 22  1  0  0  0
  5 23  1  0  0  0
  6 24  1  0  0  0
  7 25  1  0  0  0
  8 26  1  0  0  0
 11 27  1  0  0  0
 11 28  1  0  0  0
 11 29  1  0  0  0
 12 30  1  0  0  0
 13 31  1  0  0  0
 15 32  1  0  0  0
 16 33  1  0  0  0
 16 34  1  0  0  0
 17 35  1  0  0  0
 17 36  1  0  0  0
 18 37  1  0  0  0
 18 38  1  0  0  0
 18 39  1  0  0  0
 19 40  1  0  0  0
 19 41  1  0  0  0
 19 42  1  0  0  0
 20 43  1  0  0  0
 20 44  1  0  0  0
 20 45  1  0  0  0
M  END
$$$$
