1swg_ligand
  -I-interpret- 

 32 33  0  0  0  0  0  0  0  0999 V2000
   13.8230   15.4720   18.2480 C   0  0  0  0  0
   14.0450   15.9210   17.0920 O   0  0  0  0  0
   14.7540   15.0090   18.9720 O   0  0  0  0  0
   12.4110   15.4940   18.7050 C   0  0  0  0  0
   11.5780   16.5940   18.0180 C   0  0  0  0  0
   11.8760   17.9300   18.6780 C   0  0  0  0  0
   11.1330   19.1590   18.1180 C   0  0  0  0  0
   11.4950   20.4790   18.7970 C   0  0  0  0  0
   11.0380   20.5580   20.5830 S   0  0  0  0  0
   11.4720   22.3320   20.5860 C   0  0  0  0  0
   10.9390   22.9040   19.2940 C   0  0  0  0  0
    9.5410   23.3110   19.3310 N   0  0  0  0  0
    8.7770   22.5910   18.5060 C   0  0  0  0  0
    7.5460   22.7020   18.2980 O   0  0  0  0  0
    9.5720   21.7110   17.8520 N   0  0  0  0  0
   10.9550   21.7700   18.2320 C   0  0  0  0  0
   14.3903   14.7174   19.8112 H   0  0  0  0  0
   12.4100   15.6946   19.7764 H   0  0  0  0  0
   11.9642   14.5317   18.4550 H   0  0  0  0  0
   10.5168   16.3653   18.1166 H   0  0  0  0  0
   11.8364   16.6423   16.9602 H   0  0  0  0  0
   12.9365   18.1180   18.5105 H   0  0  0  0  0
   11.5546   17.8313   19.7149 H   0  0  0  0  0
   10.0689   18.9938   18.2868 H   0  0  0  0  0
   11.4134   19.2516   17.0688 H   0  0  0  0  0
   12.5675   20.4353   18.6072 H   0  0  0  0  0
   12.5507   22.4705   20.6593 H   0  0  0  0  0
   11.0371   22.8394   21.4471 H   0  0  0  0  0
   11.5640   23.7727   19.0872 H   0  0  0  0  0
    9.1851   24.0626   19.9216 H   0  0  0  0  0
    9.2182   21.0617   17.1494 H   0  0  0  0  0
   11.6145   21.9485   17.3827 H   0  0  0  0  0
  1  4  1  0  0  0
  1  3  1  0  0  0
  1  2  2  0  0  0
  4  5  1  0  0  0
  5  6  1  0  0  0
  6  7  1  0  0  0
  7  8  1  0  0  0
  8 16  1  0  0  0
  8  9  1  0  0  0
  9 10  1  0  0  0
 10 11  1  0  0  0
 11 16  1  0  0  0
 11 12  1  0  0  0
 12 13  1  0  0  0
 13 15  1  0  0  0
 13 14  2  0  0  0
 15 16  1  0  0  0
  3 17  1  0  0  0
  4 18  1  0  0  0
  4 19  1  0  0  0
  5 20  1  0  0  0
  5 21  1  0  0  0
  6 22  1  0  0  0
  6 23  1  0  0  0
  7 24  1  0  0  0
  7 25  1  0  0  0
  8 26  1  0  0  0
 10 27  1  0  0  0
 10 28  1  0  0  0
 11 29  1  0  0  0
 12 30  1  0  0  0
 15 31  1  0  0  0
 16 32  1  0  0  0
M  END
$$$$
