3d8w_ligand
  -I-interpret- 

 27 28  0  0  0  0  0  0  0  0999 V2000
   -3.7480    7.2170   14.9300 C   0  0  0  0  0
   -2.6520    8.0100   15.2590 C   0  0  0  0  0
   -1.8770    8.5300   14.2250 C   0  0  0  0  0
   -2.1710    8.2920   12.8860 C   0  0  0  0  0
   -3.2660    7.4850   12.5570 C   0  0  0  0  0
   -4.0140    6.9550   13.5950 C   0  0  0  0  0
   -5.3140    6.0650   13.2440 S   0  0  0  0  0
   -6.2340    6.2910   14.3440 O   0  0  0  0  0
   -5.9170    6.5480   11.9750 O   0  0  0  0  0
   -4.7700    4.6710   13.0150 N   0  0  0  0  0
   -4.7940    3.6140   13.8680 C   0  0  0  0  0
   -5.9290    3.4400   15.1330 S   0  0  0  0  0
   -3.9190    2.5820   13.7980 N   0  0  0  0  0
   -4.1670    1.6230   14.8170 N   0  0  0  0  0
   -5.2090    1.9380   15.6060 C   0  0  0  0  0
   -5.9160    0.9030   16.7060 S   0  0  0  0  0
   -5.3520    1.2210   17.9840 O   0  0  0  0  0
   -7.3050    1.1480   16.6630 O   0  0  0  0  0
   -5.5330   -0.5790   16.2990 N   0  0  0  0  0
   -4.3882    6.8077   15.7115 H   0  0  0  0  0
   -2.4064    8.2188   16.3002 H   0  0  0  0  0
   -1.0112    9.1439   14.4731 H   0  0  0  0  0
   -1.5545    8.7298   12.1010 H   0  0  0  0  0
   -3.5218    7.2802   11.5174 H   0  0  0  0  0
   -4.3317    4.5050   12.1091 H   0  0  0  0  0
   -4.9620   -1.1481   16.9239 H   0  0  0  0  0
   -5.8574   -0.9643   15.4120 H   0  0  0  0  0
  1  2  4  0  0  0
  1  6  4  0  0  0
  2  3  4  0  0  0
  3  4  4  0  0  0
  4  5  4  0  0  0
  5  6  4  0  0  0
  6  7  1  0  0  0
  7  8  2  0  0  0
  7  9  2  0  0  0
  7 10  1  0  0  0
 10 11  1  0  0  0
 11 12  4  0  0  0
 11 13  4  0  0  0
 12 15  4  0  0  0
 13 14  4  0  0  0
 14 15  4  0  0  0
 15 16  1  0  0  0
 16 17  2  0  0  0
 16 18  2  0  0  0
 16 19  1  0  0  0
  1 20  1  0  0  0
  2 21  1  0  0  0
  3 22  1  0  0  0
  4 23  1  0  0  0
  5 24  1  0  0  0
 10 25  1  0  0  0
 19 26  1  0  0  0
 19 27  1  0  0  0
M  END
$$$$
