1q54_ligand
  -I-interpret- 

 29 28  0  0  0  0  0  0  0  0999 V2000
    9.3570   10.2090   13.0290 O   0  0  0  0  0
   11.8560    2.8650   10.9670 O   0  0  0  0  0
    9.8540    1.6410   10.8650 O   0  0  0  0  0
   10.9590    2.0290   12.9380 O   0  0  0  0  0
   10.6890    2.6520   11.6000 P   0  0  0  0  0
    9.9440    3.9800   11.7780 O   0  0  0  0  0
   11.0340    6.1220   11.5380 O   0  0  0  0  0
   11.7170    4.5940   13.2600 O   0  0  0  0  0
   10.6270    5.2160   12.4240 P   0  0  0  0  0
   10.3350    9.4300   15.3610 C   0  0  0  0  0
   11.0890    8.2680   13.3380 C   0  0  0  0  0
    8.8750    6.8560   13.0410 C   0  0  0  0  0
    8.7600    7.8970   14.1700 C   0  0  0  0  0
    9.8540    8.9860   13.9510 C   0  0  0  0  0
    9.6200    5.7080   13.4550 O   0  0  0  0  0
    8.7290    9.3740   16.2740 Br  0  0  0  0  0
   10.0699   10.8443   12.9305 H   0  0  0  0  0
    9.0282    1.5067   11.3357 H   0  0  0  0  0
   10.1272    1.8758   13.3921 H   0  0  0  0  0
   11.3303    3.9575   13.8657 H   0  0  0  0  0
   11.1199    8.8058   15.7882 H   0  0  0  0  0
   10.8345   10.3985   15.3840 H   0  0  0  0  0
   11.4402    7.4999   14.0271 H   0  0  0  0  0
   10.8069    7.8072   12.3913 H   0  0  0  0  0
   11.8828    8.9952   13.1673 H   0  0  0  0  0
    9.3930    7.3169   12.2000 H   0  0  0  0  0
    7.8704    6.5334   12.7673 H   0  0  0  0  0
    8.9029    7.4148   15.1370 H   0  0  0  0  0
    7.7708    8.3546   14.1552 H   0  0  0  0  0
 14  1  1  0  0  0
  5  2  2  0  0  0
  6  5  1  0  0  0
  9  6  1  0  0  0
 13 12  1  0  0  0
 14 13  1  0  0  0
 12 15  1  0  0  0
 10 16  1  0  0  0
 15  9  1  0  0  0
 14 11  1  0  0  0
 14 10  1  0  0  0
  9  8  1  0  0  0
  9  7  2  0  0  0
  5  4  1  0  0  0
  5  3  1  0  0  0
  1 17  1  0  0  0
  3 18  1  0  0  0
  4 19  1  0  0  0
  8 20  1  0  0  0
 10 21  1  0  0  0
 10 22  1  0  0  0
 11 23  1  0  0  0
 11 24  1  0  0  0
 11 25  1  0  0  0
 12 26  1  0  0  0
 12 27  1  0  0  0
 13 28  1  0  0  0
 13 29  1  0  0  0
M  END
$$$$
