2brc_ligand
  -I-interpret- 

 45 48  0  0  0  0  0  0  0  0999 V2000
   15.8320   -3.9980   -6.2080 C   0  0  0  0  0
   14.5870   -4.4520   -5.7630 C   0  0  0  0  0
   14.3010   -5.7910   -5.6770 O   0  0  0  0  0
   12.3190   -3.9240   -4.9620 O   0  0  0  0  0
   13.5520   -3.4690   -5.4030 C   0  0  0  0  0
   13.8600   -2.1150   -5.5050 C   0  0  0  0  0
   15.1210   -1.6830   -5.9400 C   0  0  0  0  0
   16.1060   -2.6260   -6.2720 C   0  0  0  0  0
   17.4630   -2.2010   -6.7400 C   0  0  0  0  0
   17.7930   -1.3650   -7.8890 C   0  0  0  0  0
   16.8980   -0.6970   -8.8830 C   0  0  0  0  0
   19.1350   -1.3250   -7.8920 N   0  0  0  0  0
   18.7650   -2.5760   -6.1260 C   0  0  0  0  0
   19.7220   -2.0590   -6.8290 N   0  0  0  0  0
   18.7770   -3.4260   -4.9260 C   0  0  0  0  0
   17.8940   -3.1560   -3.9040 C   0  0  0  0  0
   17.9130   -3.9760   -2.8050 C   0  0  0  0  0
   16.9710   -3.7600   -1.6480 C   0  0  0  0  0
   15.6760   -3.0930   -2.0710 C   0  0  0  0  0
   18.8580   -5.0860   -2.7260 C   0  0  0  0  0
   12.9140   -6.1600   -5.7600 C   0  0  0  0  0
   18.7630   -5.8500   -1.6080 O   0  0  0  0  0
   19.7380   -5.3620   -3.7660 C   0  0  0  0  0
   12.1530   -5.3280   -4.7220 C   0  0  0  0  0
   19.7430   -4.5250   -4.8680 C   0  0  0  0  0
   20.5910   -4.6930   -5.8990 O   0  0  0  0  0
   16.5948   -4.7168   -6.5073 H   0  0  0  0  0
   13.1046   -1.3749   -5.2410 H   0  0  0  0  0
   15.3358   -0.6174   -6.0201 H   0  0  0  0  0
   16.3038   -1.4510   -9.3993 H   0  0  0  0  0
   16.2361   -0.0029   -8.3651 H   0  0  0  0  0
   17.5039   -0.1518   -9.6067 H   0  0  0  0  0
   17.2016   -2.3166   -3.9668 H   0  0  0  0  0
   17.4659   -3.1080   -0.9282 H   0  0  0  0  0
   16.7256   -4.7351   -1.2273 H   0  0  0  0  0
   15.8966   -2.1206   -2.5114 H   0  0  0  0  0
   15.1692   -3.7193   -2.8052 H   0  0  0  0  0
   15.0349   -2.9615   -1.1993 H   0  0  0  0  0
   12.7901   -7.2244   -5.5604 H   0  0  0  0  0
   12.5275   -5.9671   -6.7608 H   0  0  0  0  0
   19.4189   -6.5501   -1.6435 H   0  0  0  0  0
   20.4095   -6.2191   -3.7146 H   0  0  0  0  0
   11.0925   -5.5703   -4.7909 H   0  0  0  0  0
   12.5461   -5.5612   -3.7325 H   0  0  0  0  0
   21.1610   -5.4453   -5.7237 H   0  0  0  0  0
  1  2  4  0  0  0
  1  8  4  0  0  0
  2  3  1  0  0  0
  2  5  4  0  0  0
  3 21  1  0  0  0
  5  4  1  0  0  0
  4 24  1  0  0  0
  5  6  4  0  0  0
  6  7  4  0  0  0
  7  8  4  0  0  0
  8  9  1  0  0  0
  9 10  4  0  0  0
  9 13  4  0  0  0
 10 11  1  0  0  0
 10 12  4  0  0  0
 12 14  4  0  0  0
 13 14  4  0  0  0
 13 15  1  0  0  0
 15 16  4  0  0  0
 15 25  4  0  0  0
 16 17  4  0  0  0
 17 18  1  0  0  0
 17 20  4  0  0  0
 18 19  1  0  0  0
 20 22  1  0  0  0
 20 23  4  0  0  0
 21 24  1  0  0  0
 23 25  4  0  0  0
 25 26  1  0  0  0
  1 27  1  0  0  0
  6 28  1  0  0  0
  7 29  1  0  0  0
 11 30  1  0  0  0
 11 31  1  0  0  0
 11 32  1  0  0  0
 16 33  1  0  0  0
 18 34  1  0  0  0
 18 35  1  0  0  0
 19 36  1  0  0  0
 19 37  1  0  0  0
 19 38  1  0  0  0
 21 39  1  0  0  0
 21 40  1  0  0  0
 22 41  1  0  0  0
 23 42  1  0  0  0
 24 43  1  0  0  0
 24 44  1  0  0  0
 26 45  1  0  0  0
M  END
$$$$
