1zkn_ligand
  -I-interpret- 

 29 30  0  0  0  0  0  0  0  0999 V2000
   20.9370   -3.8190   29.4810 N   0  0  0  0  0
   20.8000   -2.8970   30.4910 C   0  0  0  0  0
   21.2030   -3.3330   31.6600 N   0  0  0  0  0
   21.6310   -4.6270   31.4000 C   0  0  0  0  0
   21.4730   -4.9420   30.0670 C   0  0  0  0  0
   21.7850   -6.1050   29.4550 N   0  0  0  0  0
   22.3130   -7.0600   30.2830 C   0  0  0  0  0
   22.5070   -6.8280   31.6480 N   0  0  0  0  0
   22.1690   -5.6200   32.2060 C   0  0  0  0  0
   22.3430   -5.4160   33.3980 O   0  0  0  0  0
   22.6330   -8.1460   29.8140 O   0  0  0  0  0
   23.0740   -7.8740   32.4850 C   0  0  0  0  0
   21.6030   -6.3100   28.0200 C   0  0  0  0  0
   20.2130   -6.8980   27.7350 C   0  0  0  0  0
   20.0740   -8.3630   28.1360 C   0  0  0  0  0
   19.0590   -6.0470   28.2480 C   0  0  0  0  0
   20.3945   -1.8974   30.3349 H   0  0  0  0  0
   22.4295   -8.7525   32.4530 H   0  0  0  0  0
   24.0656   -8.1356   32.1156 H   0  0  0  0  0
   23.1503   -7.5149   33.5113 H   0  0  0  0  0
   22.3626   -7.0047   27.6615 H   0  0  0  0  0
   21.6941   -5.3509   27.5101 H   0  0  0  0  0
   20.1354   -6.8719   26.6481 H   0  0  0  0  0
   20.7995   -8.9600   27.5835 H   0  0  0  0  0
   20.2573   -8.4645   29.2057 H   0  0  0  0  0
   19.0662   -8.7077   27.9044 H   0  0  0  0  0
   19.1444   -5.9348   29.3288 H   0  0  0  0  0
   19.0951   -5.0654   27.7756 H   0  0  0  0  0
   18.1144   -6.5338   28.0055 H   0  0  0  0  0
  1  2  4  0  0  0
  1  5  4  0  0  0
  2  3  4  0  0  0
  3  4  4  0  0  0
  4  5  4  0  0  0
  4  9  1  0  0  0
  5  6  1  0  0  0
  6  7  1  0  0  0
  6 13  1  0  0  0
  7  8  1  0  0  0
  7 11  2  0  0  0
  8  9  1  0  0  0
  8 12  1  0  0  0
  9 10  2  0  0  0
 13 14  1  0  0  0
 14 15  1  0  0  0
 14 16  1  0  0  0
  2 17  1  0  0  0
 12 18  1  0  0  0
 12 19  1  0  0  0
 12 20  1  0  0  0
 13 21  1  0  0  0
 13 22  1  0  0  0
 14 23  1  0  0  0
 15 24  1  0  0  0
 15 25  1  0  0  0
 15 26  1  0  0  0
 16 27  1  0  0  0
 16 28  1  0  0  0
 16 29  1  0  0  0
M  END
$$$$
