4el9_ligand
  -I-interpret- 

 53 56  0  0  0  0  0  0  0  0999 V2000
   31.2360    5.1950    5.1380 O   0  0  0  0  0
   32.0640    5.0630    6.2410 C   0  0  0  0  0
   33.4030    4.5390    5.8290 C   0  0  0  0  0
   33.8930    5.2960    4.7910 O   0  0  0  0  0
   32.2300    6.3950    6.8690 C   0  0  0  0  0
   31.0170    6.8500    7.3400 O   0  0  0  0  0
   33.1910    6.2720    8.0090 C   0  0  0  0  0
   33.3430    7.6080    8.6550 C   0  0  0  0  0
   34.4180    5.8120    7.5640 O   0  0  0  0  0
   34.3640    4.5580    6.9870 C   0  0  0  0  0
   33.9630    3.5480    7.8560 O   0  0  0  0  0
   34.6500    3.4860    9.0650 C   0  0  0  0  0
   36.1250    3.3520    9.0960 C   0  0  0  0  0
   36.8650    3.3240    7.9550 O   0  0  0  0  0
   33.9860    3.5180   10.2600 C   0  0  0  0  0
   32.5130    3.5710   10.4500 C   0  0  0  0  0
   31.6420    2.9720    9.4090 C   0  0  0  0  0
   30.2900    2.9570    9.6040 C   0  0  0  0  0
   29.7190    3.4950   10.8720 C   0  0  0  0  0
   28.3600    3.4670   11.0730 O   0  0  0  0  0
   30.5310    4.0010   11.8570 C   0  0  0  0  0
   32.0050    4.0160   11.6320 C   0  0  0  0  0
   34.6610    3.4200   11.4580 O   0  0  0  0  0
   36.0220    3.2960   11.5420 C   0  0  0  0  0
   36.6180    3.2140   12.8890 C   0  0  0  0  0
   37.9710    3.0860   13.0010 C   0  0  0  0  0
   38.4770    3.0230   14.2630 O   0  0  0  0  0
   38.8410    3.0460   11.7810 C   0  0  0  0  0
   38.2600    3.1330   10.5410 C   0  0  0  0  0
   36.7830    3.2600   10.4190 C   0  0  0  0  0
   39.0120    3.0890    9.4100 O   0  0  0  0  0
   31.1204    4.3377    4.7217 H   0  0  0  0  0
   31.6179    4.3619    6.9464 H   0  0  0  0  0
   33.2902    3.5057    5.5010 H   0  0  0  0  0
   33.2711    5.2753    4.0599 H   0  0  0  0  0
   32.6095    7.1016    6.1309 H   0  0  0  0  0
   30.4002    6.9290    6.6086 H   0  0  0  0  0
   32.8058    5.5538    8.7328 H   0  0  0  0  0
   34.0219    7.5247    9.5037 H   0  0  0  0  0
   33.7484    8.3158    7.9319 H   0  0  0  0  0
   32.3694    7.9564    8.9997 H   0  0  0  0  0
   35.3890    4.3626    6.6720 H   0  0  0  0  0
   37.7939    3.2327    8.1795 H   0  0  0  0  0
   34.1126    3.9852    9.2834 H   0  0  0  0  0
   32.0745    2.5500    8.5018 H   0  0  0  0  0
   29.6310    2.5532    8.8354 H   0  0  0  0  0
   28.1566    3.8472   11.9307 H   0  0  0  0  0
   30.1065    4.3841   12.7850 H   0  0  0  0  0
   32.6734    4.3820   12.4113 H   0  0  0  0  0
   35.9887    3.2550   13.7780 H   0  0  0  0  0
   39.4319    2.9342   14.2196 H   0  0  0  0  0
   39.9224    2.9490   11.8777 H   0  0  0  0  0
   38.4393    3.1633    8.6432 H   0  0  0  0  0
  1  2  1  0  0  0
  2  3  1  0  0  0
  2  5  1  0  0  0
  3  4  1  0  0  0
  3 10  1  0  0  0
  5  6  1  0  0  0
  5  7  1  0  0  0
  7  8  1  0  0  0
  7  9  1  0  0  0
  9 10  1  0  0  0
 10 11  1  0  0  0
 11 12  1  0  0  0
 12 13  2  0  0  0
 12 15  1  0  0  0
 13 14  1  0  0  0
 13 30  1  0  0  0
 15 16  1  0  0  0
 15 23  1  0  0  0
 16 17  4  0  0  0
 16 22  4  0  0  0
 17 18  4  0  0  0
 18 19  4  0  0  0
 19 20  1  0  0  0
 19 21  4  0  0  0
 21 22  4  0  0  0
 23 24  1  0  0  0
 24 25  4  0  0  0
 24 30  4  0  0  0
 25 26  4  0  0  0
 26 27  1  0  0  0
 26 28  4  0  0  0
 28 29  4  0  0  0
 29 30  4  0  0  0
 29 31  1  0  0  0
  1 32  1  0  0  0
  2 33  1  0  0  0
  3 34  1  0  0  0
  4 35  1  0  0  0
  5 36  1  0  0  0
  6 37  1  0  0  0
  7 38  1  0  0  0
  8 39  1  0  0  0
  8 40  1  0  0  0
  8 41  1  0  0  0
 10 42  1  0  0  0
 14 43  1  0  0  0
 15 44  1  0  0  0
 17 45  1  0  0  0
 18 46  1  0  0  0
 20 47  1  0  0  0
 21 48  1  0  0  0
 22 49  1  0  0  0
 25 50  1  0  0  0
 27 51  1  0  0  0
 28 52  1  0  0  0
 31 53  1  0  0  0
M  END
$$$$
