6m9c_ligand
  -I-interpret- 

 59 60  0  0  0  0  0  0  0  0999 V2000
   23.4520   12.1630    7.4760 C   0  0  0  0  0
   23.8760   12.8930    6.1860 C   0  0  0  0  0
   23.4600   12.1070    4.9410 C   0  0  0  0  0
   23.2860   14.2910    6.0930 C   0  0  0  0  0
   24.1270   12.8320    8.6740 C   0  0  0  0  0
   25.3330   13.0540    8.6750 O   0  0  0  0  0
   23.3440   13.1680    9.7050 N   0  0  0  0  0
   23.8810   13.9380   10.8220 C   0  0  0  0  0
   24.8210   13.1140   11.6960 C   0  0  0  0  0
   24.5110   11.9670   12.0430 O   0  0  0  0  0
   22.7500   14.4870   11.7010 C   0  0  0  0  0
   21.6820   15.3010   11.0200 C   0  0  0  0  0
   21.9920   16.1110    9.9540 C   0  0  0  0  0
   20.3510   15.2790   11.4310 C   0  0  0  0  0
   21.0610   16.8860    9.2870 C   0  0  0  0  0
   19.3950   16.0460   10.7790 C   0  0  0  0  0
   19.7510   16.8430    9.7160 C   0  0  0  0  0
   18.8240   17.6070    9.0490 O   0  0  0  0  0
   26.7150   13.7700   14.3900 C   0  0  0  0  0
   25.9500   13.7380   12.0580 N   0  0  0  0  0
   27.6010   13.1810   15.3690 O   0  0  0  0  0
   26.8160   13.0630   13.0280 C   0  0  0  0  0
   28.2540   13.0320   12.5110 C   0  0  0  0  0
   28.4740   12.0320   11.3760 C   0  0  0  0  0
   29.0630    9.2820    8.2920 O   0  0  0  0  0
   28.8690   10.2040    9.3140 C   0  0  0  0  0
   29.3740   12.3020   10.3460 C   0  0  0  0  0
   27.7820   10.8260   11.3500 C   0  0  0  0  0
   29.5780   11.3850    9.3070 C   0  0  0  0  0
   27.9730    9.9060   10.3230 C   0  0  0  0  0
   25.7580   14.8540   14.3640 O   0  0  0  0  0
   23.7540   11.1171    7.4217 H   0  0  0  0  0
   22.3691   12.2159    7.5884 H   0  0  0  0  0
   24.9623   12.9716    6.2303 H   0  0  0  0  0
   22.3724   12.0503    4.8953 H   0  0  0  0  0
   23.8365   12.6120    4.0514 H   0  0  0  0  0
   23.8757   11.1007    4.9924 H   0  0  0  0  0
   23.6634   14.7844    5.1974 H   0  0  0  0  0
   22.1994   14.2227    6.0412 H   0  0  0  0  0
   23.5737   14.8647    6.9740 H   0  0  0  0  0
   22.3644   12.8839    9.7104 H   0  0  0  0  0
   24.4466   14.7593   10.3819 H   0  0  0  0  0
   23.2282   15.1615   12.4112 H   0  0  0  0  0
   22.2413   13.6133   12.1084 H   0  0  0  0  0
   23.0277   16.1444    9.6160 H   0  0  0  0  0
   20.0571   14.6529   12.2735 H   0  0  0  0  0
   21.3544   17.5135    8.4454 H   0  0  0  0  0
   18.3572   16.0165   11.1111 H   0  0  0  0  0
   17.9605   17.4823    9.4495 H   0  0  0  0  0
   26.1975   14.6493   11.6725 H   0  0  0  0  0
   26.4904   12.0311   13.1595 H   0  0  0  0  0
   28.8935   12.7309   13.3408 H   0  0  0  0  0
   28.4831   14.0241   12.1219 H   0  0  0  0  0
   28.5002    8.5186    8.4402 H   0  0  0  0  0
   29.9274   13.2411   10.3493 H   0  0  0  0  0
   27.0768   10.5968   12.1489 H   0  0  0  0  0
   30.2855   11.6022    8.5068 H   0  0  0  0  0
   27.4239    8.9644   10.3148 H   0  0  0  0  0
   25.3709   14.9166   13.4878 H   0  0  0  0  0
  1  2  1  0  0  0
  5  1  1  0  0  0
  2  3  1  0  0  0
  2  4  1  0  0  0
  5  6  2  0  0  0
  7  5  1  0  0  0
  8  7  1  0  0  0
  9  8  1  0  0  0
  8 11  1  0  0  0
  9 10  2  0  0  0
 20  9  1  0  0  0
 11 12  1  0  0  0
 12 13  4  0  0  0
 12 14  4  0  0  0
 13 15  4  0  0  0
 14 16  4  0  0  0
 15 17  4  0  0  0
 16 17  4  0  0  0
 17 18  1  0  0  0
 19 21  2  0  0  0
 22 19  1  0  0  0
 19 31  1  0  0  0
 22 20  1  0  0  0
 23 22  1  0  0  0
 24 23  1  0  0  0
 27 24  4  0  0  0
 24 28  4  0  0  0
 26 25  1  0  0  0
 29 26  4  0  0  0
 26 30  4  0  0  0
 27 29  4  0  0  0
 28 30  4  0  0  0
  1 32  1  0  0  0
  1 33  1  0  0  0
  2 34  1  0  0  0
  3 35  1  0  0  0
  3 36  1  0  0  0
  3 37  1  0  0  0
  4 38  1  0  0  0
  4 39  1  0  0  0
  4 40  1  0  0  0
  7 41  1  0  0  0
  8 42  1  0  0  0
 11 43  1  0  0  0
 11 44  1  0  0  0
 13 45  1  0  0  0
 14 46  1  0  0  0
 15 47  1  0  0  0
 16 48  1  0  0  0
 18 49  1  0  0  0
 20 50  1  0  0  0
 22 51  1  0  0  0
 23 52  1  0  0  0
 23 53  1  0  0  0
 25 54  1  0  0  0
 27 55  1  0  0  0
 28 56  1  0  0  0
 29 57  1  0  0  0
 30 58  1  0  0  0
 31 59  1  0  0  0
M  END
$$$$
