5l3j_ligand
  -I-interpret- 

 32 34  0  0  0  0  0  0  0  0999 V2000
  -10.3910   23.8520   28.1510 C   0  0  0  0  0
  -10.8280   23.0670   26.9650 C   0  0  0  0  0
  -10.7950   22.6020   24.4780 C   0  0  0  0  0
  -10.4950   23.1730   23.2130 C   0  0  0  0  0
  -12.5370   19.4550   21.4280 C   0  0  0  0  0
  -13.0690   18.5500   20.5610 N   0  0  0  0  0
  -14.0030   16.4470   19.9550 C   0  0  0  0  0
  -13.9050   16.5790   18.5950 C   0  0  0  0  0
  -14.6560   15.5550   18.0540 C   0  0  0  0  0
  -14.8080   15.3870   20.2420 N   0  0  0  0  0
  -11.8070   20.7680   23.3350 C   0  0  0  0  0
  -11.1150   24.7250   28.5810 O   0  0  0  0  0
   -9.2310   23.5700   28.7690 O   0  0  0  0  0
  -11.6180   22.1850   27.2530 O   0  0  0  0  0
  -10.4110   23.2610   25.6620 N   0  0  0  0  0
  -10.8400   22.5530   22.0470 C   0  0  0  0  0
  -11.5210   21.3190   22.0830 C   0  0  0  0  0
  -11.9570   20.5460   21.0810 N   0  0  0  0  0
  -13.4110   17.3000   20.9460 C   0  0  0  0  0
  -13.2850   16.8440   22.0710 O   0  0  0  0  0
  -14.8150   15.3080   16.1970 Br  0  0  0  0  0
  -15.1990   14.8420   19.0790 C   0  0  0  0  0
  -16.3160   13.3350   18.9910 Br  0  0  0  0  0
  -12.6420   19.2590   23.1620 S   0  0  0  0  0
  -11.4530   21.3840   24.5080 C   0  0  0  0  0
   -9.9761   24.1307   23.1721 H   0  0  0  0  0
  -13.2143   18.8241   19.5893 H   0  0  0  0  0
  -13.3463   17.3397   18.0497 H   0  0  0  0  0
   -8.7853   22.8596   28.3018 H   0  0  0  0  0
   -9.7159   23.9971   25.5382 H   0  0  0  0  0
  -10.5896   23.0109   21.0901 H   0  0  0  0  0
  -11.6894   20.9152   25.4632 H   0  0  0  0  0
  2  1  1  0  0  0
  1 12  2  0  0  0
  1 13  1  0  0  0
  2 14  2  0  0  0
 15  2  1  0  0  0
  3  4  4  0  0  0
  3 15  1  0  0  0
 25  3  4  0  0  0
  4 16  4  0  0  0
  5  6  1  0  0  0
  5 18  4  0  0  0
 24  5  4  0  0  0
  6 19  1  0  0  0
  7  8  4  0  0  0
  7 10  4  0  0  0
 19  7  1  0  0  0
  8  9  4  0  0  0
  9 21  1  0  0  0
 22  9  4  0  0  0
 10 22  4  0  0  0
 11 17  4  0  0  0
 11 24  4  0  0  0
 11 25  4  0  0  0
 16 17  4  0  0  0
 17 18  4  0  0  0
 19 20  2  0  0  0
 22 23  1  0  0  0
  4 26  1  0  0  0
  6 27  1  0  0  0
  8 28  1  0  0  0
 13 29  1  0  0  0
 15 30  1  0  0  0
 16 31  1  0  0  0
 25 32  1  0  0  0
M  END
$$$$
