4qyg_ligand
  -I-interpret- 

 50 54  0  0  0  0  0  0  0  0999 V2000
    7.4340    5.0830   14.7350 O   0  0  0  0  0
    8.1590    5.9650   15.2480 C   0  0  0  0  0
    9.3600    6.1040   14.9280 O   0  0  0  0  0
    7.5880    6.8690   16.2920 C   0  0  0  0  0
    8.4080    7.8090   16.8210 N   0  0  0  0  0
    7.9750    8.6750   17.7580 C   0  0  0  0  0
    6.6640    8.6120   18.2060 C   0  0  0  0  0
    5.9400    9.3310   19.1150 N   0  0  0  0  0
    4.6780    8.8420   19.1670 C   0  0  0  0  0
    6.2500    6.7610   16.7130 C   0  0  0  0  0
    5.8100    7.6570   17.6870 C   0  0  0  0  0
    4.5760    7.7990   18.2850 C   0  0  0  0  0
    3.3610    7.1220   18.1270 C   0  0  0  0  0
    2.2680    7.5570   18.9130 C   0  0  0  0  0
    2.4640    8.6420   19.7850 C   0  0  0  0  0
    3.6460    9.2660   19.9210 N   0  0  0  0  0
    0.9020    6.9300   18.8240 C   0  0  0  0  0
    0.5100    6.2380   17.6750 C   0  0  0  0  0
   -0.7580    5.6740   17.5550 C   0  0  0  0  0
   -1.6920    5.7910   18.5910 C   0  0  0  0  0
   -1.3120    6.5040   19.7280 C   0  0  0  0  0
   -0.0420    7.0680   19.8480 C   0  0  0  0  0
   -2.9370    5.2230   18.4740 N   0  0  0  0  0
   -4.0040    5.7430   19.3380 C   0  0  0  0  0
   -5.3680    5.2720   18.8370 C   0  0  0  0  0
   -5.3620    3.8170   18.6230 N   0  3  0  0  0
   -6.6990    3.3320   18.2310 C   0  0  0  0  0
   -4.3730    3.5060   17.5790 C   0  0  0  0  0
   -2.9840    3.8050   18.1140 C   0  0  0  0  0
    6.5517    5.1381   15.1092 H   0  0  0  0  0
    8.6546    9.4245   18.1636 H   0  0  0  0  0
    5.5835    6.0068   16.2945 H   0  0  0  0  0
    3.2610    6.2929   17.4265 H   0  0  0  0  0
    1.6190    8.9928   20.3775 H   0  0  0  0  0
    1.2155    6.1368   16.8503 H   0  0  0  0  0
   -1.0255    5.1363   16.6454 H   0  0  0  0  0
   -2.0255    6.6234   20.5433 H   0  0  0  0  0
    0.2183    7.6226   20.7496 H   0  0  0  0  0
   -3.9757    6.8325   19.3222 H   0  0  0  0  0
   -3.8512    5.3756   20.3528 H   0  0  0  0  0
   -5.5897    5.7686   17.8924 H   0  0  0  0  0
   -6.1240    5.5177   19.5828 H   0  0  0  0  0
   -5.1124    3.3462   19.4927 H   0  0  0  0  0
   -7.4145    3.5660   19.0193 H   0  0  0  0  0
   -7.0040    3.8198   17.3052 H   0  0  0  0  0
   -6.6628    2.2531   18.0799 H   0  0  0  0  0
   -4.5664    4.1137   16.6950 H   0  0  0  0  0
   -4.4441    2.4533   17.3055 H   0  0  0  0  0
   -2.7741    3.1865   18.9867 H   0  0  0  0  0
   -2.2317    3.5822   17.3574 H   0  0  0  0  0
  1  2  1  0  0  0
  2  3  2  0  0  0
  2  4  1  0  0  0
  4  5  4  0  0  0
  4 10  4  0  0  0
  5  6  4  0  0  0
  6  7  4  0  0  0
  7  8  4  0  0  0
  7 11  4  0  0  0
  8  9  4  0  0  0
  9 12  4  0  0  0
  9 16  4  0  0  0
 10 11  4  0  0  0
 11 12  4  0  0  0
 12 13  4  0  0  0
 13 14  4  0  0  0
 14 15  4  0  0  0
 14 17  1  0  0  0
 15 16  4  0  0  0
 17 18  4  0  0  0
 17 22  4  0  0  0
 18 19  4  0  0  0
 19 20  4  0  0  0
 20 21  4  0  0  0
 20 23  1  0  0  0
 21 22  4  0  0  0
 23 24  1  0  0  0
 23 29  1  0  0  0
 24 25  1  0  0  0
 25 26  1  0  0  0
 26 27  1  0  0  0
 26 28  1  0  0  0
 28 29  1  0  0  0
  1 30  1  0  0  0
  6 31  1  0  0  0
 10 32  1  0  0  0
 13 33  1  0  0  0
 15 34  1  0  0  0
 18 35  1  0  0  0
 19 36  1  0  0  0
 21 37  1  0  0  0
 22 38  1  0  0  0
 24 39  1  0  0  0
 24 40  1  0  0  0
 25 41  1  0  0  0
 25 42  1  0  0  0
 26 43  1  0  0  0
 27 44  1  0  0  0
 27 45  1  0  0  0
 27 46  1  0  0  0
 28 47  1  0  0  0
 28 48  1  0  0  0
 29 49  1  0  0  0
 29 50  1  0  0  0
M  END
$$$$
