4i9c_ligand
  -I-interpret- 

 87 86  0  0  0  0  0  0  0  0999 V2000
   15.9720   49.5620   -5.7100 N   0  3  0  0  0
   15.0430   48.3850   -5.5100 C   0  0  0  0  0
   15.5740   47.4330   -4.4530 C   0  0  0  0  0
   16.7340   47.1240   -4.4660 O   0  0  0  0  0
   14.8380   47.6550   -6.8200 C   0  0  0  0  0
   14.1110   48.5100   -7.8460 C   0  0  0  0  0
   12.6400   48.4260   -7.6650 C   0  0  0  0  0
   12.0570   47.3380   -7.7700 O   0  0  0  0  0
   12.0080   49.5730   -7.3850 N   0  0  0  0  0
   14.7350   47.0060   -3.5200 N   0  0  0  0  0
   15.1800   46.1470   -2.4070 C   0  0  0  0  0
   14.8810   44.6850   -2.7200 C   0  0  0  0  0
   14.0520   44.3510   -3.5470 O   0  0  0  0  0
   14.4770   46.5420   -1.1110 C   0  0  0  0  0
   14.6110   48.0140   -0.8270 C   0  0  0  0  0
   15.3640   48.2800    0.4410 C   0  0  0  0  0
   16.7240   47.7240    0.4770 N   0  0  0  0  0
   17.8020   48.2920   -0.0500 C   0  0  0  0  0
   17.7040   49.4030   -0.7430 N   0  0  0  0  0
   18.9640   47.7320    0.0840 N   0  0  0  0  0
   15.5460   43.7950   -2.0330 N   0  0  0  0  0
   15.4260   42.3880   -2.3580 C   0  0  0  0  0
   14.0810   41.8500   -1.9370 C   0  0  0  0  0
   13.4030   42.4400   -1.0960 O   0  0  0  0  0
   13.6990   40.7180   -2.5180 N   0  0  0  0  0
   12.4610   40.0870   -2.1610 C   0  0  0  0  0
   12.6270   39.0110   -1.0770 C   0  0  0  0  0
   12.9160   37.8360   -1.3770 O   0  0  0  0  0
   11.7750   39.5510   -3.3960 C   0  0  0  0  0
   11.5840   40.6260   -4.4300 C   0  0  0  0  0
   10.4430   40.3210   -5.7900 S   0  0  0  0  0
    9.1060   39.5570   -4.8640 C   0  0  0  0  0
   12.4500   39.4300    0.1770 N   0  0  0  0  0
   12.6130   38.5430    1.3040 C   0  0  0  0  0
   11.4880   37.4980    1.4260 C   0  0  0  0  0
   11.7080   36.3430    1.8620 O   0  0  0  0  0
   12.7540   39.3600    2.5970 C   0  0  0  0  0
   13.8320   40.4430    2.3970 C   0  0  0  0  0
   12.9280   38.4410    3.8360 C   0  0  0  0  0
   15.2200   39.8680    2.2160 C   0  0  0  0  0
   10.3360   37.7920    1.0870 O   0  0  0  0  0
   16.1024   50.0455   -4.8214 H   0  0  0  0  0
   16.8730   49.2281   -6.0522 H   0  0  0  0  0
   15.5648   50.2032   -6.3908 H   0  0  0  0  0
   14.0842   48.7684   -5.1610 H   0  0  0  0  0
   14.2314   46.7708   -6.6243 H   0  0  0  0  0
   15.8181   47.4007   -7.2236 H   0  0  0  0  0
   14.3612   48.1471   -8.8429 H   0  0  0  0  0
   14.4197   49.5474   -7.7175 H   0  0  0  0  0
   10.9974   49.5779   -7.2469 H   0  0  0  0  0
   12.5372   50.4417   -7.3098 H   0  0  0  0  0
   13.7537   47.2793   -3.5733 H   0  0  0  0  0
   16.2548   46.2789   -2.2826 H   0  0  0  0  0
   14.9378   45.9920   -0.2905 H   0  0  0  0  0
   13.4172   46.3081   -1.2117 H   0  0  0  0  0
   13.6097   48.4312   -0.7205 H   0  0  0  0  0
   15.1617   48.4693   -1.6501 H   0  0  0  0  0
   14.8056   47.8039    1.2470 H   0  0  0  0  0
   15.4615   49.3619    0.5306 H   0  0  0  0  0
   16.8501   46.8270    0.9459 H   0  0  0  0  0
   18.5353   49.8143   -1.1675 H   0  0  0  0  0
   16.7966   49.8547   -0.8569 H   0  0  0  0  0
   19.0509   46.8535    0.5950 H   0  0  0  0  0
   16.1506   44.0909   -1.2667 H   0  0  0  0  0
   16.2043   41.8387   -1.8283 H   0  0  0  0  0
   15.5293   42.2677   -3.4364 H   0  0  0  0  0
   14.2943   40.2914   -3.2280 H   0  0  0  0  0
   11.8213   40.8484   -1.7147 H   0  0  0  0  0
   10.7950   39.1698   -3.1089 H   0  0  0  0  0
   12.3985   38.7664   -3.8245 H   0  0  0  0  0
   12.5604   40.7453   -4.8996 H   0  0  0  0  0
   11.1596   41.4704   -3.8870 H   0  0  0  0  0
    9.4744   38.6566   -4.3724 H   0  0  0  0  0
    8.7385   40.2575   -4.1141 H   0  0  0  0  0
    8.2969   39.2951   -5.5458 H   0  0  0  0  0
   12.1927   40.4028    0.3439 H   0  0  0  0  0
   13.5269   37.9739    1.1335 H   0  0  0  0  0
   12.6380   36.2578    2.0843 H   0  0  0  0  0
   11.8329   39.8989    2.8190 H   0  0  0  0  0
   13.8450   41.0680    3.2899 H   0  0  0  0  0
   13.5817   40.9982    1.4930 H   0  0  0  0  0
   12.0572   37.7923    3.9308 H   0  0  0  0  0
   13.8240   37.8327    3.7126 H   0  0  0  0  0
   13.0245   39.0549    4.7315 H   0  0  0  0  0
   15.4903   39.2895    3.0994 H   0  0  0  0  0
   15.2324   39.2211    1.3388 H   0  0  0  0  0
   15.9336   40.6806    2.0799 H   0  0  0  0  0
  1  2  1  0  0  0
  2  3  1  0  0  0
  2  5  1  0  0  0
  3  4  2  0  0  0
  3 10  1  0  0  0
  5  6  1  0  0  0
  6  7  1  0  0  0
  7  8  2  0  0  0
  7  9  1  0  0  0
 10 11  1  0  0  0
 11 12  1  0  0  0
 11 14  1  0  0  0
 12 13  2  0  0  0
 12 21  1  0  0  0
 14 15  1  0  0  0
 15 16  1  0  0  0
 16 17  1  0  0  0
 17 18  1  0  0  0
 18 19  1  0  0  0
 18 20  2  0  0  0
 21 22  1  0  0  0
 22 23  1  0  0  0
 23 24  2  0  0  0
 23 25  1  0  0  0
 25 26  1  0  0  0
 26 27  1  0  0  0
 26 29  1  0  0  0
 27 28  2  0  0  0
 27 33  1  0  0  0
 29 30  1  0  0  0
 30 31  1  0  0  0
 31 32  1  0  0  0
 33 34  1  0  0  0
 34 35  1  0  0  0
 34 37  1  0  0  0
 35 36  1  0  0  0
 35 41  2  0  0  0
 37 38  1  0  0  0
 37 39  1  0  0  0
 38 40  1  0  0  0
  1 42  1  0  0  0
  1 43  1  0  0  0
  1 44  1  0  0  0
  2 45  1  0  0  0
  5 46  1  0  0  0
  5 47  1  0  0  0
  6 48  1  0  0  0
  6 49  1  0  0  0
  9 50  1  0  0  0
  9 51  1  0  0  0
 10 52  1  0  0  0
 11 53  1  0  0  0
 14 54  1  0  0  0
 14 55  1  0  0  0
 15 56  1  0  0  0
 15 57  1  0  0  0
 16 58  1  0  0  0
 16 59  1  0  0  0
 17 60  1  0  0  0
 19 61  1  0  0  0
 19 62  1  0  0  0
 20 63  1  0  0  0
 21 64  1  0  0  0
 22 65  1  0  0  0
 22 66  1  0  0  0
 25 67  1  0  0  0
 26 68  1  0  0  0
 29 69  1  0  0  0
 29 70  1  0  0  0
 30 71  1  0  0  0
 30 72  1  0  0  0
 32 73  1  0  0  0
 32 74  1  0  0  0
 32 75  1  0  0  0
 33 76  1  0  0  0
 34 77  1  0  0  0
 36 78  1  0  0  0
 37 79  1  0  0  0
 38 80  1  0  0  0
 38 81  1  0  0  0
 39 82  1  0  0  0
 39 83  1  0  0  0
 39 84  1  0  0  0
 40 85  1  0  0  0
 40 86  1  0  0  0
 40 87  1  0  0  0
M  END
$$$$
