### 
### Created by X-TOOL on Mon Sep 10 21:13:14 2018
### 

@<TRIPOS>MOLECULE
4i9c_ligand
   87    86     1     0     0
SMALL
GAST_HUCK


@<TRIPOS>ATOM
      1 N          15.9720   49.5620   -5.7100 N.4       1 GLN         0.2380
      2 CA         15.0430   48.3850   -5.5100 C.3       1 GLN         0.0671
      3 C          15.5740   47.4330   -4.4530 C.2       1 GLN         0.2269
      4 O          16.7340   47.1240   -4.4660 O.2       1 GLN        -0.3907
      5 CB         14.8380   47.6550   -6.8200 C.3       1 GLN         0.0247
      6 CG         14.1110   48.5100   -7.8460 C.3       1 GLN         0.0443
      7 CD         12.6400   48.4260   -7.6650 C.2       1 GLN         0.1738
      8 OE1        12.0570   47.3380   -7.7700 O.2       1 GLN        -0.3973
      9 NE2        12.0080   49.5730   -7.3850 N.am      1 GLN        -0.3009
     10 N          14.7350   47.0060   -3.5200 N.am      1 ARG        -0.2610
     11 CA         15.1800   46.1470   -2.4070 C.3       1 ARG         0.1312
     12 C          14.8810   44.6850   -2.7200 C.2       1 ARG         0.2037
     13 O          14.0520   44.3510   -3.5470 O.2       1 ARG        -0.3944
     14 CB         14.4770   46.5420   -1.1110 C.3       1 ARG        -0.0092
     15 CG         14.6110   48.0140   -0.8270 C.3       1 ARG        -0.0156
     16 CD         15.3640   48.2800    0.4410 C.3       1 ARG         0.0627
     17 NE         16.7240   47.7240    0.4770 N.pl3     1 ARG        -0.2723
     18 CZ         17.8020   48.2920   -0.0500 C.cat     1 ARG         0.2882
     19 NH1        17.7040   49.4030   -0.7430 N.pl3     1 ARG        -0.2849
     20 NH2        18.9640   47.7320    0.0840 N.pl3     1 ARG        -0.2849
     21 N          15.5460   43.7950   -2.0330 N.am      1 GLY        -0.2664
     22 CA         15.4260   42.3880   -2.3580 C.3       1 GLY         0.1201
     23 C          14.0810   41.8500   -1.9370 C.2       1 GLY         0.2007
     24 O          13.4030   42.4400   -1.0960 O.2       1 GLY        -0.3947
     25 N          13.6990   40.7180   -2.5180 N.am      1 MET        -0.2639
     26 CA         12.4610   40.0870   -2.1610 C.3       1 MET         0.1317
     27 C          12.6270   39.0110   -1.0770 C.2       1 MET         0.2034
     28 O          12.9160   37.8360   -1.3770 O.2       1 MET        -0.3944
     29 CB         11.7750   39.5510   -3.3960 C.3       1 MET        -0.0034
     30 CG         11.5840   40.6260   -4.4300 C.3       1 MET        -0.0024
     31 SD         10.4430   40.3210   -5.7900 S.3       1 MET        -0.1639
     32 CE          9.1060   39.5570   -4.8640 C.3       1 MET        -0.0181
     33 N          12.4500   39.4300    0.1770 N.am      1 ILE        -0.2692
     34 CA         12.6130   38.5430    1.3040 C.3       1 ILE         0.0969
     35 C          11.4880   37.4980    1.4260 C.2       1 ILE         0.0604
     36 O          11.7080   36.3430    1.8620 O.co2     1 ILE        -0.5666
     37 CB         12.7540   39.3600    2.5970 C.3       1 ILE        -0.0092
     38 CG1        13.8320   40.4430    2.3970 C.3       1 ILE        -0.0497
     39 CG2        12.9280   38.4410    3.8360 C.3       1 ILE        -0.0588
     40 CD1        15.2200   39.8680    2.2160 C.3       1 ILE        -0.0649
     41 OXT        10.3360   37.7920    1.0870 O.co2     1 ILE        -0.5666
     42 H1         15.5924   50.1735   -6.4158 H         1 GLN         0.2015
     43 H2         16.8768   49.2296   -6.0047 H         1 GLN         0.2015
     44 H3         16.0657   50.0673   -4.8428 H         1 GLN         0.2015
     45 H4         14.0700   48.7685   -5.1692 H         1 GLN         0.1100
     46 H5         14.2454   46.7478   -6.6311 H         1 GLN         0.0370
     47 H6         15.8207   47.3732   -7.2261 H         1 GLN         0.0370
     48 H7         14.3695   48.1576   -8.8554 H         1 GLN         0.0506
     49 H8         14.4280   49.5570   -7.7307 H         1 GLN         0.0506
     50 H9         11.0168   49.5783   -7.2525 H         1 GLN         0.1814
     51 H10        12.5272   50.4242   -7.3085 H         1 GLN         0.1814
     52 H11        13.7730   47.2739   -3.5723 H         1 ARG         0.1884
     53 H12        16.2652   46.2707   -2.2762 H         1 ARG         0.0800
     54 H13        14.9218   45.9771   -0.2785 H         1 ARG         0.0313
     55 H14        13.4092   46.2916   -1.1949 H         1 ARG         0.0313
     56 H15        13.6053   48.4509   -0.7399 H         1 ARG         0.0301
     57 H16        15.1459   48.4887   -1.6627 H         1 ARG         0.0301
     58 H17        14.7941   47.8451    1.2753 H         1 ARG         0.0689
     59 H18        15.4359   49.3695    0.5745 H         1 ARG         0.0689
     60 H19        16.8514   46.8182    0.9505 H         1 ARG         0.2642
     61 H20        18.5477   49.8341   -1.1469 H         1 ARG         0.2615
     62 H21        16.7834   49.8433   -0.8827 H         1 ARG         0.2615
     63 H22        19.0563   46.8603    0.6248 H         1 ARG         0.2615
     64 H23        19.7946   48.1590   -0.3504 H         1 ARG         0.2615
     65 H24        16.1388   44.0851   -1.2817 H         1 GLY         0.1881
     66 H25        16.2166   41.8292   -1.8358 H         1 GLY         0.0763
     67 H26        15.5415   42.2583   -3.4442 H         1 GLY         0.0763
     68 H27        14.2827   40.2998   -3.2140 H         1 MET         0.1883
     69 H28        11.8102   40.8661   -1.7373 H         1 MET         0.0800
     70 H29        10.7912   39.1488   -3.1125 H         1 MET         0.0320
     71 H30        12.3899   38.7466   -3.8259 H         1 MET         0.0320
     72 H31        12.5701   40.8284   -4.8733 H         1 MET         0.0378
     73 H32        11.2277   41.5233   -3.9029 H         1 MET         0.0378
     74 H33         8.2887   39.2922   -5.5510 H         1 MET         0.0340
     75 H34         8.7342   40.2630   -4.1068 H         1 MET         0.0340
     76 H35         9.4765   38.6481   -4.3674 H         1 MET         0.0340
     77 H36        12.1977   40.3837    0.3406 H         1 ILE         0.1875
     78 H37        13.5520   37.9904    1.1526 H         1 ILE         0.0729
     79 H38        11.8046   39.8940    2.7501 H         1 ILE         0.0338
     80 H39        13.8369   41.1001    3.2792 H         1 ILE         0.0267
     81 H40        13.5768   41.0311    1.5031 H         1 ILE         0.0267
     82 H41        12.1036   37.7137    3.8717 H         1 ILE         0.0234
     83 H42        12.9174   39.0523    4.7504 H         1 ILE         0.0234
     84 H43        13.8863   37.9057    3.7639 H         1 ILE         0.0234
     85 H44        15.9411   40.6872    2.0785 H         1 ILE         0.0230
     86 H45        15.2338   39.2150    1.3309 H         1 ILE         0.0230
     87 H46        15.4940   39.2840    3.1070 H         1 ILE         0.0230
@<TRIPOS>BOND
     1    1    2 1  
     2    2    3 1  
     3    2    5 1  
     4    3    4 2  
     5    3   10 am 
     6    5    6 1  
     7    6    7 1  
     8    7    8 2  
     9    7    9 am 
    10   10   11 1  
    11   11   12 1  
    12   11   14 1  
    13   12   13 2  
    14   12   21 am 
    15   14   15 1  
    16   15   16 1  
    17   16   17 1  
    18   17   18 ar 
    19   18   19 ar 
    20   18   20 ar 
    21   21   22 1  
    22   22   23 1  
    23   23   24 2  
    24   23   25 am 
    25   25   26 1  
    26   26   27 1  
    27   26   29 1  
    28   27   28 2  
    29   27   33 am 
    30   29   30 1  
    31   30   31 1  
    32   31   32 1  
    33   33   34 1  
    34   34   35 1  
    35   34   37 1  
    36   35   36 ar 
    37   35   41 ar 
    38   37   38 1  
    39   37   39 1  
    40   38   40 1  
    41    1   42 1  
    42    1   43 1  
    43    1   44 1  
    44    2   45 1  
    45    5   46 1  
    46    5   47 1  
    47    6   48 1  
    48    6   49 1  
    49    9   50 1  
    50    9   51 1  
    51   10   52 1  
    52   11   53 1  
    53   14   54 1  
    54   14   55 1  
    55   15   56 1  
    56   15   57 1  
    57   16   58 1  
    58   16   59 1  
    59   17   60 1  
    60   19   61 1  
    61   19   62 1  
    62   20   63 1  
    63   20   64 1  
    64   21   65 1  
    65   22   66 1  
    66   22   67 1  
    67   25   68 1  
    68   26   69 1  
    69   29   70 1  
    70   29   71 1  
    71   30   72 1  
    72   30   73 1  
    73   32   74 1  
    74   32   75 1  
    75   32   76 1  
    76   33   77 1  
    77   34   78 1  
    78   37   79 1  
    79   38   80 1  
    80   38   81 1  
    81   39   82 1  
    82   39   83 1  
    83   39   84 1  
    84   40   85 1  
    85   40   86 1  
    86   40   87 1  
@<TRIPOS>SUBSTRUCTURE
     1 GLN         1

