3kga_ligand
  -I-interpret- 

 52 57  0  0  0  0  0  0  0  0999 V2000
   37.3020    5.2110   13.6380 N   0  0  0  0  0
   38.3930    5.6610   12.9880 N   0  0  0  0  0
   39.2390    6.1800   13.7920 C   0  0  0  0  0
   38.6350    6.0300   15.1240 C   0  0  0  0  0
   37.4420    5.4620   14.9130 C   0  0  0  0  0
   39.1090    6.4930   16.4850 C   0  0  0  0  0
   38.8350    5.7750   17.6370 C   0  0  0  0  0
   39.2430    6.2550   18.8740 C   0  0  0  0  0
   39.9260    7.4800   18.9690 C   0  0  0  0  0
   40.1840    8.2140   17.8200 C   0  0  0  0  0
   39.7700    7.7200   16.5860 C   0  0  0  0  0
   40.3390    8.0110   20.3300 C   0  0  0  0  0
   39.7980    7.4320   21.4300 N   0  0  0  0  0
   38.8600    6.3110   21.3990 C   0  0  0  0  0
   38.9490    5.4270   20.1340 C   0  0  0  0  0
   41.0820    8.9890   20.4180 O   0  0  0  0  0
   40.3860    6.7030   13.4510 N   0  0  0  0  0
   36.2140    4.6480   13.0980 C   0  0  0  0  0
   35.7960    5.1160   11.8480 C   0  0  0  0  0
   34.6450    4.5980   11.2450 C   0  0  0  0  0
   33.9030    3.6240   11.9160 C   0  0  0  0  0
   34.3160    3.1550   13.1670 C   0  0  0  0  0
   35.4630    3.6740   13.7680 C   0  0  0  0  0
   34.1920    5.1060    9.9190 C   0  0  0  0  0
   34.5230    6.4170    9.5420 C   0  0  0  0  0
   34.0570    6.8620    8.3050 C   0  0  0  0  0
   34.2510    8.0570    7.7130 N   0  0  0  0  0
   33.6660    8.1000    6.5420 C   0  0  0  0  0
   33.0380    6.9340    6.2740 C   0  0  0  0  0
   33.2930    6.0500    7.4700 C   0  0  0  0  0
   32.9380    4.7460    7.8200 C   0  0  0  0  0
   33.3980    4.2980    9.0710 C   0  0  0  0  0
   36.7029    5.2430   15.6836 H   0  0  0  0  0
   38.2969    4.8293   17.5722 H   0  0  0  0  0
   40.7061    9.1687   17.8830 H   0  0  0  0  0
   39.9647    8.2999   15.6838 H   0  0  0  0  0
   40.0636    7.8040   22.3418 H   0  0  0  0  0
   37.8568    6.7369   21.4178 H   0  0  0  0  0
   39.1011    5.6727   22.2490 H   0  0  0  0  0
   39.7627    4.7150   20.2719 H   0  0  0  0  0
   37.9894    4.9281   19.9982 H   0  0  0  0  0
   40.6682    6.7185   12.4709 H   0  0  0  0  0
   40.9997    7.0959   14.1647 H   0  0  0  0  0
   36.3713    5.8900   11.3400 H   0  0  0  0  0
   32.9955    3.2264   11.4616 H   0  0  0  0  0
   33.7397    2.3812   13.6743 H   0  0  0  0  0
   35.7727    3.3238   14.7526 H   0  0  0  0  0
   35.1193    7.0604   10.1890 H   0  0  0  0  0
   33.6834    8.9607    5.8735 H   0  0  0  0  0
   32.4664    6.6841    5.3802 H   0  0  0  0  0
   32.3405    4.1135    7.1634 H   0  0  0  0  0
   33.1336    3.2928    9.3991 H   0  0  0  0  0
  1  2  4  0  0  0
  1  5  4  0  0  0
  1 18  1  0  0  0
  2  3  4  0  0  0
  3  4  4  0  0  0
  3 17  1  0  0  0
  4  5  4  0  0  0
  4  6  1  0  0  0
  6  7  4  0  0  0
  6 11  4  0  0  0
  7  8  4  0  0  0
  8  9  4  0  0  0
  8 15  1  0  0  0
  9 10  4  0  0  0
  9 12  1  0  0  0
 10 11  4  0  0  0
 12 13  1  0  0  0
 12 16  2  0  0  0
 13 14  1  0  0  0
 14 15  1  0  0  0
 18 19  4  0  0  0
 18 23  4  0  0  0
 19 20  4  0  0  0
 20 21  4  0  0  0
 20 24  1  0  0  0
 21 22  4  0  0  0
 22 23  4  0  0  0
 24 25  4  0  0  0
 24 32  4  0  0  0
 25 26  4  0  0  0
 26 27  4  0  0  0
 26 30  4  0  0  0
 27 28  4  0  0  0
 28 29  4  0  0  0
 29 30  4  0  0  0
 30 31  4  0  0  0
 31 32  4  0  0  0
  5 33  1  0  0  0
  7 34  1  0  0  0
 10 35  1  0  0  0
 11 36  1  0  0  0
 13 37  1  0  0  0
 14 38  1  0  0  0
 14 39  1  0  0  0
 15 40  1  0  0  0
 15 41  1  0  0  0
 17 42  1  0  0  0
 17 43  1  0  0  0
 19 44  1  0  0  0
 21 45  1  0  0  0
 22 46  1  0  0  0
 23 47  1  0  0  0
 25 48  1  0  0  0
 28 49  1  0  0  0
 29 50  1  0  0  0
 31 51  1  0  0  0
 32 52  1  0  0  0
M  END
$$$$
