4xy9_ligand
  -I-interpret- 

 28 30  0  0  0  0  0  0  0  0999 V2000
   26.0250   14.3790   -0.6220 C   0  0  0  0  0
   27.2840   14.8590   -0.7720 C   0  0  0  0  0
   27.9180   15.4330    0.3820 C   0  0  0  0  0
   30.4500   18.7900    2.0050 C   0  0  0  0  0
   29.3700   15.8580    0.2150 C   0  0  0  0  0
   29.9600   16.9730    0.8790 C   0  0  0  0  0
   31.3120   17.3060    0.5720 C   0  0  0  0  0
   31.4600   15.6120   -0.8830 C   0  0  0  0  0
   32.1580   14.9170   -1.8150 N   0  0  0  0  0
   30.0830   15.1700   -0.6590 N   0  0  0  0  0
   25.2820   14.4020    0.5200 C   0  0  0  0  0
   31.5970   18.4650    1.3010 N   0  0  0  0  0
   25.2690   13.5440   -2.2050 Br  0  0  0  0  0
   25.8510   14.9430    1.6740 C   0  0  0  0  0
   27.2000   15.4570    1.5980 C   0  0  0  0  0
   27.9000   15.8940    2.6630 O   0  0  0  0  0
   27.1680   15.9750    3.9390 C   0  0  0  0  0
   32.1140   16.6570   -0.2820 N   0  0  0  0  0
   29.4360   17.8990    1.7730 N   0  0  0  0  0
   27.7963   14.8111   -1.7329 H   0  0  0  0  0
   30.3641   19.6527    2.6656 H   0  0  0  0  0
   31.7171   14.1408   -2.3085 H   0  0  0  0  0
   33.1240   15.1704   -2.0226 H   0  0  0  0  0
   24.2662   14.0068    0.5320 H   0  0  0  0  0
   25.2921   14.9771    2.6092 H   0  0  0  0  0
   26.3273   16.6604    3.8312 H   0  0  0  0  0
   26.7993   14.9852    4.2084 H   0  0  0  0  0
   27.8377   16.3391    4.7181 H   0  0  0  0  0
  2  1  4  0  0  0
  1 11  4  0  0  0
  1 13  1  0  0  0
  3  2  4  0  0  0
  5  3  1  0  0  0
  3 15  4  0  0  0
  4 12  4  0  0  0
 19  4  4  0  0  0
  5  6  4  0  0  0
 10  5  4  0  0  0
  6  7  4  0  0  0
  6 19  4  0  0  0
  7 12  4  0  0  0
  7 18  4  0  0  0
  8  9  1  0  0  0
  8 10  4  0  0  0
  8 18  4  0  0  0
 11 14  4  0  0  0
 14 15  4  0  0  0
 15 16  1  0  0  0
 16 17  1  0  0  0
  2 20  1  0  0  0
  4 21  1  0  0  0
  9 22  1  0  0  0
  9 23  1  0  0  0
 11 24  1  0  0  0
 14 25  1  0  0  0
 17 26  1  0  0  0
 17 27  1  0  0  0
 17 28  1  0  0  0
M  END
$$$$
