5ick_ligand
  -I-interpret- 

183183  0  0  0  0  0  0  0  0999 V2000
   23.0380  -14.0990   67.0860 N   0  3  0  0  0
   22.4630  -12.7960   66.5420 C   0  0  0  0  0
   22.6560  -11.6550   67.5340 C   0  0  0  0  0
   21.8090  -10.7690   67.6500 O   0  0  0  0  0
   20.9620  -12.9480   66.2760 C   0  0  0  0  0
   20.6550  -13.9790   65.2260 C   0  0  0  0  0
   19.7760  -14.8190   65.4170 O   0  0  0  0  0
   21.3630  -13.9100   64.0910 N   0  0  0  0  0
   23.7660  -11.6980   68.2640 N   0  0  0  0  0
   24.0090  -10.7670   69.3350 C   0  0  0  0  0
   24.2640   -9.3910   68.7280 C   0  0  0  0  0
   23.7850   -8.3730   69.2490 O   0  0  0  0  0
   25.1940  -11.2340   70.2000 C   0  0  0  0  0
   24.9810   -9.3720   67.5980 N   0  0  0  0  0
   25.2300   -8.1000   66.8880 C   0  0  0  0  0
   23.9660   -7.4300   66.3370 C   0  0  0  0  0
   23.8090   -6.2310   66.4780 O   0  0  0  0  0
   26.2690   -8.2820   65.7920 C   0  0  0  0  0
   26.4810   -7.1320   64.8150 C   0  0  0  0  0
   26.8210   -5.8450   65.5130 C   0  0  0  0  0
   27.5800   -7.5330   63.8330 C   0  0  0  0  0
   23.0620   -8.1740   65.7110 N   0  0  0  0  0
   21.8420   -7.5460   65.2070 C   0  0  0  0  0
   20.9950   -7.1120   66.3980 C   0  0  0  0  0
   20.4180   -6.0490   66.3810 O   0  0  0  0  0
   21.0820   -8.4520   64.2650 C   0  0  0  0  0
   21.8810   -8.9000   63.0300 C   0  0  0  0  0
   21.0040   -9.8610   62.2500 C   0  0  0  0  0
   22.3460   -7.8210   62.0750 C   0  0  0  0  0
   20.9470   -7.8970   67.4600 N   0  0  0  0  0
   20.1520   -7.4560   68.6430 C   0  0  0  0  0
   20.6720   -6.1470   69.2450 C   0  0  0  0  0
   19.9000   -5.2410   69.5550 O   0  0  0  0  0
   20.0960   -8.5590   69.7130 C   0  0  0  0  0
   19.3540   -8.2010   71.0100 C   0  0  0  0  0
   17.9750   -7.5570   70.8660 C   0  0  0  0  0
   16.9920   -8.3410   70.1110 N   0  0  0  0  0
   15.8920   -7.8110   69.5650 C   0  0  0  0  0
   15.6250   -6.5120   69.6740 N   0  0  0  0  0
   15.0370   -8.5670   68.9020 N   0  0  0  0  0
   21.9910   -6.0530   69.3590 N   0  0  0  0  0
   22.6410   -4.8710   69.8410 C   0  0  0  0  0
   22.2960   -3.6510   69.0040 C   0  0  0  0  0
   22.0160   -2.5830   69.5370 O   0  0  0  0  0
   24.1620   -5.1090   69.8760 C   0  0  0  0  0
   24.9590   -3.8900   70.2320 C   0  0  0  0  0
   25.3820   -3.0160   69.2400 C   0  0  0  0  0
   25.2710   -3.5960   71.5800 C   0  0  0  0  0
   26.0880   -1.8670   69.5580 C   0  0  0  0  0
   25.9990   -2.4500   71.9150 C   0  0  0  0  0
   26.4030   -1.5860   70.9070 C   0  0  0  0  0
   27.1370   -0.4700   71.2090 O   0  0  0  0  0
   22.3520   -3.7940   67.6910 N   0  0  0  0  0
   22.0050   -2.6880   66.7950 C   0  0  0  0  0
   20.5300   -2.3380   66.8610 C   0  0  0  0  0
   20.1770   -1.1440   66.7900 O   0  0  0  0  0
   22.4140   -2.9910   65.3470 C   0  0  0  0  0
   23.9210   -3.0120   65.0750 C   0  0  0  0  0
   24.1360   -3.2310   63.5880 C   0  0  0  0  0
   24.6340   -1.7340   65.5000 C   0  0  0  0  0
   19.6730   -3.3370   67.0660 N   0  0  0  0  0
   18.2350   -3.0360   67.3070 C   0  0  0  0  0
   17.9580   -2.2250   68.5860 C   0  0  0  0  0
   17.1360   -1.3050   68.5650 O   0  0  0  0  0
   17.3460   -4.3010   67.2190 C   0  0  0  0  0
   17.3650   -4.9100   65.7840 C   0  0  0  0  0
   16.7850   -6.3110   65.6970 C   0  0  0  0  0
   16.6990   -3.9870   64.7650 C   0  0  0  0  0
   18.6930   -2.4780   69.6620 N   0  0  0  0  0
   18.3820   -1.8200   70.9310 C   0  0  0  0  0
   19.0430   -0.4740   71.2410 C   0  0  0  0  0
   18.5350    0.2410   72.0880 O   0  0  0  0  0
   18.6980   -2.7810   72.0720 C   0  0  0  0  0
   17.9880   -4.0990   71.9340 C   0  0  0  0  0
   16.8500   -4.1340   71.4360 O   0  0  0  0  0
   18.5780   -5.1160   72.3260 O   0  0  0  0  0
   20.1620   -0.1230   70.6180 N   0  0  0  0  0
   21.0660    0.8930   71.2150 C   0  0  0  0  0
   20.5010    2.3240   71.3080 C   0  0  0  0  0
   19.6570    2.7040   70.5040 O   0  0  0  0  0
   22.4560    0.8970   70.5410 C   0  0  0  0  0
   22.4980    1.3740   69.0980 C   0  0  0  0  0
   23.9310    1.6140   68.6490 C   0  0  0  0  0
   24.1740    1.2180   67.1840 C   0  0  0  0  0
   23.9390    2.2440   66.1190 N   0  3  0  0  0
   20.8950    3.0840   72.1860 O   0  0  0  0  0
   24.0366  -13.9829   67.2581 H   0  0  0  0  0
   22.5671  -14.3390   67.9584 H   0  0  0  0  0
   22.8936  -14.8438   66.4042 H   0  0  0  0  0
   22.9914  -12.5681   65.6163 H   0  0  0  0  0
   20.5884  -11.9882   65.9192 H   0  0  0  0  0
   20.4902  -13.2684   67.2049 H   0  0  0  0  0
   21.1834  -14.5728   63.3368 H   0  0  0  0  0
   22.0817  -13.1946   63.9809 H   0  0  0  0  0
   24.4659  -12.4112   68.0595 H   0  0  0  0  0
   23.1402  -10.7128   69.9911 H   0  0  0  0  0
   24.9685  -12.2119   70.6255 H   0  0  0  0  0
   26.0888  -11.3031   69.5814 H   0  0  0  0  0
   25.3607  -10.5165   71.0034 H   0  0  0  0  0
   25.3586  -10.2425   67.2238 H   0  0  0  0  0
   25.6199   -7.4165   67.6422 H   0  0  0  0  0
   25.9106   -9.1149   65.1871 H   0  0  0  0  0
   27.2203   -8.4021   66.3104 H   0  0  0  0  0
   25.5493   -6.9461   64.2807 H   0  0  0  0  0
   26.0076   -5.5718   66.1852 H   0  0  0  0  0
   27.7391   -5.9754   66.0858 H   0  0  0  0  0
   26.9620   -5.0578   64.7724 H   0  0  0  0  0
   28.5005   -7.7326   64.3816 H   0  0  0  0  0
   27.2747   -8.4301   63.2945 H   0  0  0  0  0
   27.7464   -6.7214   63.1246 H   0  0  0  0  0
   23.2172   -9.1740   65.5830 H   0  0  0  0  0
   22.1054   -6.6697   64.6148 H   0  0  0  0  0
   20.2231   -7.8874   63.9023 H   0  0  0  0  0
   20.8266   -9.3522   64.8241 H   0  0  0  0  0
   22.8001   -9.3307   63.4273 H   0  0  0  0  0
   20.7572  -10.7170   62.8780 H   0  0  0  0  0
   20.0877   -9.3527   61.9499 H   0  0  0  0  0
   21.5392  -10.2014   61.3635 H   0  0  0  0  0
   21.4805   -7.2867   61.6833 H   0  0  0  0  0
   22.9957   -7.1242   62.6046 H   0  0  0  0  0
   22.8954   -8.2781   61.2520 H   0  0  0  0  0
   21.4441   -8.7876   67.4707 H   0  0  0  0  0
   19.1405   -7.2645   68.2849 H   0  0  0  0  0
   21.1284   -8.7631   69.9970 H   0  0  0  0  0
   19.5503   -9.3907   69.2674 H   0  0  0  0  0
   19.9763   -7.4618   71.5143 H   0  0  0  0  0
   19.1885   -9.1454   71.5284 H   0  0  0  0  0
   18.1210   -6.6272   70.3162 H   0  0  0  0  0
   17.5764   -7.4449   71.8743 H   0  0  0  0  0
   17.1555   -9.3413   69.9965 H   0  0  0  0  0
   14.7798   -6.1279   69.2515 H   0  0  0  0  0
   16.2655   -5.9004   70.1800 H   0  0  0  0  0
   15.2117   -9.5669   68.8016 H   0  0  0  0  0
   22.5642   -6.8537   69.0930 H   0  0  0  0  0
   22.2830   -4.6649   70.8497 H   0  0  0  0  0
   24.4657   -5.4141   68.8746 H   0  0  0  0  0
   24.3555   -5.8586   70.6433 H   0  0  0  0  0
   25.1557   -3.2366   68.1968 H   0  0  0  0  0
   24.9395   -4.2719   72.3683 H   0  0  0  0  0
   26.3997   -1.1815   68.7699 H   0  0  0  0  0
   26.2461   -2.2379   72.9552 H   0  0  0  0  0
   27.2655   -0.4203   72.1591 H   0  0  0  0  0
   22.6414   -4.6885   67.2954 H   0  0  0  0  0
   22.5680   -1.8213   67.1413 H   0  0  0  0  0
   22.0003   -2.1898   64.7346 H   0  0  0  0  0
   22.0456   -3.9925   65.1246 H   0  0  0  0  0
   24.3478   -3.8189   65.6708 H   0  0  0  0  0
   23.6899   -4.1810   63.2937 H   0  0  0  0  0
   23.6670   -2.4199   63.0310 H   0  0  0  0  0
   25.2049   -3.2488   63.3755 H   0  0  0  0  0
   24.2155   -0.8877   64.9553 H   0  0  0  0  0
   24.4974   -1.5821   66.5707 H   0  0  0  0  0
   25.6973   -1.8213   65.2769 H   0  0  0  0  0
   20.0002   -4.3030   67.0579 H   0  0  0  0  0
   17.9511   -2.3765   66.4869 H   0  0  0  0  0
   16.3211   -4.0218   67.4633 H   0  0  0  0  0
   17.7319   -5.0448   67.9161 H   0  0  0  0  0
   18.4220   -5.0022   65.5342 H   0  0  0  0  0
   17.3584   -6.9807   66.3379 H   0  0  0  0  0
   15.7457   -6.2936   66.0250 H   0  0  0  0  0
   16.8361   -6.6606   64.6659 H   0  0  0  0  0
   15.6608   -3.8200   65.0520 H   0  0  0  0  0
   17.2280   -3.0343   64.7394 H   0  0  0  0  0
   16.7346   -4.4505   63.7791 H   0  0  0  0  0
   19.4744   -3.1310   69.6040 H   0  0  0  0  0
   17.3259   -1.5707   70.8278 H   0  0  0  0  0
   18.3662   -2.3178   73.0012 H   0  0  0  0  0
   19.7704   -2.9755   72.0584 H   0  0  0  0  0
   16.5774   -3.2441   71.2006 H   0  0  0  0  0
   20.4019   -0.5534   69.7249 H   0  0  0  0  0
   21.1663    0.5646   72.2495 H   0  0  0  0  0
   22.7929   -0.1396   70.5299 H   0  0  0  0  0
   23.0698    1.5944   71.1111 H   0  0  0  0  0
   21.9446    2.3099   69.0213 H   0  0  0  0  0
   22.0544    0.6080   68.4619 H   0  0  0  0  0
   24.5819    1.0003   69.2718 H   0  0  0  0  0
   24.1349    2.6806   68.7434 H   0  0  0  0  0
   23.4546    0.4250   66.9798 H   0  0  0  0  0
   25.2368    0.9833   67.1245 H   0  0  0  0  0
   24.1407    1.8368   65.2058 H   0  0  0  0  0
   22.9657    2.5475   66.1498 H   0  0  0  0  0
   24.5511    3.0442   66.2785 H   0  0  0  0  0
   21.5492    2.6350   72.7264 H   0  0  0  0  0
  1  2  1  0  0  0
  2  3  1  0  0  0
  2  5  1  0  0  0
  3  4  2  0  0  0
  3  9  1  0  0  0
  5  6  1  0  0  0
  6  7  2  0  0  0
  6  8  1  0  0  0
  9 10  1  0  0  0
 10 11  1  0  0  0
 10 13  1  0  0  0
 11 12  2  0  0  0
 11 14  1  0  0  0
 14 15  1  0  0  0
 15 16  1  0  0  0
 15 18  1  0  0  0
 16 17  2  0  0  0
 16 22  1  0  0  0
 18 19  1  0  0  0
 19 20  1  0  0  0
 19 21  1  0  0  0
 22 23  1  0  0  0
 23 24  1  0  0  0
 23 26  1  0  0  0
 24 25  2  0  0  0
 24 30  1  0  0  0
 26 27  1  0  0  0
 27 28  1  0  0  0
 27 29  1  0  0  0
 30 31  1  0  0  0
 31 32  1  0  0  0
 31 34  1  0  0  0
 32 33  2  0  0  0
 32 41  1  0  0  0
 34 35  1  0  0  0
 35 36  1  0  0  0
 36 37  1  0  0  0
 37 38  1  0  0  0
 38 39  1  0  0  0
 38 40  2  0  0  0
 41 42  1  0  0  0
 42 43  1  0  0  0
 42 45  1  0  0  0
 43 44  2  0  0  0
 43 53  1  0  0  0
 45 46  1  0  0  0
 46 47  4  0  0  0
 46 48  4  0  0  0
 47 49  4  0  0  0
 48 50  4  0  0  0
 49 51  4  0  0  0
 50 51  4  0  0  0
 51 52  1  0  0  0
 53 54  1  0  0  0
 54 55  1  0  0  0
 54 57  1  0  0  0
 55 56  2  0  0  0
 55 61  1  0  0  0
 57 58  1  0  0  0
 58 59  1  0  0  0
 58 60  1  0  0  0
 61 62  1  0  0  0
 62 63  1  0  0  0
 62 65  1  0  0  0
 63 64  2  0  0  0
 63 69  1  0  0  0
 65 66  1  0  0  0
 66 67  1  0  0  0
 66 68  1  0  0  0
 69 70  1  0  0  0
 70 71  1  0  0  0
 70 73  1  0  0  0
 71 72  2  0  0  0
 71 77  1  0  0  0
 73 74  1  0  0  0
 74 75  1  0  0  0
 74 76  2  0  0  0
 77 78  1  0  0  0
 78 79  1  0  0  0
 78 81  1  0  0  0
 79 80  2  0  0  0
 79 86  1  0  0  0
 81 82  1  0  0  0
 82 83  1  0  0  0
 83 84  1  0  0  0
 84 85  1  0  0  0
  1 87  1  0  0  0
  1 88  1  0  0  0
  1 89  1  0  0  0
  2 90  1  0  0  0
  5 91  1  0  0  0
  5 92  1  0  0  0
  8 93  1  0  0  0
  8 94  1  0  0  0
  9 95  1  0  0  0
 10 96  1  0  0  0
 13 97  1  0  0  0
 13 98  1  0  0  0
 13 99  1  0  0  0
 14100  1  0  0  0
 15101  1  0  0  0
 18102  1  0  0  0
 18103  1  0  0  0
 19104  1  0  0  0
 20105  1  0  0  0
 20106  1  0  0  0
 20107  1  0  0  0
 21108  1  0  0  0
 21109  1  0  0  0
 21110  1  0  0  0
 22111  1  0  0  0
 23112  1  0  0  0
 26113  1  0  0  0
 26114  1  0  0  0
 27115  1  0  0  0
 28116  1  0  0  0
 28117  1  0  0  0
 28118  1  0  0  0
 29119  1  0  0  0
 29120  1  0  0  0
 29121  1  0  0  0
 30122  1  0  0  0
 31123  1  0  0  0
 34124  1  0  0  0
 34125  1  0  0  0
 35126  1  0  0  0
 35127  1  0  0  0
 36128  1  0  0  0
 36129  1  0  0  0
 37130  1  0  0  0
 39131  1  0  0  0
 39132  1  0  0  0
 40133  1  0  0  0
 41134  1  0  0  0
 42135  1  0  0  0
 45136  1  0  0  0
 45137  1  0  0  0
 47138  1  0  0  0
 48139  1  0  0  0
 49140  1  0  0  0
 50141  1  0  0  0
 52142  1  0  0  0
 53143  1  0  0  0
 54144  1  0  0  0
 57145  1  0  0  0
 57146  1  0  0  0
 58147  1  0  0  0
 59148  1  0  0  0
 59149  1  0  0  0
 59150  1  0  0  0
 60151  1  0  0  0
 60152  1  0  0  0
 60153  1  0  0  0
 61154  1  0  0  0
 62155  1  0  0  0
 65156  1  0  0  0
 65157  1  0  0  0
 66158  1  0  0  0
 67159  1  0  0  0
 67160  1  0  0  0
 67161  1  0  0  0
 68162  1  0  0  0
 68163  1  0  0  0
 68164  1  0  0  0
 69165  1  0  0  0
 70166  1  0  0  0
 73167  1  0  0  0
 73168  1  0  0  0
 75169  1  0  0  0
 77170  1  0  0  0
 78171  1  0  0  0
 81172  1  0  0  0
 81173  1  0  0  0
 82174  1  0  0  0
 82175  1  0  0  0
 83176  1  0  0  0
 83177  1  0  0  0
 84178  1  0  0  0
 84179  1  0  0  0
 85180  1  0  0  0
 85181  1  0  0  0
 85182  1  0  0  0
 86183  1  0  0  0
M  END
$$$$
