### 
### Created by X-TOOL on Tue Oct 16 15:18:05 2018
### 

@<TRIPOS>MOLECULE
5ick_ligand
  182   182     1     0     0
SMALL
GAST_HUCK


@<TRIPOS>ATOM
      1 N          23.0380  -14.0990   67.0860 N.4       1 ASN         0.2396
      2 CA         22.4630  -12.7960   66.5420 C.3       1 ASN         0.0818
      3 C          22.6560  -11.6550   67.5340 C.2       1 ASN         0.2291
      4 O          21.8090  -10.7690   67.6500 O.2       1 ASN        -0.3905
      5 CB         20.9620  -12.9480   66.2760 C.3       1 ASN         0.0972
      6 CG         20.6550  -13.9790   65.2260 C.2       1 ASN         0.1813
      7 OD1        19.7760  -14.8190   65.4170 O.2       1 ASN        -0.3969
      8 ND2        21.3630  -13.9100   64.0910 N.am      1 ASN        -0.3006
      9 N          23.7660  -11.6980   68.2640 N.am      1 ASN        -0.2612
     10 CA         24.0090  -10.7670   69.3350 C.3       1 ASN         0.1283
     11 C          24.2640   -9.3910   68.7280 C.2       1 ASN         0.2036
     12 O          23.7850   -8.3730   69.2490 O.2       1 ASN        -0.3944
     13 CB         25.1940  -11.2340   70.2000 C.3       1 ASN        -0.0244
     14 N          24.9810   -9.3720   67.5980 N.am      1 ASN        -0.2637
     15 CA         25.2300   -8.1000   66.8880 C.3       1 ASN         0.1312
     16 C          23.9660   -7.4300   66.3370 C.2       1 ASN         0.2039
     17 O          23.8090   -6.2310   66.4780 O.2       1 ASN        -0.3944
     18 CB         26.2690   -8.2820   65.7920 C.3       1 ASN        -0.0101
     19 CG         26.4810   -7.1320   64.8150 C.3       1 ASN        -0.0425
     20 CD1        26.8210   -5.8450   65.5130 C.3       1 ASN        -0.0625
     21 CD2        27.5800   -7.5330   63.8330 C.3       1 ASN        -0.0625
     22 N          23.0620   -8.1740   65.7110 N.am      1 ASN        -0.2637
     23 CA         21.8420   -7.5460   65.2070 C.3       1 ASN         0.1312
     24 C          20.9950   -7.1120   66.3980 C.2       1 ASN         0.2039
     25 O          20.4180   -6.0490   66.3810 O.2       1 ASN        -0.3944
     26 CB         21.0820   -8.4520   64.2650 C.3       1 ASN        -0.0101
     27 CG         21.8810   -8.9000   63.0300 C.3       1 ASN        -0.0425
     28 CD1        21.0040   -9.8610   62.2500 C.3       1 ASN        -0.0625
     29 CD2        22.3460   -7.8210   62.0750 C.3       1 ASN        -0.0625
     30 N          20.9470   -7.8970   67.4600 N.am      1 ASN        -0.2637
     31 CA         20.1520   -7.4560   68.6430 C.3       1 ASN         0.1311
     32 C          20.6720   -6.1470   69.2450 C.2       1 ASN         0.2040
     33 O          19.9000   -5.2410   69.5550 O.2       1 ASN        -0.3944
     34 CB         20.0960   -8.5590   69.7130 C.3       1 ASN        -0.0092
     35 CG         19.3540   -8.2010   71.0100 C.3       1 ASN        -0.0156
     36 CD         17.9750   -7.5570   70.8660 C.3       1 ASN         0.0627
     37 NE         16.9920   -8.3410   70.1110 N.pl3     1 ASN        -0.2723
     38 CZ         15.8920   -7.8110   69.5650 C.cat     1 ASN         0.2882
     39 NH1        15.6250   -6.5120   69.6740 N.pl3     1 ASN        -0.2849
     40 NH2        15.0370   -8.5670   68.9020 N.pl3     1 ASN        -0.2849
     41 N          21.9910   -6.0530   69.3590 N.am      1 ASN        -0.2621
     42 CA         22.6410   -4.8710   69.8410 C.3       1 ASN         0.1390
     43 C          22.2960   -3.6510   69.0040 C.2       1 ASN         0.2057
     44 O          22.0160   -2.5830   69.5370 O.2       1 ASN        -0.3942
     45 CB         24.1620   -5.1090   69.8760 C.3       1 ASN         0.0163
     46 CG         24.9590   -3.8900   70.2320 C.ar      1 ASN        -0.0493
     47 CD1        25.3820   -3.0160   69.2400 C.ar      1 ASN        -0.0685
     48 CD2        25.2710   -3.5960   71.5800 C.ar      1 ASN        -0.0685
     49 CE1        26.0880   -1.8670   69.5580 C.ar      1 ASN        -0.0398
     50 CE2        25.9990   -2.4500   71.9150 C.ar      1 ASN        -0.0398
     51 CZ         26.4030   -1.5860   70.9070 C.ar      1 ASN         0.0805
     52 OH         27.1370   -0.4700   71.2090 O.3       1 ASN        -0.3376
     53 N          22.3520   -3.7940   67.6910 N.am      1 ASN        -0.2636
     54 CA         22.0050   -2.6880   66.7950 C.3       1 ASN         0.1312
     55 C          20.5300   -2.3380   66.8610 C.2       1 ASN         0.2039
     56 O          20.1770   -1.1440   66.7900 O.2       1 ASN        -0.3944
     57 CB         22.4140   -2.9910   65.3470 C.3       1 ASN        -0.0101
     58 CG         23.9210   -3.0120   65.0750 C.3       1 ASN        -0.0425
     59 CD1        24.1360   -3.2310   63.5880 C.3       1 ASN        -0.0625
     60 CD2        24.6340   -1.7340   65.5000 C.3       1 ASN        -0.0625
     61 N          19.6730   -3.3370   67.0660 N.am      1 ASN        -0.2637
     62 CA         18.2350   -3.0360   67.3070 C.3       1 ASN         0.1312
     63 C          17.9580   -2.2250   68.5860 C.2       1 ASN         0.2040
     64 O          17.1360   -1.3050   68.5650 O.2       1 ASN        -0.3944
     65 CB         17.3460   -4.3010   67.2190 C.3       1 ASN        -0.0101
     66 CG         17.3650   -4.9100   65.7840 C.3       1 ASN        -0.0425
     67 CD1        16.7850   -6.3110   65.6970 C.3       1 ASN        -0.0625
     68 CD2        16.6990   -3.9870   64.7650 C.3       1 ASN        -0.0625
     69 N          18.6930   -2.4780   69.6620 N.am      1 ASN        -0.2622
     70 CA         18.3820   -1.8200   70.9310 C.3       1 ASN         0.1423
     71 C          19.0430   -0.4740   71.2410 C.2       1 ASN         0.2050
     72 O          18.5350    0.2410   72.0880 O.2       1 ASN        -0.3943
     73 CB         18.6980   -2.7810   72.0720 C.3       1 ASN         0.0406
     74 CG         17.9880   -4.0990   71.9340 C.2       1 ASN         0.0393
     75 OD1        16.8500   -4.1340   71.4360 O.co2     1 ASN        -0.5688
     76 OD2        18.5780   -5.1160   72.3260 O.co2     1 ASN        -0.5688
     77 N          20.1620   -0.1230   70.6180 N.am      1 ASN        -0.2694
     78 CA         21.0660    0.8930   71.2150 C.3       1 ASN         0.0944
     79 C          20.5010    2.3240   71.3080 C.2       1 ASN         0.0601
     80 O          19.6570    2.7040   70.5040 O.co2     1 ASN        -0.5666
     81 CB         22.4560    0.8970   70.5410 C.3       1 ASN        -0.0177
     82 CG         22.4980    1.3740   69.0980 C.3       1 ASN        -0.0446
     83 CD         23.9310    1.6140   68.6490 C.3       1 ASN        -0.0125
     84 CE         24.1740    1.2180   67.1840 C.3       1 ASN        -0.0354
     85 NZ         23.9390    2.2440   66.1190 N.4       1 ASN         0.2185
     86 OXT        20.8950    3.0840   72.1860 O.co2     1 ASN        -0.5666
     87 H1         22.8975  -14.8354   66.4122 H         1 ASN         0.2017
     88 H2         22.5720  -14.3382   67.9472 H         1 ASN         0.2017
     89 H3         24.0246  -13.9849   67.2582 H         1 ASN         0.2017
     90 H4         22.9765  -12.5480   65.6014 H         1 ASN         0.1125
     91 H5         20.5648  -11.9781   65.9421 H         1 ASN         0.0585
     92 H6         20.4677  -13.2437   67.2131 H         1 ASN         0.0585
     93 H7         21.1996  -14.5712   63.3588 H         1 ASN         0.1814
     94 H8         22.0549  -13.1973   63.9759 H         1 ASN         0.1814
     95 H9         24.4522  -12.3973   68.0635 H         1 ASN         0.1884
     96 H10        23.1144  -10.7129   69.9728 H         1 ASN         0.0797
     97 H11        25.3633  -10.5106   71.0112 H         1 ASN         0.0277
     98 H12        26.0977  -11.3041   69.5768 H         1 ASN         0.0277
     99 H13        24.9676  -12.2208   70.6301 H         1 ASN         0.0277
    100 H14        25.3512  -10.2254   67.2312 H         1 ASN         0.1883
    101 H15        25.6557   -7.4062   67.6279 H         1 ASN         0.0800
    102 H16        25.9734   -9.1626   65.2028 H         1 ASN         0.0315
    103 H17        27.2336   -8.4767   66.2836 H         1 ASN         0.0315
    104 H18        25.5477   -6.9756   64.2542 H         1 ASN         0.0298
    105 H19        26.9636   -5.0497   64.7666 H         1 ASN         0.0232
    106 H20        27.7475   -5.9752   66.0915 H         1 ASN         0.0232
    107 H21        26.0008   -5.5681   66.1917 H         1 ASN         0.0232
    108 H22        27.3038   -8.4761   63.3387 H         1 ASN         0.0232
    109 H23        28.5265   -7.6677   64.3770 H         1 ASN         0.0232
    110 H24        27.7011   -6.7441   63.0761 H         1 ASN         0.0232
    111 H25        23.2142   -9.1544   65.5855 H         1 ASN         0.1883
    112 H26        22.1267   -6.6462   64.6419 H         1 ASN         0.0800
    113 H27        20.1866   -7.9149   63.9189 H         1 ASN         0.0315
    114 H28        20.7781   -9.3504   64.8223 H         1 ASN         0.0315
    115 H29        22.7756   -9.4298   63.3890 H         1 ASN         0.0298
    116 H30        21.5430  -10.2053   61.3551 H         1 ASN         0.0232
    117 H31        20.0788   -9.3492   61.9465 H         1 ASN         0.0232
    118 H32        20.7542  -10.7254   62.8827 H         1 ASN         0.0232
    119 H33        22.9862   -7.1063   62.6129 H         1 ASN         0.0232
    120 H34        21.4725   -7.2936   61.6642 H         1 ASN         0.0232
    121 H35        22.9172   -8.2791   61.2541 H         1 ASN         0.0232
    122 H36        21.4343   -8.7702   67.4705 H         1 ASN         0.1883
    123 H37        19.1239   -7.2734   68.2970 H         1 ASN         0.0800
    124 H38        21.1302   -8.8232   69.9787 H         1 ASN         0.0313
    125 H39        19.5966   -9.4331   69.2697 H         1 ASN         0.0313
    126 H40        19.9893   -7.5019   71.5736 H         1 ASN         0.0301
    127 H41        19.2281   -9.1289   71.5872 H         1 ASN         0.0301
    128 H42        18.1029   -6.5908   70.3560 H         1 ASN         0.0689
    129 H43        17.5718   -7.3882   71.8754 H         1 ASN         0.0689
    130 H44        17.1571   -9.3511   69.9953 H         1 ASN         0.2642
    131 H45        14.7723   -6.1238   69.2461 H         1 ASN         0.2615
    132 H46        16.2710   -5.8947   70.1863 H         1 ASN         0.2615
    133 H47        15.2142   -9.5764   68.7993 H         1 ASN         0.2615
    134 H48        14.1926   -8.1475   68.4873 H         1 ASN         0.2615
    135 H49        22.5530   -6.8380   69.0982 H         1 ASN         0.1885
    136 H50        22.2956   -4.6832   70.8683 H         1 ASN         0.0821
    137 H51        24.4817   -5.4537   68.8815 H         1 ASN         0.0453
    138 H52        24.3733   -5.8907   70.6205 H         1 ASN         0.0453
    139 H53        25.1569   -3.2354   68.2026 H         1 ASN         0.0530
    140 H54        24.9413   -4.2681   72.3640 H         1 ASN         0.0530
    141 H55        26.3980   -1.1853   68.7743 H         1 ASN         0.0525
    142 H56        26.2448   -2.2391   72.9495 H         1 ASN         0.0525
    143 H57        27.3283    0.0075   70.4103 H         1 ASN         0.2458
    144 H58        22.6357   -4.6710   67.3032 H         1 ASN         0.1883
    145 H59        22.5720   -1.8057   67.1267 H         1 ASN         0.0800
    146 H60        21.9643   -2.2229   64.7006 H         1 ASN         0.0315
    147 H61        22.0084   -3.9781   65.0803 H         1 ASN         0.0315
    148 H62        24.3614   -3.8521   65.6320 H         1 ASN         0.0298
    149 H63        25.2145   -3.2492   63.3722 H         1 ASN         0.0232
    150 H64        23.6632   -2.4130   63.0247 H         1 ASN         0.0232
    151 H65        23.6862   -4.1895   63.2897 H         1 ASN         0.0232
    152 H66        24.4817   -1.5700   66.5770 H         1 ASN         0.0232
    153 H67        24.2249   -0.8816   64.9379 H         1 ASN         0.0232
    154 H68        25.7101   -1.8279   65.2920 H         1 ASN         0.0232
    155 H69        19.9938   -4.2841   67.0581 H         1 ASN         0.1883
    156 H70        17.9256   -2.3887   66.4732 H         1 ASN         0.0800
    157 H71        16.3120   -4.0308   67.4795 H         1 ASN         0.0315
    158 H72        17.7195   -5.0514   67.9313 H         1 ASN         0.0315
    159 H73        18.4240   -4.9919   65.4981 H         1 ASN         0.0298
    160 H74        16.8360   -6.6650   64.6568 H         1 ASN         0.0232
    161 H75        15.7360   -6.2948   66.0277 H         1 ASN         0.0232
    162 H76        17.3629   -6.9879   66.3434 H         1 ASN         0.0232
    163 H77        17.1328   -2.9793   64.8446 H         1 ASN         0.0232
    164 H78        15.6186   -3.9380   64.9658 H         1 ASN         0.0232
    165 H79        16.8661   -4.3790   63.7509 H         1 ASN         0.0232
    166 H80        19.4591   -3.1182   69.6052 H         1 ASN         0.1884
    167 H81        17.2974   -1.6370   70.9242 H         1 ASN         0.0819
    168 H82        18.3924   -2.3143   73.0200 H         1 ASN         0.0478
    169 H83        19.7823   -2.9653   72.0868 H         1 ASN         0.0478
    170 H84        20.3972   -0.5449   69.7424 H         1 ASN         0.1875
    171 H85        21.2250    0.5685   72.2539 H         1 ASN         0.0726
    172 H86        22.8449   -0.1317   70.5664 H         1 ASN         0.0305
    173 H87        23.1137    1.5523   71.1309 H         1 ASN         0.0305
    174 H88        21.9314    2.3129   69.0121 H         1 ASN         0.0269
    175 H89        22.0412    0.6096   68.4522 H         1 ASN         0.0269
    176 H90        24.6027    1.0224   69.2883 H         1 ASN         0.0317
    177 H91        24.1609    2.6833   68.7661 H         1 ASN         0.0317
    178 H92        23.5150    0.3650   66.9644 H         1 ASN         0.0813
    179 H93        25.2241    0.9005   67.1031 H         1 ASN         0.0813
    180 H94        24.1381    1.8426   65.2160 H         1 ASN         0.1994
    181 H95        24.5434    3.0353   66.2755 H         1 ASN         0.1994
    182 H96        22.9773    2.5447   66.1484 H         1 ASN         0.1994
@<TRIPOS>BOND
     1    1    2 1  
     2    2    3 1  
     3    2    5 1  
     4    3    4 2  
     5    3    9 am 
     6    5    6 1  
     7    6    7 2  
     8    6    8 am 
     9    9   10 1  
    10   10   11 1  
    11   10   13 1  
    12   11   12 2  
    13   11   14 am 
    14   14   15 1  
    15   15   16 1  
    16   15   18 1  
    17   16   17 2  
    18   16   22 am 
    19   18   19 1  
    20   19   20 1  
    21   19   21 1  
    22   22   23 1  
    23   23   24 1  
    24   23   26 1  
    25   24   25 2  
    26   24   30 am 
    27   26   27 1  
    28   27   28 1  
    29   27   29 1  
    30   30   31 1  
    31   31   32 1  
    32   31   34 1  
    33   32   33 2  
    34   32   41 am 
    35   34   35 1  
    36   35   36 1  
    37   36   37 1  
    38   37   38 ar 
    39   38   39 ar 
    40   38   40 ar 
    41   41   42 1  
    42   42   43 1  
    43   42   45 1  
    44   43   44 2  
    45   43   53 am 
    46   45   46 1  
    47   46   47 ar 
    48   46   48 ar 
    49   47   49 ar 
    50   48   50 ar 
    51   49   51 ar 
    52   50   51 ar 
    53   51   52 1  
    54   53   54 1  
    55   54   55 1  
    56   54   57 1  
    57   55   56 2  
    58   55   61 am 
    59   57   58 1  
    60   58   59 1  
    61   58   60 1  
    62   61   62 1  
    63   62   63 1  
    64   62   65 1  
    65   63   64 2  
    66   63   69 am 
    67   65   66 1  
    68   66   67 1  
    69   66   68 1  
    70   69   70 1  
    71   70   71 1  
    72   70   73 1  
    73   71   72 2  
    74   71   77 am 
    75   73   74 1  
    76   74   75 ar 
    77   74   76 ar 
    78   77   78 1  
    79   78   79 1  
    80   78   81 1  
    81   79   80 ar 
    82   79   86 ar 
    83   81   82 1  
    84   82   83 1  
    85   83   84 1  
    86   84   85 1  
    87    1   87 1  
    88    1   88 1  
    89    1   89 1  
    90    2   90 1  
    91    5   91 1  
    92    5   92 1  
    93    8   93 1  
    94    8   94 1  
    95    9   95 1  
    96   10   96 1  
    97   13   97 1  
    98   13   98 1  
    99   13   99 1  
   100   14  100 1  
   101   15  101 1  
   102   18  102 1  
   103   18  103 1  
   104   19  104 1  
   105   20  105 1  
   106   20  106 1  
   107   20  107 1  
   108   21  108 1  
   109   21  109 1  
   110   21  110 1  
   111   22  111 1  
   112   23  112 1  
   113   26  113 1  
   114   26  114 1  
   115   27  115 1  
   116   28  116 1  
   117   28  117 1  
   118   28  118 1  
   119   29  119 1  
   120   29  120 1  
   121   29  121 1  
   122   30  122 1  
   123   31  123 1  
   124   34  124 1  
   125   34  125 1  
   126   35  126 1  
   127   35  127 1  
   128   36  128 1  
   129   36  129 1  
   130   37  130 1  
   131   39  131 1  
   132   39  132 1  
   133   40  133 1  
   134   40  134 1  
   135   41  135 1  
   136   42  136 1  
   137   45  137 1  
   138   45  138 1  
   139   47  139 1  
   140   48  140 1  
   141   49  141 1  
   142   50  142 1  
   143   52  143 1  
   144   53  144 1  
   145   54  145 1  
   146   57  146 1  
   147   57  147 1  
   148   58  148 1  
   149   59  149 1  
   150   59  150 1  
   151   59  151 1  
   152   60  152 1  
   153   60  153 1  
   154   60  154 1  
   155   61  155 1  
   156   62  156 1  
   157   65  157 1  
   158   65  158 1  
   159   66  159 1  
   160   67  160 1  
   161   67  161 1  
   162   67  162 1  
   163   68  163 1  
   164   68  164 1  
   165   68  165 1  
   166   69  166 1  
   167   70  167 1  
   168   73  168 1  
   169   73  169 1  
   170   77  170 1  
   171   78  171 1  
   172   81  172 1  
   173   81  173 1  
   174   82  174 1  
   175   82  175 1  
   176   83  176 1  
   177   83  177 1  
   178   84  178 1  
   179   84  179 1  
   180   85  180 1  
   181   85  181 1  
   182   85  182 1  
@<TRIPOS>SUBSTRUCTURE
     1 ASN         1

