5nwe_ligand
  -I-interpret- 

 45 45  0  0  0  0  0  0  0  0999 V2000
    8.9170    1.4420   44.9720 C   0  0  0  0  0
    8.0720    0.6560   44.4870 O   0  0  0  0  0
    8.6880    2.6840   45.0390 O   0  0  0  0  0
   10.2000    0.9100   45.4640 C   0  0  0  0  0
   10.4350   -0.5930   45.4580 C   0  0  0  0  0
   11.9090   -1.0200   45.3990 C   0  0  0  0  0
   12.6730   -0.2810   46.4990 C   0  0  0  0  0
   14.0960   -0.6200   46.4840 N   0  0  0  0  0
   14.7420   -1.2290   47.5000 C   0  0  0  0  0
   14.2070   -1.6740   48.4810 O   0  0  0  0  0
   16.2480   -1.3340   47.3870 C   0  0  0  0  0
   12.5200    1.2520   46.4010 C   0  0  0  0  0
   11.1580    1.7390   45.9160 C   0  0  0  0  0
   12.8170    1.8850   47.6630 O   0  0  0  0  0
   13.8520    2.8910   47.5110 C   0  0  0  0  0
   13.2450    4.2160   46.9860 C   0  0  0  0  0
   14.6430    3.0960   48.8030 C   0  0  0  0  0
   15.5780    1.9200   49.1280 C   0  0  0  0  0
   12.0940    4.7470   47.8290 C   0  0  0  0  0
   11.9880   -2.4820   45.5710 N   0  3  0  0  0
    9.4418    3.1262   45.4363 H   0  0  0  0  0
    9.9587   -0.9821   44.5581 H   0  0  0  0  0
   10.0335   -0.9777   46.3955 H   0  0  0  0  0
   12.3562   -0.7665   44.4378 H   0  0  0  0  0
   12.2296   -0.6107   47.4386 H   0  0  0  0  0
   14.6347   -0.3805   45.6516 H   0  0  0  0  0
   16.7113   -0.8063   48.2207 H   0  0  0  0  0
   16.5406   -2.3837   47.4121 H   0  0  0  0  0
   16.5726   -0.8873   46.4472 H   0  0  0  0  0
   13.2429    1.5411   45.6382 H   0  0  0  0  0
   10.9515    2.8091   45.9367 H   0  0  0  0  0
   14.5652    2.5313   46.7693 H   0  0  0  0  0
   12.8511    4.0184   45.9890 H   0  0  0  0  0
   14.0359    4.9657   47.0100 H   0  0  0  0  0
   13.9270    3.1864   49.6198 H   0  0  0  0  0
   15.2600    3.9857   48.6769 H   0  0  0  0  0
   14.9891    1.0097   49.2405 H   0  0  0  0  0
   16.2949    1.7926   48.3169 H   0  0  0  0  0
   16.1106    2.1268   50.0562 H   0  0  0  0  0
   11.2907    4.0105   47.8499 H   0  0  0  0  0
   12.4445    4.9331   48.8442 H   0  0  0  0  0
   11.7255    5.6762   47.3944 H   0  0  0  0  0
   11.4688   -2.9398   44.8218 H   0  0  0  0  0
   12.9645   -2.7748   45.5377 H   0  0  0  0  0
   11.5851   -2.7394   46.4720 H   0  0  0  0  0
  1  2  2  0  0  0
  1  3  1  0  0  0
  1  4  1  0  0  0
  4  5  1  0  0  0
  4 13  2  0  0  0
  5  6  1  0  0  0
  6  7  1  0  0  0
  6 20  1  0  0  0
  7  8  1  0  0  0
  7 12  1  0  0  0
  8  9  1  0  0  0
  9 10  2  0  0  0
  9 11  1  0  0  0
 12 13  1  0  0  0
 12 14  1  0  0  0
 14 15  1  0  0  0
 15 16  1  0  0  0
 15 17  1  0  0  0
 16 19  1  0  0  0
 17 18  1  0  0  0
  3 21  1  0  0  0
  5 22  1  0  0  0
  5 23  1  0  0  0
  6 24  1  0  0  0
  7 25  1  0  0  0
  8 26  1  0  0  0
 11 27  1  0  0  0
 11 28  1  0  0  0
 11 29  1  0  0  0
 12 30  1  0  0  0
 13 31  1  0  0  0
 15 32  1  0  0  0
 16 33  1  0  0  0
 16 34  1  0  0  0
 17 35  1  0  0  0
 17 36  1  0  0  0
 18 37  1  0  0  0
 18 38  1  0  0  0
 18 39  1  0  0  0
 19 40  1  0  0  0
 19 41  1  0  0  0
 19 42  1  0  0  0
 20 43  1  0  0  0
 20 44  1  0  0  0
 20 45  1  0  0  0
M  END
$$$$
