4hla_ligand
  -I-interpret- 

 75 78  0  0  0  0  0  0  0  0999 V2000
    9.9800  -15.7090    8.5230 N   0  0  0  0  0
    9.7270  -15.5410    7.2020 C   0  0  0  0  0
   10.1240  -14.3820    6.5370 C   0  0  0  0  0
    9.8470  -14.2310    5.1810 C   0  0  0  0  0
    9.1850  -15.2410    4.4820 C   0  0  0  0  0
    8.7820  -16.3820    5.1610 C   0  0  0  0  0
    9.0550  -16.5360    6.5110 C   0  0  0  0  0
    8.8290  -15.1140    2.9270 S   0  0  0  0  0
    7.6470  -15.8910    2.7030 O   0  0  0  0  0
    8.5500  -13.7600    2.6110 O   0  0  0  0  0
    9.9900  -15.6100    1.9070 N   0  0  0  0  0
   11.3040  -15.0760    2.3000 C   0  0  0  0  0
   11.9840  -14.2730    1.1890 C   0  0  0  0  0
   12.4000  -15.1560    0.0280 C   0  0  0  0  0
   11.1400  -13.1050    0.6910 C   0  0  0  0  0
   10.0260  -17.0800    1.8030 C   0  0  0  0  0
    9.8480  -17.4520    0.3370 C   0  0  0  0  0
   10.1070  -18.8400    0.1300 O   0  0  0  0  0
    8.4440  -17.0820   -0.1260 C   0  0  0  0  0
    8.4600  -17.3080   -1.5530 N   0  0  0  0  0
    8.3640  -16.3270   -2.4420 C   0  0  0  0  0
    8.2620  -15.1490   -2.1570 O   0  0  0  0  0
    8.4060  -16.7450   -3.8280 O   0  0  0  0  0
    7.9770  -15.8390   -4.8240 C   0  0  0  0  0
    8.9530  -16.0840   -5.9560 C   0  0  0  0  0
    8.4510  -17.2590   -6.5990 O   0  0  0  0  0
    7.0310  -17.3530   -6.4180 C   0  0  0  0  0
    6.6590  -18.6310   -5.8900 O   0  0  0  0  0
    5.9780  -18.5190   -4.6420 C   0  0  0  0  0
    5.7640  -17.0350   -4.3950 C   0  0  0  0  0
    6.6560  -16.3170   -5.3830 C   0  0  0  0  0
    7.4140  -18.0610    0.4180 C   0  0  0  0  0
    5.4280  -16.6240   -0.0670 C   0  0  0  0  0
    4.2110  -16.3950   -0.6960 C   0  0  0  0  0
    3.6630  -17.3560   -1.5340 C   0  0  0  0  0
    4.3370  -18.5580   -1.7310 C   0  0  0  0  0
    5.5540  -18.7970   -1.1040 C   0  0  0  0  0
    6.0980  -17.8230   -0.2720 C   0  0  0  0  0
   10.4677  -14.9812    9.0455 H   0  0  0  0  0
    9.6827  -16.5632    8.9946 H   0  0  0  0  0
   10.6503  -13.5954    7.0777 H   0  0  0  0  0
   10.1484  -13.3203    4.6634 H   0  0  0  0  0
    8.2449  -17.1657    4.6268 H   0  0  0  0  0
    8.7405  -17.4415    7.0299 H   0  0  0  0  0
   11.9477  -15.9231    2.5372 H   0  0  0  0  0
   11.1491  -14.4055    3.1453 H   0  0  0  0  0
   12.8807  -13.8507    1.6425 H   0  0  0  0  0
   13.1005  -15.9127    0.3814 H   0  0  0  0  0
   11.5190  -15.6421   -0.3910 H   0  0  0  0  0
   12.8785  -14.5456   -0.7378 H   0  0  0  0  0
   10.1968  -13.4824    0.2959 H   0  0  0  0  0
   10.9421  -12.4229    1.5178 H   0  0  0  0  0
   11.6798  -12.5776   -0.0955 H   0  0  0  0  0
    9.2291  -17.5198    2.4028 H   0  0  0  0  0
   10.9769  -17.4609    2.1756 H   0  0  0  0  0
   10.5686  -16.8903   -0.2574 H   0  0  0  0  0
    9.9890  -19.0513   -0.7990 H   0  0  0  0  0
    8.1958  -16.0691    0.1910 H   0  0  0  0  0
    8.5492  -18.2656   -1.8929 H   0  0  0  0  0
    7.9092  -14.8182   -4.4479 H   0  0  0  0  0
    9.9748  -16.2133   -5.5992 H   0  0  0  0  0
    9.0161  -15.2356   -6.6374 H   0  0  0  0  0
    6.5328  -17.2066   -7.3764 H   0  0  0  0  0
    6.5625  -18.9668   -3.8383 H   0  0  0  0  0
    5.0265  -19.0501   -4.6690 H   0  0  0  0  0
    6.0129  -16.7650   -3.3687 H   0  0  0  0  0
    4.7187  -16.7580   -4.5320 H   0  0  0  0  0
    6.1055  -15.4438   -5.7331 H   0  0  0  0  0
    7.2978  -17.9128    1.4916 H   0  0  0  0  0
    7.7456  -19.0829    0.2339 H   0  0  0  0  0
    5.8564  -15.8640    0.5864 H   0  0  0  0  0
    3.6836  -15.4556   -0.5306 H   0  0  0  0  0
    2.7123  -17.1710   -2.0340 H   0  0  0  0  0
    3.9065  -19.3183   -2.3827 H   0  0  0  0  0
    6.0781  -19.7395   -1.2625 H   0  0  0  0  0
  2  1  1  0  0  0
  3  2  4  0  0  0
  7  2  4  0  0  0
  4  3  4  0  0  0
  5  4  4  0  0  0
  5  6  4  0  0  0
  8  5  1  0  0  0
  6  7  4  0  0  0
  8  9  2  0  0  0
  8 10  2  0  0  0
 11  8  1  0  0  0
 11 12  1  0  0  0
 16 11  1  0  0  0
 12 13  1  0  0  0
 13 14  1  0  0  0
 13 15  1  0  0  0
 17 16  1  0  0  0
 17 18  1  0  0  0
 19 17  1  0  0  0
 19 20  1  0  0  0
 32 19  1  0  0  0
 20 21  1  0  0  0
 21 22  2  0  0  0
 21 23  1  0  0  0
 23 24  1  0  0  0
 24 25  1  0  0  0
 24 31  1  0  0  0
 25 26  1  0  0  0
 27 26  1  0  0  0
 27 28  1  0  0  0
 31 27  1  0  0  0
 29 28  1  0  0  0
 30 29  1  0  0  0
 31 30  1  0  0  0
 38 32  1  0  0  0
 33 34  4  0  0  0
 33 38  4  0  0  0
 34 35  4  0  0  0
 35 36  4  0  0  0
 36 37  4  0  0  0
 37 38  4  0  0  0
  1 39  1  0  0  0
  1 40  1  0  0  0
  3 41  1  0  0  0
  4 42  1  0  0  0
  6 43  1  0  0  0
  7 44  1  0  0  0
 12 45  1  0  0  0
 12 46  1  0  0  0
 13 47  1  0  0  0
 14 48  1  0  0  0
 14 49  1  0  0  0
 14 50  1  0  0  0
 15 51  1  0  0  0
 15 52  1  0  0  0
 15 53  1  0  0  0
 16 54  1  0  0  0
 16 55  1  0  0  0
 17 56  1  0  0  0
 18 57  1  0  0  0
 19 58  1  0  0  0
 20 59  1  0  0  0
 24 60  1  0  0  0
 25 61  1  0  0  0
 25 62  1  0  0  0
 27 63  1  0  0  0
 29 64  1  0  0  0
 29 65  1  0  0  0
 30 66  1  0  0  0
 30 67  1  0  0  0
 31 68  1  0  0  0
 32 69  1  0  0  0
 32 70  1  0  0  0
 33 71  1  0  0  0
 34 72  1  0  0  0
 35 73  1  0  0  0
 36 74  1  0  0  0
 37 75  1  0  0  0
M  END
$$$$
