4ue1_ligand
  -I-interpret- 

205210  0  0  0  0  0  0  0  0999 V2000
    5.4240   13.0330  -49.7450 C   0  0  0  0  0
    6.2760   13.6630  -49.0990 O   0  0  0  0  0
    5.8400   11.8780  -50.6590 C   0  0  0  0  0
    4.1230   13.3160  -49.7030 N   0  0  0  0  0
    3.5830   14.3310  -48.8010 C   0  0  0  0  0
    3.6470   13.8410  -47.3500 C   0  0  0  0  0
    3.3850   12.6660  -47.0700 O   0  0  0  0  0
    2.1440   14.6890  -49.1950 C   0  0  0  0  0
    2.1520   15.2290  -50.5220 O   0  0  0  0  0
    1.5480   15.7400  -48.2380 C   0  0  0  0  0
    4.0380   14.7290  -46.4350 N   0  0  0  0  0
    4.1320   14.3750  -45.0190 C   0  0  0  0  0
    2.7390   14.1990  -44.4180 C   0  0  0  0  0
    1.7410   14.8290  -44.8470 O   0  0  0  0  0
    4.9120   15.4280  -44.2440 C   0  0  0  0  0
    4.2180   16.6670  -44.1910 O   0  0  0  0  0
    2.6740   13.3520  -43.4090 N   0  0  0  0  0
    1.4610   13.2740  -42.5980 C   0  0  0  0  0
    1.0540   14.6680  -42.1000 C   0  0  0  0  0
   -0.0970   15.0680  -42.1590 O   0  0  0  0  0
    1.6470   12.3370  -41.4030 C   0  0  0  0  0
    0.5280   12.4620  -40.4140 C   0  0  0  0  0
   -0.7280   11.9160  -40.7040 C   0  0  0  0  0
    0.6690   13.2620  -39.2720 C   0  0  0  0  0
   -1.8000   12.1170  -39.8320 C   0  0  0  0  0
   -0.3930   13.4480  -38.4000 C   0  0  0  0  0
   -1.6340   12.8910  -38.6840 C   0  0  0  0  0
    0.0160   18.2420  -41.8060 O   0  0  0  0  0
    1.0590   17.6100  -42.0500 C   0  0  0  0  0
    1.8530   16.8030  -41.0270 C   0  0  0  0  0
    3.2460   17.3780  -40.8280 C   0  0  0  0  0
    2.0830   15.4580  -41.5940 N   0  0  0  0  0
    1.0860   16.6910  -39.7070 C   0  0  0  0  0
    1.0150   17.9900  -38.8920 C   0  0  0  0  0
   -0.2080   17.9580  -37.9820 C   0  0  0  0  0
   -0.2270   19.2750  -37.2360 C   0  0  0  0  0
    1.5080   17.5530  -43.3840 N   0  0  0  0  0
    0.8550   18.3570  -44.4280 C   0  0  0  0  0
   -0.5680   17.8590  -44.7560 C   0  0  0  0  0
   -1.4780   18.6760  -44.9490 O   0  0  0  0  0
    1.7700   18.4110  -45.6520 C   0  0  0  0  0
    1.1080   19.0980  -46.8210 C   0  0  0  0  0
    2.0940   19.6750  -47.8080 C   0  0  0  0  0
    3.2580   19.2160  -47.8820 O   0  0  0  0  0
    1.6850   20.6080  -48.5210 O   0  0  0  0  0
   -0.7800   16.5330  -44.7760 N   0  0  0  0  0
   -2.1280   15.9860  -44.9900 C   0  0  0  0  0
   -3.0780   16.4270  -43.8750 C   0  0  0  0  0
   -4.2440   16.7980  -44.1240 O   0  0  0  0  0
   -2.1190   14.4540  -45.0420 C   0  0  0  0  0
   -1.6730   13.8560  -46.3520 C   0  0  0  0  0
   -2.4010   14.0680  -47.5230 C   0  0  0  0  0
   -0.5370   13.0530  -46.4180 C   0  0  0  0  0
   -1.9990   13.5130  -48.7220 C   0  0  0  0  0
   -0.1260   12.4910  -47.6200 C   0  0  0  0  0
   -0.8660   12.7350  -48.7620 C   0  0  0  0  0
   -0.4630   12.1830  -49.9590 O   0  0  0  0  0
   -2.5980   16.3740  -42.6380 N   0  0  0  0  0
   -3.4800   16.6700  -41.5030 C   0  0  0  0  0
   -3.7920   18.1670  -41.4290 C   0  0  0  0  0
   -4.9210   18.5790  -41.1330 O   0  0  0  0  0
   -2.8280   16.2110  -40.2160 C   0  0  0  0  0
   -3.7760   16.1250  -39.0390 C   0  0  0  0  0
   -3.8850   17.0220  -37.9760 C   0  0  0  0  0
   -4.7200   15.0790  -38.7760 C   0  0  0  0  0
   -4.8740   16.5930  -37.1210 N   0  0  0  0  0
   -5.3820   15.3970  -37.5700 C   0  0  0  0  0
   -5.0590   13.8920  -39.4440 C   0  0  0  0  0
   -6.3920   14.5770  -37.0280 C   0  0  0  0  0
   -6.0610   13.0680  -38.9070 C   0  0  0  0  0
   -6.7090   13.4160  -37.6950 C   0  0  0  0  0
   -4.8470   21.9100  -42.5290 O   0  0  0  0  0
   -4.1300   20.9280  -42.7870 C   0  0  0  0  0
   -2.9240   20.5450  -41.9590 C   0  0  0  0  0
   -1.6780   21.1050  -42.6390 C   0  0  0  0  0
   -2.7470   19.0700  -41.8700 N   0  0  0  0  0
   -3.1350   21.0900  -40.5530 C   0  0  0  0  0
   -1.8660   20.8960  -39.7340 C   0  0  0  0  0
   -2.2320   20.3330  -38.3870 C   0  0  0  0  0
   -1.0480   20.3370  -37.4490 C   0  0  0  0  0
   -4.5250   19.9410  -43.8590 N   0  0  0  0  0
   -5.6670   20.1940  -44.7730 C   0  0  0  0  0
   -7.0440   19.8610  -44.1880 C   0  0  0  0  0
   -8.0510   20.1090  -44.8470 O   0  0  0  0  0
   -5.4560   19.4520  -46.0830 C   0  0  0  0  0
   -4.2270   19.8620  -46.8750 C   0  0  0  0  0
   -4.1410   18.9440  -48.0830 C   0  0  0  0  0
   -4.3300   21.3250  -47.2960 C   0  0  0  0  0
   -7.0860   19.3120  -42.9710 N   0  0  0  0  0
   -8.3650   19.1590  -42.2330 C   0  0  0  0  0
   -8.8550   20.4910  -41.6200 C   0  0  0  0  0
   -9.9510   20.9490  -41.9540 O   0  0  0  0  0
   -8.2560   18.0980  -41.1340 C   0  0  0  0  0
   -8.3240   16.6290  -41.4800 C   0  0  0  0  0
   -7.9860   15.8520  -40.2220 C   0  0  0  0  0
   -9.7170   16.2630  -41.9490 C   0  0  0  0  0
   -8.0660   21.0980  -40.6950 N   0  0  0  0  0
   -8.4750   22.4220  -40.2310 C   0  0  0  0  0
   -8.1170   23.5120  -41.2490 C   0  0  0  0  0
   -8.9580   24.3190  -41.6040 O   0  0  0  0  0
   -7.6870   22.6130  -38.9220 C   0  0  0  0  0
   -6.5230   21.6880  -39.0120 C   0  0  0  0  0
   -6.9290   20.5590  -39.9160 C   0  0  0  0  0
   -6.9900   23.5760  -41.7070 O   0  0  0  0  0
    6.5229   12.2490  -51.4233 H   0  0  0  0  0
    6.3376   11.1094  -50.0676 H   0  0  0  0  0
    4.9548   11.4559  -51.1348 H   0  0  0  0  0
    3.4857   12.8099  -50.3179 H   0  0  0  0  0
    4.1906   15.2321  -48.8847 H   0  0  0  0  0
    1.5352   13.7864  -49.1419 H   0  0  0  0  0
    2.5217   14.5821  -51.1273 H   0  0  0  0  0
    2.1574   16.6433  -48.2673 H   0  0  0  0  0
    0.5303   15.9765  -48.5485 H   0  0  0  0  0
    1.5363   15.3408  -47.2238 H   0  0  0  0  0
    4.2768   15.6760  -46.7292 H   0  0  0  0  0
    4.6683   13.4291  -44.9432 H   0  0  0  0  0
    5.8639   15.5901  -44.7497 H   0  0  0  0  0
    5.0509   15.0695  -43.2241 H   0  0  0  0  0
    4.7391   17.3035  -43.6961 H   0  0  0  0  0
    3.4703   12.7516  -43.1949 H   0  0  0  0  0
    0.6705   12.8722  -43.2318 H   0  0  0  0  0
    2.5773   12.6039  -40.9015 H   0  0  0  0  0
    1.6631   11.3116  -41.7724 H   0  0  0  0  0
   -0.8696   11.3321  -41.6134 H   0  0  0  0  0
    1.6250   13.7438  -39.0668 H   0  0  0  0  0
   -2.7690   11.6677  -40.0493 H   0  0  0  0  0
   -0.2541   14.0321  -37.4903 H   0  0  0  0  0
   -2.4752   13.0586  -38.0114 H   0  0  0  0  0
    3.7836   17.3607  -41.7760 H   0  0  0  0  0
    3.1663   18.4054  -40.4727 H   0  0  0  0  0
    3.7835   16.7787  -40.0931 H   0  0  0  0  0
    3.0352   15.0930  -41.6156 H   0  0  0  0  0
    1.6153   15.9613  -39.0942 H   0  0  0  0  0
    0.0610   16.4186  -39.9585 H   0  0  0  0  0
    0.9387   18.8393  -39.5709 H   0  0  0  0  0
    1.9152   18.0859  -38.2849 H   0  0  0  0  0
   -0.1553   17.1187  -37.2886 H   0  0  0  0  0
   -1.1214   17.8261  -38.5621 H   0  0  0  0  0
    0.5032   19.3844  -36.4342 H   0  0  0  0  0
    2.2928   16.9489  -43.6279 H   0  0  0  0  0
    0.7088   19.3722  -44.0591 H   0  0  0  0  0
    2.0069   17.3886  -45.9464 H   0  0  0  0  0
    2.6635   18.9756  -45.3856 H   0  0  0  0  0
    0.5145   19.9228  -46.4265 H   0  0  0  0  0
    0.5114   18.3529  -47.3473 H   0  0  0  0  0
    3.3612   18.5043  -47.2460 H   0  0  0  0  0
    0.0053   15.8963  -44.6408 H   0  0  0  0  0
   -2.4722   16.3730  -45.9491 H   0  0  0  0  0
   -3.1481   14.1305  -44.8858 H   0  0  0  0  0
   -1.4060   14.1205  -44.2880 H   0  0  0  0  0
   -3.3014   14.6814  -47.4911 H   0  0  0  0  0
    0.0386   12.8625  -45.5122 H   0  0  0  0  0
   -2.5756   13.6904  -49.6298 H   0  0  0  0  0
    0.7667   11.8669  -47.6622 H   0  0  0  0  0
    0.3378   11.6719  -49.8209 H   0  0  0  0  0
   -1.6210   16.1288  -42.4775 H   0  0  0  0  0
   -4.4184   16.1339  -41.6447 H   0  0  0  0  0
   -2.0641   16.9458  -39.9617 H   0  0  0  0  0
   -2.4398   15.2077  -40.3913 H   0  0  0  0  0
   -3.2821   17.9204  -37.8438 H   0  0  0  0  0
   -4.5511   13.6136  -40.3674 H   0  0  0  0  0
   -6.9066   14.8542  -36.1080 H   0  0  0  0  0
   -6.3433   12.1524  -39.4267 H   0  0  0  0  0
   -7.4708   12.7530  -37.2848 H   0  0  0  0  0
   -1.5927   20.6848  -43.6411 H   0  0  0  0  0
   -1.7579   22.1901  -42.7042 H   0  0  0  0  0
   -0.7966   20.8387  -42.0557 H   0  0  0  0  0
   -1.8444   18.6742  -42.1327 H   0  0  0  0  0
   -3.9580   20.5564  -40.0775 H   0  0  0  0  0
   -3.3714   22.1526  -40.6082 H   0  0  0  0  0
   -1.3611   21.8536  -39.6068 H   0  0  0  0  0
   -1.1974   20.2072  -40.2505 H   0  0  0  0  0
   -2.5649   19.3037  -38.5205 H   0  0  0  0  0
   -3.0185   20.9517  -37.9549 H   0  0  0  0  0
   -0.8370   21.2572  -36.9041 H   0  0  0  0  0
   -3.9926   19.0766  -43.9579 H   0  0  0  0  0
   -5.6789   21.2711  -44.9399 H   0  0  0  0  0
   -6.3189   19.6769  -46.7099 H   0  0  0  0  0
   -5.3241   18.4008  -45.8268 H   0  0  0  0  0
   -3.3246   19.7688  -46.2708 H   0  0  0  0  0
   -4.0532   17.9108  -47.7470 H   0  0  0  0  0
   -5.0412   19.0557  -48.6874 H   0  0  0  0  0
   -3.2671   19.2094  -48.6780 H   0  0  0  0  0
   -5.2154   21.4616  -47.9169 H   0  0  0  0  0
   -4.4069   21.9527  -46.4082 H   0  0  0  0  0
   -3.4410   21.6022  -47.8626 H   0  0  0  0  0
   -6.2197   18.9906  -42.5390 H   0  0  0  0  0
   -9.1001   18.8345  -42.9695 H   0  0  0  0  0
   -9.1320   18.2679  -40.5080 H   0  0  0  0  0
   -7.2534   18.2328  -40.7282 H   0  0  0  0  0
   -7.6251   16.3947  -42.2830 H   0  0  0  0  0
   -6.9836   16.1207  -39.8888 H   0  0  0  0  0
   -8.7070   16.0952  -39.4416 H   0  0  0  0  0
   -8.0254   14.7837  -40.4347 H   0  0  0  0  0
  -10.4337   16.4758  -41.1558 H   0  0  0  0  0
   -9.9670   16.8493  -42.8332 H   0  0  0  0  0
   -9.7492   15.2015  -42.1943 H   0  0  0  0  0
   -9.5536   22.4970  -40.0931 H   0  0  0  0  0
   -9.7864   24.1345  -41.1553 H   0  0  0  0  0
   -8.3040   22.3912  -38.0512 H   0  0  0  0  0
   -7.3640   23.6469  -38.8003 H   0  0  0  0  0
   -6.2505   21.3135  -38.0253 H   0  0  0  0  0
   -5.6491   22.2048  -39.4086 H   0  0  0  0  0
   -6.1102   20.2359  -40.5588 H   0  0  0  0  0
   -7.2050   19.6659  -39.3553 H   0  0  0  0  0
  1  2  2  0  0  0
  1  3  1  0  0  0
  4  1  1  0  0  0
  5  4  1  0  0  0
  6  5  1  0  0  0
  5  8  1  0  0  0
  6  7  2  0  0  0
 11  6  1  0  0  0
  8  9  1  0  0  0
  8 10  1  0  0  0
 12 11  1  0  0  0
 13 12  1  0  0  0
 12 15  1  0  0  0
 13 14  2  0  0  0
 17 13  1  0  0  0
 15 16  1  0  0  0
 18 17  1  0  0  0
 19 18  1  0  0  0
 18 21  1  0  0  0
 19 20  2  0  0  0
 32 19  1  0  0  0
 21 22  1  0  0  0
 22 23  4  0  0  0
 22 24  4  0  0  0
 23 25  4  0  0  0
 24 26  4  0  0  0
 25 27  4  0  0  0
 26 27  4  0  0  0
 29 28  2  0  0  0
 29 30  1  0  0  0
 37 29  1  0  0  0
 30 31  1  0  0  0
 30 32  1  0  0  0
 30 33  1  0  0  0
 33 34  1  0  0  0
 34 35  1  0  0  0
 35 36  1  0  0  0
 36 80  2  0  0  0
 38 37  1  0  0  0
 39 38  1  0  0  0
 38 41  1  0  0  0
 39 40  2  0  0  0
 46 39  1  0  0  0
 41 42  1  0  0  0
 42 43  1  0  0  0
 43 44  1  0  0  0
 43 45  2  0  0  0
 47 46  1  0  0  0
 48 47  1  0  0  0
 47 50  1  0  0  0
 48 49  2  0  0  0
 58 48  1  0  0  0
 50 51  1  0  0  0
 51 52  4  0  0  0
 51 53  4  0  0  0
 52 54  4  0  0  0
 53 55  4  0  0  0
 54 56  4  0  0  0
 55 56  4  0  0  0
 56 57  1  0  0  0
 59 58  1  0  0  0
 60 59  1  0  0  0
 59 62  1  0  0  0
 60 61  2  0  0  0
 76 60  1  0  0  0
 62 63  1  0  0  0
 63 64  4  0  0  0
 63 65  4  0  0  0
 64 66  4  0  0  0
 65 67  4  0  0  0
 65 68  4  0  0  0
 67 66  4  0  0  0
 67 69  4  0  0  0
 68 70  4  0  0  0
 69 71  4  0  0  0
 70 71  4  0  0  0
 73 72  2  0  0  0
 74 73  1  0  0  0
 73 81  1  0  0  0
 74 75  1  0  0  0
 74 76  1  0  0  0
 74 77  1  0  0  0
 77 78  1  0  0  0
 78 79  1  0  0  0
 79 80  1  0  0  0
 81 82  1  0  0  0
 82 83  1  0  0  0
 82 85  1  0  0  0
 83 84  2  0  0  0
 83 89  1  0  0  0
 85 86  1  0  0  0
 86 87  1  0  0  0
 86 88  1  0  0  0
 89 90  1  0  0  0
 90 91  1  0  0  0
 90 93  1  0  0  0
 91 92  2  0  0  0
 91 97  1  0  0  0
 93 94  1  0  0  0
 94 95  1  0  0  0
 94 96  1  0  0  0
 97 98  1  0  0  0
 97103  1  0  0  0
 98 99  1  0  0  0
 98101  1  0  0  0
 99100  1  0  0  0
 99104  2  0  0  0
101102  1  0  0  0
102103  1  0  0  0
  3105  1  0  0  0
  3106  1  0  0  0
  3107  1  0  0  0
  4108  1  0  0  0
  5109  1  0  0  0
  8110  1  0  0  0
  9111  1  0  0  0
 10112  1  0  0  0
 10113  1  0  0  0
 10114  1  0  0  0
 11115  1  0  0  0
 12116  1  0  0  0
 15117  1  0  0  0
 15118  1  0  0  0
 16119  1  0  0  0
 17120  1  0  0  0
 18121  1  0  0  0
 21122  1  0  0  0
 21123  1  0  0  0
 23124  1  0  0  0
 24125  1  0  0  0
 25126  1  0  0  0
 26127  1  0  0  0
 27128  1  0  0  0
 31129  1  0  0  0
 31130  1  0  0  0
 31131  1  0  0  0
 32132  1  0  0  0
 33133  1  0  0  0
 33134  1  0  0  0
 34135  1  0  0  0
 34136  1  0  0  0
 35137  1  0  0  0
 35138  1  0  0  0
 36139  1  0  0  0
 37140  1  0  0  0
 38141  1  0  0  0
 41142  1  0  0  0
 41143  1  0  0  0
 42144  1  0  0  0
 42145  1  0  0  0
 44146  1  0  0  0
 46147  1  0  0  0
 47148  1  0  0  0
 50149  1  0  0  0
 50150  1  0  0  0
 52151  1  0  0  0
 53152  1  0  0  0
 54153  1  0  0  0
 55154  1  0  0  0
 57155  1  0  0  0
 58156  1  0  0  0
 59157  1  0  0  0
 62158  1  0  0  0
 62159  1  0  0  0
 64160  1  0  0  0
 68161  1  0  0  0
 69162  1  0  0  0
 70163  1  0  0  0
 71164  1  0  0  0
 75165  1  0  0  0
 75166  1  0  0  0
 75167  1  0  0  0
 76168  1  0  0  0
 77169  1  0  0  0
 77170  1  0  0  0
 78171  1  0  0  0
 78172  1  0  0  0
 79173  1  0  0  0
 79174  1  0  0  0
 80175  1  0  0  0
 81176  1  0  0  0
 82177  1  0  0  0
 85178  1  0  0  0
 85179  1  0  0  0
 86180  1  0  0  0
 87181  1  0  0  0
 87182  1  0  0  0
 87183  1  0  0  0
 88184  1  0  0  0
 88185  1  0  0  0
 88186  1  0  0  0
 89187  1  0  0  0
 90188  1  0  0  0
 93189  1  0  0  0
 93190  1  0  0  0
 94191  1  0  0  0
 95192  1  0  0  0
 95193  1  0  0  0
 95194  1  0  0  0
 96195  1  0  0  0
 96196  1  0  0  0
 96197  1  0  0  0
 98198  1  0  0  0
100199  1  0  0  0
101200  1  0  0  0
101201  1  0  0  0
102202  1  0  0  0
102203  1  0  0  0
103204  1  0  0  0
103205  1  0  0  0
M  END
$$$$
