### 
### Created by X-TOOL on Mon Sep 10 21:13:26 2018
### 

@<TRIPOS>MOLECULE
4ue1_ligand
  204   209     1     0     0
SMALL
GAST_HUCK


@<TRIPOS>ATOM
      1 C           5.4240   13.0330  -49.7450 C.2       1 ACE         0.1752
      2 O           6.2760   13.6630  -49.0990 O.2       1 ACE        -0.3972
      3 CH3         5.8400   11.8780  -50.6590 C.3       1 ACE         0.0258
      4 N           4.1230   13.3160  -49.7030 N.am      1 THR        -0.2635
      5 CA          3.5830   14.3310  -48.8010 C.3       1 THR         0.1564
      6 C           3.6470   13.8410  -47.3500 C.2       1 THR         0.2065
      7 O           3.3850   12.6660  -47.0700 O.2       1 THR        -0.3943
      8 CB          2.1440   14.6890  -49.1950 C.3       1 THR         0.0924
      9 OG1         2.1520   15.2290  -50.5220 O.3       1 THR        -0.3874
     10 CG2         1.5480   15.7400  -48.2380 C.3       1 THR        -0.0346
     11 N           4.0380   14.7290  -46.4350 N.am      1 SER        -0.2615
     12 CA          4.1320   14.3750  -45.0190 C.3       1 SER         0.1539
     13 C           2.7390   14.1990  -44.4180 C.2       1 SER         0.2063
     14 O           1.7410   14.8290  -44.8470 O.2       1 SER        -0.3943
     15 CB          4.9120   15.4280  -44.2440 C.3       1 SER         0.0843
     16 OG          4.2180   16.6670  -44.1910 O.3       1 SER        -0.3903
     17 N           2.6740   13.3520  -43.4090 N.am      1 PHE        -0.2619
     18 CA          1.4610   13.2740  -42.5980 C.3       1 PHE         0.1402
     19 C           1.0540   14.6680  -42.1000 C.2       1 PHE         0.2030
     20 O          -0.0970   15.0680  -42.1590 O.2       1 PHE        -0.3945
     21 CB          1.6470   12.3370  -41.4030 C.3       1 PHE         0.0214
     22 CG          0.5280   12.4620  -40.4140 C.ar      1 PHE        -0.0386
     23 CD1        -0.7280   11.9160  -40.7040 C.ar      1 PHE        -0.0601
     24 CD2         0.6690   13.2620  -39.2720 C.ar      1 PHE        -0.0601
     25 CE1        -1.8000   12.1170  -39.8320 C.ar      1 PHE        -0.0686
     26 CE2        -0.3930   13.4480  -38.4000 C.ar      1 PHE        -0.0686
     27 CZ         -1.6340   12.8910  -38.6840 C.ar      1 PHE        -0.0687
     28 OAE         0.0160   18.2420  -41.8060 O.2       1 2JN        -0.3419
     29 CAG         1.0590   17.6100  -42.0500 C.2       1 2JN         0.2263
     30 CAQ         1.8530   16.8030  -41.0270 C.3       1 2JN         0.1304
     31 CAA         3.2460   17.3780  -40.8280 C.3       1 2JN        -0.0320
     32 NAC         2.0830   15.4580  -41.5940 N.am      1 2JN        -0.2741
     33 CAO         1.0860   16.6910  -39.7070 C.3       1 2JN        -0.0186
     34 CAM         1.0150   17.9900  -38.8920 C.3       1 2JN        -0.0449
     35 CAK        -0.2080   17.9580  -37.9820 C.3       1 2JN        -0.0365
     36 CAI        -0.2270   19.2750  -37.2360 C.2       1 2JN        -0.0987
     37 N           1.5080   17.5530  -43.3840 N.am      1 GLU        -0.2628
     38 CA          0.8550   18.3570  -44.4280 C.3       1 GLU         0.1326
     39 C          -0.5680   17.8590  -44.7560 C.2       1 GLU         0.2043
     40 O          -1.4780   18.6760  -44.9490 O.2       1 GLU        -0.3944
     41 CB          1.7700   18.4110  -45.6520 C.3       1 GLU        -0.0007
     42 CG          1.1080   19.0980  -46.8210 C.3       1 GLU         0.0044
     43 CD          2.0940   19.6750  -47.8080 C.2       1 GLU         0.0350
     44 OE1         3.2580   19.2160  -47.8820 O.co2     1 GLU        -0.5690
     45 OE2         1.6850   20.6080  -48.5210 O.co2     1 GLU        -0.5690
     46 N          -0.7800   16.5330  -44.7760 N.am      1 TYR        -0.2621
     47 CA         -2.1280   15.9860  -44.9900 C.3       1 TYR         0.1390
     48 C          -3.0780   16.4270  -43.8750 C.2       1 TYR         0.2058
     49 O          -4.2440   16.7980  -44.1240 O.2       1 TYR        -0.3942
     50 CB         -2.1190   14.4540  -45.0420 C.3       1 TYR         0.0163
     51 CG         -1.6730   13.8560  -46.3520 C.ar      1 TYR        -0.0493
     52 CD1        -2.4010   14.0680  -47.5230 C.ar      1 TYR        -0.0685
     53 CD2        -0.5370   13.0530  -46.4180 C.ar      1 TYR        -0.0685
     54 CE1        -1.9990   13.5130  -48.7220 C.ar      1 TYR        -0.0398
     55 CE2        -0.1260   12.4910  -47.6200 C.ar      1 TYR        -0.0398
     56 CZ         -0.8660   12.7350  -48.7620 C.ar      1 TYR         0.0805
     57 OH         -0.4630   12.1830  -49.9590 O.3       1 TYR        -0.3376
     58 N          -2.5980   16.3740  -42.6380 N.am      1 TRP        -0.2625
     59 CA         -3.4800   16.6700  -41.5030 C.3       1 TRP         0.1349
     60 C          -3.7920   18.1670  -41.4290 C.2       1 TRP         0.2022
     61 O          -4.9210   18.5790  -41.1330 O.2       1 TRP        -0.3946
     62 CB         -2.8280   16.2110  -40.2160 C.3       1 TRP         0.0042
     63 CG         -3.7760   16.1250  -39.0390 C.2       1 TRP        -0.0418
     64 CD1        -3.8850   17.0220  -37.9760 C.2       1 TRP         0.0167
     65 CD2        -4.7200   15.0790  -38.7760 C.ar      1 TRP        -0.0214
     66 NE1        -4.8740   16.5930  -37.1210 N.pl3     1 TRP        -0.2890
     67 CE2        -5.3820   15.3970  -37.5700 C.ar      1 TRP         0.0603
     68 CE3        -5.0590   13.8920  -39.4440 C.ar      1 TRP        -0.0747
     69 CZ2        -6.3920   14.5770  -37.0280 C.ar      1 TRP        -0.0443
     70 CZ3        -6.0610   13.0680  -38.9070 C.ar      1 TRP        -0.0792
     71 CH2        -6.7090   13.4160  -37.6950 C.ar      1 TRP        -0.0768
     72 OAE        -4.8470   21.9100  -42.5290 O.2       1 2JN        -0.3419
     73 CAG        -4.1300   20.9280  -42.7870 C.2       1 2JN         0.2263
     74 CAQ        -2.9240   20.5450  -41.9590 C.3       1 2JN         0.1304
     75 CAA        -1.6780   21.1050  -42.6390 C.3       1 2JN        -0.0320
     76 NAC        -2.7470   19.0700  -41.8700 N.am      1 2JN        -0.2742
     77 CAO        -3.1350   21.0900  -40.5530 C.3       1 2JN        -0.0186
     78 CAM        -1.8660   20.8960  -39.7340 C.3       1 2JN        -0.0449
     79 CAK        -2.2320   20.3330  -38.3870 C.3       1 2JN        -0.0365
     80 CAI        -1.0480   20.3370  -37.4490 C.2       1 2JN        -0.0987
     81 N          -4.5250   19.9410  -43.8590 N.am      1 LEU        -0.2629
     82 CA         -5.6670   20.1940  -44.7730 C.3       1 LEU         0.1314
     83 C          -7.0440   19.8610  -44.1880 C.2       1 LEU         0.2041
     84 O          -8.0510   20.1090  -44.8470 O.2       1 LEU        -0.3944
     85 CB         -5.4560   19.4520  -46.0830 C.3       1 LEU        -0.0099
     86 CG         -4.2270   19.8620  -46.8750 C.3       1 LEU        -0.0425
     87 CD1        -4.1410   18.9440  -48.0830 C.3       1 LEU        -0.0625
     88 CD2        -4.3300   21.3250  -47.2960 C.3       1 LEU        -0.0625
     89 N          -7.0860   19.3120  -42.9710 N.am      1 LEU        -0.2637
     90 CA         -8.3650   19.1590  -42.2330 C.3       1 LEU         0.1314
     91 C          -8.8550   20.4910  -41.6200 C.2       1 LEU         0.2058
     92 O          -9.9510   20.9490  -41.9540 O.2       1 LEU        -0.3942
     93 CB         -8.2560   18.0980  -41.1340 C.3       1 LEU        -0.0101
     94 CG         -8.3240   16.6290  -41.4800 C.3       1 LEU        -0.0425
     95 CD1        -7.9860   15.8520  -40.2220 C.3       1 LEU        -0.0625
     96 CD2        -9.7170   16.2630  -41.9490 C.3       1 LEU        -0.0625
     97 N          -8.0660   21.0980  -40.6950 N.am      1 PRO        -0.2556
     98 CA         -8.4750   22.4220  -40.2310 C.3       1 PRO         0.0972
     99 C          -8.1170   23.5120  -41.2490 C.2       1 PRO         0.0603
    100 O          -8.9580   24.3190  -41.6040 O.co2     1 PRO        -0.5666
    101 CB         -7.6870   22.6130  -38.9220 C.3       1 PRO        -0.0159
    102 CG         -6.5230   21.6880  -39.0120 C.3       1 PRO        -0.0288
    103 CD         -6.9290   20.5590  -39.9160 C.3       1 PRO         0.0362
    104 OXT        -6.9900   23.5760  -41.7070 O.co2     1 PRO        -0.5666
    105 H1          4.9474   11.4512  -51.1398 H         1 ACE         0.0467
    106 H2          6.3423   11.1016  -50.0633 H         1 ACE         0.0467
    107 H3          6.5292   12.2511  -51.4309 H         1 ACE         0.0467
    108 H4          3.4982   12.8198  -50.3058 H         1 THR         0.1883
    109 H5          4.2004   15.2372  -48.8879 H         1 THR         0.0826
    110 H6          1.5241   13.7808  -49.1671 H         1 THR         0.0639
    111 H7          1.2648   15.4544  -50.7763 H         1 THR         0.2101
    112 H8          0.5185   15.9747  -48.5464 H         1 THR         0.0257
    113 H9          2.1583   16.6545  -48.2716 H         1 THR         0.0257
    114 H10         1.5417   15.3409  -47.2130 H         1 THR         0.0257
    115 H11         4.2721   15.6574  -46.7234 H         1 SER         0.1884
    116 H12         4.6687   13.4183  -44.9378 H         1 SER         0.0823
    117 H13         5.8834   15.5850  -44.7357 H         1 SER         0.0606
    118 H14         5.0745   15.0669  -43.2177 H         1 SER         0.0606
    119 H15         4.0784   16.9885  -45.0740 H         1 SER         0.2097
    120 H16         3.4547   12.7634  -43.1991 H         1 PHE         0.1885
    121 H17         0.6514   12.8768  -43.2279 H         1 PHE         0.0823
    122 H18         2.5941   12.5846  -40.9012 H         1 PHE         0.0474
    123 H19         1.6852   11.2998  -41.7672 H         1 PHE         0.0474
    124 H20        -0.8689   11.3353  -41.6084 H         1 PHE         0.0557
    125 H21         1.6197   13.7411  -39.0679 H         1 PHE         0.0557
    126 H22        -2.7637   11.6702  -40.0481 H         1 PHE         0.0599
    127 H23        -0.2549   14.0289  -37.4953 H         1 PHE         0.0599
    128 H24        -2.4706   13.0577  -38.0151 H         1 PHE         0.0559
    129 H25         3.7894   16.7740  -40.0864 H         1 2JN         0.0242
    130 H26         3.1669   18.4149  -40.4694 H         1 2JN         0.0242
    131 H27         3.7897   17.3611  -41.7841 H         1 2JN         0.0242
    132 H28         3.0166   15.1002  -41.6152 H         1 2JN         0.1839
    133 H29         1.5782   15.9257  -39.0890 H         1 2JN         0.0279
    134 H30         0.0578   16.3731  -39.9345 H         1 2JN         0.0279
    135 H31         0.9393   18.8477  -39.5765 H         1 2JN         0.0284
    136 H32         1.9238   18.0882  -38.2801 H         1 2JN         0.0284
    137 H33        -0.1312   17.1210  -37.2724 H         1 2JN         0.0388
    138 H34        -1.1240   17.8480  -38.5810 H         1 2JN         0.0388
    139 H35         0.5025   19.3843  -36.4349 H         1 2JN         0.0450
    140 H36         2.2774   16.9607  -43.6232 H         1 GLU         0.1889
    141 H37         0.7528   19.3829  -44.0445 H         1 GLU         0.0803
    142 H38         2.0321   17.3838  -45.9454 H         1 GLU         0.0330
    143 H39         2.6849   18.9616  -45.3878 H         1 GLU         0.0330
    144 H40         0.4797   19.9149  -46.4364 H         1 GLU         0.0433
    145 H41         0.4767   18.3655  -47.3452 H         1 GLU         0.0433
    146 H42        -0.0101   15.9087  -44.6435 H         1 TYR         0.1885
    147 H43        -2.5051   16.3683  -45.9500 H         1 TYR         0.0821
    148 H44        -3.1406   14.1011  -44.8378 H         1 TYR         0.0453
    149 H45        -1.4416   14.0913  -44.2549 H         1 TYR         0.0453
    150 H46        -3.2965   14.6781  -47.4913 H         1 TYR         0.0530
    151 H47         0.0355   12.8636  -45.5172 H         1 TYR         0.0530
    152 H48        -2.5724   13.6894  -49.6249 H         1 TYR         0.0525
    153 H49         0.7617   11.8703  -47.6619 H         1 TYR         0.0525
    154 H50        -0.4529   11.2362  -49.8823 H         1 TYR         0.2458
    155 H51        -1.6402   16.1336  -42.4806 H         1 TRP         0.1884
    156 H52        -4.4237   16.1213  -41.6382 H         1 TRP         0.0815
    157 H53        -2.0265   16.9205  -39.9627 H         1 TRP         0.0397
    158 H54        -2.3953   15.2138  -40.3845 H         1 TRP         0.0397
    159 H55        -3.2827   17.9196  -37.8439 H         1 TRP         0.0795
    160 H56        -5.1857   17.0911  -36.2750 H         1 TRP         0.2216
    161 H57        -4.5539   13.6151  -40.3623 H         1 TRP         0.0540
    162 H58        -6.9038   14.8527  -36.1130 H         1 TRP         0.0541
    163 H59        -6.3417   12.1574  -39.4238 H         1 TRP         0.0510
    164 H60        -7.4666   12.7567  -37.2871 H         1 TRP         0.0530
    165 H61        -0.7877   20.8369  -42.0512 H         1 2JN         0.0242
    166 H62        -1.7573   22.2001  -42.7054 H         1 2JN         0.0242
    167 H63        -1.5907   20.6817  -43.6505 H         1 2JN         0.0242
    168 H64        -1.8621   18.6819  -42.1275 H         1 2JN         0.1839
    169 H65        -3.9661   20.5526  -40.0730 H         1 2JN         0.0279
    170 H66        -3.3747   22.1621  -40.6081 H         1 2JN         0.0279
    171 H67        -1.3598   21.8639  -39.6037 H         1 2JN         0.0284
    172 H68        -1.1942   20.1980  -40.2550 H         1 2JN         0.0284
    173 H69        -2.5840   19.2987  -38.5148 H         1 2JN         0.0388
    174 H70        -3.0366   20.9430  -37.9505 H         1 2JN         0.0388
    175 H71        -0.8372   21.2563  -36.9046 H         1 2JN         0.0450
    176 H72        -4.0030   19.0936  -43.9560 H         1 LEU         0.1889
    177 H73        -5.6672   21.2716  -44.9937 H         1 LEU         0.0802
    178 H74        -6.3395   19.6229  -46.7156 H         1 LEU         0.0315
    179 H75        -5.3701   18.3793  -45.8551 H         1 LEU         0.0315
    180 H76        -3.3281   19.7342  -46.2540 H         1 LEU         0.0298
    181 H77        -3.2594   19.2109  -48.6843 H         1 LEU         0.0232
    182 H78        -5.0489   19.0558  -48.6939 H         1 LEU         0.0232
    183 H79        -4.0523   17.9009  -47.7453 H         1 LEU         0.0232
    184 H80        -4.3904   21.9608  -46.4004 H         1 LEU         0.0232
    185 H81        -5.2325   21.4677  -47.9085 H         1 LEU         0.0232
    186 H82        -3.4414   21.6012  -47.8825 H         1 LEU         0.0232
    187 H83        -6.2367   18.9969  -42.5474 H         1 LEU         0.1883
    188 H84        -9.1233   18.8225  -42.9553 H         1 LEU         0.0800
    189 H85        -9.0736   18.2933  -40.4246 H         1 LEU         0.0315
    190 H86        -7.2899   18.2599  -40.6337 H         1 LEU         0.0315
    191 H87        -7.5979   16.3967  -42.2730 H         1 LEU         0.0298
    192 H88        -8.0254   14.7736  -40.4354 H         1 LEU         0.0232
    193 H89        -8.7130   16.0965  -39.4335 H         1 LEU         0.0232
    194 H90        -6.9745   16.1223  -39.8847 H         1 LEU         0.0232
    195 H91        -9.9572   16.8289  -42.8612 H         1 LEU         0.0232
    196 H92       -10.4453   16.5092  -41.1623 H         1 LEU         0.0232
    197 H93        -9.7601   15.1851  -42.1642 H         1 LEU         0.0232
    198 H94        -9.5580   22.4472  -40.0403 H         1 PRO         0.0728
    199 H95        -8.3145   22.3562  -38.0559 H         1 PRO         0.0306
    200 H96        -7.3432   23.6538  -38.8300 H         1 PRO         0.0306
    201 H97        -6.2700   21.3007  -38.0140 H         1 PRO         0.0286
    202 H98        -5.6535   22.2146  -39.4323 H         1 PRO         0.0286
    203 H99        -6.1002   20.2772  -40.5821 H         1 PRO         0.0524
    204 H100       -7.2410   19.6832  -39.3280 H         1 PRO         0.0524
@<TRIPOS>BOND
     1    1    2 2  
     2    1    3 1  
     3    4    1 am 
     4    5    4 1  
     5    6    5 1  
     6    5    8 1  
     7    6    7 2  
     8   11    6 am 
     9    8    9 1  
    10    8   10 1  
    11   12   11 1  
    12   13   12 1  
    13   12   15 1  
    14   13   14 2  
    15   17   13 am 
    16   15   16 1  
    17   18   17 1  
    18   19   18 1  
    19   18   21 1  
    20   19   20 2  
    21   32   19 am 
    22   21   22 1  
    23   22   23 ar 
    24   22   24 ar 
    25   23   25 ar 
    26   24   26 ar 
    27   25   27 ar 
    28   26   27 ar 
    29   29   28 2  
    30   29   30 1  
    31   37   29 am 
    32   30   31 1  
    33   30   32 1  
    34   30   33 1  
    35   33   34 1  
    36   34   35 1  
    37   35   36 1  
    38   36   80 2  
    39   38   37 1  
    40   39   38 1  
    41   38   41 1  
    42   39   40 2  
    43   46   39 am 
    44   41   42 1  
    45   42   43 1  
    46   43   44 ar 
    47   43   45 ar 
    48   47   46 1  
    49   48   47 1  
    50   47   50 1  
    51   48   49 2  
    52   58   48 am 
    53   50   51 1  
    54   51   52 ar 
    55   51   53 ar 
    56   52   54 ar 
    57   53   55 ar 
    58   54   56 ar 
    59   55   56 ar 
    60   56   57 1  
    61   59   58 1  
    62   60   59 1  
    63   59   62 1  
    64   60   61 2  
    65   76   60 am 
    66   62   63 1  
    67   63   64 2  
    68   63   65 1  
    69   64   66 1  
    70   65   67 ar 
    71   65   68 ar 
    72   67   66 1  
    73   67   69 ar 
    74   68   70 ar 
    75   69   71 ar 
    76   70   71 ar 
    77   73   72 2  
    78   74   73 1  
    79   73   81 am 
    80   74   75 1  
    81   74   76 1  
    82   74   77 1  
    83   77   78 1  
    84   78   79 1  
    85   79   80 1  
    86   81   82 1  
    87   82   83 1  
    88   82   85 1  
    89   83   84 2  
    90   83   89 am 
    91   85   86 1  
    92   86   87 1  
    93   86   88 1  
    94   89   90 1  
    95   90   91 1  
    96   90   93 1  
    97   91   92 2  
    98   91   97 am 
    99   93   94 1  
   100   94   95 1  
   101   94   96 1  
   102   97   98 1  
   103   97  103 1  
   104   98   99 1  
   105   98  101 1  
   106   99  100 ar 
   107   99  104 ar 
   108  101  102 1  
   109  102  103 1  
   110    3  105 1  
   111    3  106 1  
   112    3  107 1  
   113    4  108 1  
   114    5  109 1  
   115    8  110 1  
   116    9  111 1  
   117   10  112 1  
   118   10  113 1  
   119   10  114 1  
   120   11  115 1  
   121   12  116 1  
   122   15  117 1  
   123   15  118 1  
   124   16  119 1  
   125   17  120 1  
   126   18  121 1  
   127   21  122 1  
   128   21  123 1  
   129   23  124 1  
   130   24  125 1  
   131   25  126 1  
   132   26  127 1  
   133   27  128 1  
   134   31  129 1  
   135   31  130 1  
   136   31  131 1  
   137   32  132 1  
   138   33  133 1  
   139   33  134 1  
   140   34  135 1  
   141   34  136 1  
   142   35  137 1  
   143   35  138 1  
   144   36  139 1  
   145   37  140 1  
   146   38  141 1  
   147   41  142 1  
   148   41  143 1  
   149   42  144 1  
   150   42  145 1  
   151   46  146 1  
   152   47  147 1  
   153   50  148 1  
   154   50  149 1  
   155   52  150 1  
   156   53  151 1  
   157   54  152 1  
   158   55  153 1  
   159   57  154 1  
   160   58  155 1  
   161   59  156 1  
   162   62  157 1  
   163   62  158 1  
   164   64  159 1  
   165   66  160 1  
   166   68  161 1  
   167   69  162 1  
   168   70  163 1  
   169   71  164 1  
   170   75  165 1  
   171   75  166 1  
   172   75  167 1  
   173   76  168 1  
   174   77  169 1  
   175   77  170 1  
   176   78  171 1  
   177   78  172 1  
   178   79  173 1  
   179   79  174 1  
   180   80  175 1  
   181   81  176 1  
   182   82  177 1  
   183   85  178 1  
   184   85  179 1  
   185   86  180 1  
   186   87  181 1  
   187   87  182 1  
   188   87  183 1  
   189   88  184 1  
   190   88  185 1  
   191   88  186 1  
   192   89  187 1  
   193   90  188 1  
   194   93  189 1  
   195   93  190 1  
   196   94  191 1  
   197   95  192 1  
   198   95  193 1  
   199   95  194 1  
   200   96  195 1  
   201   96  196 1  
   202   96  197 1  
   203   98  198 1  
   204  101  199 1  
   205  101  200 1  
   206  102  201 1  
   207  102  202 1  
   208  103  203 1  
   209  103  204 1  
@<TRIPOS>SUBSTRUCTURE
     1 ACE         1

