2g72_ligand
  -I-interpret- 

 41 43  0  0  0  0  0  0  0  0999 V2000
   25.4190   45.1080   12.8050 C   0  0  0  0  0
   24.7240   45.4900   11.4930 C   0  0  0  0  0
   25.9940   46.0790   10.3160 S   0  0  0  0  0
   27.3250   44.8260   10.3970 C   0  0  0  0  0
   27.6210   44.5470   11.8750 C   0  0  0  0  0
   26.3920   44.0430   12.5110 N   0  0  0  0  0
   26.7330   43.1380   13.8220 S   0  0  0  0  0
   25.5190   42.4960   14.2160 O   0  0  0  0  0
   27.7170   42.0840   13.4090 O   0  0  0  0  0
   27.4210   43.9450   15.2130 C   0  0  0  0  0
   27.7660   43.1620   16.3120 C   0  0  0  0  0
   28.3510   43.7290   17.4410 C   0  0  0  0  0
   28.5980   42.8650   18.6840 C   0  0  0  0  0
   29.4230   43.5410   19.7010 N   0  3  0  0  0
   29.0200   44.9410   19.9030 C   0  0  0  0  0
   29.7940   45.5770   21.0600 C   0  0  0  0  0
   29.1530   45.2880   22.2540 F   0  0  0  0  0
   29.3000   45.7550   18.6390 C   0  0  0  0  0
   28.5990   45.1000   17.4480 C   0  0  0  0  0
   28.2490   45.8870   16.3540 C   0  0  0  0  0
   27.6570   45.3150   15.2330 C   0  0  0  0  0
   24.6857   44.7581   13.5316 H   0  0  0  0  0
   25.9260   45.9748   13.2289 H   0  0  0  0  0
   23.9911   46.2761   11.6747 H   0  0  0  0  0
   24.2059   44.6245   11.0800 H   0  0  0  0  0
   28.2204   45.1938    9.8958 H   0  0  0  0  0
   27.0120   43.9102    9.8955 H   0  0  0  0  0
   27.9465   45.4628   12.3685 H   0  0  0  0  0
   28.4155   43.8059   11.9618 H   0  0  0  0  0
   27.5751   42.0891   16.2878 H   0  0  0  0  0
   29.1317   41.9697   18.3652 H   0  0  0  0  0
   27.6296   42.6463   19.1340 H   0  0  0  0  0
   30.3914   43.5327   19.3806 H   0  0  0  0  0
   29.3051   43.0462   20.5852 H   0  0  0  0  0
   27.9546   44.9455   20.1330 H   0  0  0  0  0
   29.8358   46.6572   20.9207 H   0  0  0  0  0
   30.8077   45.1771   21.0841 H   0  0  0  0  0
   30.3742   45.7869   18.4569 H   0  0  0  0  0
   28.9250   46.7702   18.7691 H   0  0  0  0  0
   28.4405   46.9598   16.3763 H   0  0  0  0  0
   27.3810   45.9341   14.3794 H   0  0  0  0  0
  1  2  1  0  0  0
  1  6  1  0  0  0
  2  3  1  0  0  0
  3  4  1  0  0  0
  4  5  1  0  0  0
  5  6  1  0  0  0
  6  7  1  0  0  0
  7  8  2  0  0  0
  7  9  2  0  0  0
  7 10  1  0  0  0
 10 11  4  0  0  0
 10 21  4  0  0  0
 11 12  4  0  0  0
 12 13  1  0  0  0
 12 19  4  0  0  0
 13 14  1  0  0  0
 14 15  1  0  0  0
 15 16  1  0  0  0
 15 18  1  0  0  0
 16 17  1  0  0  0
 18 19  1  0  0  0
 19 20  4  0  0  0
 20 21  4  0  0  0
  1 22  1  0  0  0
  1 23  1  0  0  0
  2 24  1  0  0  0
  2 25  1  0  0  0
  4 26  1  0  0  0
  4 27  1  0  0  0
  5 28  1  0  0  0
  5 29  1  0  0  0
 11 30  1  0  0  0
 13 31  1  0  0  0
 13 32  1  0  0  0
 14 33  1  0  0  0
 14 34  1  0  0  0
 15 35  1  0  0  0
 16 36  1  0  0  0
 16 37  1  0  0  0
 18 38  1  0  0  0
 18 39  1  0  0  0
 20 40  1  0  0  0
 21 41  1  0  0  0
M  END
$$$$
