2hob_ligand
  -I-interpret- 

102104  0  0  0  0  0  0  0  0999 V2000
    0.6530   -9.6070  109.9890 N   0  3  0  0  0
    0.6670  -10.5700  109.2020 C   0  0  0  0  0
    0.2280   -9.7530  107.8000 C   0  0  0  0  0
   -0.0330   -8.4530  108.1650 C   0  0  0  0  0
    0.1880   -8.2880  109.4960 O   0  0  0  0  0
    1.9130  -11.5160  108.9050 C   0  0  0  0  0
    2.4720  -11.8300  107.8030 O   0  0  0  0  0
    1.9400  -12.3320  110.0110 N   0  0  0  0  0
    2.5870  -13.6670  110.0360 C   0  0  0  0  0
    2.4560  -14.3370  111.4210 C   0  0  0  0  0
    1.9520  -14.5840  108.9940 C   0  0  0  0  0
    0.7180  -14.6670  108.9110 O   0  0  0  0  0
    3.2200  -14.9890  108.1440 N   0  0  0  0  0
    2.9070  -15.9860  107.1330 C   0  0  0  0  0
    3.2340  -15.4410  105.7050 C   0  0  0  0  0
    2.9150  -16.4460  104.6250 C   0  0  0  0  0
    2.4350  -14.1560  105.4470 C   0  0  0  0  0
    3.6910  -17.2490  107.4470 C   0  0  0  0  0
    4.9210  -17.2150  107.5630 O   0  0  0  0  0
    2.9780  -18.3650  107.5800 N   0  0  0  0  0
    3.6140  -19.6400  107.8710 C   0  0  0  0  0
    2.5160  -20.6330  108.2780 C   0  0  0  0  0
    2.3550  -21.0870  109.7450 C   0  0  0  0  0
    2.7690  -20.0230  110.7630 C   0  0  0  0  0
    0.8840  -21.4830  109.9620 C   0  0  0  0  0
    6.4320  -20.8310  105.5770 C   0  0  0  0  0
    6.9230  -22.2750  105.6200 C   0  0  0  0  0
    5.6880  -22.8090  104.8740 C   0  0  0  0  0
    6.0400  -24.1120  104.1880 C   0  0  0  0  0
    7.0100  -24.8500  104.1000 O   0  0  0  0  0
    4.8260  -24.2830  103.6470 O   0  0  0  0  0
    4.3700  -25.4360  102.9740 C   0  0  0  0  0
    2.8510  -25.3490  102.8070 C   0  0  0  0  0
    7.8980  -20.1870  105.1080 C   0  0  0  0  0
    7.6540  -18.7310  104.6630 C   0  0  0  0  0
    7.1630  -18.5590  103.2070 C   0  0  0  0  0
    7.7740  -17.2400  102.6890 C   0  0  0  0  0
    8.8980  -17.0440  103.5950 N   0  0  0  0  0
    8.8630  -17.8360  104.6860 C   0  0  0  0  0
    9.6950  -17.7670  105.5900 O   0  0  0  0  0
    2.0890  -24.4520  103.6450 C   0  0  0  0  0
    0.6780  -24.3090  103.5350 C   0  0  0  0  0
   -0.0470  -25.0790  102.5690 C   0  0  0  0  0
    0.6620  -26.0070  101.6840 C   0  0  0  0  0
    2.1190  -26.1500  101.8020 C   0  0  0  0  0
   -0.4980   -7.3570  107.2390 C   0  0  0  0  0
    4.3500  -20.1020  106.6190 C   0  0  0  0  0
    3.7160  -20.1980  105.5520 O   0  0  0  0  0
    5.6690  -20.3740  106.7520 N   0  0  0  0  0
    1.6290   -9.4632  110.2480 H   0  0  0  0  0
   -0.0147   -9.8683  110.7145 H   0  0  0  0  0
    0.0655  -11.3556  109.6593 H   0  0  0  0  0
    0.1628  -10.1724  106.7960 H   0  0  0  0  0
    1.4892  -12.0005  110.8638 H   0  0  0  0  0
    3.6431  -13.5149  109.8134 H   0  0  0  0  0
    2.9328  -13.7090  112.1736 H   0  0  0  0  0
    1.4009  -14.4610  111.6649 H   0  0  0  0  0
    2.9421  -15.3123  111.3988 H   0  0  0  0  0
    4.1505  -14.5967  108.2876 H   0  0  0  0  0
    1.8416  -16.2161  107.1461 H   0  0  0  0  0
    4.3046  -15.2392  105.6709 H   0  0  0  0  0
    3.5028  -17.3496  104.7863 H   0  0  0  0  0
    1.8534  -16.6905  104.6601 H   0  0  0  0  0
    3.1593  -16.0211  103.6514 H   0  0  0  0  0
    1.3690  -14.3723  105.5168 H   0  0  0  0  0
    2.7044  -13.4066  106.1912 H   0  0  0  0  0
    2.6662  -13.7798  104.4504 H   0  0  0  0  0
    1.9641  -18.3251  107.4756 H   0  0  0  0  0
    4.3345  -19.5613  108.6851 H   0  0  0  0  0
    2.7778  -21.5478  107.7463 H   0  0  0  0  0
    1.5883  -20.1027  108.0630 H   0  0  0  0  0
    3.0247  -21.9310  109.9105 H   0  0  0  0  0
    3.8180  -19.7676  110.6134 H   0  0  0  0  0
    2.1542  -19.1333  110.6271 H   0  0  0  0  0
    2.6288  -20.4126  111.7713 H   0  0  0  0  0
    0.2443  -20.6236  109.7611 H   0  0  0  0  0
    0.6245  -22.2969  109.2850 H   0  0  0  0  0
    0.7449  -21.8080  110.9931 H   0  0  0  0  0
    5.6128  -20.5306  104.9237 H   0  0  0  0  0
    7.1640  -22.7075  106.5911 H   0  0  0  0  0
    7.9078  -22.4957  105.2082 H   0  0  0  0  0
    5.3690  -22.0799  104.1292 H   0  0  0  0  0
    4.8786  -22.9784  105.5841 H   0  0  0  0  0
    4.6255  -26.3239  103.5524 H   0  0  0  0  0
    4.8439  -25.5009  101.9946 H   0  0  0  0  0
    8.3205  -20.7671  104.2876 H   0  0  0  0  0
    8.6057  -20.2154  105.9365 H   0  0  0  0  0
    6.9048  -18.4541  105.4047 H   0  0  0  0  0
    6.0743  -18.5270  103.1644 H   0  0  0  0  0
    7.4740  -19.4014  102.5891 H   0  0  0  0  0
    7.0687  -16.4089  102.6933 H   0  0  0  0  0
    8.0699  -17.2860  101.6410 H   0  0  0  0  0
    9.6430  -16.3696  103.4202 H   0  0  0  0  0
    2.6173  -23.8603  104.3926 H   0  0  0  0  0
    0.1484  -23.6133  104.1859 H   0  0  0  0  0
   -1.1292  -24.9743  102.4920 H   0  0  0  0  0
    0.1119  -26.5872  100.9432 H   0  0  0  0  0
    2.6570  -26.8415  101.1535 H   0  0  0  0  0
    0.2438   -7.2068  106.4546 H   0  0  0  0  0
   -1.4501   -7.6413  106.7909 H   0  0  0  0  0
   -0.6225   -6.4336  107.8047 H   0  0  0  0  0
    6.1298  -20.2639  107.6553 H   0  0  0  0  0
  2  1  1  0  0  0
  1  5  1  0  0  0
  2  3  1  0  0  0
  6  2  1  0  0  0
  3  4  2  0  0  0
  4  5  1  0  0  0
  4 46  1  0  0  0
  6  7  2  0  0  0
  8  6  1  0  0  0
  9  8  1  0  0  0
  9 10  1  0  0  0
 11  9  1  0  0  0
 11 12  2  0  0  0
 13 11  1  0  0  0
 14 13  1  0  0  0
 14 15  1  0  0  0
 18 14  1  0  0  0
 15 16  1  0  0  0
 15 17  1  0  0  0
 18 19  2  0  0  0
 20 18  1  0  0  0
 21 20  1  0  0  0
 21 22  1  0  0  0
 47 21  1  0  0  0
 22 23  1  0  0  0
 23 24  1  0  0  0
 23 25  1  0  0  0
 26 27  1  0  0  0
 26 34  1  0  0  0
 49 26  1  0  0  0
 27 28  1  0  0  0
 28 29  1  0  0  0
 29 30  2  0  0  0
 29 31  1  0  0  0
 31 32  1  0  0  0
 32 33  1  0  0  0
 33 41  4  0  0  0
 33 45  4  0  0  0
 34 35  1  0  0  0
 35 36  1  0  0  0
 35 39  1  0  0  0
 36 37  1  0  0  0
 38 37  1  0  0  0
 39 38  1  0  0  0
 39 40  2  0  0  0
 41 42  4  0  0  0
 42 43  4  0  0  0
 44 43  4  0  0  0
 45 44  4  0  0  0
 47 48  2  0  0  0
 47 49  1  0  0  0
  1 50  1  0  0  0
  1 51  1  0  0  0
  2 52  1  0  0  0
  3 53  1  0  0  0
  8 54  1  0  0  0
  9 55  1  0  0  0
 10 56  1  0  0  0
 10 57  1  0  0  0
 10 58  1  0  0  0
 13 59  1  0  0  0
 14 60  1  0  0  0
 15 61  1  0  0  0
 16 62  1  0  0  0
 16 63  1  0  0  0
 16 64  1  0  0  0
 17 65  1  0  0  0
 17 66  1  0  0  0
 17 67  1  0  0  0
 20 68  1  0  0  0
 21 69  1  0  0  0
 22 70  1  0  0  0
 22 71  1  0  0  0
 23 72  1  0  0  0
 24 73  1  0  0  0
 24 74  1  0  0  0
 24 75  1  0  0  0
 25 76  1  0  0  0
 25 77  1  0  0  0
 25 78  1  0  0  0
 26 79  1  0  0  0
 27 80  1  0  0  0
 27 81  1  0  0  0
 28 82  1  0  0  0
 28 83  1  0  0  0
 32 84  1  0  0  0
 32 85  1  0  0  0
 34 86  1  0  0  0
 34 87  1  0  0  0
 35 88  1  0  0  0
 36 89  1  0  0  0
 36 90  1  0  0  0
 37 91  1  0  0  0
 37 92  1  0  0  0
 38 93  1  0  0  0
 41 94  1  0  0  0
 42 95  1  0  0  0
 43 96  1  0  0  0
 44 97  1  0  0  0
 45 98  1  0  0  0
 46 99  1  0  0  0
 46100  1  0  0  0
 46101  1  0  0  0
 49102  1  0  0  0
M  END
$$$$
