6h29_ligand
  -I-interpret- 

 20 20  0  0  0  0  0  0  0  0999 V2000
   -5.6460    1.0500   16.7870 C   0  0  0  0  0
   -6.3480    4.0010   16.0240 C   0  0  0  0  0
   -5.0020    4.7200   14.1610 C   0  0  0  0  0
   -5.9280    6.3350   15.6680 C   0  0  0  0  0
   -5.5900    3.7120   14.9050 C   0  0  0  0  0
   -7.0350    2.9430   16.8240 C   0  0  0  0  0
   -5.1920    6.0180   14.5670 C   0  0  0  0  0
   -6.4960    5.3200   16.3820 C   0  0  0  0  0
   -5.3440   -0.0560   16.1250 N   0  0  0  0  0
   -5.0440    1.5020   17.7400 O   0  0  0  0  0
   -6.7330    1.6480   16.2760 O   0  0  0  0  0
   -4.4053    4.4902   13.2782 H   0  0  0  0  0
   -6.0602    7.3735   15.9715 H   0  0  0  0  0
   -5.4531    2.6735   14.6036 H   0  0  0  0  0
   -8.1121    3.1071   16.7907 H   0  0  0  0  0
   -6.6881    2.9883   17.8563 H   0  0  0  0  0
   -4.7381    6.8223   13.9880 H   0  0  0  0  0
   -7.0865    5.5632   17.2653 H   0  0  0  0  0
   -4.5379   -0.6144   16.4057 H   0  0  0  0  0
   -5.9174   -0.3497   15.3342 H   0  0  0  0  0
  1  9  1  0  0  0
  1 10  2  0  0  0
 11  1  1  0  0  0
  2  5  4  0  0  0
  6  2  1  0  0  0
  2  8  4  0  0  0
  5  3  4  0  0  0
  3  7  4  0  0  0
  4  7  4  0  0  0
  8  4  4  0  0  0
  6 11  1  0  0  0
  3 12  1  0  0  0
  4 13  1  0  0  0
  5 14  1  0  0  0
  6 15  1  0  0  0
  6 16  1  0  0  0
  7 17  1  0  0  0
  8 18  1  0  0  0
  9 19  1  0  0  0
  9 20  1  0  0  0
M  END
$$$$
