3gxt_ligand
  -I-interpret- 

 25 25  0  0  0  0  0  0  0  0999 V2000
  -17.1670   61.3430  105.6910 C   0  0  0  0  0
  -16.5510   60.2280  106.5580 C   0  0  0  0  0
  -15.2570   60.5800  107.0860 O   0  0  0  0  0
  -16.5720   58.9340  105.7210 C   0  0  0  0  0
  -15.7340   57.8550  106.1940 O   0  0  0  0  0
  -18.0540   58.6060  105.7750 C   0  0  0  0  0
  -18.2930   57.2700  105.3800 O   0  0  0  0  0
  -18.6920   59.6290  104.8380 C   0  0  0  0  0
  -18.5550   60.9970  105.3720 N   0  3  0  0  0
  -20.1520   59.3860  104.6420 C   0  0  0  0  0
  -20.5860   60.3980  103.7420 O   0  0  0  0  0
  -16.5953   61.4461  104.7687 H   0  0  0  0  0
  -17.1422   62.2859  106.2372 H   0  0  0  0  0
  -17.1422   60.0715  107.4603 H   0  0  0  0  0
  -15.3293   61.3927  107.5918 H   0  0  0  0  0
  -16.1512   59.0690  104.7246 H   0  0  0  0  0
  -14.8126   58.1183  106.1368 H   0  0  0  0  0
  -18.4743   58.6700  106.7787 H   0  0  0  0  0
  -17.8708   56.6731  106.0022 H   0  0  0  0  0
  -18.1669   59.5224  103.8888 H   0  0  0  0  0
  -18.8835   61.6466  104.6575 H   0  0  0  0  0
  -19.0977   61.0527  106.2338 H   0  0  0  0  0
  -20.6953   59.4301  105.5859 H   0  0  0  0  0
  -20.3420   58.3889  104.2448 H   0  0  0  0  0
  -21.5256   60.2945  103.5748 H   0  0  0  0  0
  1  2  1  0  0  0
  1  9  1  0  0  0
  2  3  1  0  0  0
  2  4  1  0  0  0
  4  5  1  0  0  0
  4  6  1  0  0  0
  6  7  1  0  0  0
  6  8  1  0  0  0
  8  9  1  0  0  0
  8 10  1  0  0  0
 10 11  1  0  0  0
  1 12  1  0  0  0
  1 13  1  0  0  0
  2 14  1  0  0  0
  3 15  1  0  0  0
  4 16  1  0  0  0
  5 17  1  0  0  0
  6 18  1  0  0  0
  7 19  1  0  0  0
  8 20  1  0  0  0
  9 21  1  0  0  0
  9 22  1  0  0  0
 10 23  1  0  0  0
 10 24  1  0  0  0
 11 25  1  0  0  0
M  END
$$$$
