3hu3_ligand
  -I-interpret- 

 47 49  0  0  0  0  0  0  0  0999 V2000
   18.1600   52.9450  -12.0610 P   0  0  0  0  0
   18.9030   54.0020  -12.8750 O   0  0  0  0  0
   17.8770   53.3440  -10.6300 O   0  0  0  0  0
   16.2960   52.4140  -12.8180 S   0  0  0  0  0
   20.4530   51.1770  -11.5060 P   0  0  0  0  0
   20.5460   51.7930  -10.1560 O   0  0  0  0  0
   21.4500   51.3230  -12.6080 O   0  0  0  0  0
   18.9960   51.5670  -12.1330 O   0  0  0  0  0
   20.4810   48.7320  -10.0390 P   0  0  0  0  0
   21.9230   48.9850   -9.7220 O   0  0  0  0  0
   19.3820   49.1120   -9.0830 O   0  0  0  0  0
   20.1350   49.5980  -11.3480 O   0  0  0  0  0
   20.3070   47.2640  -10.7010 O   0  0  0  0  0
   19.1300   46.4650  -10.5460 C   0  0  0  0  0
   19.5690   45.0010  -10.4110 C   0  0  0  0  0
   20.0870   44.5150  -11.6660 O   0  0  0  0  0
   20.7230   44.8520   -9.4300 C   0  0  0  0  0
   20.3310   44.7990   -8.0460 O   0  0  0  0  0
   21.4530   43.6300   -9.9180 C   0  0  0  0  0
   20.7260   42.4710   -9.4840 O   0  0  0  0  0
   21.3070   43.7620  -11.4440 C   0  0  0  0  0
   22.4900   44.4450  -12.0220 N   0  0  0  0  0
   22.4570   45.6450  -12.6100 C   0  0  0  0  0
   23.6820   46.0340  -13.0340 N   0  0  0  0  0
   24.5540   45.0630  -12.7170 C   0  0  0  0  0
   26.0120   44.8480  -12.8820 C   0  0  0  0  0
   26.7970   45.7650  -13.5030 N   0  0  0  0  0
   26.5420   43.6990  -12.4070 N   0  0  0  0  0
   25.7820   42.7760  -11.7990 C   0  0  0  0  0
   24.4610   42.9120  -11.6310 N   0  0  0  0  0
   23.7790   44.0130  -12.0550 C   0  0  0  0  0
   19.0445   53.6763  -13.7669 H   0  0  0  0  0
   16.4250   52.0405  -14.0879 H   0  0  0  0  0
   21.1536   50.8261  -13.3741 H   0  0  0  0  0
   18.5331   48.8714   -9.4612 H   0  0  0  0  0
   18.4756   46.5850  -11.4094 H   0  0  0  0  0
   18.5760   46.7764   -9.6604 H   0  0  0  0  0
   18.6885   44.4511  -10.0788 H   0  0  0  0  0
   21.3635   45.7339   -9.4213 H   0  0  0  0  0
   21.1126   44.7050   -7.4966 H   0  0  0  0  0
   22.4830   43.5443   -9.5719 H   0  0  0  0  0
   21.1774   41.6796   -9.7866 H   0  0  0  0  0
   21.2509   42.7893  -11.9327 H   0  0  0  0  0
   21.5516   46.2393  -12.7333 H   0  0  0  0  0
   26.3863   46.6243  -13.8681 H   0  0  0  0  0
   27.7975   45.5947  -13.6045 H   0  0  0  0  0
   26.2628   41.8725  -11.4240 H   0  0  0  0  0
  1  2  1  0  0  0
  1  3  2  0  0  0
  1  4  1  0  0  0
  8  1  1  0  0  0
  5  6  2  0  0  0
  5  7  1  0  0  0
  5  8  1  0  0  0
 12  5  1  0  0  0
  9 10  2  0  0  0
  9 11  1  0  0  0
  9 12  1  0  0  0
  9 13  1  0  0  0
 13 14  1  0  0  0
 14 15  1  0  0  0
 15 16  1  0  0  0
 15 17  1  0  0  0
 16 21  1  0  0  0
 17 18  1  0  0  0
 17 19  1  0  0  0
 19 20  1  0  0  0
 19 21  1  0  0  0
 21 22  1  0  0  0
 22 23  4  0  0  0
 22 31  4  0  0  0
 23 24  4  0  0  0
 24 25  4  0  0  0
 25 26  4  0  0  0
 25 31  4  0  0  0
 26 27  1  0  0  0
 26 28  4  0  0  0
 28 29  4  0  0  0
 29 30  4  0  0  0
 30 31  4  0  0  0
  2 32  1  0  0  0
  4 33  1  0  0  0
  7 34  1  0  0  0
 11 35  1  0  0  0
 14 36  1  0  0  0
 14 37  1  0  0  0
 15 38  1  0  0  0
 17 39  1  0  0  0
 18 40  1  0  0  0
 19 41  1  0  0  0
 20 42  1  0  0  0
 21 43  1  0  0  0
 23 44  1  0  0  0
 27 45  1  0  0  0
 27 46  1  0  0  0
 29 47  1  0  0  0
M  END
$$$$
