### 
### Created by X-TOOL on Mon Sep 10 21:12:51 2018
### 

@<TRIPOS>MOLECULE
1uti_ligand
  272   275     1     0     0
SMALL
GAST_HUCK


@<TRIPOS>ATOM
      1 N          24.9300   -0.3000    4.2770 N.4       1 GLY         0.2357
      2 CA         24.0390   -1.3310    3.6800 C.3       1 GLY         0.0545
      3 C          22.9430   -1.8080    4.6180 C.2       1 GLY         0.2236
      4 O          21.7730   -1.8760    4.2240 O.2       1 GLY        -0.3910
      5 N          23.3060   -2.1320    5.8590 N.am      1 GLN        -0.2611
      6 CA         22.3910   -2.8550    6.7440 C.3       1 GLN         0.1333
      7 C          21.2960   -1.9460    7.2920 C.2       1 GLN         0.2065
      8 O          21.5620   -0.7880    7.6120 O.2       1 GLN        -0.3942
      9 CB         23.1490   -3.5130    7.8990 C.3       1 GLN         0.0045
     10 CG         24.1850   -4.5350    7.4410 C.3       1 GLN         0.0412
     11 CD         24.4050   -5.6520    8.4440 C.2       1 GLN         0.1737
     12 OE1        25.3680   -5.6230    9.2030 O.2       1 GLN        -0.3973
     13 NE2        23.5170   -6.6370    8.4460 N.am      1 GLN        -0.3009
     14 N          20.0720   -2.4670    7.4040 N.am      1 PRO        -0.2498
     15 CA         18.9680   -1.6810    7.9660 C.3       1 PRO         0.1340
     16 C          19.2390   -1.3010    9.4150 C.2       1 PRO         0.2066
     17 O          20.0340   -1.9580   10.0920 O.2       1 PRO        -0.3942
     18 CB         17.7700   -2.6320    7.8800 C.3       1 PRO        -0.0104
     19 CG         18.1700   -3.6710    6.9150 C.3       1 PRO        -0.0281
     20 CD         19.6360   -3.8240    7.0310 C.3       1 PRO         0.0369
     21 N          18.5810   -0.2510    9.8930 N.am      1 PRO        -0.2498
     22 CA         18.7750    0.1900   11.2720 C.3       1 PRO         0.1338
     23 C          18.1700   -0.7860   12.2600 C.2       1 PRO         0.2041
     24 O          17.3760   -1.6500   11.8830 O.2       1 PRO        -0.3944
     25 CB         18.0300    1.5240   11.3110 C.3       1 PRO        -0.0104
     26 CG         16.9550    1.3760   10.2920 C.3       1 PRO        -0.0281
     27 CD         17.5760    0.5710    9.1950 C.3       1 PRO         0.0369
     28 N          18.5480   -0.6410   13.5210 N.am      1 LEU        -0.2637
     29 CA         17.9690   -1.4470   14.5800 C.3       1 LEU         0.1312
     30 C          16.4870   -1.1550   14.7340 C.2       1 LEU         0.2039
     31 O          16.0190   -0.0490   14.4640 O.2       1 LEU        -0.3944
     32 CB         18.6640   -1.1760   15.9190 C.3       1 LEU        -0.0101
     33 CG         20.1560   -1.4770   16.0130 C.3       1 LEU        -0.0425
     34 CD1        20.6280   -1.1930   17.4240 C.3       1 LEU        -0.0625
     35 CD2        20.4690   -2.9130   15.6270 C.3       1 LEU        -0.0625
     36 N          15.7690   -2.1750   15.1810 N.am      1 VAL        -0.2635
     37 CA         14.4200   -2.0390   15.7000 C.3       1 VAL         0.1334
     38 C          14.5240   -1.5390   17.1410 C.2       1 VAL         0.2066
     39 O          15.3700   -2.0150   17.9050 O.2       1 VAL        -0.3942
     40 CB         13.6970   -3.4060   15.6590 C.3       1 VAL        -0.0062
     41 CG1        12.3100   -3.3260   16.2780 C.3       1 VAL        -0.0584
     42 CG2        13.6310   -3.9210   14.2190 C.3       1 VAL        -0.0584
     43 N          13.6980   -0.5650   17.5220 N.am      1 PRO        -0.2498
     44 CA         13.7190   -0.0800   18.9060 C.3       1 PRO         0.1340
     45 C          13.3280   -1.1720   19.8980 C.2       1 PRO         0.2066
     46 O          12.7170   -2.1750   19.5160 O.2       1 PRO        -0.3942
     47 CB         12.6870    1.0580   18.9140 C.3       1 PRO        -0.0104
     48 CG         11.8840    0.8940   17.6990 C.3       1 PRO        -0.0281
     49 CD         12.7170    0.1610   16.7000 C.3       1 PRO         0.0369
     50 N          13.6700   -0.9930   21.1710 N.am      1 PRO        -0.2498
     51 CA         13.2550   -1.9590   22.1900 C.3       1 PRO         0.1338
     52 C          11.7520   -2.2280   22.1440 C.2       1 PRO         0.2041
     53 O          10.9580   -1.2940   22.0370 O.2       1 PRO        -0.3944
     54 CB         13.6470   -1.2780   23.5070 C.3       1 PRO        -0.0104
     55 CG         14.6920   -0.2930   23.1560 C.3       1 PRO        -0.0281
     56 CD         14.4680    0.1060   21.7360 C.3       1 PRO         0.0369
     57 N          11.3680   -3.4970   22.2350 N.am      1 ARG        -0.2637
     58 CA          9.9510   -3.8710   22.2420 C.3       1 ARG         0.1311
     59 C           9.1700   -3.2650   23.4130 C.2       1 ARG         0.2039
     60 O           7.9680   -3.0560   23.2910 O.2       1 ARG        -0.3944
     61 CB          9.7660   -5.3990   22.2090 C.3       1 ARG        -0.0092
     62 CG          9.5090   -5.9480   20.8180 C.3       1 ARG        -0.0156
     63 CD         10.6800   -5.8450   19.8560 C.3       1 ARG         0.0627
     64 NE         10.2480   -6.2480   18.5190 N.pl3     1 ARG        -0.2723
     65 CZ         11.0560   -6.5940   17.5280 C.cat     1 ARG         0.2882
     66 NH1        10.5370   -6.9520   16.3640 N.pl3     1 ARG        -0.2849
     67 NH2        12.3700   -6.5500   17.6720 N.pl3     1 ARG        -0.2849
     68 N           9.8400   -2.9700   24.5240 N.am      1 LYS        -0.2637
     69 CA          9.1600   -2.3960   25.6830 C.3       1 LYS         0.1310
     70 C           8.5880   -1.0180   25.3810 C.2       1 LYS         0.2039
     71 O           7.6580   -0.5680   26.0490 O.2       1 LYS        -0.3944
     72 CB         10.0790   -2.3520   26.9110 C.3       1 LYS        -0.0122
     73 CG         11.2790   -1.4240   26.8170 C.3       1 LYS        -0.0440
     74 CD         12.2900   -1.7470   27.9230 C.3       1 LYS        -0.0124
     75 CE         13.2020   -0.5810   28.2430 C.3       1 LYS        -0.0354
     76 NZ         13.9200   -0.0590   27.0580 N.4       1 LYS         0.2185
     77 N           9.1150   -0.3640   24.3510 N.am      1 GLU        -0.2636
     78 CA          8.6500    0.9640   23.9730 C.3       1 GLU         0.1325
     79 C           7.3510    0.9720   23.1650 C.2       1 GLU         0.2040
     80 O           6.8400    2.0410   22.8520 O.2       1 GLU        -0.3944
     81 CB          9.7530    1.7190   23.2310 C.3       1 GLU        -0.0008
     82 CG         10.9290    2.0550   24.1380 C.3       1 GLU         0.0044
     83 CD         12.0950    2.6640   23.3990 C.2       1 GLU         0.0350
     84 OE1        11.9570    2.9520   22.1930 O.co2     1 GLU        -0.5690
     85 OE2        13.1560    2.8590   24.0250 O.co2     1 GLU        -0.5690
     86 N           6.8140   -0.2050   22.8500 N.am      1 LYS        -0.2637
     87 CA          5.5010   -0.3010   22.2180 C.3       1 LYS         0.1310
     88 C           4.4260    0.2110   23.1630 C.2       1 LYS         0.2039
     89 O           3.4380    0.7870   22.7190 O.2       1 LYS        -0.3944
     90 CB          5.1960   -1.7390   21.8030 C.3       1 LYS        -0.0122
     91 CG          5.9560   -2.1680   20.5590 C.3       1 LYS        -0.0440
     92 CD          5.5590   -3.5480   20.0690 C.3       1 LYS        -0.0124
     93 CE          5.9710   -4.6300   21.0390 C.3       1 LYS        -0.0354
     94 NZ          5.8660   -5.9690   20.4180 N.4       1 LYS         0.2185
     95 N           4.6300    0.0120   24.4640 N.am      1 MET        -0.2637
     96 CA          3.7470    0.5880   25.4750 C.3       1 MET         0.1317
     97 C           3.8290    2.1140   25.4600 C.2       1 MET         0.2039
     98 O           4.7720    2.6910   24.9230 O.2       1 MET        -0.3944
     99 CB          4.1090    0.0790   26.8720 C.3       1 MET        -0.0034
    100 CG          4.1220   -1.4390   27.0460 C.3       1 MET        -0.0024
    101 SD          3.1450   -2.0560   28.4700 S.3       1 MET        -0.1639
    102 CE          3.4100   -0.7670   29.7030 C.3       1 MET        -0.0181
    103 N           2.8460    2.7630   26.0730 N.am      1 ARG        -0.2637
    104 CA          2.7550    4.2240   26.0660 C.3       1 ARG         0.1311
    105 C           3.8850    4.8810   26.8710 C.2       1 ARG         0.2037
    106 O           4.4520    4.2740   27.7830 O.2       1 ARG        -0.3944
    107 CB          1.3940    4.6690   26.6080 C.3       1 ARG        -0.0092
    108 CG          0.9050    5.9890   26.0550 C.3       1 ARG        -0.0156
    109 CD         -0.4380    6.4290   26.6180 C.3       1 ARG         0.0627
    110 NE         -0.4070    7.8150   27.0790 N.pl3     1 ARG        -0.2723
    111 CZ         -0.3750    8.8840   26.2850 C.cat     1 ARG         0.2882
    112 NH1        -0.3460   10.0990   26.8180 N.pl3     1 ARG        -0.2849
    113 NH2        -0.3770    8.7540   24.9610 N.pl3     1 ARG        -0.2849
    114 N           4.1880    6.1310   26.5290 N.am      1 GLY        -0.2664
    115 CA          5.3060    6.8630   27.1050 C.3       1 GLY         0.1201
    116 C           6.6400    6.4490   26.5080 C.2       1 GLY         0.2008
    117 O           7.6860    6.6370   27.1350 O.2       1 GLY        -0.3947
    118 N           6.6000    5.9180   25.2840 N.am      1 LYS        -0.2626
    119 CA          7.7340    5.2210   24.6720 C.3       1 LYS         0.1420
    120 C           8.2100    4.0920   25.5860 C.2       1 LYS         0.2571
    121 O           7.3990    3.3760   26.1780 O.2       1 LYS        -0.3680
    122 CB          8.8860    6.1830   24.3380 C.3       1 LYS        -0.0109
    123 CG         10.2140    5.4820   24.0540 C.3       1 LYS        -0.0439
    124 CD         11.1660    6.3350   23.2310 C.3       1 LYS        -0.0124
    125 CE         11.7540    7.4780   24.0330 C.3       1 LYS        -0.0354
    126 NZ         13.2250    7.3660   24.1500 N.4       1 LYS         0.2185
    127 O1          9.5133    3.8795   25.7446 O.3       1 LYS        -0.2910
    128 H1         25.6301   -0.0304    3.6038 H         1 GLY         0.2012
    129 H2         25.3796   -0.6780    5.0961 H         1 GLY         0.2012
    130 H3         24.3841    0.5070    4.5355 H         1 GLY         0.2012
    131 H4         24.6532   -2.1977    3.3945 H         1 GLY         0.1061
    132 H5         23.5669   -0.9046    2.7827 H         1 GLY         0.1061
    133 H6         24.2149   -1.8780    6.1897 H         1 GLN         0.1884
    134 H7         21.9099   -3.6487    6.1536 H         1 GLN         0.0801
    135 H8         22.4214   -4.0216    8.5485 H         1 GLN         0.0337
    136 H9         23.6641   -2.7269    8.4705 H         1 GLN         0.0337
    137 H10        25.1413   -4.0158    7.2803 H         1 GLN         0.0504
    138 H11        23.8444   -4.9778    6.4934 H         1 GLN         0.0504
    139 H12        23.6157   -7.3978    9.0874 H         1 GLN         0.1814
    140 H13        22.7488   -6.6189    7.8061 H         1 GLN         0.1814
    141 H14        18.7939   -0.7707    7.3735 H         1 PRO         0.0802
    142 H15        16.8777   -2.0970    7.5229 H         1 PRO         0.0313
    143 H16        17.5608   -3.0788    8.8632 H         1 PRO         0.0313
    144 H17        17.6705   -4.6214    7.1539 H         1 PRO         0.0287
    145 H18        17.9016   -3.3622    5.8939 H         1 PRO         0.0287
    146 H19        19.8986   -4.5539    7.8109 H         1 PRO         0.0524
    147 H20        20.0798   -4.1346    6.0736 H         1 PRO         0.0524
    148 H21        19.8435    0.3241   11.4962 H         1 PRO         0.0802
    149 H22        18.7030    2.3538   11.0494 H         1 PRO         0.0313
    150 H23        17.6000    1.7010   12.3079 H         1 PRO         0.0313
    151 H24        16.0884    0.8483   10.7169 H         1 PRO         0.0287
    152 H25        16.6375    2.3606    9.9180 H         1 PRO         0.0287
    153 H26        16.8255   -0.0629    8.7001 H         1 PRO         0.0524
    154 H27        18.0526    1.2249    8.4498 H         1 PRO         0.0524
    155 H28        19.2465    0.0376   13.7481 H         1 LEU         0.1883
    156 H29        18.0981   -2.5080   14.3201 H         1 LEU         0.0800
    157 H30        18.1568   -1.7843   16.6823 H         1 LEU         0.0315
    158 H31        18.5282   -0.1093   16.1505 H         1 LEU         0.0315
    159 H32        20.6907   -0.8107   15.3200 H         1 LEU         0.0298
    160 H33        21.7041   -1.4076   17.5008 H         1 LEU         0.0232
    161 H34        20.0758   -1.8300   18.1306 H         1 LEU         0.0232
    162 H35        20.4470   -0.1352   17.6653 H         1 LEU         0.0232
    163 H36        20.1199   -3.1013   14.6010 H         1 LEU         0.0232
    164 H37        19.9586   -3.5984   16.3195 H         1 LEU         0.0232
    165 H38        21.5551   -3.0788   15.6809 H         1 LEU         0.0232
    166 H39        16.1782   -3.0872   15.1597 H         1 VAL         0.1883
    167 H40        13.8589   -1.3125   15.0939 H         1 VAL         0.0803
    168 H41        14.2878   -4.1208   16.2506 H         1 VAL         0.0343
    169 H42        11.8296   -4.3144   16.2301 H         1 VAL         0.0234
    170 H43        11.7025   -2.5958   15.7233 H         1 VAL         0.0234
    171 H44        12.3948   -3.0101   17.3282 H         1 VAL         0.0234
    172 H45        14.6468   -3.9677   13.7994 H         1 VAL         0.0234
    173 H46        13.0152   -3.2395   13.6137 H         1 VAL         0.0234
    174 H47        13.1837   -4.9259   14.2091 H         1 VAL         0.0234
    175 H48        14.7183    0.3001   19.1647 H         1 PRO         0.0802
    176 H49        13.1955    2.0333   18.9056 H         1 PRO         0.0313
    177 H50        12.0472    0.9857   19.8059 H         1 PRO         0.0313
    178 H51        10.9757    0.3164   17.9254 H         1 PRO         0.0287
    179 H52        11.6019    1.8797   17.3005 H         1 PRO         0.0287
    180 H53        12.1017   -0.5389   16.1156 H         1 PRO         0.0524
    181 H54        13.2202    0.8634   16.0193 H         1 PRO         0.0524
    182 H55        13.7953   -2.9090   22.0651 H         1 PRO         0.0802
    183 H56        14.0420   -2.0183   24.2182 H         1 PRO         0.0313
    184 H57        12.7768   -0.7716   23.9502 H         1 PRO         0.0313
    185 H58        14.6144    0.5873   23.8109 H         1 PRO         0.0287
    186 H59        15.6883   -0.7459   23.2669 H         1 PRO         0.0287
    187 H60        13.9167    1.0563   21.6807 H         1 PRO         0.0524
    188 H61        15.4254    0.2060   21.2037 H         1 PRO         0.0524
    189 H62        12.0624   -4.2137   22.3002 H         1 ARG         0.1883
    190 H63         9.5114   -3.4671   21.3181 H         1 ARG         0.0800
    191 H64         8.9108   -5.6601   22.8497 H         1 ARG         0.0313
    192 H65        10.6782   -5.8688   22.6055 H         1 ARG         0.0313
    193 H66         8.6628   -5.3947   20.3846 H         1 ARG         0.0301
    194 H67         9.2411   -7.0104   20.9155 H         1 ARG         0.0301
    195 H68        11.4917   -6.5060   20.1940 H         1 ARG         0.0689
    196 H69        11.0409   -4.8063   19.8273 H         1 ARG         0.0689
    197 H70         9.2351   -6.2642   18.3327 H         1 ARG         0.2642
    198 H71        11.1552   -7.2231   15.5860 H         1 ARG         0.2615
    199 H72         9.5150   -6.9595   16.2363 H         1 ARG         0.2615
    200 H73        12.7801   -6.2722   18.5751 H         1 ARG         0.2615
    201 H74        12.9832   -6.7935   16.8811 H         1 ARG         0.2615
    202 H75        10.8239   -3.1437   24.5665 H         1 LYS         0.1883
    203 H76         8.3149   -3.0567   25.9265 H         1 LYS         0.0800
    204 H77        10.4553   -3.3708   27.0855 H         1 LYS         0.0312
    205 H78         9.4738   -2.0321   27.7720 H         1 LYS         0.0312
    206 H79        10.9418   -0.3827   26.9266 H         1 LYS         0.0269
    207 H80        11.7608   -1.5522   25.8365 H         1 LYS         0.0269
    208 H81        12.9075   -2.5971   27.5975 H         1 LYS         0.0317
    209 H82        11.7384   -2.0221   28.8341 H         1 LYS         0.0317
    210 H83        13.9447   -0.9113   28.9841 H         1 LYS         0.0813
    211 H84        12.5947    0.2310   28.6693 H         1 LYS         0.0813
    212 H85        14.5079    0.7119   27.3340 H         1 LYS         0.1994
    213 H86        13.2519    0.2567   26.3724 H         1 LYS         0.1994
    214 H87        14.4890   -0.7901   26.6609 H         1 LYS         0.1994
    215 H88         9.8478   -0.7934   23.8231 H         1 GLU         0.1883
    216 H89         8.4457    1.5080   24.9070 H         1 GLU         0.0801
    217 H90         9.3350    2.6547   22.8314 H         1 GLU         0.0330
    218 H91        10.1132    1.0942   22.4005 H         1 GLU         0.0330
    219 H92        11.2694    1.1299   24.6262 H         1 GLU         0.0433
    220 H93        10.5882    2.7690   24.9022 H         1 GLU         0.0433
    221 H94         7.3217   -1.0428   23.0509 H         1 LYS         0.1883
    222 H95         5.5029    0.3280   21.3156 H         1 LYS         0.0800
    223 H96         4.1178   -1.8257   21.6032 H         1 LYS         0.0312
    224 H97         5.4706   -2.4092   22.6309 H         1 LYS         0.0312
    225 H98         7.0315   -2.1738   20.7897 H         1 LYS         0.0269
    226 H99         5.7567   -1.4408   19.7581 H         1 LYS         0.0269
    227 H100        6.0453   -3.7350   19.1002 H         1 LYS         0.0317
    228 H101        4.4667   -3.5802   19.9433 H         1 LYS         0.0317
    229 H102        5.3152   -4.5906   21.9212 H         1 LYS         0.0813
    230 H103        7.0125   -4.4579   21.3483 H         1 LYS         0.0813
    231 H104        6.1459   -6.6714   21.0846 H         1 LYS         0.1994
    232 H105        6.4680   -6.0131   19.6107 H         1 LYS         0.1994
    233 H106        4.9126   -6.1347   20.1357 H         1 LYS         0.1994
    234 H107        5.4070   -0.5456   24.7560 H         1 MET         0.1883
    235 H108        2.7140    0.2870   25.2462 H         1 MET         0.0800
    236 H109        3.3779    0.4934   27.5818 H         1 MET         0.0320
    237 H110        5.1129    0.4551   27.1182 H         1 MET         0.0320
    238 H111        5.1655   -1.7593   27.1821 H         1 MET         0.0378
    239 H112        3.7158   -1.8923   26.1298 H         1 MET         0.0378
    240 H113        2.8654   -1.0229   30.6238 H         1 MET         0.0340
    241 H114        3.0415    0.1937   29.3141 H         1 MET         0.0340
    242 H115        4.4846   -0.6856   29.9232 H         1 MET         0.0340
    243 H116        2.1454    2.2368   26.5549 H         1 ARG         0.1883
    244 H117        2.8405    4.5637   25.0233 H         1 ARG         0.0800
    245 H118        1.4721    4.7614   27.7013 H         1 ARG         0.0313
    246 H119        0.6536    3.8951   26.3573 H         1 ARG         0.0313
    247 H120        0.8093    5.8939   24.9633 H         1 ARG         0.0301
    248 H121        1.6507    6.7622   26.2918 H         1 ARG         0.0301
    249 H122       -0.6990    5.7780   27.4654 H         1 ARG         0.0689
    250 H123       -1.2019    6.3324   25.8325 H         1 ARG         0.0689
    251 H124       -0.4101    7.9780   28.0960 H         1 ARG         0.2642
    252 H125       -0.3212   10.9285   26.2080 H         1 ARG         0.2615
    253 H126       -0.3483   10.2125   27.8417 H         1 ARG         0.2615
    254 H127       -0.3994    7.8162   24.5356 H         1 ARG         0.2615
    255 H128       -0.3562    9.5912   24.3613 H         1 ARG         0.2615
    256 H129        3.6209    6.5886   25.8442 H         1 GLY         0.1881
    257 H130        5.3306    6.6747   28.1885 H         1 GLY         0.0763
    258 H131        5.1560    7.9374   26.9228 H         1 GLY         0.0763
    259 H132        5.7533    6.0001   24.7583 H         1 LYS         0.1884
    260 H133        7.3872    4.7736   23.7288 H         1 LYS         0.0816
    261 H134        9.0284    6.8626   25.1911 H         1 LYS         0.0313
    262 H135        8.6044    6.7653   23.4483 H         1 LYS         0.0313
    263 H136       10.0098    4.5520   23.5031 H         1 LYS         0.0269
    264 H137       10.6968    5.2418   25.0128 H         1 LYS         0.0269
    265 H138       10.6169    6.7506   22.3732 H         1 LYS         0.0317
    266 H139       11.9867    5.6990   22.8677 H         1 LYS         0.0317
    267 H140       11.3147    7.4687   25.0414 H         1 LYS         0.0813
    268 H141       11.5075    8.4270   23.5343 H         1 LYS         0.0813
    269 H142       13.5792    8.1412   24.6882 H         1 LYS         0.1994
    270 H143       13.6372    7.3794   23.2303 H         1 LYS         0.1994
    271 H144       13.4605    6.5013   24.6113 H         1 LYS         0.1994
    272 H145        9.7399    3.9791   26.6618 H         1 LYS         0.2540
@<TRIPOS>BOND
     1    2    1 1  
     2    3    2 1  
     3    3    4 2  
     4    6    5 1  
     5    6    9 1  
     6    7    6 1  
     7    7    8 2  
     8    9   10 1  
     9   10   11 1  
    10   11   13 am 
    11   11   12 2  
    12    5    3 am 
    13   16   15 1  
    14   15   18 1  
    15   15   14 1  
    16   14   20 1  
    17   20   19 1  
    18   18   19 1  
    19   16   17 2  
    20   14    7 am 
    21   23   22 1  
    22   22   25 1  
    23   22   21 1  
    24   21   27 1  
    25   27   26 1  
    26   25   26 1  
    27   23   24 2  
    28   21   16 am 
    29   29   28 1  
    30   29   32 1  
    31   30   29 1  
    32   30   31 2  
    33   32   33 1  
    34   33   34 1  
    35   33   35 1  
    36   28   23 am 
    37   37   36 1  
    38   37   40 1  
    39   38   37 1  
    40   38   39 2  
    41   40   42 1  
    42   40   41 1  
    43   36   30 am 
    44   45   44 1  
    45   44   47 1  
    46   44   43 1  
    47   43   49 1  
    48   49   48 1  
    49   47   48 1  
    50   45   46 2  
    51   43   38 am 
    52   52   51 1  
    53   51   54 1  
    54   51   50 1  
    55   50   56 1  
    56   56   55 1  
    57   54   55 1  
    58   52   53 2  
    59   50   45 am 
    60   58   57 1  
    61   58   61 1  
    62   59   58 1  
    63   59   60 2  
    64   61   62 1  
    65   62   63 1  
    66   63   64 1  
    67   64   65 ar 
    68   65   67 ar 
    69   65   66 ar 
    70   57   52 am 
    71   69   68 1  
    72   69   72 1  
    73   70   69 1  
    74   70   71 2  
    75   72   73 1  
    76   73   74 1  
    77   74   75 1  
    78   75   76 1  
    79   68   59 am 
    80   78   77 1  
    81   78   81 1  
    82   79   78 1  
    83   79   80 2  
    84   81   82 1  
    85   82   83 1  
    86   83   85 ar 
    87   83   84 ar 
    88   77   70 am 
    89   87   86 1  
    90   87   90 1  
    91   88   87 1  
    92   88   89 2  
    93   90   91 1  
    94   91   92 1  
    95   92   93 1  
    96   93   94 1  
    97   86   79 am 
    98   96   95 1  
    99   96   99 1  
   100   97   96 1  
   101   97   98 2  
   102   99  100 1  
   103  100  101 1  
   104  101  102 1  
   105   95   88 am 
   106  104  103 1  
   107  104  107 1  
   108  105  104 1  
   109  105  106 2  
   110  107  108 1  
   111  108  109 1  
   112  109  110 1  
   113  110  111 ar 
   114  111  113 ar 
   115  111  112 ar 
   116  103   97 am 
   117  115  114 1  
   118  116  115 1  
   119  116  117 2  
   120  114  105 am 
   121  118  119 1  
   122  119  122 1  
   123  119  120 1  
   124  120  121 2  
   125  122  123 1  
   126  123  124 1  
   127  124  125 1  
   128  125  126 1  
   129  116  118 am 
   130  120  127 1  
   131    1  128 1  
   132    1  129 1  
   133    1  130 1  
   134    2  131 1  
   135    2  132 1  
   136    5  133 1  
   137    6  134 1  
   138    9  135 1  
   139    9  136 1  
   140   10  137 1  
   141   10  138 1  
   142   13  139 1  
   143   13  140 1  
   144   15  141 1  
   145   18  142 1  
   146   18  143 1  
   147   19  144 1  
   148   19  145 1  
   149   20  146 1  
   150   20  147 1  
   151   22  148 1  
   152   25  149 1  
   153   25  150 1  
   154   26  151 1  
   155   26  152 1  
   156   27  153 1  
   157   27  154 1  
   158   28  155 1  
   159   29  156 1  
   160   32  157 1  
   161   32  158 1  
   162   33  159 1  
   163   34  160 1  
   164   34  161 1  
   165   34  162 1  
   166   35  163 1  
   167   35  164 1  
   168   35  165 1  
   169   36  166 1  
   170   37  167 1  
   171   40  168 1  
   172   41  169 1  
   173   41  170 1  
   174   41  171 1  
   175   42  172 1  
   176   42  173 1  
   177   42  174 1  
   178   44  175 1  
   179   47  176 1  
   180   47  177 1  
   181   48  178 1  
   182   48  179 1  
   183   49  180 1  
   184   49  181 1  
   185   51  182 1  
   186   54  183 1  
   187   54  184 1  
   188   55  185 1  
   189   55  186 1  
   190   56  187 1  
   191   56  188 1  
   192   57  189 1  
   193   58  190 1  
   194   61  191 1  
   195   61  192 1  
   196   62  193 1  
   197   62  194 1  
   198   63  195 1  
   199   63  196 1  
   200   64  197 1  
   201   66  198 1  
   202   66  199 1  
   203   67  200 1  
   204   67  201 1  
   205   68  202 1  
   206   69  203 1  
   207   72  204 1  
   208   72  205 1  
   209   73  206 1  
   210   73  207 1  
   211   74  208 1  
   212   74  209 1  
   213   75  210 1  
   214   75  211 1  
   215   76  212 1  
   216   76  213 1  
   217   76  214 1  
   218   77  215 1  
   219   78  216 1  
   220   81  217 1  
   221   81  218 1  
   222   82  219 1  
   223   82  220 1  
   224   86  221 1  
   225   87  222 1  
   226   90  223 1  
   227   90  224 1  
   228   91  225 1  
   229   91  226 1  
   230   92  227 1  
   231   92  228 1  
   232   93  229 1  
   233   93  230 1  
   234   94  231 1  
   235   94  232 1  
   236   94  233 1  
   237   95  234 1  
   238   96  235 1  
   239   99  236 1  
   240   99  237 1  
   241  100  238 1  
   242  100  239 1  
   243  102  240 1  
   244  102  241 1  
   245  102  242 1  
   246  103  243 1  
   247  104  244 1  
   248  107  245 1  
   249  107  246 1  
   250  108  247 1  
   251  108  248 1  
   252  109  249 1  
   253  109  250 1  
   254  110  251 1  
   255  112  252 1  
   256  112  253 1  
   257  113  254 1  
   258  113  255 1  
   259  114  256 1  
   260  115  257 1  
   261  115  258 1  
   262  118  259 1  
   263  119  260 1  
   264  122  261 1  
   265  122  262 1  
   266  123  263 1  
   267  123  264 1  
   268  124  265 1  
   269  124  266 1  
   270  125  267 1  
   271  125  268 1  
   272  126  269 1  
   273  126  270 1  
   274  126  271 1  
   275  127  272 1  
@<TRIPOS>SUBSTRUCTURE
     1 GLY         1

