1uti_ligand
  -I-interpret- 

271274  0  0  0  0  0  0  0  0999 V2000
   24.9300   -0.3000    4.2770 N   0  3  0  0  0
   24.0390   -1.3310    3.6800 C   0  0  0  0  0
   22.9430   -1.8080    4.6180 C   0  0  0  0  0
   21.7730   -1.8760    4.2240 O   0  0  0  0  0
   23.3060   -2.1320    5.8590 N   0  0  0  0  0
   22.3910   -2.8550    6.7440 C   0  0  0  0  0
   21.2960   -1.9460    7.2920 C   0  0  0  0  0
   21.5620   -0.7880    7.6120 O   0  0  0  0  0
   23.1490   -3.5130    7.8990 C   0  0  0  0  0
   24.1850   -4.5350    7.4410 C   0  0  0  0  0
   24.4050   -5.6520    8.4440 C   0  0  0  0  0
   25.3680   -5.6230    9.2030 O   0  0  0  0  0
   23.5170   -6.6370    8.4460 N   0  0  0  0  0
   20.0720   -2.4670    7.4040 N   0  0  0  0  0
   18.9680   -1.6810    7.9660 C   0  0  0  0  0
   19.2390   -1.3010    9.4150 C   0  0  0  0  0
   20.0340   -1.9580   10.0920 O   0  0  0  0  0
   17.7700   -2.6320    7.8800 C   0  0  0  0  0
   18.1700   -3.6710    6.9150 C   0  0  0  0  0
   19.6360   -3.8240    7.0310 C   0  0  0  0  0
   18.5810   -0.2510    9.8930 N   0  0  0  0  0
   18.7750    0.1900   11.2720 C   0  0  0  0  0
   18.1700   -0.7860   12.2600 C   0  0  0  0  0
   17.3760   -1.6500   11.8830 O   0  0  0  0  0
   18.0300    1.5240   11.3110 C   0  0  0  0  0
   16.9550    1.3760   10.2920 C   0  0  0  0  0
   17.5760    0.5710    9.1950 C   0  0  0  0  0
   18.5480   -0.6410   13.5210 N   0  0  0  0  0
   17.9690   -1.4470   14.5800 C   0  0  0  0  0
   16.4870   -1.1550   14.7340 C   0  0  0  0  0
   16.0190   -0.0490   14.4640 O   0  0  0  0  0
   18.6640   -1.1760   15.9190 C   0  0  0  0  0
   20.1560   -1.4770   16.0130 C   0  0  0  0  0
   20.6280   -1.1930   17.4240 C   0  0  0  0  0
   20.4690   -2.9130   15.6270 C   0  0  0  0  0
   15.7690   -2.1750   15.1810 N   0  0  0  0  0
   14.4200   -2.0390   15.7000 C   0  0  0  0  0
   14.5240   -1.5390   17.1410 C   0  0  0  0  0
   15.3700   -2.0150   17.9050 O   0  0  0  0  0
   13.6970   -3.4060   15.6590 C   0  0  0  0  0
   12.3100   -3.3260   16.2780 C   0  0  0  0  0
   13.6310   -3.9210   14.2190 C   0  0  0  0  0
   13.6980   -0.5650   17.5220 N   0  0  0  0  0
   13.7190   -0.0800   18.9060 C   0  0  0  0  0
   13.3280   -1.1720   19.8980 C   0  0  0  0  0
   12.7170   -2.1750   19.5160 O   0  0  0  0  0
   12.6870    1.0580   18.9140 C   0  0  0  0  0
   11.8840    0.8940   17.6990 C   0  0  0  0  0
   12.7170    0.1610   16.7000 C   0  0  0  0  0
   13.6700   -0.9930   21.1710 N   0  0  0  0  0
   13.2550   -1.9590   22.1900 C   0  0  0  0  0
   11.7520   -2.2280   22.1440 C   0  0  0  0  0
   10.9580   -1.2940   22.0370 O   0  0  0  0  0
   13.6470   -1.2780   23.5070 C   0  0  0  0  0
   14.6920   -0.2930   23.1560 C   0  0  0  0  0
   14.4680    0.1060   21.7360 C   0  0  0  0  0
   11.3680   -3.4970   22.2350 N   0  0  0  0  0
    9.9510   -3.8710   22.2420 C   0  0  0  0  0
    9.1700   -3.2650   23.4130 C   0  0  0  0  0
    7.9680   -3.0560   23.2910 O   0  0  0  0  0
    9.7660   -5.3990   22.2090 C   0  0  0  0  0
    9.5090   -5.9480   20.8180 C   0  0  0  0  0
   10.6800   -5.8450   19.8560 C   0  0  0  0  0
   10.2480   -6.2480   18.5190 N   0  0  0  0  0
   11.0560   -6.5940   17.5280 C   0  0  0  0  0
   10.5370   -6.9520   16.3640 N   0  0  0  0  0
   12.3700   -6.5500   17.6720 N   0  0  0  0  0
    9.8400   -2.9700   24.5240 N   0  0  0  0  0
    9.1600   -2.3960   25.6830 C   0  0  0  0  0
    8.5880   -1.0180   25.3810 C   0  0  0  0  0
    7.6580   -0.5680   26.0490 O   0  0  0  0  0
   10.0790   -2.3520   26.9110 C   0  0  0  0  0
   11.2790   -1.4240   26.8170 C   0  0  0  0  0
   12.2900   -1.7470   27.9230 C   0  0  0  0  0
   13.2020   -0.5810   28.2430 C   0  0  0  0  0
   13.9200   -0.0590   27.0580 N   0  3  0  0  0
    9.1150   -0.3640   24.3510 N   0  0  0  0  0
    8.6500    0.9640   23.9730 C   0  0  0  0  0
    7.3510    0.9720   23.1650 C   0  0  0  0  0
    6.8400    2.0410   22.8520 O   0  0  0  0  0
    9.7530    1.7190   23.2310 C   0  0  0  0  0
   10.9290    2.0550   24.1380 C   0  0  0  0  0
   12.0950    2.6640   23.3990 C   0  0  0  0  0
   11.9570    2.9520   22.1930 O   0  0  0  0  0
   13.1560    2.8590   24.0250 O   0  0  0  0  0
    6.8140   -0.2050   22.8500 N   0  0  0  0  0
    5.5010   -0.3010   22.2180 C   0  0  0  0  0
    4.4260    0.2110   23.1630 C   0  0  0  0  0
    3.4380    0.7870   22.7190 O   0  0  0  0  0
    5.1960   -1.7390   21.8030 C   0  0  0  0  0
    5.9560   -2.1680   20.5590 C   0  0  0  0  0
    5.5590   -3.5480   20.0690 C   0  0  0  0  0
    5.9710   -4.6300   21.0390 C   0  0  0  0  0
    5.8660   -5.9690   20.4180 N   0  3  0  0  0
    4.6300    0.0120   24.4640 N   0  0  0  0  0
    3.7470    0.5880   25.4750 C   0  0  0  0  0
    3.8290    2.1140   25.4600 C   0  0  0  0  0
    4.7720    2.6910   24.9230 O   0  0  0  0  0
    4.1090    0.0790   26.8720 C   0  0  0  0  0
    4.1220   -1.4390   27.0460 C   0  0  0  0  0
    3.1450   -2.0560   28.4700 S   0  0  0  0  0
    3.4100   -0.7670   29.7030 C   0  0  0  0  0
    2.8460    2.7630   26.0730 N   0  0  0  0  0
    2.7550    4.2240   26.0660 C   0  0  0  0  0
    3.8850    4.8810   26.8710 C   0  0  0  0  0
    4.4520    4.2740   27.7830 O   0  0  0  0  0
    1.3940    4.6690   26.6080 C   0  0  0  0  0
    0.9050    5.9890   26.0550 C   0  0  0  0  0
   -0.4380    6.4290   26.6180 C   0  0  0  0  0
   -0.4070    7.8150   27.0790 N   0  0  0  0  0
   -0.3750    8.8840   26.2850 C   0  0  0  0  0
   -0.3460   10.0990   26.8180 N   0  0  0  0  0
   -0.3770    8.7540   24.9610 N   0  0  0  0  0
    4.1880    6.1310   26.5290 N   0  0  0  0  0
    5.3060    6.8630   27.1050 C   0  0  0  0  0
    6.6400    6.4490   26.5080 C   0  0  0  0  0
    7.6860    6.6370   27.1350 O   0  0  0  0  0
    6.6000    5.9180   25.2840 N   0  0  0  0  0
    7.7340    5.2210   24.6720 C   0  0  0  0  0
    8.2100    4.0920   25.5860 C   0  0  0  0  0
    7.3990    3.3760   26.1780 O   0  0  0  0  0
    8.8860    6.1830   24.3380 C   0  0  0  0  0
   10.2140    5.4820   24.0540 C   0  0  0  0  0
   11.1660    6.3350   23.2310 C   0  0  0  0  0
   11.7540    7.4780   24.0330 C   0  0  0  0  0
   13.2250    7.3660   24.1500 N   0  3  0  0  0
    9.5133    3.8795   25.7446 O   0  0  0  0  0
   25.6379   -0.0280    3.5949 H   0  0  0  0  0
   24.3765    0.5160    4.5382 H   0  0  0  0  0
   25.3843   -0.6836    5.1058 H   0  0  0  0  0
   24.6576   -2.1945    3.4356 H   0  0  0  0  0
   23.5538   -0.8807    2.8140 H   0  0  0  0  0
   24.2331   -1.8729    6.1963 H   0  0  0  0  0
   21.9173   -3.6320    6.1440 H   0  0  0  0  0
   22.4184   -4.0391    8.5135 H   0  0  0  0  0
   23.6793   -2.7255    8.4344 H   0  0  0  0  0
   25.1329   -4.0116    7.3156 H   0  0  0  0  0
   23.8192   -4.9861    6.5186 H   0  0  0  0  0
   23.6192   -7.4145    9.0983 H   0  0  0  0  0
   22.7318   -6.6171    7.7953 H   0  0  0  0  0
   18.8142   -0.7416    7.4350 H   0  0  0  0  0
   16.8665   -2.1127    7.5603 H   0  0  0  0  0
   17.5252   -3.0592    8.8524 H   0  0  0  0  0
   17.6649   -4.6128    7.1295 H   0  0  0  0  0
   17.8902   -3.3851    5.9011 H   0  0  0  0  0
   19.9293   -4.5809    7.7584 H   0  0  0  0  0
   20.1009   -4.1838    6.1131 H   0  0  0  0  0
   19.8271    0.2657   11.5468 H   0  0  0  0  0
   18.6866    2.3667   11.0948 H   0  0  0  0  0
   17.6292    1.7410   12.3012 H   0  0  0  0  0
   16.0711    0.8880   10.7028 H   0  0  0  0  0
   16.5992    2.3423    9.9345 H   0  0  0  0  0
   16.8454   -0.0327    8.6566 H   0  0  0  0  0
   18.0160    1.1958    8.4178 H   0  0  0  0  0
   19.2605    0.0512   13.7526 H   0  0  0  0  0
   18.1088   -2.4918   14.3027 H   0  0  0  0  0
   18.1852   -1.8413   16.6375 H   0  0  0  0  0
   18.5706   -0.1029   16.0855 H   0  0  0  0  0
   20.6839   -0.8353   15.3075 H   0  0  0  0  0
   20.4481   -0.1446   17.6618 H   0  0  0  0  0
   20.0800   -1.8247   18.1231 H   0  0  0  0  0
   21.6944   -1.4060   17.4988 H   0  0  0  0  0
   19.9402   -3.5914   16.2965 H   0  0  0  0  0
   20.1481   -3.0901   14.6005 H   0  0  0  0  0
   21.5425   -3.0839   15.7081 H   0  0  0  0  0
   16.1864   -3.1054   15.1593 H   0  0  0  0  0
   13.8469   -1.3357   15.0959 H   0  0  0  0  0
   14.2719   -4.1131   16.2570 H   0  0  0  0  0
   12.3954   -3.0129   17.3185 H   0  0  0  0  0
   11.7091   -2.6021   15.7276 H   0  0  0  0  0
   11.8350   -4.3059   16.2299 H   0  0  0  0  0
   13.0837   -3.2068   13.6038 H   0  0  0  0  0
   14.6423   -4.0379   13.8296 H   0  0  0  0  0
   13.1201   -4.8837   14.2018 H   0  0  0  0  0
   14.7145    0.2427   19.2108 H   0  0  0  0  0
   13.1771    2.0314   18.9315 H   0  0  0  0  0
   12.0619    1.0140   19.8059 H   0  0  0  0  0
   10.9745    0.3346   17.9180 H   0  0  0  0  0
   11.5882    1.8666   17.3057 H   0  0  0  0  0
   12.1232   -0.5078   16.0769 H   0  0  0  0  0
   13.1922    0.8325   15.9849 H   0  0  0  0  0
   13.7224   -2.9338   22.0506 H   0  0  0  0  0
   14.0134   -2.0026   24.2342 H   0  0  0  0  0
   12.7887   -0.7957   23.9747 H   0  0  0  0  0
   14.6341    0.5761   23.8113 H   0  0  0  0  0
   15.6841   -0.7274   23.2794 H   0  0  0  0  0
   13.9589    1.0664   21.6551 H   0  0  0  0  0
   15.4048    0.2515   21.1981 H   0  0  0  0  0
   12.0763   -4.2280   22.3015 H   0  0  0  0  0
    9.5337   -3.4477   21.3284 H   0  0  0  0  0
    8.8958   -5.6368   22.8209 H   0  0  0  0  0
   10.6898   -5.8487   22.5730 H   0  0  0  0  0
    8.7003   -5.3544   20.3916 H   0  0  0  0  0
    9.2928   -7.0099   20.9355 H   0  0  0  0  0
   11.4845   -6.4997   20.1910 H   0  0  0  0  0
   11.0379   -4.8158   19.8277 H   0  0  0  0  0
    9.2450   -6.2641   18.3345 H   0  0  0  0  0
   11.1497   -7.1919   15.5846 H   0  0  0  0  0
    9.5244   -6.9879   16.2465 H   0  0  0  0  0
   12.7762   -6.2460   18.5569 H   0  0  0  0  0
   10.8436   -3.1472   24.5673 H   0  0  0  0  0
    8.3227   -3.0540   25.9156 H   0  0  0  0  0
   10.4806   -3.3586   27.0273 H   0  0  0  0  0
    9.4696   -1.9797   27.7345 H   0  0  0  0  0
   10.9419   -0.3939   26.9330 H   0  0  0  0  0
   11.7577   -1.5589   25.8471 H   0  0  0  0  0
   12.9121   -2.5721   27.5761 H   0  0  0  0  0
   11.7304   -1.9908   28.8261 H   0  0  0  0  0
   13.9499   -0.9323   28.9538 H   0  0  0  0  0
   12.5819    0.2252   28.6348 H   0  0  0  0  0
   14.5145    0.7209   27.3385 H   0  0  0  0  0
   14.4954   -0.7997   26.6570 H   0  0  0  0  0
   13.2430    0.2601   26.3650 H   0  0  0  0  0
    9.8624   -0.8020   23.8126 H   0  0  0  0  0
    8.4129    1.4745   24.9064 H   0  0  0  0  0
    9.3334    2.6536   22.8588 H   0  0  0  0  0
   10.1172    1.0821   22.4248 H   0  0  0  0  0
   11.2738    1.1249   24.5897 H   0  0  0  0  0
   10.5837    2.7857   24.8694 H   0  0  0  0  0
   11.0691    2.7218   21.9098 H   0  0  0  0  0
    7.3318   -1.0596   23.0549 H   0  0  0  0  0
    5.5099    0.3171   21.3202 H   0  0  0  0  0
    4.1307   -1.8032   21.5815 H   0  0  0  0  0
    5.4985   -2.3932   22.6207 H   0  0  0  0  0
    7.0161   -2.1970   20.8108 H   0  0  0  0  0
    5.7262   -1.4553   19.7669 H   0  0  0  0  0
    6.0613   -3.7311   19.1191 H   0  0  0  0  0
    4.4741   -3.5755   19.9668 H   0  0  0  0  0
    5.3092   -4.5936   21.9044 H   0  0  0  0  0
    7.0074   -4.4609   21.3311 H   0  0  0  0  0
    6.1495   -6.6789   21.0934 H   0  0  0  0  0
    4.9009   -6.1355   20.1328 H   0  0  0  0  0
    6.4755   -6.0124   19.6013 H   0  0  0  0  0
    5.4226   -0.5568   24.7618 H   0  0  0  0  0
    2.7296    0.2792   25.2351 H   0  0  0  0  0
    3.3410    0.4588   27.5458 H   0  0  0  0  0
    5.1255    0.4195   27.0691 H   0  0  0  0  0
    5.1577   -1.7291   27.2225 H   0  0  0  0  0
    3.6762   -1.8650   26.1472 H   0  0  0  0  0
    4.4751   -0.6873   29.9203 H   0  0  0  0  0
    3.0446    0.1844   29.3165 H   0  0  0  0  0
    2.8699   -1.0217   30.6149 H   0  0  0  0  0
    2.1314    2.2263   26.5645 H   0  0  0  0  0
    2.8612    4.5512   25.0317 H   0  0  0  0  0
    1.5030    4.7934   27.6854 H   0  0  0  0  0
    0.6685    3.9101   26.3150 H   0  0  0  0  0
    0.7824    5.8658   24.9789 H   0  0  0  0  0
    1.6375    6.7482   26.3291 H   0  0  0  0  0
   -0.6779    5.7909   27.4685 H   0  0  0  0  0
   -1.1835    6.3483   25.8269 H   0  0  0  0  0
   -0.4101    7.9764   28.0861 H   0  0  0  0  0
   -0.3483   10.2114   27.8318 H   0  0  0  0  0
   -0.3564    9.5830   24.3671 H   0  0  0  0  0
   -0.3992    7.8253   24.5398 H   0  0  0  0  0
    3.6095    6.5977   25.8305 H   0  0  0  0  0
    5.3342    6.6488   28.1734 H   0  0  0  0  0
    5.1580    7.9226   26.8965 H   0  0  0  0  0
    5.7364    6.0017   24.7478 H   0  0  0  0  0
    7.3954    4.7924   23.7287 H   0  0  0  0  0
    9.0364    6.8234   25.2071 H   0  0  0  0  0
    8.6051    6.7245   23.4347 H   0  0  0  0  0
    9.9991    4.5776   23.4848 H   0  0  0  0  0
   10.6935    5.2749   25.0107 H   0  0  0  0  0
   10.6054    6.7597   22.3982 H   0  0  0  0  0
   11.9861    5.6996   22.8967 H   0  0  0  0  0
   11.3269    7.4491   25.0354 H   0  0  0  0  0
   11.5207    8.4118   23.5214 H   0  0  0  0  0
   13.5823    8.1509   24.6948 H   0  0  0  0  0
   13.4621    6.4906   24.6168 H   0  0  0  0  0
   13.6410    7.3796   23.2188 H   0  0  0  0  0
   10.0061    4.5157   25.2211 H   0  0  0  0  0
  2  1  1  0  0  0
  3  2  1  0  0  0
  3  4  2  0  0  0
  6  5  1  0  0  0
  6  9  1  0  0  0
  7  6  1  0  0  0
  7  8  2  0  0  0
  9 10  1  0  0  0
 10 11  1  0  0  0
 11 13  1  0  0  0
 11 12  2  0  0  0
  5  3  1  0  0  0
 16 15  1  0  0  0
 15 18  1  0  0  0
 15 14  1  0  0  0
 14 20  1  0  0  0
 20 19  1  0  0  0
 18 19  1  0  0  0
 16 17  2  0  0  0
 14  7  1  0  0  0
 23 22  1  0  0  0
 22 25  1  0  0  0
 22 21  1  0  0  0
 21 27  1  0  0  0
 27 26  1  0  0  0
 25 26  1  0  0  0
 23 24  2  0  0  0
 21 16  1  0  0  0
 29 28  1  0  0  0
 29 32  1  0  0  0
 30 29  1  0  0  0
 30 31  2  0  0  0
 32 33  1  0  0  0
 33 34  1  0  0  0
 33 35  1  0  0  0
 28 23  1  0  0  0
 37 36  1  0  0  0
 37 40  1  0  0  0
 38 37  1  0  0  0
 38 39  2  0  0  0
 40 42  1  0  0  0
 40 41  1  0  0  0
 36 30  1  0  0  0
 45 44  1  0  0  0
 44 47  1  0  0  0
 44 43  1  0  0  0
 43 49  1  0  0  0
 49 48  1  0  0  0
 47 48  1  0  0  0
 45 46  2  0  0  0
 43 38  1  0  0  0
 52 51  1  0  0  0
 51 54  1  0  0  0
 51 50  1  0  0  0
 50 56  1  0  0  0
 56 55  1  0  0  0
 54 55  1  0  0  0
 52 53  2  0  0  0
 50 45  1  0  0  0
 58 57  1  0  0  0
 58 61  1  0  0  0
 59 58  1  0  0  0
 59 60  2  0  0  0
 61 62  1  0  0  0
 62 63  1  0  0  0
 63 64  1  0  0  0
 64 65  1  0  0  0
 65 67  2  0  0  0
 65 66  1  0  0  0
 57 52  1  0  0  0
 69 68  1  0  0  0
 69 72  1  0  0  0
 70 69  1  0  0  0
 70 71  2  0  0  0
 72 73  1  0  0  0
 73 74  1  0  0  0
 74 75  1  0  0  0
 75 76  1  0  0  0
 68 59  1  0  0  0
 78 77  1  0  0  0
 78 81  1  0  0  0
 79 78  1  0  0  0
 79 80  2  0  0  0
 81 82  1  0  0  0
 82 83  1  0  0  0
 83 85  2  0  0  0
 83 84  1  0  0  0
 77 70  1  0  0  0
 87 86  1  0  0  0
 87 90  1  0  0  0
 88 87  1  0  0  0
 88 89  2  0  0  0
 90 91  1  0  0  0
 91 92  1  0  0  0
 92 93  1  0  0  0
 93 94  1  0  0  0
 86 79  1  0  0  0
 96 95  1  0  0  0
 96 99  1  0  0  0
 97 96  1  0  0  0
 97 98  2  0  0  0
 99100  1  0  0  0
100101  1  0  0  0
101102  1  0  0  0
 95 88  1  0  0  0
104103  1  0  0  0
104107  1  0  0  0
105104  1  0  0  0
105106  2  0  0  0
107108  1  0  0  0
108109  1  0  0  0
109110  1  0  0  0
110111  1  0  0  0
111113  1  0  0  0
111112  2  0  0  0
103 97  1  0  0  0
115114  1  0  0  0
116115  1  0  0  0
116117  2  0  0  0
114105  1  0  0  0
118119  1  0  0  0
119122  1  0  0  0
119120  1  0  0  0
120121  2  0  0  0
122123  1  0  0  0
123124  1  0  0  0
124125  1  0  0  0
125126  1  0  0  0
116118  1  0  0  0
120127  1  0  0  0
  1128  1  0  0  0
  1129  1  0  0  0
  1130  1  0  0  0
  2131  1  0  0  0
  2132  1  0  0  0
  5133  1  0  0  0
  6134  1  0  0  0
  9135  1  0  0  0
  9136  1  0  0  0
 10137  1  0  0  0
 10138  1  0  0  0
 13139  1  0  0  0
 13140  1  0  0  0
 15141  1  0  0  0
 18142  1  0  0  0
 18143  1  0  0  0
 19144  1  0  0  0
 19145  1  0  0  0
 20146  1  0  0  0
 20147  1  0  0  0
 22148  1  0  0  0
 25149  1  0  0  0
 25150  1  0  0  0
 26151  1  0  0  0
 26152  1  0  0  0
 27153  1  0  0  0
 27154  1  0  0  0
 28155  1  0  0  0
 29156  1  0  0  0
 32157  1  0  0  0
 32158  1  0  0  0
 33159  1  0  0  0
 34160  1  0  0  0
 34161  1  0  0  0
 34162  1  0  0  0
 35163  1  0  0  0
 35164  1  0  0  0
 35165  1  0  0  0
 36166  1  0  0  0
 37167  1  0  0  0
 40168  1  0  0  0
 41169  1  0  0  0
 41170  1  0  0  0
 41171  1  0  0  0
 42172  1  0  0  0
 42173  1  0  0  0
 42174  1  0  0  0
 44175  1  0  0  0
 47176  1  0  0  0
 47177  1  0  0  0
 48178  1  0  0  0
 48179  1  0  0  0
 49180  1  0  0  0
 49181  1  0  0  0
 51182  1  0  0  0
 54183  1  0  0  0
 54184  1  0  0  0
 55185  1  0  0  0
 55186  1  0  0  0
 56187  1  0  0  0
 56188  1  0  0  0
 57189  1  0  0  0
 58190  1  0  0  0
 61191  1  0  0  0
 61192  1  0  0  0
 62193  1  0  0  0
 62194  1  0  0  0
 63195  1  0  0  0
 63196  1  0  0  0
 64197  1  0  0  0
 66198  1  0  0  0
 66199  1  0  0  0
 67200  1  0  0  0
 68201  1  0  0  0
 69202  1  0  0  0
 72203  1  0  0  0
 72204  1  0  0  0
 73205  1  0  0  0
 73206  1  0  0  0
 74207  1  0  0  0
 74208  1  0  0  0
 75209  1  0  0  0
 75210  1  0  0  0
 76211  1  0  0  0
 76212  1  0  0  0
 76213  1  0  0  0
 77214  1  0  0  0
 78215  1  0  0  0
 81216  1  0  0  0
 81217  1  0  0  0
 82218  1  0  0  0
 82219  1  0  0  0
 84220  1  0  0  0
 86221  1  0  0  0
 87222  1  0  0  0
 90223  1  0  0  0
 90224  1  0  0  0
 91225  1  0  0  0
 91226  1  0  0  0
 92227  1  0  0  0
 92228  1  0  0  0
 93229  1  0  0  0
 93230  1  0  0  0
 94231  1  0  0  0
 94232  1  0  0  0
 94233  1  0  0  0
 95234  1  0  0  0
 96235  1  0  0  0
 99236  1  0  0  0
 99237  1  0  0  0
100238  1  0  0  0
100239  1  0  0  0
102240  1  0  0  0
102241  1  0  0  0
102242  1  0  0  0
103243  1  0  0  0
104244  1  0  0  0
107245  1  0  0  0
107246  1  0  0  0
108247  1  0  0  0
108248  1  0  0  0
109249  1  0  0  0
109250  1  0  0  0
110251  1  0  0  0
112252  1  0  0  0
113253  1  0  0  0
113254  1  0  0  0
114255  1  0  0  0
115256  1  0  0  0
115257  1  0  0  0
118258  1  0  0  0
119259  1  0  0  0
122260  1  0  0  0
122261  1  0  0  0
123262  1  0  0  0
123263  1  0  0  0
124264  1  0  0  0
124265  1  0  0  0
125266  1  0  0  0
125267  1  0  0  0
126268  1  0  0  0
126269  1  0  0  0
126270  1  0  0  0
127271  1  0  0  0
M  END
$$$$
