6c8c_ligand
  -I-interpret- 

 46 48  0  0  0  0  0  0  0  0999 V2000
    0.4860  -15.3080  -10.3860 C   0  0  0  0  0
   -1.0500  -15.7690   -8.4630 C   0  0  0  0  0
   -0.0500  -15.1960   -7.4570 C   0  0  0  0  0
    4.7140  -15.8440  -11.2400 C   0  0  0  0  0
    5.4890  -16.9740  -11.4390 C   0  0  0  0  0
    6.8270  -16.8700  -11.8000 C   0  0  0  0  0
    5.2680  -14.6010  -11.4820 C   0  0  0  0  0
    2.6100  -20.4540  -12.2690 C   0  0  0  0  0
    1.8360  -21.5880  -12.4950 C   0  0  0  0  0
    0.4450  -21.4830  -12.2700 C   0  0  0  0  0
   -0.1580  -20.2950  -11.8260 C   0  0  0  0  0
    0.6270  -19.1440  -11.5960 C   0  0  0  0  0
    0.0370  -17.8200  -11.1170 C   0  0  0  0  0
    0.9460  -16.6720  -10.9020 C   0  0  0  0  0
   -0.9090  -15.0750   -9.8190 C   0  0  0  0  0
   -2.4690  -15.5440   -7.9460 C   0  0  0  0  0
    2.3940  -16.8710  -11.1470 C   0  0  0  0  0
    2.0060  -19.2840  -11.8250 C   0  0  0  0  0
    7.3530  -15.6040  -11.9920 C   0  0  0  0  0
    6.5900  -14.4810  -11.8400 C   0  0  0  0  0
    2.9170  -18.1250  -11.5970 N   0  0  0  0  0
    3.3050  -15.7790  -10.9300 N   0  0  0  0  0
   -1.5920  -20.2970  -11.6190 N   0  0  0  0  0
   -1.1270  -17.7140  -10.9310 O   0  0  0  0  0
    1.2510  -14.4020  -10.3470 O   0  0  0  0  0
   -2.0310  -20.7680  -10.6410 O   0  0  0  0  0
   -2.3060  -19.8430  -12.4390 O   0  0  0  0  0
    4.3580  -20.4800  -12.5500 Cl  0  0  0  0  0
    9.0410  -15.3790  -12.4700 Cl  0  0  0  0  0
    4.2920  -13.1470  -11.2960 Cl  0  0  0  0  0
   -0.8497  -16.8337   -8.5828 H   0  0  0  0  0
    0.9637  -15.3476   -7.8278 H   0  0  0  0  0
   -0.2358  -14.1296   -7.3291 H   0  0  0  0  0
   -0.1679  -15.7040   -6.4999 H   0  0  0  0  0
    5.0429  -17.9602  -11.3106 H   0  0  0  0  0
    7.4442  -17.7592  -11.9282 H   0  0  0  0  0
    2.2856  -22.5218  -12.8327 H   0  0  0  0  0
   -0.1830  -22.3561  -12.4476 H   0  0  0  0  0
   -1.6475  -15.4845  -10.5082 H   0  0  0  0  0
   -1.0679  -14.0043   -9.6904 H   0  0  0  0  0
   -2.6492  -14.4746   -7.8368 H   0  0  0  0  0
   -3.1832  -15.9636   -8.6544 H   0  0  0  0  0
   -2.5839  -16.0337   -6.9790 H   0  0  0  0  0
    7.0268  -13.4955  -12.0016 H   0  0  0  0  0
    3.9183  -18.2267  -11.7627 H   0  0  0  0  0
    2.9363  -14.9132  -10.5365 H   0  0  0  0  0
 14  1  1  0  0  0
  1 15  1  0  0  0
  1 25  2  0  0  0
  2  3  1  0  0  0
 15  2  1  0  0  0
  2 16  1  0  0  0
  4  5  4  0  0  0
  4  7  4  0  0  0
 22  4  1  0  0  0
  5  6  4  0  0  0
  6 19  4  0  0  0
  7 20  4  0  0  0
  7 30  1  0  0  0
  8  9  4  0  0  0
 18  8  4  0  0  0
  8 28  1  0  0  0
 10  9  4  0  0  0
 11 10  4  0  0  0
 12 11  4  0  0  0
 11 23  1  0  0  0
 13 12  1  0  0  0
 12 18  4  0  0  0
 14 13  1  0  0  0
 13 24  2  0  0  0
 17 14  2  0  0  0
 17 21  1  0  0  0
 17 22  1  0  0  0
 18 21  1  0  0  0
 19 20  4  0  0  0
 19 29  1  0  0  0
 23 26  2  0  0  0
 23 27  2  0  0  0
  2 31  1  0  0  0
  3 32  1  0  0  0
  3 33  1  0  0  0
  3 34  1  0  0  0
  5 35  1  0  0  0
  6 36  1  0  0  0
  9 37  1  0  0  0
 10 38  1  0  0  0
 15 39  1  0  0  0
 15 40  1  0  0  0
 16 41  1  0  0  0
 16 42  1  0  0  0
 16 43  1  0  0  0
 20 44  1  0  0  0
 21 45  1  0  0  0
 22 46  1  0  0  0
M  END
$$$$
