2f89_ligand
  -I-interpret- 

 25 24  0  0  0  0  0  0  0  0999 V2000
   15.4960   75.7870   24.1120 P   0  0  0  0  0
   16.8100   75.9320   23.4640 O   0  0  0  0  0
   15.2890   74.3620   24.7710 O   0  0  0  0  0
   14.1260   75.8030   23.2730 O   0  0  0  0  0
   15.1480   77.2250   25.2510 C   0  0  0  0  0
   16.5110   77.4700   26.5180 P   0  0  0  0  0
   17.8710   77.9190   26.0540 O   0  0  0  0  0
   16.5020   76.0190   27.2210 O   0  0  0  0  0
   15.8680   78.6010   27.4250 O   0  0  0  0  0
   13.9480   76.8500   25.9130 O   0  0  0  0  0
   14.8800   78.5590   24.4240 C   0  0  0  0  0
   14.2800   79.7430   25.2790 C   0  0  0  0  0
   12.8470   80.0570   24.9160 N   0  3  0  0  0
   14.4202   74.3218   25.1774 H   0  0  0  0  0
   13.3838   75.6954   23.8723 H   0  0  0  0  0
   15.6066   75.8002   27.4893 H   0  0  0  0  0
   15.0005   78.3167   27.7221 H   0  0  0  0  0
   14.0988   76.0458   26.4152 H   0  0  0  0  0
   14.1486   78.3172   23.6528 H   0  0  0  0  0
   15.8421   78.8967   24.0388 H   0  0  0  0  0
   14.8775   80.6334   25.0832 H   0  0  0  0  0
   14.3018   79.4436   26.3268 H   0  0  0  0  0
   12.5112   80.8258   25.4961 H   0  0  0  0  0
   12.7973   80.3244   23.9329 H   0  0  0  0  0
   12.2687   79.2319   25.0748 H   0  0  0  0  0
  1  2  2  0  0  0
  1  3  1  0  0  0
  1  4  1  0  0  0
  1  5  1  0  0  0
  5  6  1  0  0  0
  5 10  1  0  0  0
  5 11  1  0  0  0
  6  7  2  0  0  0
  6  8  1  0  0  0
  6  9  1  0  0  0
 11 12  1  0  0  0
 12 13  1  0  0  0
  3 14  1  0  0  0
  4 15  1  0  0  0
  8 16  1  0  0  0
  9 17  1  0  0  0
 10 18  1  0  0  0
 11 19  1  0  0  0
 11 20  1  0  0  0
 12 21  1  0  0  0
 12 22  1  0  0  0
 13 23  1  0  0  0
 13 24  1  0  0  0
 13 25  1  0  0  0
M  END
$$$$
