### 
### Created by X-TOOL on Mon Sep 10 21:12:54 2018
### 

@<TRIPOS>MOLECULE
2f89_ligand
   21    20     1     0     0
SMALL
GAST_HUCK


@<TRIPOS>ATOM
      1 P1         15.4960   75.7870   24.1120 P.3       1 210         0.1101
      2 O2         16.8100   75.9320   23.4640 O.co2     1 210        -0.5594
      3 O3         15.2890   74.3620   24.7710 O.co2     1 210        -0.5594
      4 O5         14.1260   75.8030   23.2730 O.co2     1 210        -0.5594
      5 C7         15.1480   77.2250   25.2510 C.3       1 210         0.2095
      6 P8         16.5110   77.4700   26.5180 P.3       1 210         0.1101
      7 O9         17.8710   77.9190   26.0540 O.co2     1 210        -0.5594
      8 O10        16.5020   76.0190   27.2210 O.co2     1 210        -0.5594
      9 O12        15.8680   78.6010   27.4250 O.co2     1 210        -0.5594
     10 O14        13.9480   76.8500   25.9130 O.3       1 210        -0.3593
     11 C16        14.8800   78.5590   24.4240 C.3       1 210         0.0477
     12 C19        14.2800   79.7430   25.2790 C.3       1 210        -0.0299
     13 N22        12.8470   80.0570   24.9160 N.4       1 210         0.2187
     14 H1         14.0900   76.0402   26.3888 H         1 210         0.2133
     15 H2         14.1732   78.3262   23.6140 H         1 210         0.0375
     16 H3         15.8345   78.8947   23.9926 H         1 210         0.0375
     17 H4         14.8905   80.6425   25.1116 H         1 210         0.0815
     18 H5         14.3207   79.4649   26.3425 H         1 210         0.0815
     19 H6         12.5141   80.8167   25.4887 H         1 210         0.1994
     20 H7         12.2744   79.2423   25.0726 H         1 210         0.1994
     21 H8         12.7966   80.3215   23.9446 H         1 210         0.1994
@<TRIPOS>BOND
     1    1    2 ar 
     2    1    3 ar 
     3    1    4 ar 
     4    1    5 1  
     5    5    6 1  
     6    5   10 1  
     7    5   11 1  
     8    6    7 ar 
     9    6    8 ar 
    10    6    9 ar 
    11   11   12 1  
    12   12   13 1  
    13   10   14 1  
    14   11   15 1  
    15   11   16 1  
    16   12   17 1  
    17   12   18 1  
    18   13   19 1  
    19   13   20 1  
    20   13   21 1  
@<TRIPOS>SUBSTRUCTURE
     1 210         1

