1yvh_ligand
  -I-interpret- 

157158  0  0  0  0  0  0  0  0999 V2000
   66.2890   35.0800   -7.3250 N   0  3  0  0  0
   65.9230   36.0960   -6.2940 C   0  0  0  0  0
   66.4700   35.6450   -4.9320 C   0  0  0  0  0
   66.6050   34.4490   -4.6800 O   0  0  0  0  0
   64.4010   36.2480   -6.2440 C   0  0  0  0  0
   63.9190   37.5150   -5.5710 C   0  0  0  0  0
   64.2970   38.7610   -6.3700 C   0  0  0  0  0
   64.1370   39.9710   -5.5650 N   0  0  0  0  0
   64.5500   41.1810   -5.9320 C   0  0  0  0  0
   65.1510   41.3600   -7.1040 N   0  0  0  0  0
   64.3710   42.2120   -5.1190 N   0  0  0  0  0
   66.7860   36.5960   -4.0570 N   0  0  0  0  0
   67.3480   36.2540   -2.7510 C   0  0  0  0  0
   66.3650   35.7470   -1.7010 C   0  0  0  0  0
   65.2170   36.1900   -1.6200 O   0  0  0  0  0
   68.1170   37.4470   -2.1870 C   0  0  0  0  0
   66.8380   34.8070   -0.8910 N   0  0  0  0  0
   66.0370   34.2570    0.1940 C   0  0  0  0  0
   66.5710   34.9250    1.4530 C   0  0  0  0  0
   67.7800   34.9550    1.6760 O   0  0  0  0  0
   66.2110   32.7270    0.3100 C   0  0  0  0  0
   65.5940   32.2280    1.6150 C   0  0  0  0  0
   65.5430   32.0450   -0.8770 C   0  0  0  0  0
   65.6770   35.4620    2.2720 N   0  0  0  0  0
   66.1070   36.1390    3.4840 C   0  0  0  0  0
   66.9350   35.2350    4.3860 C   0  0  0  0  0
   66.7080   34.0280    4.4620 O   0  0  0  0  0
   64.8960   36.6940    4.2330 C   0  0  0  0  0
   64.1300   37.7480    3.4310 C   0  0  0  0  0
   65.0250   38.8880    2.9430 C   0  0  0  0  0
   65.5260   39.6620    3.7910 O   0  0  0  0  0
   65.2320   39.0050    1.7110 O   0  0  0  0  0
   67.9100   35.8270    5.0610 N   0  0  0  0  0
   68.7690   35.0670    5.9510 C   0  0  0  0  0
   68.0090   34.6240    7.1970 C   0  0  0  0  0
   67.0900   35.3070    7.6590 O   0  0  0  0  0
   69.9940   35.9030    6.3290 C   0  0  0  0  0
   70.8790   36.2000    5.1310 C   0  0  0  0  0
   71.2480   35.2900    4.3850 O   0  0  0  0  0
   71.2260   37.4720    4.9400 N   0  0  0  0  0
   68.4030   33.4740    7.7350 N   0  0  0  0  0
   67.7590   32.9120    8.9110 C   0  0  0  0  0
   68.2350   33.5190   10.2230 C   0  0  0  0  0
   69.2840   33.1570   10.7620 O   0  0  0  0  0
   67.9550   31.3910    8.9230 C   0  0  0  0  0
   67.5110   30.7380    7.6140 C   0  0  0  0  0
   67.6710   29.2300    7.5950 C   0  0  0  0  0
   68.6100   28.6860    8.1630 O   0  0  0  0  0
   66.7600   28.5510    6.9140 N   0  0  0  0  0
   67.4530   34.4600   10.7290 N   0  0  0  0  0
   67.7600   35.0920   11.9920 C   0  0  0  0  0
   66.9500   34.3110   13.0160 C   0  0  0  0  0
   66.0170   33.5960   12.6520 O   0  0  0  0  0
   67.3470   36.5610   11.9640 C   0  0  0  0  0
   68.3140   37.4270   11.1830 C   0  0  0  0  0
   69.5950   37.6880   11.6730 C   0  0  0  0  0
   67.9690   37.9460    9.9340 C   0  0  0  0  0
   70.5130   38.4410   10.9410 C   0  0  0  0  0
   68.8810   38.7010    9.1890 C   0  0  0  0  0
   70.1540   38.9420    9.7000 C   0  0  0  0  0
   71.0800   39.6630    8.9740 O   0  0  0  0  0
   70.8700   40.4860    7.5600 P   0  0  0  0  0
   70.3660   39.4910    6.5930 O   0  0  0  0  0
   72.2530   40.9760    7.2560 O   0  0  0  0  0
   69.9210   41.5410    7.9470 O   0  0  0  0  0
   67.3020   34.4330   14.2870 N   0  0  0  0  0
   66.5820   33.7070   15.3220 C   0  0  0  0  0
   66.2260   34.6260   16.4680 C   0  0  0  0  0
   66.6200   35.7870   16.4870 O   0  0  0  0  0
   67.4350   32.5480   15.8430 C   0  0  0  0  0
   67.6510   31.5830   14.8290 O   0  0  0  0  0
   65.4740   34.1030   17.4250 N   0  0  0  0  0
   65.1000   34.8880   18.5900 C   0  0  0  0  0
   64.4280   34.0140   19.6450 C   0  0  0  0  0
   63.2830   34.3550   20.0260 O   0  0  0  0  0
   64.1630   36.0220   18.1840 C   0  0  0  0  0
   64.4230   37.3030   18.9190 C   0  0  0  0  0
   65.4290   38.1630   18.4980 C   0  0  0  0  0
   63.6730   37.6440   20.0390 C   0  0  0  0  0
   65.6880   39.3450   19.1790 C   0  0  0  0  0
   63.9240   38.8270   20.7310 C   0  0  0  0  0
   64.9340   39.6800   20.2980 C   0  0  0  0  0
   65.0310   32.9365   20.1393 O   0  0  0  0  0
   65.9285   35.3735   -8.2329 H   0  0  0  0  0
   67.3044   34.9958   -7.3722 H   0  0  0  0  0
   65.8833   34.1791   -7.0718 H   0  0  0  0  0
   66.3575   37.0630   -6.5473 H   0  0  0  0  0
   64.0156   35.4109   -5.6618 H   0  0  0  0  0
   64.0495   36.2808   -7.2752 H   0  0  0  0  0
   64.3888   37.5817   -4.5897 H   0  0  0  0  0
   62.8323   37.4718   -5.4975 H   0  0  0  0  0
   63.6419   38.8306   -7.2384 H   0  0  0  0  0
   65.3411   38.6784   -6.6718 H   0  0  0  0  0
   63.6768   39.8810   -4.6592 H   0  0  0  0  0
   65.4730   42.2890   -7.3754 H   0  0  0  0  0
   65.2902   40.5683   -7.7319 H   0  0  0  0  0
   63.9179   42.0762   -4.2153 H   0  0  0  0  0
   66.6345   37.5750   -4.2999 H   0  0  0  0  0
   68.0010   35.4056   -2.9557 H   0  0  0  0  0
   68.9253   37.7117   -2.8686 H   0  0  0  0  0
   67.4405   38.2946   -2.0770 H   0  0  0  0  0
   68.5320   37.1831   -1.2143 H   0  0  0  0  0
   67.7871   34.4611   -1.0324 H   0  0  0  0  0
   64.9751   34.4396    0.0291 H   0  0  0  0  0
   67.2741   32.4862    0.3099 H   0  0  0  0  0
   66.0894   32.7106    2.4575 H   0  0  0  0  0
   64.5314   32.4706    1.6291 H   0  0  0  0  0
   65.7224   31.1479    1.6864 H   0  0  0  0  0
   64.4809   32.2897   -0.8845 H   0  0  0  0  0
   66.0040   32.3934   -1.8012 H   0  0  0  0  0
   65.6679   30.9655   -0.7917 H   0  0  0  0  0
   64.6833   35.3997    2.0504 H   0  0  0  0  0
   66.7530   36.9658    3.1887 H   0  0  0  0  0
   65.2580   37.1685    5.1451 H   0  0  0  0  0
   64.2160   35.8644    4.4265 H   0  0  0  0  0
   63.3698   38.1767    4.0840 H   0  0  0  0  0
   63.7066   37.2576    2.5545 H   0  0  0  0  0
   64.7579   38.3151    1.2411 H   0  0  0  0  0
   68.0588   36.8304    4.9537 H   0  0  0  0  0
   69.1028   34.1688    5.4314 H   0  0  0  0  0
   70.5811   35.3362    7.0516 H   0  0  0  0  0
   69.6442   36.8520    6.7354 H   0  0  0  0  0
   71.8204   37.7255    4.1508 H   0  0  0  0  0
   70.8973   38.1924    5.5829 H   0  0  0  0  0
   69.1813   32.9703    7.3095 H   0  0  0  0  0
   66.7000   33.1594    8.8379 H   0  0  0  0  0
   67.3485   30.9784    9.7293 H   0  0  0  0  0
   69.0173   31.1882    9.0586 H   0  0  0  0  0
   68.1405   31.1410    6.8206 H   0  0  0  0  0
   66.4500   30.9532    7.4877 H   0  0  0  0  0
   66.8249   27.5352    6.8479 H   0  0  0  0  0
   65.9936   29.0440    6.4557 H   0  0  0  0  0
   66.6176   34.7444   10.2175 H   0  0  0  0  0
   68.8254   35.0795   12.2219 H   0  0  0  0  0
   67.3298   36.9229   12.9920 H   0  0  0  0  0
   66.3735   36.6252   11.4779 H   0  0  0  0  0
   69.8837   37.2952   12.6479 H   0  0  0  0  0
   66.9728   37.7600    9.5327 H   0  0  0  0  0
   71.5075   38.6343   11.3431 H   0  0  0  0  0
   68.5971   39.0983    8.2145 H   0  0  0  0  0
   71.0557   38.8499    6.4064 H   0  0  0  0  0
   72.8088   40.2318    7.0132 H   0  0  0  0  0
   68.0819   35.0391   14.5415 H   0  0  0  0  0
   65.6635   33.3137   14.8865 H   0  0  0  0  0
   66.9115   32.0731   16.6727 H   0  0  0  0  0
   68.3998   32.9401   16.1647 H   0  0  0  0  0
   68.1871   30.8675   15.1787 H   0  0  0  0  0
   65.1536   33.1381   17.3435 H   0  0  0  0  0
   66.0091   35.3096   19.0189 H   0  0  0  0  0
   63.1463   35.7083   18.4209 H   0  0  0  0  0
   64.3214   36.2146   17.1229 H   0  0  0  0  0
   66.0233   37.9066   17.6210 H   0  0  0  0  0
   62.8798   36.9784   20.3795 H   0  0  0  0  0
   66.4814   40.0094   18.8367 H   0  0  0  0  0
   63.3309   39.0833   21.6088 H   0  0  0  0  0
   65.1335   40.6078   20.8342 H   0  0  0  0  0
   65.8937   32.8378   19.7298 H   0  0  0  0  0
  2  1  1  0  0  0
  2  5  1  0  0  0
  3  2  1  0  0  0
  3  4  2  0  0  0
  5  6  1  0  0  0
  6  7  1  0  0  0
  7  8  1  0  0  0
  8  9  1  0  0  0
  9 11  2  0  0  0
  9 10  1  0  0  0
 13 12  1  0  0  0
 13 16  1  0  0  0
 14 13  1  0  0  0
 14 15  2  0  0  0
 12  3  1  0  0  0
 18 17  1  0  0  0
 18 21  1  0  0  0
 19 18  1  0  0  0
 19 20  2  0  0  0
 21 23  1  0  0  0
 21 22  1  0  0  0
 17 14  1  0  0  0
 25 24  1  0  0  0
 25 28  1  0  0  0
 26 25  1  0  0  0
 26 27  2  0  0  0
 28 29  1  0  0  0
 29 30  1  0  0  0
 30 32  1  0  0  0
 30 31  2  0  0  0
 24 19  1  0  0  0
 34 33  1  0  0  0
 34 37  1  0  0  0
 35 34  1  0  0  0
 35 36  2  0  0  0
 37 38  1  0  0  0
 38 40  1  0  0  0
 38 39  2  0  0  0
 33 26  1  0  0  0
 42 41  1  0  0  0
 42 45  1  0  0  0
 43 42  1  0  0  0
 43 44  2  0  0  0
 45 46  1  0  0  0
 46 47  1  0  0  0
 47 49  1  0  0  0
 47 48  2  0  0  0
 41 35  1  0  0  0
 66 67  1  0  0  0
 67 70  1  0  0  0
 67 68  1  0  0  0
 68 69  2  0  0  0
 70 71  1  0  0  0
 72 73  1  0  0  0
 73 76  1  0  0  0
 73 74  1  0  0  0
 74 75  2  0  0  0
 76 77  1  0  0  0
 77 78  4  0  0  0
 77 79  4  0  0  0
 79 81  4  0  0  0
 81 82  4  0  0  0
 80 82  4  0  0  0
 78 80  4  0  0  0
 68 72  1  0  0  0
 51 50  1  0  0  0
 52 51  1  0  0  0
 51 54  1  0  0  0
 52 53  2  0  0  0
 54 55  1  0  0  0
 55 56  4  0  0  0
 55 57  4  0  0  0
 56 58  4  0  0  0
 57 59  4  0  0  0
 58 60  4  0  0  0
 59 60  4  0  0  0
 60 61  1  0  0  0
 61 62  1  0  0  0
 62 63  1  0  0  0
 62 64  1  0  0  0
 62 65  2  0  0  0
 50 43  1  0  0  0
 52 66  1  0  0  0
 74 83  1  0  0  0
  1 84  1  0  0  0
  1 85  1  0  0  0
  1 86  1  0  0  0
  2 87  1  0  0  0
  5 88  1  0  0  0
  5 89  1  0  0  0
  6 90  1  0  0  0
  6 91  1  0  0  0
  7 92  1  0  0  0
  7 93  1  0  0  0
  8 94  1  0  0  0
 10 95  1  0  0  0
 10 96  1  0  0  0
 11 97  1  0  0  0
 12 98  1  0  0  0
 13 99  1  0  0  0
 16100  1  0  0  0
 16101  1  0  0  0
 16102  1  0  0  0
 17103  1  0  0  0
 18104  1  0  0  0
 21105  1  0  0  0
 22106  1  0  0  0
 22107  1  0  0  0
 22108  1  0  0  0
 23109  1  0  0  0
 23110  1  0  0  0
 23111  1  0  0  0
 24112  1  0  0  0
 25113  1  0  0  0
 28114  1  0  0  0
 28115  1  0  0  0
 29116  1  0  0  0
 29117  1  0  0  0
 32118  1  0  0  0
 33119  1  0  0  0
 34120  1  0  0  0
 37121  1  0  0  0
 37122  1  0  0  0
 40123  1  0  0  0
 40124  1  0  0  0
 41125  1  0  0  0
 42126  1  0  0  0
 45127  1  0  0  0
 45128  1  0  0  0
 46129  1  0  0  0
 46130  1  0  0  0
 49131  1  0  0  0
 49132  1  0  0  0
 50133  1  0  0  0
 51134  1  0  0  0
 54135  1  0  0  0
 54136  1  0  0  0
 56137  1  0  0  0
 57138  1  0  0  0
 58139  1  0  0  0
 59140  1  0  0  0
 63141  1  0  0  0
 64142  1  0  0  0
 66143  1  0  0  0
 67144  1  0  0  0
 70145  1  0  0  0
 70146  1  0  0  0
 71147  1  0  0  0
 72148  1  0  0  0
 73149  1  0  0  0
 76150  1  0  0  0
 76151  1  0  0  0
 78152  1  0  0  0
 79153  1  0  0  0
 80154  1  0  0  0
 81155  1  0  0  0
 82156  1  0  0  0
 83157  1  0  0  0
M  END
$$$$
