### 
### Created by X-TOOL on Mon Sep 10 21:12:53 2018
### 

@<TRIPOS>MOLECULE
1yvh_ligand
  155   156     1     0     0
SMALL
GAST_HUCK


@<TRIPOS>ATOM
      1 N          66.2890   35.0800   -7.3250 N.4       1 ARG         0.2379
      2 CA         65.9230   36.0960   -6.2940 C.3       1 ARG         0.0651
      3 C          66.4700   35.6450   -4.9320 C.2       1 ARG         0.2267
      4 O          66.6050   34.4490   -4.6800 O.2       1 ARG        -0.3907
      5 CB         64.4010   36.2480   -6.2440 C.3       1 ARG         0.0110
      6 CG         63.9190   37.5150   -5.5710 C.3       1 ARG        -0.0125
      7 CD         64.2970   38.7610   -6.3700 C.3       1 ARG         0.0629
      8 NE         64.1370   39.9710   -5.5650 N.pl3     1 ARG        -0.2723
      9 CZ         64.5500   41.1810   -5.9320 C.cat     1 ARG         0.2882
     10 NH1        65.1510   41.3600   -7.1040 N.pl3     1 ARG        -0.2849
     11 NH2        64.3710   42.2120   -5.1190 N.pl3     1 ARG        -0.2849
     12 N          66.7860   36.5960   -4.0570 N.am      1 ALA        -0.2613
     13 CA         67.3480   36.2540   -2.7510 C.3       1 ALA         0.1283
     14 C          66.3650   35.7470   -1.7010 C.2       1 ALA         0.2036
     15 O          65.2170   36.1900   -1.6200 O.2       1 ALA        -0.3944
     16 CB         68.1170   37.4470   -2.1870 C.3       1 ALA        -0.0244
     17 N          66.8380   34.8070   -0.8910 N.am      1 VAL        -0.2635
     18 CA         66.0370   34.2570    0.1940 C.3       1 VAL         0.1332
     19 C          66.5710   34.9250    1.4530 C.2       1 VAL         0.2042
     20 O          67.7800   34.9550    1.6760 O.2       1 VAL        -0.3944
     21 CB         66.2110   32.7270    0.3100 C.3       1 VAL        -0.0063
     22 CG1        65.5940   32.2280    1.6150 C.3       1 VAL        -0.0584
     23 CG2        65.5430   32.0450   -0.8770 C.3       1 VAL        -0.0584
     24 N          65.6770   35.4620    2.2720 N.am      1 GLU        -0.2636
     25 CA         66.1070   36.1390    3.4840 C.3       1 GLU         0.1325
     26 C          66.9350   35.2350    4.3860 C.2       1 GLU         0.2041
     27 O          66.7080   34.0280    4.4620 O.2       1 GLU        -0.3944
     28 CB         64.8960   36.6940    4.2330 C.3       1 GLU        -0.0008
     29 CG         64.1300   37.7480    3.4310 C.3       1 GLU         0.0044
     30 CD         65.0250   38.8880    2.9430 C.2       1 GLU         0.0350
     31 OE1        65.5260   39.6620    3.7910 O.co2     1 GLU        -0.5690
     32 OE2        65.2320   39.0050    1.7110 O.co2     1 GLU        -0.5690
     33 N          67.9100   35.8270    5.0610 N.am      1 ASN        -0.2616
     34 CA         68.7690   35.0670    5.9510 C.3       1 ASN         0.1476
     35 C          68.0090   34.6240    7.1970 C.2       1 ASN         0.2063
     36 O          67.0900   35.3070    7.6590 O.2       1 ASN        -0.3942
     37 CB         69.9940   35.9030    6.3290 C.3       1 ASN         0.0773
     38 CG         70.8790   36.2000    5.1310 C.2       1 ASN         0.1780
     39 OD1        71.2480   35.2900    4.3850 O.2       1 ASN        -0.3970
     40 ND2        71.2260   37.4720    4.9400 N.am      1 ASN        -0.3007
     41 N          68.4030   33.4740    7.7350 N.am      1 GLN        -0.2634
     42 CA         67.7590   32.9120    8.9110 C.3       1 GLN         0.1330
     43 C          68.2350   33.5190   10.2230 C.2       1 GLN         0.2042
     44 O          69.2840   33.1570   10.7620 O.2       1 GLN        -0.3944
     45 CB         67.9550   31.3910    8.9230 C.3       1 GLN         0.0045
     46 CG         67.5110   30.7380    7.6140 C.3       1 GLN         0.0412
     47 CD         67.6710   29.2300    7.5950 C.2       1 GLN         0.1737
     48 OE1        68.6100   28.6860    8.1630 O.2       1 GLN        -0.3973
     49 NE2        66.7600   28.5510    6.9140 N.am      1 GLN        -0.3009
     50 N          67.4530   34.4600   10.7290 N.am      1 PTR        -0.2607
     51 CA         67.7600   35.0920   11.9920 C.3       1 PTR         0.1468
     52 C          66.9500   34.3110   13.0160 C.2       1 PTR         0.2075
     53 O          66.0170   33.5960   12.6520 O.2       1 PTR        -0.3941
     54 CB         67.3470   36.5610   11.9640 C.3       1 PTR         0.0400
     55 CG         68.3140   37.4270   11.1830 C.ar      1 PTR        -0.0004
     56 CD1        69.5950   37.6880   11.6730 C.ar      1 PTR        -0.0239
     57 CD2        67.9690   37.9460    9.9340 C.ar      1 PTR        -0.0239
     58 CE1        70.5130   38.4410   10.9410 C.ar      1 PTR         0.0115
     59 CE2        68.8810   38.7010    9.1890 C.ar      1 PTR         0.0115
     60 CZ         70.1540   38.9420    9.7000 C.ar      1 PTR         0.1728
     61 OH         71.0800   39.6630    8.9740 O.3       1 PTR        -0.2040
     62 P          70.8700   40.4860    7.5600 P.3       1 PTR         0.1348
     63 O1P        70.3660   39.4910    6.5930 O.co2     1 PTR        -0.6653
     64 O2P        72.2530   40.9760    7.2560 O.co2     1 PTR        -0.6653
     65 O3P        69.9210   41.5410    7.9470 O.co2     1 PTR        -0.6653
     66 N          67.3020   34.4330   14.2870 N.am      1 SER        -0.2613
     67 CA         66.5820   33.7070   15.3220 C.3       1 SER         0.1539
     68 C          66.2260   34.6260   16.4680 C.2       1 SER         0.2064
     69 O          66.6200   35.7870   16.4870 O.2       1 SER        -0.3943
     70 CB         67.4350   32.5480   15.8430 C.3       1 SER         0.0843
     71 OG         67.6510   31.5830   14.8290 O.3       1 SER        -0.3903
     72 N          65.4740   34.1030   17.4250 N.am      1 PHE        -0.2606
     73 CA         65.1000   34.8880   18.5900 C.3       1 PHE         0.1515
     74 C          64.4280   34.0140   19.6450 C.2       1 PHE         0.2591
     75 O          63.2830   34.3550   20.0260 O.2       1 PHE        -0.3678
     76 CB         64.1630   36.0220   18.1840 C.3       1 PHE         0.0228
     77 CG         64.4230   37.3030   18.9190 C.ar      1 PHE        -0.0384
     78 CD1        65.4290   38.1630   18.4980 C.ar      1 PHE        -0.0601
     79 CD2        63.6730   37.6440   20.0390 C.ar      1 PHE        -0.0601
     80 CE1        65.6880   39.3450   19.1790 C.ar      1 PHE        -0.0686
     81 CE2        63.9240   38.8270   20.7310 C.ar      1 PHE        -0.0686
     82 CZ         64.9340   39.6800   20.2980 C.ar      1 PHE        -0.0687
     83 O1         65.0310   32.9365   20.1393 O.3       1 PHE        -0.2908
     84 H1         65.9332   35.3691   -8.2227 H         1 ARG         0.2015
     85 H2         65.8885   34.1891   -7.0759 H         1 ARG         0.2015
     86 H3         67.2923   34.9959   -7.3725 H         1 ARG         0.2015
     87 H4         66.3717   37.0644   -6.5601 H         1 ARG         0.1098
     88 H5         63.9877   35.3889   -5.6953 H         1 ARG         0.0347
     89 H6         64.0208   36.2412   -7.2762 H         1 ARG         0.0347
     90 H7         64.3729   37.5819   -4.5712 H         1 ARG         0.0302
     91 H8         62.8241   37.4726   -5.4746 H         1 ARG         0.0302
     92 H9         63.6483   38.8304   -7.2557 H         1 ARG         0.0689
     93 H10        65.3463   38.6783   -6.6896 H         1 ARG         0.0689
     94 H11        63.6723   39.8802   -4.6503 H         1 ARG         0.2642
     95 H12        65.4683   42.2997   -7.3819 H         1 ARG         0.2615
     96 H13        65.2994   40.5590   -7.7343 H         1 ARG         0.2615
     97 H14        63.9056   42.0765   -4.2102 H         1 ARG         0.2615
     98 H15        64.6972   43.1489   -5.3959 H         1 ARG         0.2615
     99 H16        66.6375   37.5558   -4.2951 H         1 ALA         0.1884
    100 H17        68.0677   35.4406   -2.9252 H         1 ALA         0.0797
    101 H18        68.5363   37.1819   -1.2052 H         1 ALA         0.0277
    102 H19        67.4354   38.3031   -2.0755 H         1 ALA         0.0277
    103 H20        68.9332   37.7151   -2.8740 H         1 ALA         0.0277
    104 H21        67.7685   34.4679   -1.0296 H         1 VAL         0.1883
    105 H22        64.9736   34.4957    0.0450 H         1 VAL         0.0802
    106 H23        67.2842   32.4858    0.3061 H         1 VAL         0.0343
    107 H24        65.7229   31.1380    1.6883 H         1 VAL         0.0234
    108 H25        64.5216   32.4722    1.6305 H         1 VAL         0.0234
    109 H26        66.0931   32.7143    2.4661 H         1 VAL         0.0234
    110 H27        65.9939   32.4107   -1.8113 H         1 VAL         0.0234
    111 H28        64.4673   32.2750   -0.8744 H         1 VAL         0.0234
    112 H29        65.6855   30.9568   -0.8025 H         1 VAL         0.0234
    113 H30        64.7028   35.4009    2.0548 H         1 GLU         0.1883
    114 H31        66.7426   36.9866    3.1880 H         1 GLU         0.0801
    115 H32        65.2432   37.1512    5.1713 H         1 GLU         0.0330
    116 H33        64.2132   35.8623    4.4611 H         1 GLU         0.0330
    117 H34        63.3402   38.1702    4.0698 H         1 GLU         0.0433
    118 H35        63.6733   37.2610    2.5568 H         1 GLU         0.0433
    119 H36        68.0559   36.8107    4.9558 H         1 ASN         0.1885
    120 H37        69.1119   34.1673    5.4191 H         1 ASN         0.0826
    121 H38        70.5830   35.3505    7.0759 H         1 ASN         0.0551
    122 H39        69.6531   36.8550    6.7620 H         1 ASN         0.0551
    123 H40        71.8077   37.7207    4.1655 H         1 ASN         0.1814
    124 H41        70.9048   38.1781    5.5711 H         1 ASN         0.1814
    125 H42        69.1660   32.9802    7.3179 H         1 GLN         0.1883
    126 H43        66.6817   33.1181    8.8276 H         1 GLN         0.0801
    127 H44        67.3657   30.9650    9.7484 H         1 GLN         0.0337
    128 H45        69.0212   31.1730    9.0830 H         1 GLN         0.0337
    129 H46        68.1116   31.1604    6.7949 H         1 GLN         0.0504
    130 H47        66.4495   30.9758    7.4508 H         1 GLN         0.0504
    131 H48        66.8129   27.5536    6.8652 H         1 GLN         0.1814
    132 H49        66.0194   29.0358    6.4487 H         1 GLN         0.1814
    133 H50        66.6340   34.7389   10.2275 H         1 PTR         0.1886
    134 H51        68.8351   35.0189   12.2130 H         1 PTR         0.0840
    135 H52        67.2988   36.9325   12.9982 H         1 PTR         0.0584
    136 H53        66.3526   36.6379   11.5000 H         1 PTR         0.0584
    137 H54        69.8822   37.2973   12.6425 H         1 PTR         0.0703
    138 H55        66.9783   37.7610    9.5349 H         1 PTR         0.0703
    139 H56        71.5020   38.6332   11.3409 H         1 PTR         0.0736
    140 H57        68.5986   39.0961    8.2199 H         1 PTR         0.0736
    141 H58        68.0666   35.0272   14.5365 H         1 SER         0.1884
    142 H59        65.6550   33.3023   14.8897 H         1 SER         0.0823
    143 H60        66.9174   32.0718   16.6888 H         1 SER         0.0606
    144 H61        68.4061   32.9390   16.1806 H         1 SER         0.0606
    145 H62        68.1010   31.9891   14.0976 H         1 SER         0.2097
    146 H63        65.1599   33.1570   17.3451 H         1 PHE         0.1886
    147 H64        66.0121   35.3227   19.0249 H         1 PHE         0.0840
    148 H65        63.1282   35.7083   18.3860 H         1 PHE         0.0475
    149 H66        64.2864   36.2072   17.1068 H         1 PHE         0.0475
    150 H67        66.0201   37.9080   17.6258 H         1 PHE         0.0557
    151 H68        62.8842   36.9821   20.3776 H         1 PHE         0.0557
    152 H69        66.4771   40.0057   18.8386 H         1 PHE         0.0599
    153 H70        63.3341   39.0819   21.6040 H         1 PHE         0.0599
    154 H71        65.1324   40.6027   20.8312 H         1 PHE         0.0559
    155 H72        64.5030   32.1680   19.9572 H         1 PHE         0.2540
@<TRIPOS>BOND
     1    2    1 1  
     2    2    5 1  
     3    3    2 1  
     4    3    4 2  
     5    5    6 1  
     6    6    7 1  
     7    7    8 1  
     8    8    9 ar 
     9    9   11 ar 
    10    9   10 ar 
    11   13   12 1  
    12   13   16 1  
    13   14   13 1  
    14   14   15 2  
    15   12    3 am 
    16   18   17 1  
    17   18   21 1  
    18   19   18 1  
    19   19   20 2  
    20   21   23 1  
    21   21   22 1  
    22   17   14 am 
    23   25   24 1  
    24   25   28 1  
    25   26   25 1  
    26   26   27 2  
    27   28   29 1  
    28   29   30 1  
    29   30   32 ar 
    30   30   31 ar 
    31   24   19 am 
    32   34   33 1  
    33   34   37 1  
    34   35   34 1  
    35   35   36 2  
    36   37   38 1  
    37   38   40 am 
    38   38   39 2  
    39   33   26 am 
    40   42   41 1  
    41   42   45 1  
    42   43   42 1  
    43   43   44 2  
    44   45   46 1  
    45   46   47 1  
    46   47   49 am 
    47   47   48 2  
    48   41   35 am 
    49   66   67 1  
    50   67   70 1  
    51   67   68 1  
    52   68   69 2  
    53   70   71 1  
    54   72   73 1  
    55   73   76 1  
    56   73   74 1  
    57   74   75 2  
    58   76   77 1  
    59   77   78 ar 
    60   77   79 ar 
    61   79   81 ar 
    62   81   82 ar 
    63   80   82 ar 
    64   78   80 ar 
    65   68   72 am 
    66   51   50 1  
    67   52   51 1  
    68   51   54 1  
    69   52   53 2  
    70   54   55 1  
    71   55   56 ar 
    72   55   57 ar 
    73   56   58 ar 
    74   57   59 ar 
    75   58   60 ar 
    76   59   60 ar 
    77   60   61 1  
    78   61   62 1  
    79   62   63 ar 
    80   62   64 ar 
    81   62   65 ar 
    82   50   43 am 
    83   52   66 am 
    84   74   83 1  
    85    1   84 1  
    86    1   85 1  
    87    1   86 1  
    88    2   87 1  
    89    5   88 1  
    90    5   89 1  
    91    6   90 1  
    92    6   91 1  
    93    7   92 1  
    94    7   93 1  
    95    8   94 1  
    96   10   95 1  
    97   10   96 1  
    98   11   97 1  
    99   11   98 1  
   100   12   99 1  
   101   13  100 1  
   102   16  101 1  
   103   16  102 1  
   104   16  103 1  
   105   17  104 1  
   106   18  105 1  
   107   21  106 1  
   108   22  107 1  
   109   22  108 1  
   110   22  109 1  
   111   23  110 1  
   112   23  111 1  
   113   23  112 1  
   114   24  113 1  
   115   25  114 1  
   116   28  115 1  
   117   28  116 1  
   118   29  117 1  
   119   29  118 1  
   120   33  119 1  
   121   34  120 1  
   122   37  121 1  
   123   37  122 1  
   124   40  123 1  
   125   40  124 1  
   126   41  125 1  
   127   42  126 1  
   128   45  127 1  
   129   45  128 1  
   130   46  129 1  
   131   46  130 1  
   132   49  131 1  
   133   49  132 1  
   134   50  133 1  
   135   51  134 1  
   136   54  135 1  
   137   54  136 1  
   138   56  137 1  
   139   57  138 1  
   140   58  139 1  
   141   59  140 1  
   142   66  141 1  
   143   67  142 1  
   144   70  143 1  
   145   70  144 1  
   146   71  145 1  
   147   72  146 1  
   148   73  147 1  
   149   76  148 1  
   150   76  149 1  
   151   78  150 1  
   152   79  151 1  
   153   80  152 1  
   154   81  153 1  
   155   82  154 1  
   156   83  155 1  
@<TRIPOS>SUBSTRUCTURE
     1 ARG         1

