6eif_ligand
  -I-interpret- 

 38 41  0  0  0  0  0  0  0  0999 V2000
    9.5890   17.7360  -49.3970 C   0  0  0  0  0
   10.1990   18.9600  -49.6680 C   0  0  0  0  0
   10.3740   19.9000  -48.6580 C   0  0  0  0  0
   11.1470   21.4390  -49.0430 S   0  0  0  0  0
   11.7450   22.0490  -47.7760 O   0  0  0  0  0
   10.1120   22.4020  -49.6290 O   0  0  0  0  0
   12.3210   21.1940  -50.1310 N   0  0  0  0  0
    9.9340   19.6020  -47.3670 C   0  0  0  0  0
    9.3230   18.3720  -47.0920 C   0  0  0  0  0
    9.1440   17.4150  -48.1050 C   0  0  0  0  0
    8.5290   16.1720  -47.8530 C   0  0  0  0  0
    7.4420   16.0460  -46.9720 C   0  0  0  0  0
    6.8560   14.8550  -46.7430 C   0  0  0  0  0
    8.9740   15.0030  -48.4830 C   0  0  0  0  0
    8.3270   13.7870  -48.2130 N   0  0  0  0  0
    7.2920   13.7420  -47.3560 C   0  0  0  0  0
    6.5450   12.7150  -46.9570 N   0  0  0  0  0
    5.6390   13.1660  -46.1000 C   0  0  0  0  0
    5.8310   14.4740  -45.9710 C   0  0  0  0  0
    5.0880   15.2500  -45.1710 C   0  0  0  0  0
    4.4300   16.3770  -45.6720 C   0  0  0  0  0
    3.6540   17.1840  -44.8360 C   0  0  0  0  0
    3.5180   16.8690  -43.4840 C   0  0  0  0  0
    4.1690   15.7350  -42.9690 N   0  0  0  0  0
    4.9540   14.9280  -43.8160 C   0  0  0  0  0
    9.4552   17.0149  -50.2034 H   0  0  0  0  0
   10.5413   19.1819  -50.6788 H   0  0  0  0  0
   13.2843   21.4436  -49.9068 H   0  0  0  0  0
   12.0973   20.7901  -51.0405 H   0  0  0  0  0
   10.0668   20.3313  -46.5679 H   0  0  0  0  0
    8.9822   18.1546  -46.0797 H   0  0  0  0  0
    7.0642   16.9322  -46.4621 H   0  0  0  0  0
    9.8145   15.0372  -49.1762 H   0  0  0  0  0
    4.8771   12.5726  -45.5945 H   0  0  0  0  0
    4.5235   16.6294  -46.7282 H   0  0  0  0  0
    3.1531   18.0629  -45.2418 H   0  0  0  0  0
    2.9115   17.4975  -42.8320 H   0  0  0  0  0
    5.4588   14.0495  -43.4142 H   0  0  0  0  0
  1  2  4  0  0  0
  1 10  4  0  0  0
  2  3  4  0  0  0
  3  4  1  0  0  0
  3  8  4  0  0  0
  4  5  2  0  0  0
  4  6  2  0  0  0
  4  7  1  0  0  0
  8  9  4  0  0  0
  9 10  4  0  0  0
 10 11  1  0  0  0
 11 12  4  0  0  0
 11 14  4  0  0  0
 12 13  4  0  0  0
 13 16  4  0  0  0
 13 19  4  0  0  0
 14 15  4  0  0  0
 15 16  4  0  0  0
 16 17  4  0  0  0
 17 18  4  0  0  0
 18 19  4  0  0  0
 19 20  1  0  0  0
 20 21  4  0  0  0
 20 25  4  0  0  0
 21 22  4  0  0  0
 22 23  4  0  0  0
 23 24  4  0  0  0
 24 25  4  0  0  0
  1 26  1  0  0  0
  2 27  1  0  0  0
  7 28  1  0  0  0
  7 29  1  0  0  0
  8 30  1  0  0  0
  9 31  1  0  0  0
 12 32  1  0  0  0
 14 33  1  0  0  0
 18 34  1  0  0  0
 21 35  1  0  0  0
 22 36  1  0  0  0
 23 37  1  0  0  0
 25 38  1  0  0  0
M  END
$$$$
