5c0m_ligand
  -I-interpret- 

 83 82  0  0  0  0  0  0  0  0999 V2000
   21.0580   10.5910    3.6530 N   0  3  0  0  0
   21.2820   11.6060    4.7370 C   0  0  0  0  0
   20.7600   12.9690    4.3010 C   0  0  0  0  0
   20.5410   13.1960    3.1120 O   0  0  0  0  0
   22.7540   11.7180    5.0640 C   0  0  0  0  0
   20.5340   13.8490    5.2680 N   0  0  0  0  0
   20.2130   15.2430    4.9860 C   0  0  0  0  0
   21.4120   16.0790    5.4270 C   0  0  0  0  0
   21.8050   15.9950    6.5750 O   0  0  0  0  0
   18.9440   15.6720    5.7220 C   0  0  0  0  0
   18.4190   17.0340    5.2770 C   0  0  0  0  0
   16.9080   17.1940    5.4760 C   0  0  0  0  0
   16.3680   18.2790    4.6470 N   0  0  0  0  0
   16.3810   19.5790    4.9560 C   0  0  0  0  0
   16.9030   20.0240    6.1050 N   0  0  0  0  0
   15.8590   20.4550    4.1020 N   0  0  0  0  0
   21.9960   16.8580    4.5160 N   0  0  0  0  0
   23.1480   17.7080    4.8330 C   0  0  0  0  0
   22.7050   19.1250    5.1580 C   0  0  0  0  0
   21.5710   19.5160    4.8780 O   0  0  0  0  0
   24.1330   17.7950    3.6700 C   0  0  0  0  0
   23.4790   18.3860    2.5360 O   0  0  0  0  0
   24.6840   16.4080    3.3150 C   0  0  0  0  0
   23.6520   19.8900    5.7110 N   0  0  0  0  0
   23.4480   21.3130    5.8940 C   0  0  0  0  0
   24.6160   21.8880    6.6850 C   0  0  0  0  0
   24.4530   23.3710    6.9760 C   0  0  0  0  0
   25.3830   23.7980    8.1050 C   0  0  0  0  0
   26.8430   23.6190    7.7120 C   0  0  0  0  0
   27.8580   24.3180    8.6100 C   0  0  0  0  0
   27.6820   23.8920   10.0620 C   0  0  0  0  0
   29.2530   23.9240    8.1030 C   0  0  0  0  0
   27.6780   25.8370    8.5540 C   0  0  0  0  0
   23.3160   21.9770    4.5470 C   0  0  0  0  0
   23.9920   21.5760    3.6230 O   0  0  0  0  0
   22.4350   22.9620    4.4660 N   0  0  0  0  0
   20.0609   10.5299    3.4468 H   0  0  0  0  0
   21.5632   10.8747    2.8136 H   0  0  0  0  0
   21.3982    9.6814    3.9650 H   0  0  0  0  0
   20.7418   11.2774    5.6249 H   0  0  0  0  0
   23.2969   12.0524    4.1799 H   0  0  0  0  0
   22.8919   12.4381    5.8706 H   0  0  0  0  0
   23.1306   10.7440    5.3764 H   0  0  0  0  0
   20.5865   13.5407    6.2389 H   0  0  0  0  0
   20.0197   15.3841    3.9226 H   0  0  0  0  0
   19.1863   15.7429    6.7824 H   0  0  0  0  0
   18.1717   14.9342    5.5044 H   0  0  0  0  0
   18.6239   17.1345    4.2112 H   0  0  0  0  0
   18.9138   17.7926    5.8834 H   0  0  0  0  0
   16.7210   17.4335    6.5228 H   0  0  0  0  0
   16.4211   16.2629    5.1861 H   0  0  0  0  0
   15.9455   18.0172    3.7563 H   0  0  0  0  0
   16.8967   21.0221    6.3153 H   0  0  0  0  0
   17.3072   19.3651    6.7705 H   0  0  0  0  0
   15.4550   20.1317    3.2230 H   0  0  0  0  0
   21.6283   16.8628    3.5646 H   0  0  0  0  0
   23.6340   17.2470    5.6929 H   0  0  0  0  0
   24.9760   18.4200    3.9646 H   0  0  0  0  0
   24.0977   18.4411    1.8040 H   0  0  0  0  0
   25.1985   15.9904    4.1805 H   0  0  0  0  0
   23.8605   15.7535    3.0295 H   0  0  0  0  0
   25.3832   16.4981    2.4836 H   0  0  0  0  0
   24.5307   19.4659    6.0083 H   0  0  0  0  0
   22.5309   21.4965    6.4538 H   0  0  0  0  0
   25.5194   21.7611    6.0884 H   0  0  0  0  0
   24.6653   21.3629    7.6389 H   0  0  0  0  0
   23.4223   23.5624    7.2744 H   0  0  0  0  0
   24.7016   23.9376    6.0786 H   0  0  0  0  0
   25.1788   23.1778    8.9778 H   0  0  0  0  0
   25.2073   24.8518    8.3212 H   0  0  0  0  0
   26.9526   24.0586    6.7206 H   0  0  0  0  0
   27.0531   22.5516    7.7801 H   0  0  0  0  0
   26.6781   24.1531   10.3968 H   0  0  0  0  0
   27.8246   22.8144   10.1430 H   0  0  0  0  0
   28.4178   24.4047   10.6815 H   0  0  0  0  0
   29.3672   22.8416    8.1617 H   0  0  0  0  0
   29.3667   24.2471    7.0682 H   0  0  0  0  0
   30.0118   24.4047    8.7205 H   0  0  0  0  0
   27.8190   26.1808    7.5293 H   0  0  0  0  0
   26.6738   26.0952    8.8903 H   0  0  0  0  0
   28.4134   26.3129    9.2027 H   0  0  0  0  0
   22.2869   23.4421    3.5783 H   0  0  0  0  0
   21.9044   23.2408    5.2913 H   0  0  0  0  0
  1  2  1  0  0  0
  2  3  1  0  0  0
  2  5  1  0  0  0
  3  4  2  0  0  0
  3  6  1  0  0  0
  6  7  1  0  0  0
  7  8  1  0  0  0
  7 10  1  0  0  0
  8  9  2  0  0  0
  8 17  1  0  0  0
 10 11  1  0  0  0
 11 12  1  0  0  0
 12 13  1  0  0  0
 13 14  1  0  0  0
 14 15  1  0  0  0
 14 16  2  0  0  0
 17 18  1  0  0  0
 18 19  1  0  0  0
 18 21  1  0  0  0
 19 20  2  0  0  0
 19 24  1  0  0  0
 21 22  1  0  0  0
 21 23  1  0  0  0
 24 25  1  0  0  0
 25 26  1  0  0  0
 25 34  1  0  0  0
 26 27  1  0  0  0
 27 28  1  0  0  0
 28 29  1  0  0  0
 29 30  1  0  0  0
 30 31  1  0  0  0
 30 32  1  0  0  0
 30 33  1  0  0  0
 34 35  2  0  0  0
 34 36  1  0  0  0
  1 37  1  0  0  0
  1 38  1  0  0  0
  1 39  1  0  0  0
  2 40  1  0  0  0
  5 41  1  0  0  0
  5 42  1  0  0  0
  5 43  1  0  0  0
  6 44  1  0  0  0
  7 45  1  0  0  0
 10 46  1  0  0  0
 10 47  1  0  0  0
 11 48  1  0  0  0
 11 49  1  0  0  0
 12 50  1  0  0  0
 12 51  1  0  0  0
 13 52  1  0  0  0
 15 53  1  0  0  0
 15 54  1  0  0  0
 16 55  1  0  0  0
 17 56  1  0  0  0
 18 57  1  0  0  0
 21 58  1  0  0  0
 22 59  1  0  0  0
 23 60  1  0  0  0
 23 61  1  0  0  0
 23 62  1  0  0  0
 24 63  1  0  0  0
 25 64  1  0  0  0
 26 65  1  0  0  0
 26 66  1  0  0  0
 27 67  1  0  0  0
 27 68  1  0  0  0
 28 69  1  0  0  0
 28 70  1  0  0  0
 29 71  1  0  0  0
 29 72  1  0  0  0
 31 73  1  0  0  0
 31 74  1  0  0  0
 31 75  1  0  0  0
 32 76  1  0  0  0
 32 77  1  0  0  0
 32 78  1  0  0  0
 33 79  1  0  0  0
 33 80  1  0  0  0
 33 81  1  0  0  0
 36 82  1  0  0  0
 36 83  1  0  0  0
M  END
$$$$
