5zw6_ligand
  -I-interpret- 

 82 82  0  0  0  0  0  0  0  0999 V2000
  112.5090   47.5170  -12.7870 N   0  3  0  0  0
  112.9160   46.6490  -11.6980 C   0  0  0  0  0
  114.1270   47.1370  -10.9170 C   0  0  0  0  0
  114.6700   48.2280  -11.1720 O   0  0  0  0  0
  114.5460   46.3160   -9.9520 N   0  0  0  0  0
  115.7250   46.5870   -9.1450 C   0  0  0  0  0
  116.8940   45.8360   -9.7460 C   0  0  0  0  0
  116.7900   44.6110   -9.9110 O   0  0  0  0  0
  115.5020   46.1330   -7.6990 C   0  0  0  0  0
  116.7200   46.2770   -6.7990 C   0  0  0  0  0
  116.4710   45.4760   -5.1940 S   0  0  0  0  0
  116.7320   43.7500   -5.6400 C   0  0  0  0  0
  118.0080   46.4880  -10.0870 N   0  0  0  0  0
  119.1550   45.7310  -10.6100 C   0  0  0  0  0
  119.7880   44.8420   -9.5330 C   0  0  0  0  0
  119.9630   45.2330   -8.3820 O   0  0  0  0  0
  120.1260   46.8250  -11.0920 C   0  0  0  0  0
  119.7560   48.0490  -10.3020 C   0  0  0  0  0
  118.2670   47.9430  -10.0260 C   0  0  0  0  0
  120.1400   43.6340   -9.9280 N   0  0  0  0  0
  120.8010   42.6790   -9.0590 C   0  0  0  0  0
  122.0460   42.1830   -9.7620 C   0  0  0  0  0
  122.0680   42.0570  -10.9860 O   0  0  0  0  0
  119.9160   41.4700   -8.7440 C   0  0  0  0  0
  118.8650   41.6910   -7.6880 C   0  0  0  0  0
  118.0300   40.3970   -7.5690 C   0  0  0  0  0
  117.2690   40.3300   -6.3280 N   0  0  0  0  0
  115.9630   40.5670   -6.2390 C   0  0  0  0  0
  115.2670   40.9170   -7.3190 N   0  0  0  0  0
  115.3580   40.4750   -5.0590 N   0  0  0  0  0
  123.0770   41.8740   -8.9930 N   0  0  0  0  0
  124.2350   41.2690   -9.6130 C   0  0  0  0  0
  125.1940   40.7020   -8.5980 C   0  0  0  0  0
  125.1740   41.0630   -7.4110 O   0  0  0  0  0
  126.0660   39.8370   -9.1010 N   0  0  0  0  0
  127.1410   39.2460   -8.3250 C   0  0  0  0  0
  128.3550   38.9270   -9.2220 C   0  0  0  0  0
  128.2360   38.7710  -10.4530 O   0  0  0  0  0
  126.6540   37.9890   -7.6220 C   0  0  0  0  0
  129.4860   38.8090   -8.7330 O   0  0  0  0  0
  111.6952   47.1164  -13.2536 H   0  0  0  0  0
  112.2712   48.4370  -12.4162 H   0  0  0  0  0
  113.2755   47.6057  -13.4541 H   0  0  0  0  0
  113.1880   45.6905  -12.1401 H   0  0  0  0  0
  112.0822   46.6057  -10.9973 H   0  0  0  0  0
  114.0170   45.4625   -9.7729 H   0  0  0  0  0
  115.9265   47.6582   -9.1362 H   0  0  0  0  0
  115.2528   45.0724   -7.7320 H   0  0  0  0  0
  114.7199   46.7674   -7.2820 H   0  0  0  0  0
  116.8951   47.3391   -6.6277 H   0  0  0  0  0
  117.5675   45.8002   -7.2914 H   0  0  0  0  0
  116.0020   43.4566   -6.3944 H   0  0  0  0  0
  117.7387   43.6276   -6.0397 H   0  0  0  0  0
  116.6127   43.1253   -4.7548 H   0  0  0  0  0
  118.8737   45.0416  -11.4060 H   0  0  0  0  0
  120.0414   46.9960  -12.1652 H   0  0  0  0  0
  121.1661   46.5406  -10.9329 H   0  0  0  0  0
  119.9886   48.9585  -10.8559 H   0  0  0  0  0
  120.3242   48.1032   -9.3734 H   0  0  0  0  0
  117.9878   48.3774   -9.0661 H   0  0  0  0  0
  117.6679   48.5047  -10.7428 H   0  0  0  0  0
  119.9381   43.3585  -10.8891 H   0  0  0  0  0
  121.0321   43.1816   -8.1198 H   0  0  0  0  0
  120.5782   40.6921   -8.3639 H   0  0  0  0  0
  119.3844   41.2272   -9.6641 H   0  0  0  0  0
  118.2245   42.5290   -7.9631 H   0  0  0  0  0
  119.3341   41.9261   -6.7326 H   0  0  0  0  0
  118.7185   39.5521   -7.5851 H   0  0  0  0  0
  117.3215   40.3789   -8.3971 H   0  0  0  0  0
  117.7695   40.0859   -5.4734 H   0  0  0  0  0
  114.2694   41.1146   -7.2409 H   0  0  0  0  0
  115.7315   40.9875   -8.2243 H   0  0  0  0  0
  115.8948   40.2240   -4.2288 H   0  0  0  0  0
  123.0558   42.0575   -7.9899 H   0  0  0  0  0
  124.7576   42.0398  -10.1794 H   0  0  0  0  0
  123.8916   40.4523  -10.2480 H   0  0  0  0  0
  125.9762   39.5742  -10.0825 H   0  0  0  0  0
  127.4568   39.9679   -7.5718 H   0  0  0  0  0
  127.3162   38.8882  -10.7018 H   0  0  0  0  0
  125.8305   38.2433   -6.9547 H   0  0  0  0  0
  126.3122   37.2681   -8.3647 H   0  0  0  0  0
  127.4714   37.5575   -7.0443 H   0  0  0  0  0
  1  2  1  0  0  0
  2  3  1  0  0  0
  3  4  2  0  0  0
  3  5  1  0  0  0
  5  6  1  0  0  0
  6  7  1  0  0  0
  6  9  1  0  0  0
  7  8  2  0  0  0
  7 13  1  0  0  0
  9 10  1  0  0  0
 10 11  1  0  0  0
 11 12  1  0  0  0
 13 14  1  0  0  0
 13 19  1  0  0  0
 14 15  1  0  0  0
 14 17  1  0  0  0
 15 16  2  0  0  0
 15 20  1  0  0  0
 17 18  1  0  0  0
 18 19  1  0  0  0
 20 21  1  0  0  0
 21 22  1  0  0  0
 21 24  1  0  0  0
 22 23  2  0  0  0
 22 31  1  0  0  0
 24 25  1  0  0  0
 25 26  1  0  0  0
 26 27  1  0  0  0
 27 28  1  0  0  0
 28 29  1  0  0  0
 28 30  2  0  0  0
 31 32  1  0  0  0
 32 33  1  0  0  0
 33 34  2  0  0  0
 33 35  1  0  0  0
 35 36  1  0  0  0
 36 37  1  0  0  0
 36 39  1  0  0  0
 37 38  1  0  0  0
 37 40  2  0  0  0
  1 41  1  0  0  0
  1 42  1  0  0  0
  1 43  1  0  0  0
  2 44  1  0  0  0
  2 45  1  0  0  0
  5 46  1  0  0  0
  6 47  1  0  0  0
  9 48  1  0  0  0
  9 49  1  0  0  0
 10 50  1  0  0  0
 10 51  1  0  0  0
 12 52  1  0  0  0
 12 53  1  0  0  0
 12 54  1  0  0  0
 14 55  1  0  0  0
 17 56  1  0  0  0
 17 57  1  0  0  0
 18 58  1  0  0  0
 18 59  1  0  0  0
 19 60  1  0  0  0
 19 61  1  0  0  0
 20 62  1  0  0  0
 21 63  1  0  0  0
 24 64  1  0  0  0
 24 65  1  0  0  0
 25 66  1  0  0  0
 25 67  1  0  0  0
 26 68  1  0  0  0
 26 69  1  0  0  0
 27 70  1  0  0  0
 29 71  1  0  0  0
 29 72  1  0  0  0
 30 73  1  0  0  0
 31 74  1  0  0  0
 32 75  1  0  0  0
 32 76  1  0  0  0
 35 77  1  0  0  0
 36 78  1  0  0  0
 38 79  1  0  0  0
 39 80  1  0  0  0
 39 81  1  0  0  0
 39 82  1  0  0  0
M  END
$$$$
