5k6a_ligand
  -I-interpret- 

 31 33  0  0  0  0  0  0  0  0999 V2000
  -30.2760  -16.3020   13.6130 C   0  0  0  0  0
  -28.9760  -15.6800   13.5250 C   0  0  0  0  0
  -28.0580  -16.2850   12.9210 O   0  0  0  0  0
  -28.7450  -14.3620   14.0360 C   0  0  0  0  0
  -27.4980  -13.6770   13.8610 C   0  0  0  0  0
  -27.3320  -12.3880   14.4260 C   0  0  0  0  0
  -26.1900  -11.6620   14.3060 O   0  0  0  0  0
  -28.3700  -11.7770   15.1330 C   0  0  0  0  0
  -29.6020  -12.4130   15.2990 C   0  0  0  0  0
  -29.7820  -13.6960   14.7770 C   0  0  0  0  0
  -31.0020  -14.3110   14.9630 O   0  0  0  0  0
  -31.0640  -15.7780   14.8700 C   0  0  0  0  0
  -32.4060  -16.2430   15.0180 C   0  0  0  0  0
  -33.5120  -15.3470   15.0380 C   0  0  0  0  0
  -34.8280  -15.8490   15.2250 C   0  0  0  0  0
  -35.9250  -15.0120   15.2460 O   0  0  0  0  0
  -35.0330  -17.2340   15.3850 C   0  0  0  0  0
  -33.9500  -18.1240   15.3680 C   0  0  0  0  0
  -32.6590  -17.6190   15.1890 C   0  0  0  0  0
  -30.1437  -17.3799   13.7061 H   0  0  0  0  0
  -30.8439  -16.0567   12.7155 H   0  0  0  0  0
  -26.6872  -14.1420   13.3001 H   0  0  0  0  0
  -26.2954  -10.8241   14.7624 H   0  0  0  0  0
  -28.2158  -10.7871   15.5624 H   0  0  0  0  0
  -30.4133  -11.9144   15.8294 H   0  0  0  0  0
  -30.5362  -16.2282   15.7107 H   0  0  0  0  0
  -33.3495  -14.2768   14.9100 H   0  0  0  0  0
  -36.7203  -15.5321   15.3823 H   0  0  0  0  0
  -36.0440  -17.6172   15.5234 H   0  0  0  0  0
  -34.1124  -19.1946   15.4926 H   0  0  0  0  0
  -31.8188  -18.3134   15.1814 H   0  0  0  0  0
  1  2  1  0  0  0
  1 12  1  0  0  0
  2  3  2  0  0  0
  2  4  1  0  0  0
  4  5  4  0  0  0
  4 10  4  0  0  0
  5  6  4  0  0  0
  6  7  1  0  0  0
  6  8  4  0  0  0
  8  9  4  0  0  0
  9 10  4  0  0  0
 10 11  1  0  0  0
 11 12  1  0  0  0
 12 13  1  0  0  0
 13 14  4  0  0  0
 13 19  4  0  0  0
 14 15  4  0  0  0
 15 16  1  0  0  0
 15 17  4  0  0  0
 17 18  4  0  0  0
 18 19  4  0  0  0
  1 20  1  0  0  0
  1 21  1  0  0  0
  5 22  1  0  0  0
  7 23  1  0  0  0
  8 24  1  0  0  0
  9 25  1  0  0  0
 12 26  1  0  0  0
 14 27  1  0  0  0
 16 28  1  0  0  0
 17 29  1  0  0  0
 18 30  1  0  0  0
 19 31  1  0  0  0
M  END
$$$$
