6skb_ligand

Created by X-TOOL on Mon Aug  2 16:10:25 2021
 52 55  0  0  0  0  0  0  0  0999 V2000
  -34.6310  -22.9680  -22.7280  C 0  0  0  2  0  3
  -34.5350  -24.0200  -20.5810  C 0  0  0  2  0  3
  -34.5570  -25.2680  -21.1870  C 0  0  0  1  0  3
  -34.6960  -26.4360  -19.0480  C 0  0  0  3  0  4
  -33.5010  -25.8380  -18.3530  C 0  0  0  1  0  3
  -33.6450  -24.9950  -17.2600  C 0  0  0  2  0  3
  -32.2110  -26.0710  -18.8010  C 0  0  0  2  0  3
  -35.4640  -26.8850  -24.3550  N 0  0  0  3  0  3
  -34.6360  -26.6850  -23.3040  C 0  3  0  1  0  3
  -33.8340  -27.6350  -22.9480  N 0  0  0  3  0  3
  -34.6130  -25.3840  -22.5870  C 0  0  0  1  0  3
  -34.6470  -24.2060  -23.3430  C 0  0  0  2  0  3
  -34.5720  -22.8560  -21.3450  C 0  0  0  1  0  3
  -34.5140  -26.4510  -20.4780  O 0  0  0  1  0  2
  -32.5300  -24.4320  -16.6660  C 0  0  0  2  0  3
  -31.2900  -24.7260  -17.1930  C 0  0  0  2  0  3
  -31.1140  -25.5310  -18.2530  N 0  0  0  1  0  2
  -34.5340  -21.5070  -20.6620  C 0  0  0  2  0  4
  -35.6610  -21.2940  -19.6650  C 0  0  0  3  0  4
  -35.5920  -19.9170  -19.0490  C 0  0  0  1  0  3
  -36.0340  -19.6980  -17.7440  C 0  0  0  2  0  3
  -36.0170  -18.4270  -17.1910  C 0  0  0  2  0  3
  -35.5560  -17.3590  -17.9340  C 0  0  0  2  0  3
  -35.1190  -17.5570  -19.2360  C 0  0  0  2  0  3
  -35.1370  -18.8300  -19.8320  C 0  0  0  2  0  4
  -34.6170  -19.0980  -21.2570  B 0  0  0  1  0  3
  -34.0640  -18.1250  -22.0180  O 0  0  0  3  0  3
  -34.2510  -20.3900  -21.5530  O 0  0  0  2  0  3
  -34.6650  -22.0704  -23.3349  H 0  0  0  1  0  1
  -34.4885  -23.9501  -19.5003  H 0  0  0  1  0  1
  -35.5877  -25.8390  -18.8061  H 0  0  0  1  0  1
  -34.8381  -27.4676  -18.6936  H 0  0  0  1  0  1
  -34.6332  -24.7774  -16.8711  H 0  0  0  1  0  1
  -32.0807  -26.7328  -19.6496  H 0  0  0  1  0  1
  -36.1091  -26.1388  -24.6517  H 0  0  0  1  0  1
  -35.4494  -27.7834  -24.8585  H 0  0  0  1  0  1
  -33.1970  -27.4993  -22.1500  H 0  0  0  1  0  1
  -33.8322  -28.5273  -23.4624  H 0  0  0  1  0  1
  -34.6864  -24.2655  -24.4247  H 0  0  0  1  0  1
  -32.6283  -23.7765  -15.8083  H 0  0  0  1  0  1
  -30.4149  -24.2858  -16.7289  H 0  0  0  1  0  1
  -33.6369  -21.5595  -20.0276  H 0  0  0  1  0  1
  -35.5823  -22.0480  -18.8679  H 0  0  0  1  0  1
  -36.6247  -21.4074  -20.1831  H 0  0  0  1  0  1
  -36.3955  -20.5329  -17.1546  H 0  0  0  1  0  1
  -36.3653  -18.2720  -16.1763  H 0  0  0  1  0  1
  -35.5354  -16.3657  -17.5004  H 0  0  0  1  0  1
  -34.7553  -16.7103  -19.8068  H 0  0  0  1  0  1
  -34.8133  -18.9739  -20.8565  H 0  0  0  1  0  1
  -34.3028  -18.2615  -22.9273  H 0  0  0  1  0  1
  -34.3028  -18.2615  -22.9273  H 0  0  0  1  0  1
  -35.0251  -20.1924  -22.0669  H 0  0  0  1  0  1
  1 12  4  0  0  1
 13  1  4  0  0  1
  3  2  4  0  0  1
  2 13  4  0  0  1
 11  3  4  0  0  1
  3 14  1  0  0  2
  4  5  1  0  0  2
 14  4  1  0  0  2
  5  6  4  0  0  1
  5  7  4  0  0  1
  6 15  4  0  0  1
  7 17  4  0  0  1
  9  8  2  0  0  2
  9 10  2  0  0  2
  9 11  1  0  0  2
 11 12  4  0  0  1
 13 18  1  0  0  2
 15 16  4  0  0  1
 16 17  4  0  0  1
 18 19  1  0  0  1
 18 28  1  0  0  1
 19 20  1  0  0  1
 20 21  4  0  0  1
 20 25  4  0  0  1
 21 22  4  0  0  1
 22 23  4  0  0  1
 23 24  4  0  0  1
 24 25  4  0  0  1
 25 26  1  0  0  1
 26 27  1  0  0  2
 26 28  1  0  0  1
  1 29  1  0  0  2
  2 30  1  0  0  2
  4 31  1  0  0  2
  4 32  1  0  0  2
  6 33  1  0  0  2
  7 34  1  0  0  2
  8 35  1  0  0  2
  8 36  1  0  0  2
 10 37  1  0  0  2
 10 38  1  0  0  2
 12 39  1  0  0  2
 15 40  1  0  0  2
 16 41  1  0  0  2
 18 42  1  0  0  2
 19 43  1  0  0  2
 19 44  1  0  0  2
 21 45  1  0  0  2
 22 46  1  0  0  2
 23 47  1  0  0  2
 24 48  1  0  0  2
 25 49  1  0  0  2
 27 50  1  0  0  2
 27 51  1  0  0  2
 28 52  1  0  0  2
M  END
> <MOLECULAR_FORMULA>
C21H24N3O3B

> <MOLECULAR_WEIGHT>
377.1

> <NUM_HB_ATOMS>
6  

> <NUM_ROTOR>
4  

> <XLOGP2>
2.25 

$$$$
