#	Name:			6skb_ligand
#	Creating user name:	wangrx
#	Creation time:		Thu Aug  5 18:19:47 2021

#	Modifying user name:	wangrx
#	Modification time:	Thu Aug  5 18:20:08 2021

@<TRIPOS>MOLECULE
6skb_ligand
   50    53     1     0     0
SMALL
GAST_HUCK


@<TRIPOS>ATOM
      1 C10       -34.6310  -22.9680  -22.7280 C.ar      1 LH5        -0.0723 
      2 C13       -34.5350  -24.0200  -20.5810 C.ar      1 LH5        -0.0329 
      3 C15       -34.5570  -25.2680  -21.1870 C.ar      1 LH5         0.0926 
      4 C17       -34.6960  -26.4360  -19.0480 C.3       1 LH5         0.1102 
      5 C20       -33.5010  -25.8380  -18.3530 C.ar      1 LH5         0.0152 
      6 C21       -33.6450  -24.9950  -17.2600 C.ar      1 LH5        -0.0378 
      7 C28       -32.2110  -26.0710  -18.8010 C.ar      1 LH5         0.0151 
      8 N01       -35.4640  -26.8850  -24.3550 N.pl3     1 LH5        -0.2743 
      9 C04       -34.6360  -26.6850  -23.3040 C.cat     1 LH5         0.2285 
     10 N05       -33.8340  -27.6350  -22.9480 N.pl3     1 LH5        -0.2743 
     11 C07       -34.6130  -25.3840  -22.5870 C.ar      1 LH5         0.0470 
     12 C08       -34.6470  -24.2060  -23.3430 C.ar      1 LH5        -0.0720 
     13 C12       -34.5720  -22.8560  -21.3450 C.ar      1 LH5        -0.0629 
     14 O16       -34.5140  -26.4510  -20.4780 O.3       1 LH5        -0.3059 
     15 C23       -32.5300  -24.4320  -16.6660 C.ar      1 LH5        -0.0404 
     16 C25       -31.2900  -24.7260  -17.1930 C.ar      1 LH5         0.0042 
     17 N27       -31.1140  -25.5310  -18.2530 N.ar      1 LH5        -0.3043 
     18 C30       -34.5340  -21.5070  -20.6620 C.3       1 LH5        -0.0835 
     19 C32       -35.6610  -21.2940  -19.6650 C.3       1 LH5        -0.0402 
     20 C35       -35.5920  -19.9170  -19.0490 C.ar      1 LH5        -0.1441 
     21 C36       -36.0340  -19.6980  -17.7440 C.ar      1 LH5        -0.1751 
     22 C38       -36.0170  -18.4270  -17.1910 C.ar      1 LH5        -0.1827 
     23 C40       -35.5560  -17.3590  -17.9340 C.ar      1 LH5        -0.1687 
     24 C42       -35.1190  -17.5570  -19.2360 C.ar      1 LH5        -0.1858 
     25 C44       -35.1370  -18.8300  -19.8320 C.ar      1 LH5        -0.1863 
     26 B45       -34.6170  -19.0980  -21.2570 B         1 LH5         3.0000 
     27 O46       -34.0640  -18.1250  -22.0180 O.3       1 LH5        -0.4105 
     28 O48       -34.2510  -20.3900  -21.5530 O.3       1 LH5        -0.8406 
     29 H1        -34.6650  -22.0704  -23.3349 H         1 LH5         0.0464 
     30 H2        -34.4885  -23.9501  -19.5003 H         1 LH5         0.0478 
     31 H3        -35.5877  -25.8390  -18.8061 H         1 LH5         0.0795 
     32 H4        -34.8381  -27.4676  -18.6936 H         1 LH5         0.0795 
     33 H5        -34.6332  -24.7774  -16.8711 H         1 LH5         0.0679 
     34 H6        -32.0807  -26.7328  -19.6496 H         1 LH5         0.0766 
     35 H7        -36.1091  -26.1388  -24.6517 H         1 LH5         0.3178 
     36 H8        -35.4494  -27.7834  -24.8585 H         1 LH5         0.3178 
     37 H9        -33.1970  -27.4993  -22.1500 H         1 LH5         0.3178 
     38 H10       -33.8322  -28.5273  -23.4624 H         1 LH5         0.3178 
     39 H11       -34.6864  -24.2655  -24.4247 H         1 LH5         0.0571 
     40 H12       -32.6283  -23.7765  -15.8083 H         1 LH5         0.0693 
     41 H13       -30.4149  -24.2858  -16.7289 H         1 LH5         0.0767 
     42 H14       -33.6369  -21.5595  -20.0276 H         1 LH5         0.0299 
     43 H15       -35.5823  -22.0480  -18.8679 H         1 LH5         0.0422 
     44 H16       -36.6247  -21.4074  -20.1831 H         1 LH5         0.0422 
     45 H17       -36.3955  -20.5329  -17.1546 H         1 LH5        -0.0189 
     46 H18       -36.3653  -18.2720  -16.1763 H         1 LH5        -0.0146 
     47 H19       -35.5354  -16.3657  -17.5004 H         1 LH5         0.0333 
     48 H20       -34.7553  -16.7103  -19.8068 H         1 LH5        -0.0149 
     49 H22       -34.3028  -18.2615  -22.9273 H         1 LH5         0.2052 
     50 H23       -34.3028  -18.2615  -22.9273 H         1 LH5         0.2052 
@<TRIPOS>BOND
     1    1   12 ar   
     2   13    1 ar   
     3    3    2 ar   
     4    2   13 ar   
     5   11    3 ar   
     6    3   14 1    
     7    4    5 1    
     8   14    4 1    
     9    5    6 ar   
    10    5    7 ar   
    11    6   15 ar   
    12    7   17 ar   
    13    9    8 ar   
    14    9   10 ar   
    15    9   11 1    
    16   11   12 ar   
    17   13   18 1    
    18   15   16 ar   
    19   16   17 ar   
    20   18   19 1    
    21   18   28 1    
    22   19   20 1    
    23   20   21 ar   
    24   20   25 ar   
    25   21   22 ar   
    26   22   23 ar   
    27   23   24 ar   
    28   24   25 ar   
    29   25   26 1    
    30   26   27 1    
    31   26   28 1    
    32    1   29 1    
    33    2   30 1    
    34    4   31 1    
    35    4   32 1    
    36    6   33 1    
    37    7   34 1    
    38    8   35 1    
    39    8   36 1    
    40   10   37 1    
    41   10   38 1    
    42   12   39 1    
    43   15   40 1    
    44   16   41 1    
    45   18   42 1    
    46   19   43 1    
    47   19   44 1    
    48   21   45 1    
    49   22   46 1    
    50   23   47 1    
    51   24   48 1    
    52   27   49 1    
    53   27   50 1    
@<TRIPOS>SUBSTRUCTURE
     1 LH5         1 PERM              0 ****  ****    0 ROOT 
