3r22_ligand
  -I-interpret- 

 51 54  0  0  0  0  0  0  0  0999 V2000
   -2.4140  -34.0080    1.9930 N   0  0  0  0  0
   -4.3690  -30.5460    7.0330 N   0  0  0  0  0
   -3.9010  -32.5380    5.0170 C   0  0  0  0  0
   -2.8240  -32.6810    5.8740 C   0  0  0  0  0
   -3.6650  -31.4120    7.7730 C   0  0  0  0  0
   -5.1870  -29.6610    7.6480 C   0  0  0  0  0
   -6.3870  -28.1910    5.8860 C   0  0  0  0  0
   -7.2240  -29.5730    3.8440 C   0  0  0  0  0
   -5.4090  -27.0920    3.8490 C   0  0  0  0  0
   -6.2030  -28.6230    9.4640 C   0  0  0  0  0
   -4.5590  -30.5200    9.7840 C   0  0  0  0  0
   -4.7290  -33.4170    1.1380 O   0  0  0  0  0
   -3.3540  -33.6170    0.7430 S   0  0  0  0  0
   -3.3450  -34.7190   -0.1920 O   0  0  0  0  0
   -2.7430  -32.2310    0.0410 C   0  0  0  0  0
   -2.5780  -33.5600    3.2580 C   0  0  0  0  0
   -1.5530  -33.7020    4.1200 N   0  0  0  0  0
   -1.6610  -33.2780    5.3870 C   0  0  0  0  0
   -3.7730  -32.9770    3.7000 C   0  0  0  0  0
   -2.8470  -32.2980    7.1730 N   0  0  0  0  0
   -3.7640  -31.3850    9.1310 N   0  0  0  0  0
   -5.2950  -29.6280    9.0220 C   0  0  0  0  0
   -6.6400  -28.0590    8.3030 N   0  0  0  0  0
   -6.0070  -28.7000    7.2240 N   0  0  0  0  0
   -5.1390  -28.0140    5.0280 C   0  0  0  0  0
   -5.9150  -27.8630    2.6370 C   0  0  0  0  0
   -7.3140  -28.3950    2.8950 C   0  0  0  0  0
   -7.4120  -29.1740    5.3100 C   0  0  0  0  0
   -1.6353  -34.6425    1.8158 H   0  0  0  0  0
   -4.8320  -32.0905    5.3651 H   0  0  0  0  0
   -6.8483  -27.2042    5.9259 H   0  0  0  0  0
   -6.2292  -30.0067    3.7423 H   0  0  0  0  0
   -8.0202  -30.2707    3.5845 H   0  0  0  0  0
   -4.4758  -26.5985    3.5776 H   0  0  0  0  0
   -6.1736  -26.3729    4.1429 H   0  0  0  0  0
   -6.4815  -28.3666   10.4862 H   0  0  0  0  0
   -4.6220  -30.5206   10.8722 H   0  0  0  0  0
   -3.3335  -31.9810   -0.8404 H   0  0  0  0  0
   -2.7916  -31.4107    0.7572 H   0  0  0  0  0
   -1.7063  -32.3995   -0.2505 H   0  0  0  0  0
   -0.8121  -33.4038    6.0590 H   0  0  0  0  0
   -4.6087  -32.8659    3.0091 H   0  0  0  0  0
   -2.1530  -32.7389    7.7767 H   0  0  0  0  0
   -4.8384  -28.9894    4.6454 H   0  0  0  0  0
   -4.3540  -27.5729    5.6422 H   0  0  0  0  0
   -5.2459  -28.7017    2.4448 H   0  0  0  0  0
   -5.9423  -27.1943    1.7766 H   0  0  0  0  0
   -7.9302  -27.6120    3.3370 H   0  0  0  0  0
   -7.7665  -28.7124    1.9556 H   0  0  0  0  0
   -8.3775  -28.6712    5.3652 H   0  0  0  0  0
   -7.3093  -30.0919    5.8889 H   0  0  0  0  0
  1 13  1  0  0  0
 16  1  1  0  0  0
  5  2  4  0  0  0
  2  6  4  0  0  0
  3  4  4  0  0  0
 19  3  4  0  0  0
  4 18  4  0  0  0
  4 20  1  0  0  0
 20  5  1  0  0  0
  5 21  4  0  0  0
  6 22  4  0  0  0
  6 24  4  0  0  0
 24  7  1  0  0  0
  7 25  1  0  0  0
  7 28  1  0  0  0
  8 27  1  0  0  0
 28  8  1  0  0  0
 25  9  1  0  0  0
  9 26  1  0  0  0
 22 10  4  0  0  0
 10 23  4  0  0  0
 21 11  4  0  0  0
 11 22  4  0  0  0
 13 12  2  0  0  0
 13 14  2  0  0  0
 13 15  1  0  0  0
 16 17  4  0  0  0
 16 19  4  0  0  0
 17 18  4  0  0  0
 23 24  4  0  0  0
 26 27  1  0  0  0
  1 29  1  0  0  0
  3 30  1  0  0  0
  7 31  1  0  0  0
  8 32  1  0  0  0
  8 33  1  0  0  0
  9 34  1  0  0  0
  9 35  1  0  0  0
 10 36  1  0  0  0
 11 37  1  0  0  0
 15 38  1  0  0  0
 15 39  1  0  0  0
 15 40  1  0  0  0
 18 41  1  0  0  0
 19 42  1  0  0  0
 20 43  1  0  0  0
 25 44  1  0  0  0
 25 45  1  0  0  0
 26 46  1  0  0  0
 26 47  1  0  0  0
 27 48  1  0  0  0
 27 49  1  0  0  0
 28 50  1  0  0  0
 28 51  1  0  0  0
M  END
$$$$
