4oex_ligand
  -I-interpret- 

 58 60  0  0  0  0  0  0  0  0999 V2000
   28.9580  -12.5950   19.5450 C   0  0  0  0  0
   26.3380  -18.4680   15.0600 C   0  0  0  0  0
   23.4640  -22.0070   19.7440 C   0  0  0  0  0
   30.8850  -15.3640   16.8220 O   0  0  0  0  0
   28.0890  -20.7550   24.1910 O   0  0  0  0  0
   29.1820  -21.6490   22.1830 O   0  0  0  0  0
   27.6820  -18.1110   22.8420 C   0  0  0  0  0
   27.6510  -16.7810   22.3260 C   0  0  0  0  0
   28.3090  -18.9490   20.6990 C   0  0  0  0  0
   29.3700  -17.0780   16.1160 C   0  0  0  0  0
   27.8400  -12.8050   20.5230 C   0  0  0  0  0
   27.7250  -18.9110   15.3930 C   0  0  0  0  0
   27.8170  -14.1180   21.2150 C   0  0  0  0  0
   24.1910  -21.7180   22.1010 C   0  0  0  0  0
   25.5330  -22.9940   20.5340 C   0  0  0  0  0
   25.3630  -20.8230   22.3260 C   0  0  0  0  0
   26.7040  -22.1110   20.8360 C   0  0  0  0  0
   28.0720  -18.1660   17.7510 N   0  0  0  0  0
   29.5650  -16.4960   18.3810 N   0  0  0  0  0
   27.9340  -15.2310   20.3970 O   0  0  0  0  0
   28.4140  -18.0270   16.4670 C   0  0  0  0  0
   28.0190  -19.1590   22.0270 C   0  0  0  0  0
   27.9570  -16.5670   20.9640 C   0  0  0  0  0
   28.2620  -17.6020   20.1750 C   0  0  0  0  0
   28.6380  -17.4000   18.6810 C   0  0  0  0  0
   29.9500  -16.2980   17.1140 C   0  0  0  0  0
   24.2660  -22.3750   20.8290 N   0  3  0  0  0
   26.6180  -21.4970   22.1310 N   0  0  0  0  0
   28.0470  -20.8430   22.6840 S   0  0  0  0  0
   29.9132  -12.6810   20.0631 H   0  0  0  0  0
   28.8994  -13.3496   18.7606 H   0  0  0  0  0
   28.8709  -11.6024   19.1032 H   0  0  0  0  0
   25.7213  -18.5029   15.9581 H   0  0  0  0  0
   26.3660  -17.4481   14.6764 H   0  0  0  0  0
   25.9181  -19.1308   14.3034 H   0  0  0  0  0
   22.4144  -22.1262   20.0127 H   0  0  0  0  0
   23.6585  -20.9658   19.4867 H   0  0  0  0  0
   23.6962  -22.6431   18.8899 H   0  0  0  0  0
   31.1662  -14.9305   17.6311 H   0  0  0  0  0
   27.4367  -18.2936   23.8882 H   0  0  0  0  0
   27.3949  -15.9425   22.9736 H   0  0  0  0  0
   28.5704  -19.7856   20.0511 H   0  0  0  0  0
   29.6610  -16.9469   15.0738 H   0  0  0  0  0
   26.9159  -12.7464   19.9479 H   0  0  0  0  0
   27.9687  -12.0520   21.3005 H   0  0  0  0  0
   28.3190  -18.8433   14.4816 H   0  0  0  0  0
   27.6594  -19.9227   15.7933 H   0  0  0  0  0
   26.8445  -14.1934   21.7015 H   0  0  0  0  0
   28.6806  -14.1316   21.8799 H   0  0  0  0  0
   23.2853  -21.1119   22.1229 H   0  0  0  0  0
   24.1833  -22.4785   22.8818 H   0  0  0  0  0
   25.6198  -23.8835   21.1580 H   0  0  0  0  0
   25.5524  -23.2156   19.4669 H   0  0  0  0  0
   25.3260  -20.4745   23.3581 H   0  0  0  0  0
   25.3050  -20.0066   21.6061 H   0  0  0  0  0
   26.7241  -21.3163   20.0903 H   0  0  0  0  0
   27.6016  -22.7291   20.8184 H   0  0  0  0  0
   23.6154  -23.1232   21.0683 H   0  0  0  0  0
 11  1  1  0  0  0
 12  2  1  0  0  0
 27  3  1  0  0  0
 26  4  1  0  0  0
 29  5  2  0  0  0
 29  6  2  0  0  0
  7  8  4  0  0  0
 22  7  4  0  0  0
  8 23  4  0  0  0
 22  9  4  0  0  0
  9 24  4  0  0  0
 21 10  4  0  0  0
 26 10  4  0  0  0
 13 11  1  0  0  0
 21 12  1  0  0  0
 20 13  1  0  0  0
 16 14  1  0  0  0
 14 27  1  0  0  0
 17 15  1  0  0  0
 15 27  1  0  0  0
 28 16  1  0  0  0
 28 17  1  0  0  0
 18 21  4  0  0  0
 25 18  4  0  0  0
 25 19  4  0  0  0
 19 26  4  0  0  0
 23 20  1  0  0  0
 29 22  1  0  0  0
 24 23  4  0  0  0
 24 25  1  0  0  0
 28 29  1  0  0  0
  1 30  1  0  0  0
  1 31  1  0  0  0
  1 32  1  0  0  0
  2 33  1  0  0  0
  2 34  1  0  0  0
  2 35  1  0  0  0
  3 36  1  0  0  0
  3 37  1  0  0  0
  3 38  1  0  0  0
  4 39  1  0  0  0
  7 40  1  0  0  0
  8 41  1  0  0  0
  9 42  1  0  0  0
 10 43  1  0  0  0
 11 44  1  0  0  0
 11 45  1  0  0  0
 12 46  1  0  0  0
 12 47  1  0  0  0
 13 48  1  0  0  0
 13 49  1  0  0  0
 14 50  1  0  0  0
 14 51  1  0  0  0
 15 52  1  0  0  0
 15 53  1  0  0  0
 16 54  1  0  0  0
 16 55  1  0  0  0
 17 56  1  0  0  0
 17 57  1  0  0  0
 27 58  1  0  0  0
M  END
$$$$
