5a5v_ligand
  -I-interpret- 

 52 53  0  0  0  0  0  0  0  0999 V2000
   -8.5530    7.2200    2.7910 C   0  0  0  0  0
   -8.5920    7.4970    1.4200 C   0  0  0  0  0
   -9.7310    7.9860    0.8760 C   0  0  0  0  0
  -10.8690    8.2420    1.6740 C   0  0  0  0  0
  -10.8160    8.0010    3.0470 C   0  0  0  0  0
   -9.6530    7.4680    3.6080 C   0  0  0  0  0
  -12.0860    8.8780    1.0710 C   0  0  0  0  0
  -13.1050    9.0690    1.7130 O   0  0  0  0  0
  -11.9550    9.3350   -0.1770 N   0  0  0  0  0
  -13.0720    9.8990   -0.8970 C   0  0  0  0  0
  -12.7410   10.8650   -2.0190 C   0  0  0  0  0
  -11.2550   11.0550   -2.2630 C   0  0  0  0  0
  -10.8360   12.4850   -2.5240 C   0  0  0  0  0
   -9.8670   12.9320   -1.4610 C   0  0  0  0  0
   -8.5160   13.2890   -2.0170 C   0  0  0  0  0
   -7.6680   12.1180   -1.9410 N   0  0  0  0  0
   -6.3770   12.1460   -2.2530 C   0  0  0  0  0
   -5.8690   13.1920   -2.6180 O   0  0  0  0  0
   -5.5420   10.8770   -2.1880 C   0  0  0  0  0
   -6.1050    9.6170   -1.9230 C   0  0  0  0  0
   -5.3230    8.4780   -1.8880 C   0  0  0  0  0
   -3.9510    8.5900   -2.1180 C   0  0  0  0  0
   -3.3740    9.8440   -2.3840 C   0  0  0  0  0
   -4.1730   10.9800   -2.4070 C   0  0  0  0  0
   -9.6820    8.1920   -0.4610 O   0  0  0  0  0
   -7.5400    7.2990    0.5780 O   0  0  0  0  0
   -7.4320    9.4270   -1.7110 O   0  0  0  0  0
   -5.9000    7.2640   -1.6610 O   0  0  0  0  0
   -7.6454    6.8027    3.2272 H   0  0  0  0  0
  -11.6759    8.2270    3.6776 H   0  0  0  0  0
   -9.6070    7.2484    4.6747 H   0  0  0  0  0
  -11.0438    9.2843   -0.6325 H   0  0  0  0  0
  -13.6423   10.4719   -0.1658 H   0  0  0  0  0
  -13.5829    9.0579   -1.3657 H   0  0  0  0  0
  -13.1458   11.8364   -1.7352 H   0  0  0  0  0
  -13.1655   10.4512   -2.9337 H   0  0  0  0  0
  -11.0040   10.4825   -3.1559 H   0  0  0  0  0
  -10.7408   10.7336   -1.3572 H   0  0  0  0  0
  -11.7156   13.1285   -2.5049 H   0  0  0  0  0
  -10.3558   12.5484   -3.5005 H   0  0  0  0  0
   -9.7329   12.1058   -0.7627 H   0  0  0  0  0
  -10.2790   13.8229   -0.9870 H   0  0  0  0  0
   -8.0788   14.1047   -1.4411 H   0  0  0  0  0
   -8.6124   13.6137   -3.0530 H   0  0  0  0  0
   -8.0785   11.2356   -1.6355 H   0  0  0  0  0
   -3.3229    7.6996   -2.0912 H   0  0  0  0  0
   -2.3033    9.9246   -2.5716 H   0  0  0  0  0
   -3.7252   11.9554   -2.5974 H   0  0  0  0  0
  -10.5259    8.5372   -0.7616 H   0  0  0  0  0
   -7.7912    7.5561   -0.3121 H   0  0  0  0  0
   -7.5990    8.4955   -1.5496 H   0  0  0  0  0
   -5.2234    6.5830   -1.6682 H   0  0  0  0  0
  1  2  4  0  0  0
  1  6  4  0  0  0
  2  3  4  0  0  0
  2 26  1  0  0  0
  3  4  4  0  0  0
  3 25  1  0  0  0
  4  5  4  0  0  0
  4  7  1  0  0  0
  5  6  4  0  0  0
  7  8  2  0  0  0
  7  9  1  0  0  0
  9 10  1  0  0  0
 10 11  1  0  0  0
 11 12  1  0  0  0
 12 13  1  0  0  0
 13 14  1  0  0  0
 14 15  1  0  0  0
 15 16  1  0  0  0
 16 17  1  0  0  0
 17 18  2  0  0  0
 17 19  1  0  0  0
 19 20  4  0  0  0
 19 24  4  0  0  0
 20 21  4  0  0  0
 20 27  1  0  0  0
 21 22  4  0  0  0
 21 28  1  0  0  0
 22 23  4  0  0  0
 23 24  4  0  0  0
  1 29  1  0  0  0
  5 30  1  0  0  0
  6 31  1  0  0  0
  9 32  1  0  0  0
 10 33  1  0  0  0
 10 34  1  0  0  0
 11 35  1  0  0  0
 11 36  1  0  0  0
 12 37  1  0  0  0
 12 38  1  0  0  0
 13 39  1  0  0  0
 13 40  1  0  0  0
 14 41  1  0  0  0
 14 42  1  0  0  0
 15 43  1  0  0  0
 15 44  1  0  0  0
 16 45  1  0  0  0
 22 46  1  0  0  0
 23 47  1  0  0  0
 24 48  1  0  0  0
 25 49  1  0  0  0
 26 50  1  0  0  0
 27 51  1  0  0  0
 28 52  1  0  0  0
M  END
$$$$
