5j8u_ligand
  -I-interpret- 

 31 33  0  0  0  0  0  0  0  0999 V2000
   37.9120   -0.0570   -9.1930 C   0  0  0  0  0
   38.5030   -1.3270   -9.0760 C   0  0  0  0  0
   39.8740   -1.4260   -8.8380 C   0  0  0  0  0
   42.1160   -0.3780   -8.6330 C   0  0  0  0  0
   44.2820   -0.1090   -9.0480 C   0  0  0  0  0
   42.7610    1.0740  -10.5590 C   0  0  0  0  0
   42.9570    2.4500  -10.4340 C   0  0  0  0  0
   42.6390    3.2890  -11.5010 C   0  0  0  0  0
   42.2600    0.5410  -11.7540 C   0  0  0  0  0
   40.6520   -0.2520   -8.7990 C   0  0  0  0  0
   40.0480    1.0140   -8.9350 C   0  0  0  0  0
   38.6900    1.1170   -9.1660 C   0  0  0  0  0
   36.5990    0.0560   -9.4740 O   0  0  0  0  0
   40.4820   -2.6270   -8.6630 O   0  0  0  0  0
   42.7470   -1.1230   -7.7580 N   0  0  0  0  0
   44.1200   -0.9510   -8.0010 N   0  0  0  0  0
   43.0490    0.2350   -9.4640 N   0  0  0  0  0
   42.1270    2.7610  -12.6830 C   0  0  0  0  0
   41.9270    1.3880  -12.8040 C   0  0  0  0  0
   45.3380    0.2720   -9.5480 O   0  0  0  0  0
   43.4780    2.9390   -9.2820 F   0  0  0  0  0
   37.8952   -2.2269   -9.1704 H   0  0  0  0  0
   42.7921    4.3643  -11.4093 H   0  0  0  0  0
   42.1317   -0.5362  -11.8598 H   0  0  0  0  0
   40.6551    1.9159   -8.8576 H   0  0  0  0  0
   38.2278    2.0913   -9.3249 H   0  0  0  0  0
   36.3611    0.9850   -9.5178 H   0  0  0  0  0
   41.4202   -2.4905   -8.5124 H   0  0  0  0  0
   44.8740   -1.3904   -7.4729 H   0  0  0  0  0
   41.8825    3.4224  -13.5142 H   0  0  0  0  0
   41.5089    0.9775  -13.7231 H   0  0  0  0  0
  2  1  4  0  0  0
  1 12  4  0  0  0
  1 13  1  0  0  0
  3  2  4  0  0  0
 10  3  4  0  0  0
  3 14  1  0  0  0
  4 10  1  0  0  0
  4 15  2  0  0  0
 17  4  1  0  0  0
  5 16  1  0  0  0
 17  5  1  0  0  0
  5 20  2  0  0  0
  6  7  4  0  0  0
  6  9  4  0  0  0
  6 17  1  0  0  0
  7  8  4  0  0  0
  7 21  1  0  0  0
  8 18  4  0  0  0
  9 19  4  0  0  0
 10 11  4  0  0  0
 11 12  4  0  0  0
 15 16  1  0  0  0
 18 19  4  0  0  0
  2 22  1  0  0  0
  8 23  1  0  0  0
  9 24  1  0  0  0
 11 25  1  0  0  0
 12 26  1  0  0  0
 13 27  1  0  0  0
 14 28  1  0  0  0
 16 29  1  0  0  0
 18 30  1  0  0  0
 19 31  1  0  0  0
M  END
$$$$
