### 
### Created by X-TOOL on Mon Sep 10 21:12:48 2018
### 

@<TRIPOS>MOLECULE
1ga9_ligand
   41    43     1     0     0
SMALL
GAST_HUCK


@<TRIPOS>ATOM
      1 B          26.7620    4.8970   16.3880 B         1 ETP         0.7268
      2 O1         25.7110    3.8660   16.7220 O.3       1 ETP        -0.4941
      3 O2         27.0100    5.7500   17.5590 O.3       1 ETP        -0.4941
      4 C1         26.2640    5.8100   15.1730 C.ar      1 ETP        -0.0694
      5 C2         25.9200    5.2430   13.9180 C.ar      1 ETP        -0.0550
      6 C3         25.3620    6.0620   12.8890 C.ar      1 ETP         0.0614
      7 N1         24.9320    5.4810   11.5860 N.am      1 ETP        -0.1867
      8 C4         25.1620    7.4400   13.1240 C.ar      1 ETP        -0.0456
      9 C5         25.5040    8.0130   14.3480 C.ar      1 ETP        -0.0790
     10 C6         26.0570    7.2030   15.3740 C.ar      1 ETP        -0.0887
     11 S1         23.5540    4.4990   11.4300 S.o2      1 ETP         0.0980
     12 O3         23.6900    3.3850   12.3890 O.2       1 ETP        -0.1442
     13 O4         23.0900    4.3340   10.1060 O.2       1 ETP        -0.1442
     14 S3         21.1630    6.4410   11.1290 S.3       1 ETP        -0.0154
     15 C7         20.3820    7.0000   12.6240 C.2       1 ETP         0.0183
     16 C8         20.9390    6.4850   13.7420 C.2       1 ETP         0.0780
     17 C9         22.0490    5.5730   13.4700 C.2       1 ETP        -0.0267
     18 C10        22.2730    5.4670   12.1420 C.2       1 ETP         0.1679
     19 S2         20.4500    6.9110   15.3600 S.o2      1 ETP         0.0139
     20 O6         19.0880    7.2290   15.4500 O.2       1 ETP        -0.1673
     21 O5         21.1590    6.0370   16.3140 O.2       1 ETP        -0.1673
     22 C11        21.2220    8.4710   15.6220 C.ar      1 ETP         0.0904
     23 C16        22.2980    8.5920   16.5420 C.ar      1 ETP        -0.0367
     24 C15        22.9550    9.8310   16.7090 C.ar      1 ETP        -0.0600
     25 C14        22.5410   10.9640   15.9570 C.ar      1 ETP        -0.0616
     26 C13        21.4730   10.8590   15.0440 C.ar      1 ETP        -0.0600
     27 C12        20.8100    9.6210   14.8740 C.ar      1 ETP        -0.0367
     28 H1         25.5544    3.3175   15.9623 H         1 ETP         0.1669
     29 H2         27.6718    6.3968   17.3438 H         1 ETP         0.1669
     30 H3         26.0811    4.1859   13.7399 H         1 ETP         0.0469
     31 H4         25.4764    5.6769   10.7703 H         1 ETP         0.2162
     32 H5         24.7372    8.0600   12.3429 H         1 ETP         0.0481
     33 H6         25.3483    9.0726   14.5154 H         1 ETP         0.0571
     34 H7         26.3252    7.6519   16.3235 H         1 ETP         0.0460
     35 H8         19.5387    7.6889   12.6377 H         1 ETP         0.0730
     36 H9         22.6191    5.0491   14.2358 H         1 ETP         0.0442
     37 H10        22.6158    7.7303   17.1178 H         1 ETP         0.0637
     38 H11        23.7760    9.9181   17.4115 H         1 ETP         0.0618
     39 H12        23.0491   11.9128   16.0865 H         1 ETP         0.0618
     40 H13        21.1599   11.7255   14.4728 H         1 ETP         0.0618
     41 H14        19.9860    9.5422   14.1741 H         1 ETP         0.0637
@<TRIPOS>BOND
     1    1    2 1  
     2    1    3 1  
     3    4    1 1  
     4    5    4 ar 
     5    4   10 ar 
     6    6    5 ar 
     7    7    6 1  
     8    6    8 ar 
     9   11    7 am 
    10    8    9 ar 
    11    9   10 ar 
    12   11   12 2  
    13   11   13 2  
    14   18   11 1  
    15   14   15 1  
    16   14   18 1  
    17   15   16 2  
    18   16   17 1  
    19   16   19 1  
    20   17   18 2  
    21   19   20 2  
    22   19   21 2  
    23   19   22 1  
    24   22   23 ar 
    25   22   27 ar 
    26   23   24 ar 
    27   24   25 ar 
    28   25   26 ar 
    29   26   27 ar 
    30    2   28 1  
    31    3   29 1  
    32    5   30 1  
    33    7   31 1  
    34    8   32 1  
    35    9   33 1  
    36   10   34 1  
    37   15   35 1  
    38   17   36 1  
    39   23   37 1  
    40   24   38 1  
    41   25   39 1  
    42   26   40 1  
    43   27   41 1  
@<TRIPOS>SUBSTRUCTURE
     1 ETP         1

