5aqp_ligand
  -I-interpret- 

 18 19  0  0  0  0  0  0  0  0999 V2000
  203.1730   -8.0970   60.8860 C   0  0  0  0  0
  203.7980   -9.0470   61.6490 C   0  0  0  0  0
  204.4470   -8.7000   62.8230 C   0  0  0  0  0
  204.4770   -7.3990   63.2430 C   0  0  0  0  0
  203.8380   -6.3730   62.4930 C   0  0  0  0  0
  203.1780   -6.7360   61.2840 C   0  0  0  0  0
  202.5340   -5.8260   60.4800 N   0  0  0  0  0
  202.5470   -4.5640   60.9050 C   0  0  0  0  0
  203.1080   -4.0640   62.0080 N   0  0  0  0  0
  203.7630   -4.9640   62.8170 C   0  0  0  0  0
  204.3230   -4.4700   63.9400 N   0  0  0  0  0
  202.6677   -8.3893   59.9655 H   0  0  0  0  0
  203.7848  -10.0888   61.3289 H   0  0  0  0  0
  204.9380   -9.4709   63.4170 H   0  0  0  0  0
  204.9981   -7.1444   64.1659 H   0  0  0  0  0
  202.0317   -3.8448   60.2683 H   0  0  0  0  0
  204.8125   -5.0930   64.5824 H   0  0  0  0  0
  204.2570   -3.4734   64.1470 H   0  0  0  0  0
  1  2  4  0  0  0
  1  6  4  0  0  0
  2  3  4  0  0  0
  3  4  4  0  0  0
  4  5  4  0  0  0
  5  6  4  0  0  0
  5 10  4  0  0  0
  6  7  4  0  0  0
  7  8  4  0  0  0
  8  9  4  0  0  0
  9 10  4  0  0  0
 10 11  1  0  0  0
  1 12  1  0  0  0
  2 13  1  0  0  0
  3 14  1  0  0  0
  4 15  1  0  0  0
  8 16  1  0  0  0
 11 17  1  0  0  0
 11 18  1  0  0  0
M  END
$$$$
