1d2s_ligand
  -I-interpret- 

 51 54  0  0  0  0  0  0  0  0999 V2000
   24.1170   10.0290   30.8710 C   0  0  0  0  0
   25.6170   10.2080   30.7070 C   0  0  0  0  0
   25.9240   11.6880   30.9260 C   0  0  0  0  0
   26.7490   12.2160   30.1970 O   0  0  0  0  0
   25.3280   12.3550   32.0980 C   0  0  0  0  0
   23.8150   12.1130   32.2100 C   0  0  0  0  0
   23.1680   12.8120   33.4110 C   0  0  0  0  0
   21.6550   12.6940   33.3480 C   0  0  0  0  0
   21.2150   11.2150   33.2530 C   0  0  0  0  0
   21.9310   10.4950   32.0790 C   0  0  0  0  0
   23.4820   10.5860   32.1520 C   0  0  0  0  0
   21.3950    9.0530   31.9520 C   0  0  0  0  0
   19.8950    8.8690   31.9120 C   0  0  0  0  0
   19.2090    9.6180   33.0450 C   0  0  0  0  0
   19.7140   11.0760   33.0650 C   0  0  0  0  0
   18.8010   11.7140   34.1110 C   0  0  0  0  0
   17.4270   11.0930   33.8070 C   0  0  0  0  0
   17.7320    9.9090   32.8670 C   0  0  0  0  0
   16.8630    8.8090   33.1480 O   0  0  0  0  0
   19.4690    8.9360   34.4120 C   0  0  0  0  0
   24.0060    9.8790   33.4240 C   0  0  0  0  0
   23.9482    8.9525   30.9002 H   0  0  0  0  0
   23.6608   10.5814   30.0495 H   0  0  0  0  0
   25.9338    9.8941   29.7124 H   0  0  0  0  0
   26.1571    9.5940   31.4277 H   0  0  0  0  0
   25.4890   13.4277   31.9911 H   0  0  0  0  0
   25.7999   11.9471   32.9919 H   0  0  0  0  0
   23.3617   12.5831   31.3373 H   0  0  0  0  0
   23.4407   13.8672   33.3941 H   0  0  0  0  0
   23.5210   12.3385   34.3271 H   0  0  0  0  0
   21.3009   13.2207   32.4618 H   0  0  0  0  0
   21.2336   13.1254   34.2560 H   0  0  0  0  0
   21.4948   10.7513   34.1989 H   0  0  0  0  0
   21.6895   11.0222   31.1560 H   0  0  0  0  0
   21.7311    8.5342   32.8498 H   0  0  0  0  0
   21.7619    8.6862   30.9934 H   0  0  0  0  0
   19.6752    7.8067   32.0184 H   0  0  0  0  0
   19.5247    9.2621   30.9652 H   0  0  0  0  0
   19.6381   11.5985   32.1114 H   0  0  0  0  0
   18.7919   12.8024   34.0523 H   0  0  0  0  0
   19.1324   11.5208   35.1313 H   0  0  0  0  0
   16.7482   11.8120   33.3484 H   0  0  0  0  0
   16.9166   10.7707   34.7146 H   0  0  0  0  0
   17.5401   10.1292   31.8169 H   0  0  0  0  0
   15.9521    9.0791   33.0107 H   0  0  0  0  0
   19.0839    7.9166   34.3871 H   0  0  0  0  0
   20.5409    8.9161   34.6086 H   0  0  0  0  0
   18.9644    9.4973   35.1984 H   0  0  0  0  0
   23.5804   10.3580   34.3058 H   0  0  0  0  0
   23.7126    8.8295   33.4018 H   0  0  0  0  0
   25.0930    9.9531   33.4577 H   0  0  0  0  0
  1  2  1  0  0  0
  1 11  1  0  0  0
  2  3  1  0  0  0
  3  4  2  0  0  0
  3  5  1  0  0  0
  5  6  1  0  0  0
  6  7  1  0  0  0
  6 11  1  0  0  0
  7  8  1  0  0  0
  8  9  1  0  0  0
  9 10  1  0  0  0
  9 15  1  0  0  0
 10 11  1  0  0  0
 10 12  1  0  0  0
 11 21  1  0  0  0
 12 13  1  0  0  0
 13 14  1  0  0  0
 14 15  1  0  0  0
 14 18  1  0  0  0
 14 20  1  0  0  0
 15 16  1  0  0  0
 16 17  1  0  0  0
 17 18  1  0  0  0
 18 19  1  0  0  0
  1 22  1  0  0  0
  1 23  1  0  0  0
  2 24  1  0  0  0
  2 25  1  0  0  0
  5 26  1  0  0  0
  5 27  1  0  0  0
  6 28  1  0  0  0
  7 29  1  0  0  0
  7 30  1  0  0  0
  8 31  1  0  0  0
  8 32  1  0  0  0
  9 33  1  0  0  0
 10 34  1  0  0  0
 12 35  1  0  0  0
 12 36  1  0  0  0
 13 37  1  0  0  0
 13 38  1  0  0  0
 15 39  1  0  0  0
 16 40  1  0  0  0
 16 41  1  0  0  0
 17 42  1  0  0  0
 17 43  1  0  0  0
 18 44  1  0  0  0
 19 45  1  0  0  0
 20 46  1  0  0  0
 20 47  1  0  0  0
 20 48  1  0  0  0
 21 49  1  0  0  0
 21 50  1  0  0  0
 21 51  1  0  0  0
M  END
$$$$
