### 
### Created by X-TOOL on Mon Sep 10 21:13:21 2018
### 

@<TRIPOS>MOLECULE
4pvy_ligand
   42    43     1     0     0
SMALL
GAST_HUCK


@<TRIPOS>ATOM
      1 OAJ        17.6080   33.6030   -9.0260 O.co2     1 JD1        -0.5598
      2 PAI        16.1860   33.7520   -9.6140 P.3       1 JD1         0.1022
      3 OAK        16.1310   35.0290  -10.3440 O.co2     1 JD1        -0.5598
      4 OAL        16.0260   32.4630  -10.3920 O.co2     1 JD1        -0.5598
      5 CAH        14.9660   33.7950   -8.2620 C.3       1 JD1         0.1772
      6 PAM        15.0690   35.3050   -7.1820 P.3       1 JD1         0.1022
      7 OAN        16.4470   35.2730   -6.6170 O.co2     1 JD1        -0.5598
      8 OAP        14.9050   36.5120   -8.0300 O.co2     1 JD1        -0.5598
      9 OAO        14.0850   35.1170   -6.0990 O.co2     1 JD1        -0.5598
     10 NAG        15.1750   32.6290   -7.3730 N.pl3     1 JD1        -0.2864
     11 CAD        14.8870   31.3770   -7.7430 C.ar      1 JD1         0.0662
     12 CAE        15.6050   30.3120   -7.2020 C.ar      1 JD1        -0.0210
     13 CAC        13.9260   31.0860   -8.7070 C.ar      1 JD1         0.0261
     14 NAB        13.7160   29.8030   -9.0900 N.ar      1 JD1        -0.3119
     15 CAA        14.4380   28.7700   -8.5530 C.ar      1 JD1         0.0021
     16 CAF        15.4000   28.9820   -7.5850 C.ar      1 JD1        -0.0098
     17 CAQ        16.1580   27.9050   -7.0430 C.ar      1 JD1        -0.0242
     18 CAV        16.7970   27.9790   -5.7790 C.ar      1 JD1        -0.0602
     19 CAU        17.4980   26.8700   -5.2570 C.ar      1 JD1        -0.0302
     20 CAR        16.3180   26.7040   -7.7360 C.ar      1 JD1        -0.0602
     21 CAS        17.0550   25.6150   -7.2430 C.ar      1 JD1        -0.0302
     22 CAT        17.6580   25.6690   -5.9980 C.ar      1 JD1         0.0942
     23 OAW        18.3080   24.5410   -5.5830 O.3       1 JD1        -0.3136
     24 CAX        19.1310   24.5780   -4.4210 C.3       1 JD1         0.0764
     25 CAZ        19.6080   23.1710   -4.1040 C.3       1 JD1        -0.0344
     26 CAY        20.3150   25.3650   -4.7830 C.3       1 JD1        -0.0344
     27 H1         13.9609   33.7473   -8.7064 H         1 JD1         0.0943
     28 H2         15.5582   32.7894   -6.4305 H         1 JD1         0.1806
     29 H3         16.3566   30.5238   -6.4501 H         1 JD1         0.0616
     30 H4         13.3452   31.8860   -9.1517 H         1 JD1         0.0707
     31 H5         14.2492   27.7595   -8.8970 H         1 JD1         0.0703
     32 H6         16.7466   28.8982   -5.2066 H         1 JD1         0.0608
     33 H7         17.9258   26.9371   -4.2633 H         1 JD1         0.0550
     34 H8         15.8477   26.6066   -8.7078 H         1 JD1         0.0608
     35 H9         17.1531   24.7194   -7.8458 H         1 JD1         0.0550
     36 H10        18.5962   25.0173   -3.5660 H         1 JD1         0.0646
     37 H11        20.2444   23.1930   -3.2071 H         1 JD1         0.0258
     38 H12        20.1859   22.7795   -4.9541 H         1 JD1         0.0258
     39 H13        18.7391   22.5217   -3.9212 H         1 JD1         0.0258
     40 H14        20.9918   25.4281   -3.9181 H         1 JD1         0.0258
     41 H15        20.0052   26.3776   -5.0808 H         1 JD1         0.0258
     42 H16        20.8358   24.8794   -5.6214 H         1 JD1         0.0258
@<TRIPOS>BOND
     1    1    2 ar 
     2    2    3 ar 
     3    2    4 ar 
     4    2    5 1  
     5    5    6 1  
     6    5   10 1  
     7    6    7 ar 
     8    6    8 ar 
     9    6    9 ar 
    10   10   11 1  
    11   11   12 ar 
    12   11   13 ar 
    13   12   16 ar 
    14   13   14 ar 
    15   14   15 ar 
    16   15   16 ar 
    17   16   17 1  
    18   17   18 ar 
    19   17   20 ar 
    20   18   19 ar 
    21   19   22 ar 
    22   20   21 ar 
    23   21   22 ar 
    24   22   23 1  
    25   23   24 1  
    26   24   25 1  
    27   24   26 1  
    28    5   27 1  
    29   10   28 1  
    30   12   29 1  
    31   13   30 1  
    32   15   31 1  
    33   18   32 1  
    34   19   33 1  
    35   20   34 1  
    36   21   35 1  
    37   24   36 1  
    38   25   37 1  
    39   25   38 1  
    40   25   39 1  
    41   26   40 1  
    42   26   41 1  
    43   26   42 1  
@<TRIPOS>SUBSTRUCTURE
     1 JD1         1

