4pvy_ligand
  -I-interpret- 

 46 47  0  0  0  0  0  0  0  0999 V2000
   17.6080   33.6030   -9.0260 O   0  0  0  0  0
   16.1860   33.7520   -9.6140 P   0  0  0  0  0
   16.1310   35.0290  -10.3440 O   0  0  0  0  0
   16.0260   32.4630  -10.3920 O   0  0  0  0  0
   14.9660   33.7950   -8.2620 C   0  0  0  0  0
   15.0690   35.3050   -7.1820 P   0  0  0  0  0
   16.4470   35.2730   -6.6170 O   0  0  0  0  0
   14.9050   36.5120   -8.0300 O   0  0  0  0  0
   14.0850   35.1170   -6.0990 O   0  0  0  0  0
   15.1750   32.6290   -7.3730 N   0  0  0  0  0
   14.8870   31.3770   -7.7430 C   0  0  0  0  0
   15.6050   30.3120   -7.2020 C   0  0  0  0  0
   13.9260   31.0860   -8.7070 C   0  0  0  0  0
   13.7160   29.8030   -9.0900 N   0  0  0  0  0
   14.4380   28.7700   -8.5530 C   0  0  0  0  0
   15.4000   28.9820   -7.5850 C   0  0  0  0  0
   16.1580   27.9050   -7.0430 C   0  0  0  0  0
   16.7970   27.9790   -5.7790 C   0  0  0  0  0
   17.4980   26.8700   -5.2570 C   0  0  0  0  0
   16.3180   26.7040   -7.7360 C   0  0  0  0  0
   17.0550   25.6150   -7.2430 C   0  0  0  0  0
   17.6580   25.6690   -5.9980 C   0  0  0  0  0
   18.3080   24.5410   -5.5830 O   0  0  0  0  0
   19.1310   24.5780   -4.4210 C   0  0  0  0  0
   19.6080   23.1710   -4.1040 C   0  0  0  0  0
   20.3150   25.3650   -4.7830 C   0  0  0  0  0
   17.6686   32.7751   -8.5439 H   0  0  0  0  0
   16.0832   31.7177   -9.7896 H   0  0  0  0  0
   13.9937   33.7936   -8.7546 H   0  0  0  0  0
   17.0845   35.3956   -7.3242 H   0  0  0  0  0
   15.5961   36.5301   -8.6960 H   0  0  0  0  0
   15.5545   32.7878   -6.4396 H   0  0  0  0  0
   16.3608   30.5249   -6.4460 H   0  0  0  0  0
   13.3420   31.8904   -9.1541 H   0  0  0  0  0
   14.2482   27.7539   -8.8989 H   0  0  0  0  0
   16.7463   28.9033   -5.2035 H   0  0  0  0  0
   17.9282   26.9375   -4.2578 H   0  0  0  0  0
   15.8451   26.6060   -8.7132 H   0  0  0  0  0
   17.1537   24.7145   -7.8492 H   0  0  0  0  0
   18.5898   24.9922   -3.5703 H   0  0  0  0  0
   18.7461   22.5287   -3.9231 H   0  0  0  0  0
   20.1804   22.7842   -4.9471 H   0  0  0  0  0
   20.2385   23.1941   -3.2151 H   0  0  0  0  0
   20.8301   24.8828   -5.6138 H   0  0  0  0  0
   20.0067   26.3680   -5.0779 H   0  0  0  0  0
   20.9848   25.4268   -3.9253 H   0  0  0  0  0
  1  2  1  0  0  0
  2  3  2  0  0  0
  2  4  1  0  0  0
  2  5  1  0  0  0
  5  6  1  0  0  0
  5 10  1  0  0  0
  6  7  1  0  0  0
  6  8  1  0  0  0
  6  9  2  0  0  0
 10 11  1  0  0  0
 11 12  4  0  0  0
 11 13  4  0  0  0
 12 16  4  0  0  0
 13 14  4  0  0  0
 14 15  4  0  0  0
 15 16  4  0  0  0
 16 17  1  0  0  0
 17 18  4  0  0  0
 17 20  4  0  0  0
 18 19  4  0  0  0
 19 22  4  0  0  0
 20 21  4  0  0  0
 21 22  4  0  0  0
 22 23  1  0  0  0
 23 24  1  0  0  0
 24 25  1  0  0  0
 24 26  1  0  0  0
  1 27  1  0  0  0
  4 28  1  0  0  0
  5 29  1  0  0  0
  7 30  1  0  0  0
  8 31  1  0  0  0
 10 32  1  0  0  0
 12 33  1  0  0  0
 13 34  1  0  0  0
 15 35  1  0  0  0
 18 36  1  0  0  0
 19 37  1  0  0  0
 20 38  1  0  0  0
 21 39  1  0  0  0
 24 40  1  0  0  0
 25 41  1  0  0  0
 25 42  1  0  0  0
 25 43  1  0  0  0
 26 44  1  0  0  0
 26 45  1  0  0  0
 26 46  1  0  0  0
M  END
$$$$
