6ugp_ligand
  -I-interpret- 

 19 20  0  0  0  0  0  0  0  0999 V2000
   17.4150   -0.6160   14.9410 O   0  0  0  0  0
   15.6180    1.3030   18.0450 O   0  0  0  0  0
   13.4800    1.2860   16.8790 O   0  0  0  0  0
   15.1650    5.1190   15.9180 C   0  0  0  0  0
   16.2310    5.1930   15.0180 C   0  0  0  0  0
   17.0110    4.0830   14.8080 C   0  0  0  0  0
   16.5230    2.8730   15.2850 C   0  0  0  0  0
   15.3990    2.7440   16.0540 C   0  0  0  0  0
   14.6960    3.8780   16.3420 C   0  0  0  0  0
   16.8040    0.2670   15.3230 C   0  0  0  0  0
   17.3360    1.6290   14.9010 N   0  0  0  0  0
   15.5960    0.0640   16.1040 N   0  0  0  0  0
   14.9190    1.3430   16.7380 S   0  0  0  0  0
   18.5370    4.1400   13.8650 Cl  0  0  0  0  0
   14.7002    6.0327   16.2884 H   0  0  0  0  0
   16.4411    6.1221   14.4882 H   0  0  0  0  0
   13.7651    3.8122   16.9053 H   0  0  0  0  0
   18.2077    1.7127   14.3780 H   0  0  0  0  0
   15.2008   -0.8668   16.2377 H   0  0  0  0  0
 10  1  2  0  0  0
 13  2  2  0  0  0
 13  3  2  0  0  0
  5  4  4  0  0  0
  9  4  4  0  0  0
  6  5  4  0  0  0
  7  6  4  0  0  0
  6 14  1  0  0  0
  7  8  4  0  0  0
 11  7  1  0  0  0
  8  9  4  0  0  0
  8 13  1  0  0  0
 10 11  1  0  0  0
 10 12  1  0  0  0
 12 13  1  0  0  0
  4 15  1  0  0  0
  5 16  1  0  0  0
  9 17  1  0  0  0
 11 18  1  0  0  0
 12 19  1  0  0  0
M  END
$$$$
