### 
### Created by X-TOOL on Mon Sep 10 21:13:04 2018
### 

@<TRIPOS>MOLECULE
3lj3_ligand
   52    56     1     0     0
SMALL
GAST_HUCK


@<TRIPOS>ATOM
      1 C1         48.8120   14.5970   30.6800 C.ar      1 WYE        -0.0326
      2 N1         48.4030   12.8030   29.0760 N.ar      1 WYE        -0.3058
      3 O1         42.1990   13.9790   33.9640 O.2       1 WYE        -0.3948
      4 C2         40.5460   11.0180   30.6370 C.ar      1 WYE        -0.0071
      5 N2         46.2290   11.8000   29.3050 N.pl3     1 WYE        -0.2555
      6 O2         42.6960   12.0660   31.0330 O.3       1 WYE        -0.2617
      7 C3         38.8140   11.5640   32.2740 C.ar      1 WYE        -0.0102
      8 N3         47.1710   15.2780   32.3250 N.pl3     1 WYE        -0.3062
      9 O3         38.3810   10.0870   30.4130 O.3       1 WYE        -0.3354
     10 C4         49.1730   13.7700   29.6240 C.ar      1 WYE        -0.0213
     11 N4         47.1890   17.9710   33.2370 N.4       1 WYE         0.4034
     12 O4         39.2670   13.0350   34.1080 O.3       1 WYE        -0.3329
     13 C5         45.1330   11.9670   30.1040 C.2       1 WYE         0.0390
     14 C6         46.7030   13.4580   30.7290 C.ar      1 WYE         0.0321
     15 C7         40.9770   12.5040   32.5060 C.ar      1 WYE         0.0802
     16 C8         45.3890   12.9840   30.9970 C.2       1 WYE        -0.0168
     17 C9         47.5490   14.4490   31.2580 C.ar      1 WYE         0.0532
     18 C10        41.3900   11.8310   31.3550 C.ar      1 WYE         0.1151
     19 C11        39.2400   10.8850   31.1060 C.ar      1 WYE         0.0763
     20 C12        39.6880   12.3900   32.9940 C.ar      1 WYE         0.0910
     21 C13        47.1960   12.7000   29.6640 C.ar      1 WYE         0.1270
     22 C14        42.1280   13.2650   32.9900 C.2       1 WYE         0.1605
     23 C15        43.1820   12.9300   31.9990 C.2       1 WYE         0.1533
     24 C16        44.4540   13.3800   31.9850 C.2       1 WYE        -0.0346
     25 C17        45.9760   16.1220   32.1590 C.3       1 WYE         0.0112
     26 C18        48.1460   15.6930   33.3370 C.3       1 WYE         0.0112
     27 C19        46.3340   17.5960   32.0550 C.3       1 WYE        -0.0926
     28 C20        48.4690   17.1770   33.2260 C.3       1 WYE        -0.0926
     29 C21        46.3230   10.8270   28.2430 C.3       1 WYE         0.0437
     30 C22        47.4490   19.4510   33.2890 C.3       1 WYE        -0.1255
     31 H          49.5050   15.3513   31.0526 H         1 WYE         0.0484
     32 H          40.8833   10.4995   29.7395 H         1 WYE         0.0398
     33 H          37.7874   11.4418   32.6192 H         1 WYE         0.0390
     34 H          38.0701    9.3812   30.9845 H         1 WYE         0.2494
     35 H          50.1664   13.9135   29.1988 H         1 WYE         0.0711
     36 H          39.9906   13.5517   34.4700 H         1 WYE         0.2505
     37 H          44.2095   11.3910   30.0445 H         1 WYE         0.0968
     38 H          44.7740   14.0737   32.7625 H         1 WYE         0.0521
     39 H          45.3372   15.9859   33.0316 H         1 WYE         0.0501
     40 H          45.4735   15.8262   31.2381 H         1 WYE         0.0501
     41 H          49.0650   15.1274   33.1832 H         1 WYE         0.0501
     42 H          47.7211   15.5051   34.3230 H         1 WYE         0.0501
     43 H          46.8807   17.7795   31.1300 H         1 WYE         0.0037
     44 H          45.4253   18.1979   32.0501 H         1 WYE         0.0037
     45 H          49.0907   17.4778   34.0693 H         1 WYE         0.0037
     46 H          49.0047   17.3638   32.2953 H         1 WYE         0.0037
     47 H          46.1981    9.8263   28.6567 H         1 WYE         0.0573
     48 H          45.5417   11.0175   27.5072 H         1 WYE         0.0573
     49 H          47.2999   10.9050   27.7659 H         1 WYE         0.0573
     50 H          47.9651   19.7601   32.3800 H         1 WYE        -0.0019
     51 H          46.5008   19.9826   33.3686 H         1 WYE        -0.0019
     52 H          48.0690   19.6794   34.1559 H         1 WYE        -0.0019
@<TRIPOS>BOND
     1    1   10 ar 
     2   17    1 ar 
     3   10    2 ar 
     4   21    2 ar 
     5   22    3 2  
     6   18    4 ar 
     7    4   19 ar 
     8    5   13 1  
     9   21    5 1  
    10    5   29 1  
    11    6   18 1  
    12   23    6 1  
    13    7   19 ar 
    14   20    7 ar 
    15    8   17 1  
    16   25    8 1  
    17    8   26 1  
    18   19    9 1  
    19   27   11 1  
    20   11   28 1  
    21   11   30 1  
    22   20   12 1  
    23   16   13 2  
    24   14   16 1  
    25   17   14 ar 
    26   14   21 ar 
    27   15   18 ar 
    28   15   20 ar 
    29   22   15 1  
    30   16   24 1  
    31   23   22 1  
    32   24   23 2  
    33   25   27 1  
    34   26   28 1  
    35    1   31 1  
    36    4   32 1  
    37    7   33 1  
    38    9   34 1  
    39   10   35 1  
    40   12   36 1  
    41   13   37 1  
    42   24   38 1  
    43   25   39 1  
    44   25   40 1  
    45   26   41 1  
    46   26   42 1  
    47   27   43 1  
    48   27   44 1  
    49   28   45 1  
    50   28   46 1  
    51   29   47 1  
    52   29   48 1  
    53   29   49 1  
    54   30   50 1  
    55   30   51 1  
    56   30   52 1  
@<TRIPOS>SUBSTRUCTURE
     1 WYE         1

