3lj3_ligand
  -I-interpret- 

 53 57  0  0  0  0  0  0  0  0999 V2000
   48.8120   14.5970   30.6800 C   0  0  0  0  0
   48.4030   12.8030   29.0760 N   0  0  0  0  0
   42.1990   13.9790   33.9640 O   0  0  0  0  0
   40.5460   11.0180   30.6370 C   0  0  0  0  0
   46.2290   11.8000   29.3050 N   0  0  0  0  0
   42.6960   12.0660   31.0330 O   0  0  0  0  0
   38.8140   11.5640   32.2740 C   0  0  0  0  0
   47.1710   15.2780   32.3250 N   0  0  0  0  0
   38.3810   10.0870   30.4130 O   0  0  0  0  0
   49.1730   13.7700   29.6240 C   0  0  0  0  0
   47.1890   17.9710   33.2370 N   0  3  0  0  0
   39.2670   13.0350   34.1080 O   0  0  0  0  0
   45.1330   11.9670   30.1040 C   0  0  0  0  0
   46.7030   13.4580   30.7290 C   0  0  0  0  0
   40.9770   12.5040   32.5060 C   0  0  0  0  0
   45.3890   12.9840   30.9970 C   0  0  0  0  0
   47.5490   14.4490   31.2580 C   0  0  0  0  0
   41.3900   11.8310   31.3550 C   0  0  0  0  0
   39.2400   10.8850   31.1060 C   0  0  0  0  0
   39.6880   12.3900   32.9940 C   0  0  0  0  0
   47.1960   12.7000   29.6640 C   0  0  0  0  0
   42.1280   13.2650   32.9900 C   0  0  0  0  0
   43.1820   12.9300   31.9990 C   0  0  0  0  0
   44.4540   13.3800   31.9850 C   0  0  0  0  0
   45.9760   16.1220   32.1590 C   0  0  0  0  0
   48.1460   15.6930   33.3370 C   0  0  0  0  0
   46.3340   17.5960   32.0550 C   0  0  0  0  0
   48.4690   17.1770   33.2260 C   0  0  0  0  0
   46.3230   10.8270   28.2430 C   0  0  0  0  0
   47.4490   19.4510   33.2890 C   0  0  0  0  0
   49.5050   15.3513   31.0526 H   0  0  0  0  0
   40.8833   10.4995   29.7395 H   0  0  0  0  0
   37.7874   11.4418   32.6192 H   0  0  0  0  0
   37.5243   10.0888   30.8462 H   0  0  0  0  0
   50.1664   13.9135   29.1988 H   0  0  0  0  0
   46.6777   17.7370   34.0880 H   0  0  0  0  0
   39.9906   13.5517   34.4700 H   0  0  0  0  0
   44.2095   11.3910   30.0445 H   0  0  0  0  0
   44.7740   14.0737   32.7625 H   0  0  0  0  0
   45.3372   15.9859   33.0316 H   0  0  0  0  0
   45.4735   15.8262   31.2381 H   0  0  0  0  0
   49.0650   15.1274   33.1832 H   0  0  0  0  0
   47.7211   15.5051   34.3230 H   0  0  0  0  0
   46.8807   17.7795   31.1300 H   0  0  0  0  0
   45.4253   18.1979   32.0501 H   0  0  0  0  0
   49.0907   17.4778   34.0693 H   0  0  0  0  0
   49.0047   17.3638   32.2953 H   0  0  0  0  0
   46.1981    9.8263   28.6567 H   0  0  0  0  0
   45.5417   11.0175   27.5072 H   0  0  0  0  0
   47.2999   10.9050   27.7659 H   0  0  0  0  0
   47.9651   19.7601   32.3800 H   0  0  0  0  0
   46.5008   19.9826   33.3686 H   0  0  0  0  0
   48.0690   19.6794   34.1559 H   0  0  0  0  0
  1 10  4  0  0  0
 17  1  4  0  0  0
 10  2  4  0  0  0
 21  2  4  0  0  0
 22  3  2  0  0  0
 18  4  4  0  0  0
  4 19  4  0  0  0
  5 13  4  0  0  0
 21  5  4  0  0  0
  5 29  1  0  0  0
  6 18  1  0  0  0
 23  6  1  0  0  0
  7 19  4  0  0  0
 20  7  4  0  0  0
  8 17  1  0  0  0
 25  8  1  0  0  0
  8 26  1  0  0  0
 19  9  1  0  0  0
 27 11  1  0  0  0
 11 28  1  0  0  0
 11 30  1  0  0  0
 20 12  1  0  0  0
 16 13  4  0  0  0
 14 16  4  0  0  0
 17 14  4  0  0  0
 14 21  4  0  0  0
 15 18  4  0  0  0
 15 20  4  0  0  0
 22 15  1  0  0  0
 16 24  1  0  0  0
 23 22  1  0  0  0
 24 23  2  0  0  0
 25 27  1  0  0  0
 26 28  1  0  0  0
  1 31  1  0  0  0
  4 32  1  0  0  0
  7 33  1  0  0  0
  9 34  1  0  0  0
 10 35  1  0  0  0
 11 36  1  0  0  0
 12 37  1  0  0  0
 13 38  1  0  0  0
 24 39  1  0  0  0
 25 40  1  0  0  0
 25 41  1  0  0  0
 26 42  1  0  0  0
 26 43  1  0  0  0
 27 44  1  0  0  0
 27 45  1  0  0  0
 28 46  1  0  0  0
 28 47  1  0  0  0
 29 48  1  0  0  0
 29 49  1  0  0  0
 29 50  1  0  0  0
 30 51  1  0  0  0
 30 52  1  0  0  0
 30 53  1  0  0  0
M  END
$$$$
