4cgj_ligand
  -I-interpret- 

 60 63  0  0  0  0  0  0  0  0999 V2000
   -8.6900   40.7920   -0.7050 C   0  0  0  0  0
   -9.8110   41.2640   -1.3490 C   0  0  0  0  0
   -8.0810   41.5610    0.2570 C   0  0  0  0  0
  -10.3430   42.4990   -1.0390 C   0  0  0  0  0
  -11.5200   45.0770   -2.6680 C   0  0  0  0  0
  -12.5680   44.7730   -3.5090 C   0  0  0  0  0
  -13.0090   45.4410   -0.8070 C   0  0  0  0  0
   -8.6180   42.7880    0.5540 C   0  0  0  0  0
   -9.7290   43.2690   -0.0780 C   0  0  0  0  0
  -11.7190   45.4030   -1.3350 C   0  0  0  0  0
  -13.8260   44.8130   -2.9780 C   0  0  0  0  0
  -14.0370   45.1390   -1.6720 C   0  0  0  0  0
  -13.3730   45.7860    0.6020 C   0  0  0  0  0
   -8.6150   47.1630    2.2100 C   0  0  0  0  0
   -8.0910   43.7350    1.5540 C   0  0  0  0  0
  -15.9240   44.6220   -2.5850 C   0  0  0  0  0
  -10.0990   44.6190    0.4380 C   0  0  0  0  0
   -8.7940   45.0040    1.1240 C   0  0  0  0  0
  -10.4630   45.7000   -0.5720 C   0  0  0  0  0
   -8.9030   47.8960    3.4800 C   0  0  0  0  0
  -10.3680   48.2670    3.5020 C   0  0  0  0  0
  -10.6260   49.2800    4.5960 C   0  0  0  0  0
  -10.4100   48.6450    5.9500 C   0  0  0  0  0
  -10.9260   49.5590    7.0330 C   0  0  0  0  0
   -9.0360   45.8570    2.2520 N   0  0  0  0  0
  -12.3340   49.1980    7.3020 N   0  3  0  0  0
  -14.3360   45.1590    1.1330 O   0  0  0  0  0
  -12.7310   46.7120    1.1660 O   0  0  0  0  0
   -8.0620   47.6970    1.2620 O   0  0  0  0  0
  -14.9710   44.5410   -3.6580 O   0  0  0  0  0
  -15.3730   45.1160   -1.3500 O   0  0  0  0  0
   -8.2867   39.8113   -0.9573 H   0  0  0  0  0
  -10.2862   40.6526   -2.1161 H   0  0  0  0  0
   -7.1900   41.2037    0.7733 H   0  0  0  0  0
  -11.2369   42.8594   -1.5481 H   0  0  0  0  0
  -10.5039   45.0608   -3.0623 H   0  0  0  0  0
  -12.4005   44.5116   -4.5539 H   0  0  0  0  0
   -7.0037   43.8096    1.5695 H   0  0  0  0  0
   -8.2824   43.4462    2.5875 H   0  0  0  0  0
  -16.2861   43.6113   -2.3966 H   0  0  0  0  0
  -16.7017   45.3201   -2.8947 H   0  0  0  0  0
  -11.0134   44.5585    1.0282 H   0  0  0  0  0
   -8.1657   45.5609    0.4288 H   0  0  0  0  0
  -10.6254   46.6252   -0.0190 H   0  0  0  0  0
   -9.6479   45.7641   -1.2929 H   0  0  0  0  0
   -8.2915   48.7966    3.5352 H   0  0  0  0  0
   -8.6680   47.2625    4.3353 H   0  0  0  0  0
  -10.9625   47.3733    3.6919 H   0  0  0  0  0
  -10.6442   48.6985    2.5399 H   0  0  0  0  0
  -11.6556   49.6305    4.5245 H   0  0  0  0  0
   -9.9380   50.1173    4.4788 H   0  0  0  0  0
   -9.3442   48.4739    6.1012 H   0  0  0  0  0
  -10.9471   47.6975    5.9928 H   0  0  0  0  0
  -10.8581   50.5987    6.7127 H   0  0  0  0  0
  -10.3286   49.4461    7.9377 H   0  0  0  0  0
   -9.5160   45.4967    3.0768 H   0  0  0  0  0
  -12.7055   49.8044    8.0332 H   0  0  0  0  0
  -12.8825   49.3153    6.4501 H   0  0  0  0  0
  -12.3821   48.2261    7.6077 H   0  0  0  0  0
  -14.6669   44.5015    0.5167 H   0  0  0  0  0
  2  1  4  0  0  0
  3  1  4  0  0  0
  4  2  4  0  0  0
  8  3  4  0  0  0
  9  4  4  0  0  0
  5  6  4  0  0  0
 10  5  4  0  0  0
  6 11  4  0  0  0
 10  7  4  0  0  0
  7 12  4  0  0  0
  7 13  1  0  0  0
  9  8  4  0  0  0
 15  8  1  0  0  0
 17  9  1  0  0  0
 19 10  1  0  0  0
 12 11  4  0  0  0
 11 30  1  0  0  0
 12 31  1  0  0  0
 13 27  1  0  0  0
 13 28  2  0  0  0
 14 20  1  0  0  0
 25 14  1  0  0  0
 14 29  2  0  0  0
 18 15  1  0  0  0
 16 30  1  0  0  0
 31 16  1  0  0  0
 18 17  1  0  0  0
 17 19  1  0  0  0
 18 25  1  0  0  0
 20 21  1  0  0  0
 21 22  1  0  0  0
 22 23  1  0  0  0
 23 24  1  0  0  0
 24 26  1  0  0  0
  1 32  1  0  0  0
  2 33  1  0  0  0
  3 34  1  0  0  0
  4 35  1  0  0  0
  5 36  1  0  0  0
  6 37  1  0  0  0
 15 38  1  0  0  0
 15 39  1  0  0  0
 16 40  1  0  0  0
 16 41  1  0  0  0
 17 42  1  0  0  0
 18 43  1  0  0  0
 19 44  1  0  0  0
 19 45  1  0  0  0
 20 46  1  0  0  0
 20 47  1  0  0  0
 21 48  1  0  0  0
 21 49  1  0  0  0
 22 50  1  0  0  0
 22 51  1  0  0  0
 23 52  1  0  0  0
 23 53  1  0  0  0
 24 54  1  0  0  0
 24 55  1  0  0  0
 25 56  1  0  0  0
 26 57  1  0  0  0
 26 58  1  0  0  0
 26 59  1  0  0  0
 27 60  1  0  0  0
M  END
$$$$
