4xuh_ligand
  -I-interpret- 

 41 43  0  0  0  0  0  0  0  0999 V2000
   17.7320    5.5730   10.2400 F   0  0  0  0  0
   18.5110   17.3670    5.3670 S   0  0  0  0  0
   15.6450   10.2250    9.3510 C   0  0  0  0  0
   12.0650    9.7090    9.3130 O   0  0  0  0  0
   16.5300    9.0030    9.4030 C   0  0  0  0  0
   13.5920    8.1750    9.1320 O   0  0  0  0  0
   16.1400   11.2400    8.6430 C   0  0  0  0  0
   17.7270    9.4070    8.5740 C   0  0  0  0  0
   17.4050   10.9640    8.0760 C   0  0  0  0  0
   14.2890   10.3070   10.0590 C   0  0  0  0  0
   16.5010    7.7480    9.9670 C   0  0  0  0  0
   18.7640    8.5380    8.3890 C   0  0  0  0  0
   18.2550   11.6450    7.3190 C   0  0  0  0  0
   15.3790   12.5590    8.4870 C   0  0  0  0  0
   17.5860    6.8490    9.7670 C   0  0  0  0  0
   18.7310    7.2460    8.9730 C   0  0  0  0  0
   18.1970   13.0510    6.7150 C   0  0  0  0  0
   13.2610    9.3420    9.4630 C   0  0  0  0  0
   17.5800   13.3670    5.5220 C   0  0  0  0  0
   18.9250   13.9390    7.4830 C   0  0  0  0  0
   17.6580   14.6880    5.1010 C   0  0  0  0  0
   18.9900   15.2530    7.0390 C   0  0  0  0  0
   18.3580   15.6210    5.8550 C   0  0  0  0  0
   16.9080   17.9860    4.7800 C   0  0  0  0  0
   11.9707   10.6174    9.6087 H   0  0  0  0  0
   13.9076   11.3213    9.9413 H   0  0  0  0  0
   14.4375   10.0382   11.1048 H   0  0  0  0  0
   15.6450    7.4418   10.5683 H   0  0  0  0  0
   19.6225    8.8392    7.7887 H   0  0  0  0  0
   19.1687   11.1001    7.0817 H   0  0  0  0  0
   14.4188   12.3685    8.0075 H   0  0  0  0  0
   15.2145   13.0005    9.4699 H   0  0  0  0  0
   15.9637   13.2439    7.8729 H   0  0  0  0  0
   19.5618    6.5560    8.8254 H   0  0  0  0  0
   17.0546   12.6130    4.9359 H   0  0  0  0  0
   19.4264   13.6220    8.3975 H   0  0  0  0  0
   17.1685   14.9935    4.1763 H   0  0  0  0  0
   19.5366   15.9970    7.6184 H   0  0  0  0  0
   16.5857   17.3983    3.9204 H   0  0  0  0  0
   16.1715   17.8981    5.5787 H   0  0  0  0  0
   17.0080   19.0319    4.4898 H   0  0  0  0  0
 15  1  1  0  0  0
 23  2  1  0  0  0
  2 24  1  0  0  0
  5  3  1  0  0  0
  7  3  2  0  0  0
  3 10  1  0  0  0
 18  4  1  0  0  0
  8  5  4  0  0  0
  5 11  4  0  0  0
 18  6  2  0  0  0
  9  7  1  0  0  0
  7 14  1  0  0  0
  9  8  1  0  0  0
  8 12  4  0  0  0
 13  9  2  0  0  0
 10 18  1  0  0  0
 11 15  4  0  0  0
 12 16  4  0  0  0
 17 13  1  0  0  0
 16 15  4  0  0  0
 19 17  4  0  0  0
 17 20  4  0  0  0
 21 19  4  0  0  0
 20 22  4  0  0  0
 21 23  4  0  0  0
 22 23  4  0  0  0
  4 25  1  0  0  0
 10 26  1  0  0  0
 10 27  1  0  0  0
 11 28  1  0  0  0
 12 29  1  0  0  0
 13 30  1  0  0  0
 14 31  1  0  0  0
 14 32  1  0  0  0
 14 33  1  0  0  0
 16 34  1  0  0  0
 19 35  1  0  0  0
 20 36  1  0  0  0
 21 37  1  0  0  0
 22 38  1  0  0  0
 24 39  1  0  0  0
 24 40  1  0  0  0
 24 41  1  0  0  0
M  END
$$$$
