### 
### Created by X-TOOL on Mon Sep 10 21:13:19 2018
### 

@<TRIPOS>MOLECULE
3wci_ligand
   68    68     1     0     0
SMALL
GAST_HUCK


@<TRIPOS>ATOM
      1 OAE       -20.8630   43.9190  -53.4910 O.co2     1 BH5        -0.5594
      2 PBD       -20.2270   45.3760  -53.2270 P.3       1 BH5         0.1110
      3 OAF       -18.8050   45.0150  -52.5640 O.co2     1 BH5        -0.5594
      4 OAB       -21.0250   46.2460  -52.3300 O.co2     1 BH5        -0.5594
      5 CBC       -19.8430   46.1370  -54.8980 C.3       1 BH5         0.2171
      6 PBE       -20.1840   44.9780  -56.3270 P.3       1 BH5         0.1110
      7 OAG       -19.5930   45.7710  -57.6000 O.co2     1 BH5        -0.5594
      8 OAH       -19.2210   43.7180  -56.0440 O.co2     1 BH5        -0.5594
      9 OAC       -21.6040   44.5980  -56.5250 O.co2     1 BH5        -0.5594
     10 OAD       -20.3850   47.4410  -55.1140 O.3       1 BH5        -0.3586
     11 CAZ       -18.3230   46.3310  -54.9060 C.3       1 BH5         0.0809
     12 NBB       -17.9090   47.5000  -54.0940 N.2       1 BH5        -0.2649
     13 CAK       -18.4890   48.0680  -53.0370 C.2       1 BH5         0.1886
     14 CAJ       -16.8070   48.1900  -54.3700 C.2       1 BH5         0.1186
     15 CAI       -16.7100   49.1860  -53.4950 C.2       1 BH5         0.1816
     16 NBA       -17.7610   49.1220  -52.6810 N.pl3     1 BH5        -0.1380
     17 CAY       -18.1910   50.2270  -51.7930 C.3       1 BH5         0.0877
     18 CAX       -17.8490   49.9620  -50.3250 C.3       1 BH5        -0.0215
     19 CAW       -16.3780   49.5580  -50.2180 C.3       1 BH5        -0.0503
     20 CAV       -15.9150   49.7110  -48.7680 C.3       1 BH5        -0.0530
     21 CAU       -14.4740   49.2140  -48.6420 C.3       1 BH5        -0.0531
     22 CAT       -14.4710   47.6850  -48.6170 C.3       1 BH5        -0.0531
     23 CAS       -13.0270   47.1800  -48.6200 C.3       1 BH5        -0.0531
     24 CAR       -12.9910   45.7200  -48.1640 C.3       1 BH5        -0.0531
     25 CAQ       -13.4190   45.6600  -46.6960 C.3       1 BH5        -0.0531
     26 CAP       -13.3610   44.2240  -46.1730 C.3       1 BH5        -0.0531
     27 CAO       -13.7570   44.2410  -44.6950 C.3       1 BH5        -0.0531
     28 CAN       -13.7870   42.8220  -44.1250 C.3       1 BH5        -0.0531
     29 CAM       -14.2040   42.9100  -42.6550 C.3       1 BH5        -0.0533
     30 CAL       -14.2660   41.5170  -42.0280 C.3       1 BH5        -0.0559
     31 CAA       -14.6450   41.6550  -40.5520 C.3       1 BH5        -0.0653
     32 H         -20.0413   48.0379  -54.4598 H         1 BH5         0.2133
     33 H         -17.9896   46.4829  -55.9432 H         1 BH5         0.0476
     34 H         -17.8473   45.4276  -54.4965 H         1 BH5         0.0476
     35 H         -19.4013   47.7277  -52.5493 H         1 BH5         0.1987
     36 H         -16.1046   47.9762  -55.1743 H         1 BH5         0.1406
     37 H         -15.9109   49.9246  -53.4518 H         1 BH5         0.2017
     38 H         -19.2801   50.3510  -51.8852 H         1 BH5         0.0657
     39 H         -17.6883   51.1522  -52.1114 H         1 BH5         0.0657
     40 H         -18.4828   49.1495  -49.9401 H         1 BH5         0.0294
     41 H         -18.0240   50.8742  -49.7357 H         1 BH5         0.0294
     42 H         -15.7710   50.2057  -50.8676 H         1 BH5         0.0266
     43 H         -16.2610   48.5104  -50.5323 H         1 BH5         0.0266
     44 H         -16.5669   49.1181  -48.1096 H         1 BH5         0.0265
     45 H         -15.9650   50.7704  -48.4762 H         1 BH5         0.0265
     46 H         -14.0322   49.5982  -47.7108 H         1 BH5         0.0265
     47 H         -13.8857   49.5692  -49.5009 H         1 BH5         0.0265
     48 H         -14.9955   47.3023  -49.5049 H         1 BH5         0.0265
     49 H         -14.9815   47.3317  -47.7089 H         1 BH5         0.0265
     50 H         -12.4239   47.7925  -47.9336 H         1 BH5         0.0265
     51 H         -12.6151   47.2557  -49.6372 H         1 BH5         0.0265
     52 H         -11.9705   45.3232  -48.2696 H         1 BH5         0.0265
     53 H         -13.6820   45.1226  -48.7768 H         1 BH5         0.0265
     54 H         -14.4487   46.0360  -46.6046 H         1 BH5         0.0265
     55 H         -12.7443   46.2896  -46.0973 H         1 BH5         0.0265
     56 H         -12.3403   43.8286  -46.2811 H         1 BH5         0.0265
     57 H         -14.0609   43.5921  -46.7394 H         1 BH5         0.0265
     58 H         -14.7555   44.6914  -44.5942 H         1 BH5         0.0265
     59 H         -13.0259   44.8403  -44.1325 H         1 BH5         0.0265
     60 H         -12.7883   42.3675  -44.2029 H         1 BH5         0.0265
     61 H         -14.5123   42.2113  -44.6825 H         1 BH5         0.0265
     62 H         -15.1960   43.3807  -42.5883 H         1 BH5         0.0265
     63 H         -13.4709   43.5204  -42.1073 H         1 BH5         0.0265
     64 H         -13.2836   41.0296  -42.1130 H         1 BH5         0.0263
     65 H         -15.0223   40.9110  -42.5484 H         1 BH5         0.0263
     66 H         -14.6924   40.6575  -40.0908 H         1 BH5         0.0230
     67 H         -15.6269   42.1440  -40.4697 H         1 BH5         0.0230
     68 H         -13.8882   42.2626  -40.0343 H         1 BH5         0.0230
@<TRIPOS>BOND
     1    1    2 ar 
     2    2    3 ar 
     3    2    4 ar 
     4    2    5 1  
     5    5    6 1  
     6    5   10 1  
     7    5   11 1  
     8    6    7 ar 
     9    6    8 ar 
    10    6    9 ar 
    11   11   12 1  
    12   12   13 2  
    13   12   14 1  
    14   13   16 1  
    15   14   15 2  
    16   15   16 1  
    17   16   17 1  
    18   17   18 1  
    19   18   19 1  
    20   19   20 1  
    21   20   21 1  
    22   21   22 1  
    23   22   23 1  
    24   23   24 1  
    25   24   25 1  
    26   25   26 1  
    27   26   27 1  
    28   27   28 1  
    29   28   29 1  
    30   29   30 1  
    31   30   31 1  
    32   10   32 1  
    33   11   33 1  
    34   11   34 1  
    35   13   35 1  
    36   14   36 1  
    37   15   37 1  
    38   17   38 1  
    39   17   39 1  
    40   18   40 1  
    41   18   41 1  
    42   19   42 1  
    43   19   43 1  
    44   20   44 1  
    45   20   45 1  
    46   21   46 1  
    47   21   47 1  
    48   22   48 1  
    49   22   49 1  
    50   23   50 1  
    51   23   51 1  
    52   24   52 1  
    53   24   53 1  
    54   25   54 1  
    55   25   55 1  
    56   26   56 1  
    57   26   57 1  
    58   27   58 1  
    59   27   59 1  
    60   28   60 1  
    61   28   61 1  
    62   29   62 1  
    63   29   63 1  
    64   30   64 1  
    65   30   65 1  
    66   31   66 1  
    67   31   67 1  
    68   31   68 1  
@<TRIPOS>SUBSTRUCTURE
     1 BH5         1

