3wci_ligand
  -I-interpret- 

 72 72  0  0  0  0  0  0  0  0999 V2000
  -20.8630   43.9190  -53.4910 O   0  0  0  0  0
  -20.2270   45.3760  -53.2270 P   0  0  0  0  0
  -18.8050   45.0150  -52.5640 O   0  0  0  0  0
  -21.0250   46.2460  -52.3300 O   0  0  0  0  0
  -19.8430   46.1370  -54.8980 C   0  0  0  0  0
  -20.1840   44.9780  -56.3270 P   0  0  0  0  0
  -19.5930   45.7710  -57.6000 O   0  0  0  0  0
  -19.2210   43.7180  -56.0440 O   0  0  0  0  0
  -21.6040   44.5980  -56.5250 O   0  0  0  0  0
  -20.3850   47.4410  -55.1140 O   0  0  0  0  0
  -18.3230   46.3310  -54.9060 C   0  0  0  0  0
  -17.9090   47.5000  -54.0940 N   0  3  0  0  0
  -18.4890   48.0680  -53.0370 C   0  0  0  0  0
  -16.8070   48.1900  -54.3700 C   0  0  0  0  0
  -16.7100   49.1860  -53.4950 C   0  0  0  0  0
  -17.7610   49.1220  -52.6810 N   0  0  0  0  0
  -18.1910   50.2270  -51.7930 C   0  0  0  0  0
  -17.8490   49.9620  -50.3250 C   0  0  0  0  0
  -16.3780   49.5580  -50.2180 C   0  0  0  0  0
  -15.9150   49.7110  -48.7680 C   0  0  0  0  0
  -14.4740   49.2140  -48.6420 C   0  0  0  0  0
  -14.4710   47.6850  -48.6170 C   0  0  0  0  0
  -13.0270   47.1800  -48.6200 C   0  0  0  0  0
  -12.9910   45.7200  -48.1640 C   0  0  0  0  0
  -13.4190   45.6600  -46.6960 C   0  0  0  0  0
  -13.3610   44.2240  -46.1730 C   0  0  0  0  0
  -13.7570   44.2410  -44.6950 C   0  0  0  0  0
  -13.7870   42.8220  -44.1250 C   0  0  0  0  0
  -14.2040   42.9100  -42.6550 C   0  0  0  0  0
  -14.2660   41.5170  -42.0280 C   0  0  0  0  0
  -14.6450   41.6550  -40.5520 C   0  0  0  0  0
  -20.2885   43.4219  -54.0779 H   0  0  0  0  0
  -18.3079   44.4523  -53.1622 H   0  0  0  0  0
  -18.6752   45.9994  -57.4354 H   0  0  0  0  0
  -18.3196   44.0260  -55.9249 H   0  0  0  0  0
  -21.3437   47.3908  -55.1205 H   0  0  0  0  0
  -18.0062   46.5010  -55.9350 H   0  0  0  0  0
  -17.8630   45.4394  -54.4798 H   0  0  0  0  0
  -19.4021   47.7274  -52.5489 H   0  0  0  0  0
  -16.1040   47.9760  -55.1751 H   0  0  0  0  0
  -15.9102   49.9253  -53.4518 H   0  0  0  0  0
  -19.2736   50.3239  -51.8750 H   0  0  0  0  0
  -17.6684   51.1319  -52.1031 H   0  0  0  0  0
  -18.4783   49.1589  -49.9414 H   0  0  0  0  0
  -18.0246   50.8643  -49.7393 H   0  0  0  0  0
  -15.7761   50.1987  -50.8624 H   0  0  0  0  0
  -16.2613   48.5203  -50.5304 H   0  0  0  0  0
  -16.5615   49.1248  -48.1149 H   0  0  0  0  0
  -15.9656   50.7604  -48.4778 H   0  0  0  0  0
  -14.0341   49.5962  -47.7209 H   0  0  0  0  0
  -13.8891   49.5675  -49.4912 H   0  0  0  0  0
  -14.9913   47.3054  -49.4964 H   0  0  0  0  0
  -14.9774   47.3345  -47.7177 H   0  0  0  0  0
  -12.4305   47.7864  -47.9384 H   0  0  0  0  0
  -12.6203   47.2539  -49.6286 H   0  0  0  0  0
  -11.9831   45.3201  -48.2747 H   0  0  0  0  0
  -13.6684   45.1225  -48.7741 H   0  0  0  0  0
  -14.4432   46.0237  -46.6129 H   0  0  0  0  0
  -12.7410   46.2770  -46.1063 H   0  0  0  0  0
  -12.3543   43.8223  -46.2879 H   0  0  0  0  0
  -14.0443   43.5901  -46.7381 H   0  0  0  0  0
  -14.7511   44.6783  -44.6023 H   0  0  0  0  0
  -13.0236   44.8270  -44.1411 H   0  0  0  0  0
  -12.8026   42.3618  -44.2098 H   0  0  0  0  0
  -14.4958   42.2083  -44.6809 H   0  0  0  0  0
  -15.1912   43.3682  -42.5951 H   0  0  0  0  0
  -13.4696   43.5076  -42.1150 H   0  0  0  0  0
  -13.2949   41.0298  -42.1153 H   0  0  0  0  0
  -15.0114   40.9127  -42.5451 H   0  0  0  0  0
  -13.8944   42.2573  -40.0402 H   0  0  0  0  0
  -15.6180   42.1397  -40.4718 H   0  0  0  0  0
  -14.6917   40.6660  -40.0962 H   0  0  0  0  0
  1  2  1  0  0  0
  2  3  1  0  0  0
  2  4  2  0  0  0
  2  5  1  0  0  0
  5  6  1  0  0  0
  5 10  1  0  0  0
  5 11  1  0  0  0
  6  7  1  0  0  0
  6  8  1  0  0  0
  6  9  2  0  0  0
 11 12  1  0  0  0
 12 13  4  0  0  0
 12 14  4  0  0  0
 13 16  4  0  0  0
 14 15  4  0  0  0
 15 16  4  0  0  0
 16 17  1  0  0  0
 17 18  1  0  0  0
 18 19  1  0  0  0
 19 20  1  0  0  0
 20 21  1  0  0  0
 21 22  1  0  0  0
 22 23  1  0  0  0
 23 24  1  0  0  0
 24 25  1  0  0  0
 25 26  1  0  0  0
 26 27  1  0  0  0
 27 28  1  0  0  0
 28 29  1  0  0  0
 29 30  1  0  0  0
 30 31  1  0  0  0
  1 32  1  0  0  0
  3 33  1  0  0  0
  7 34  1  0  0  0
  8 35  1  0  0  0
 10 36  1  0  0  0
 11 37  1  0  0  0
 11 38  1  0  0  0
 13 39  1  0  0  0
 14 40  1  0  0  0
 15 41  1  0  0  0
 17 42  1  0  0  0
 17 43  1  0  0  0
 18 44  1  0  0  0
 18 45  1  0  0  0
 19 46  1  0  0  0
 19 47  1  0  0  0
 20 48  1  0  0  0
 20 49  1  0  0  0
 21 50  1  0  0  0
 21 51  1  0  0  0
 22 52  1  0  0  0
 22 53  1  0  0  0
 23 54  1  0  0  0
 23 55  1  0  0  0
 24 56  1  0  0  0
 24 57  1  0  0  0
 25 58  1  0  0  0
 25 59  1  0  0  0
 26 60  1  0  0  0
 26 61  1  0  0  0
 27 62  1  0  0  0
 27 63  1  0  0  0
 28 64  1  0  0  0
 28 65  1  0  0  0
 29 66  1  0  0  0
 29 67  1  0  0  0
 30 68  1  0  0  0
 30 69  1  0  0  0
 31 70  1  0  0  0
 31 71  1  0  0  0
 31 72  1  0  0  0
M  END
$$$$
