2lkk_ligand
  -I-interpret- 

 54 53  0  0  0  0  0  0  0  0999 V2000
    5.9110   10.1180   14.5090 C   0  0  0  0  0
    5.7820   11.1030   15.2700 O   0  0  0  0  0
    6.9650    9.8990   13.8730 O   0  0  0  0  0
    4.6890    9.2500   14.2380 C   0  0  0  0  0
    3.9120    9.5620   12.9390 C   0  0  0  0  0
    4.5500    9.0000   11.6560 C   0  0  0  0  0
    3.7700    9.3350   10.3700 C   0  0  0  0  0
    2.4380    8.5740   10.2260 C   0  0  0  0  0
    1.7220    8.8790    8.8990 C   0  0  0  0  0
    0.3750    8.1400    8.7990 C   0  0  0  0  0
   -0.3550    8.4820    7.5180 C   0  0  0  0  0
   -0.3670    7.7830    6.3770 C   0  0  0  0  0
    0.3460    6.4730    6.0940 C   0  0  0  0  0
   -0.0250    5.8900    4.7180 C   0  0  0  0  0
    0.6390    4.5370    4.4030 C   0  0  0  0  0
    0.3480    4.1240    2.9490 C   0  0  0  0  0
    0.9510    2.7680    2.5490 C   0  0  0  0  0
    0.6600    2.4390    1.0700 C   0  0  0  0  0
    1.3860    1.1840    0.5550 C   0  0  0  0  0
    0.7150   -0.1350    0.9630 C   0  0  0  0  0
    4.9052   11.0913   15.6608 H   0  0  0  0  0
    3.9965    9.4306   15.0601 H   0  0  0  0  0
    5.0551    8.2282   14.1381 H   0  0  0  0  0
    3.8924   10.6468   12.8342 H   0  0  0  0  0
    2.9318    9.0953   13.0362 H   0  0  0  0  0
    4.5656    7.9143   11.7513 H   0  0  0  0  0
    5.5380    9.4507   11.5618 H   0  0  0  0  0
    4.3986    9.0472    9.5273 H   0  0  0  0  0
    3.5319   10.3981   10.4049 H   0  0  0  0  0
    1.7836    8.8869   11.0396 H   0  0  0  0  0
    2.6575    7.5066   10.2508 H   0  0  0  0  0
    2.3591    8.5463    8.0795 H   0  0  0  0  0
    1.5312    9.9510    8.8490 H   0  0  0  0  0
   -0.2472    8.4430    9.6411 H   0  0  0  0  0
    0.5693    7.0675    8.8086 H   0  0  0  0  0
   -0.9377    9.4032    7.5258 H   0  0  0  0  0
   -0.9544    8.2009    5.5594 H   0  0  0  0  0
    0.0475    5.7542    6.8571 H   0  0  0  0  0
    1.4191    6.6639    6.1018 H   0  0  0  0  0
    0.3199    6.5993    3.9657 H   0  0  0  0  0
   -1.1026    5.7258    4.7193 H   0  0  0  0  0
    0.2374    3.7787    5.0752 H   0  0  0  0  0
    1.7167    4.6299    4.5374 H   0  0  0  0  0
    0.7963    4.8792    2.3034 H   0  0  0  0  0
   -0.7340    4.0379    2.8486 H   0  0  0  0  0
    0.5041    1.9926    3.1712 H   0  0  0  0  0
    2.0311    2.8142    2.6880 H   0  0  0  0  0
    1.0105    3.2827    0.4755 H   0  0  0  0  0
   -0.4104    2.2519    0.9844 H   0  0  0  0  0
    2.3856    1.1869    0.9895 H   0  0  0  0  0
    1.3771    1.2286   -0.5340 H   0  0  0  0  0
    0.6830   -0.2037    2.0504 H   0  0  0  0  0
   -0.2997   -0.1630    0.5659 H   0  0  0  0  0
    1.2869   -0.9715    0.5615 H   0  0  0  0  0
  1  2  1  0  0  0
  1  3  2  0  0  0
  1  4  1  0  0  0
  4  5  1  0  0  0
  5  6  1  0  0  0
  6  7  1  0  0  0
  7  8  1  0  0  0
  8  9  1  0  0  0
  9 10  1  0  0  0
 10 11  1  0  0  0
 11 12  2  0  0  0
 12 13  1  0  0  0
 13 14  1  0  0  0
 14 15  1  0  0  0
 15 16  1  0  0  0
 16 17  1  0  0  0
 17 18  1  0  0  0
 18 19  1  0  0  0
 19 20  1  0  0  0
  2 21  1  0  0  0
  4 22  1  0  0  0
  4 23  1  0  0  0
  5 24  1  0  0  0
  5 25  1  0  0  0
  6 26  1  0  0  0
  6 27  1  0  0  0
  7 28  1  0  0  0
  7 29  1  0  0  0
  8 30  1  0  0  0
  8 31  1  0  0  0
  9 32  1  0  0  0
  9 33  1  0  0  0
 10 34  1  0  0  0
 10 35  1  0  0  0
 11 36  1  0  0  0
 12 37  1  0  0  0
 13 38  1  0  0  0
 13 39  1  0  0  0
 14 40  1  0  0  0
 14 41  1  0  0  0
 15 42  1  0  0  0
 15 43  1  0  0  0
 16 44  1  0  0  0
 16 45  1  0  0  0
 17 46  1  0  0  0
 17 47  1  0  0  0
 18 48  1  0  0  0
 18 49  1  0  0  0
 19 50  1  0  0  0
 19 51  1  0  0  0
 20 52  1  0  0  0
 20 53  1  0  0  0
 20 54  1  0  0  0
M  END
$$$$
