### 
### Created by X-TOOL on Mon Sep 10 21:12:53 2018
### 

@<TRIPOS>MOLECULE
1yon_ligand
   60    63     1     0     0
SMALL
GAST_HUCK


@<TRIPOS>ATOM
      1 PM         20.0290    0.1890    8.2920 P.3       1 A2R         0.2972
      2 O6M        21.1230    1.1800    8.1700 O.co2     1 A2R        -0.6127
      3 O7M        19.8040   -0.9490    7.3830 O.co2     1 A2R        -0.6127
      4 O3N        18.6890    0.9120    8.5990 O.3       1 A2R        -0.1319
      5 O5M        20.2770   -0.5870    9.6280 O.3       1 A2R        -0.2476
      6 C5M        19.8200   -1.9210    9.5530 C.3       1 A2R         0.1128
      7 C4M        20.9020   -2.9240    9.8720 C.3       1 A2R         0.1184
      8 O4M        22.2330   -2.4630   10.3750 O.3       1 A2R        -0.3403
      9 C3M        20.1300   -3.3540   11.0870 C.3       1 A2R         0.1144
     10 O3M        20.5730   -4.6710   11.4580 O.3       1 A2R        -0.3864
     11 C2M        20.5530   -2.2270   12.0620 C.3       1 A2R         0.1339
     12 O2M        20.4080   -2.6290   13.4280 O.3       1 A2R        -0.3841
     13 C1M        22.0260   -1.9100   11.7060 C.3       1 A2R         0.1854
     14 O1N        22.3280   -0.4490   11.6890 O.3       1 A2R        -0.3649
     15 PA         17.1960    0.4650    8.2290 P.3       1 A2R         0.2972
     16 O6B        16.9920    0.4180    6.7790 O.co2     1 A2R        -0.6127
     17 O7B        16.8740   -0.7520    9.0820 O.co2     1 A2R        -0.6127
     18 O5B        16.4200    1.6470    8.8870 O.3       1 A2R        -0.2476
     19 C5B        16.6410    2.9860    8.4630 C.3       1 A2R         0.1128
     20 C4B        15.6100    3.9410    9.1550 C.3       1 A2R         0.1192
     21 O4B        14.3420    3.5330    8.6300 O.3       1 A2R        -0.3361
     22 C3B        15.5120    3.7830   10.6790 C.3       1 A2R         0.1196
     23 O3B        14.9750    5.0030   11.2980 O.3       1 A2R        -0.3860
     24 C2B        14.5280    2.6630   10.8190 C.3       1 A2R         0.1722
     25 O2B        13.9070    2.6790   12.1180 O.3       1 A2R        -0.2647
     26 C1B        13.5410    3.1890    9.7540 C.3       1 A2R         0.2057
     27 N9A        12.5280    2.2000    9.4810 N.pl3     1 A2R        -0.1916
     28 C4A        11.2470    2.5090    9.3650 C.ar      1 A2R         0.1613
     29 N3A        10.5870    3.7060    9.4070 N.ar      1 A2R        -0.2714
     30 C2A         9.2640    3.8080    9.2570 C.ar      1 A2R         0.0533
     31 N1A         8.5870    2.5910    9.0370 N.ar      1 A2R        -0.2698
     32 C6A         9.2570    1.3240    8.9740 C.ar      1 A2R         0.1298
     33 C5A        10.6120    1.2950    9.1430 C.ar      1 A2R         0.1045
     34 N7A        11.5070    0.3080    9.1030 N.2       1 A2R        -0.2958
     35 C8A        12.6890    0.8780    9.3320 C.2       1 A2R         0.1123
     36 N6A         8.6260    0.1640    8.7590 N.pl3     1 A2R        -0.3152
     37 P2         14.6140    1.7960   13.3650 P.3       1 A2R         0.2015
     38 OP1        13.5230    1.8510   14.5170 O.co2     1 A2R        -0.5537
     39 OP2        14.6920    0.3550   12.8570 O.co2     1 A2R        -0.5537
     40 OP3        15.9620    2.4270   13.6560 O.co2     1 A2R        -0.5537
     41 H1         19.4531   -2.1109    8.5336 H         1 A2R         0.0648
     42 H2         18.9959   -2.0519   10.2697 H         1 A2R         0.0648
     43 H3         21.0359   -3.6792    9.0835 H         1 A2R         0.0651
     44 H4         19.0421   -3.3591   10.9242 H         1 A2R         0.0648
     45 H5         20.0947   -4.9601   12.2262 H         1 A2R         0.2100
     46 H6         19.9306   -1.3359   11.8931 H         1 A2R         0.0671
     47 H7         19.4992   -2.8474   13.5979 H         1 A2R         0.2101
     48 H8         22.6926   -2.4002   12.4308 H         1 A2R         0.0935
     49 H9         21.7513   -0.0147   11.0715 H         1 A2R         0.2126
     50 H10        16.5198    3.0478    7.3715 H         1 A2R         0.0648
     51 H11        17.6617    3.2915    8.7365 H         1 A2R         0.0648
     52 H12        15.8386    4.9875    8.9048 H         1 A2R         0.0651
     53 H13        16.4856    3.5301   11.1241 H         1 A2R         0.0651
     54 H14        14.9232    4.8829   12.2390 H         1 A2R         0.2100
     55 H15        14.9467    1.6713   10.5928 H         1 A2R         0.0732
     56 H16        13.0403    4.0950   10.1260 H         1 A2R         0.1000
     57 H17         8.7469    4.7597    9.3013 H         1 A2R         0.0996
     58 H18        13.6401    0.3507    9.3893 H         1 A2R         0.1349
     59 H19         9.1618   -0.7150    8.7243 H         1 A2R         0.1820
     60 H20         7.6044    0.1500    8.6282 H         1 A2R         0.1820
@<TRIPOS>BOND
     1    1    2 ar 
     2    1    3 ar 
     3    1    4 1  
     4    1    5 1  
     5    4   15 1  
     6    5    6 1  
     7    6    7 1  
     8    7    8 1  
     9    7    9 1  
    10    8   13 1  
    11    9   10 1  
    12    9   11 1  
    13   11   12 1  
    14   11   13 1  
    15   13   14 1  
    16   15   16 ar 
    17   15   17 ar 
    18   15   18 1  
    19   18   19 1  
    20   19   20 1  
    21   20   21 1  
    22   20   22 1  
    23   21   26 1  
    24   22   23 1  
    25   22   24 1  
    26   24   25 1  
    27   24   26 1  
    28   25   37 1  
    29   26   27 1  
    30   27   28 1  
    31   27   35 1  
    32   28   29 ar 
    33   28   33 ar 
    34   29   30 ar 
    35   30   31 ar 
    36   31   32 ar 
    37   32   33 ar 
    38   32   36 1  
    39   33   34 1  
    40   34   35 2  
    41   37   38 ar 
    42   37   39 ar 
    43   37   40 ar 
    44    6   41 1  
    45    6   42 1  
    46    7   43 1  
    47    9   44 1  
    48   10   45 1  
    49   11   46 1  
    50   12   47 1  
    51   13   48 1  
    52   14   49 1  
    53   19   50 1  
    54   19   51 1  
    55   20   52 1  
    56   22   53 1  
    57   23   54 1  
    58   24   55 1  
    59   26   56 1  
    60   30   57 1  
    61   35   58 1  
    62   36   59 1  
    63   36   60 1  
@<TRIPOS>SUBSTRUCTURE
     1 A2R         1

