1yon_ligand
  -I-interpret- 

 64 67  0  0  0  0  0  0  0  0999 V2000
   20.0290    0.1890    8.2920 P   0  0  0  0  0
   21.1230    1.1800    8.1700 O   0  0  0  0  0
   19.8040   -0.9490    7.3830 O   0  0  0  0  0
   18.6890    0.9120    8.5990 O   0  0  0  0  0
   20.2770   -0.5870    9.6280 O   0  0  0  0  0
   19.8200   -1.9210    9.5530 C   0  0  0  0  0
   20.9020   -2.9240    9.8720 C   0  0  0  0  0
   22.2330   -2.4630   10.3750 O   0  0  0  0  0
   20.1300   -3.3540   11.0870 C   0  0  0  0  0
   20.5730   -4.6710   11.4580 O   0  0  0  0  0
   20.5530   -2.2270   12.0620 C   0  0  0  0  0
   20.4080   -2.6290   13.4280 O   0  0  0  0  0
   22.0260   -1.9100   11.7060 C   0  0  0  0  0
   22.3280   -0.4490   11.6890 O   0  0  0  0  0
   17.1960    0.4650    8.2290 P   0  0  0  0  0
   16.9920    0.4180    6.7790 O   0  0  0  0  0
   16.8740   -0.7520    9.0820 O   0  0  0  0  0
   16.4200    1.6470    8.8870 O   0  0  0  0  0
   16.6410    2.9860    8.4630 C   0  0  0  0  0
   15.6100    3.9410    9.1550 C   0  0  0  0  0
   14.3420    3.5330    8.6300 O   0  0  0  0  0
   15.5120    3.7830   10.6790 C   0  0  0  0  0
   14.9750    5.0030   11.2980 O   0  0  0  0  0
   14.5280    2.6630   10.8190 C   0  0  0  0  0
   13.9070    2.6790   12.1180 O   0  0  0  0  0
   13.5410    3.1890    9.7540 C   0  0  0  0  0
   12.5280    2.2000    9.4810 N   0  0  0  0  0
   11.2470    2.5090    9.3650 C   0  0  0  0  0
   10.5870    3.7060    9.4070 N   0  0  0  0  0
    9.2640    3.8080    9.2570 C   0  0  0  0  0
    8.5870    2.5910    9.0370 N   0  0  0  0  0
    9.2570    1.3240    8.9740 C   0  0  0  0  0
   10.6120    1.2950    9.1430 C   0  0  0  0  0
   11.5070    0.3080    9.1030 N   0  0  0  0  0
   12.6890    0.8780    9.3320 C   0  0  0  0  0
    8.6260    0.1640    8.7590 N   0  0  0  0  0
   14.6140    1.7960   13.3650 P   0  0  0  0  0
   13.5230    1.8510   14.5170 O   0  0  0  0  0
   14.6920    0.3550   12.8570 O   0  0  0  0  0
   15.9620    2.4270   13.6560 O   0  0  0  0  0
   21.0536    1.8208    8.8814 H   0  0  0  0  0
   19.4838   -2.1035    8.5323 H   0  0  0  0  0
   19.0222   -2.0439   10.2854 H   0  0  0  0  0
   21.2095   -3.5434    9.0295 H   0  0  0  0  0
   19.0471   -3.4509   11.0092 H   0  0  0  0  0
   20.0897   -4.9631   12.2343 H   0  0  0  0  0
   19.9202   -1.3457   11.9578 H   0  0  0  0  0
   20.6781   -1.9090   14.0027 H   0  0  0  0  0
   22.6849   -2.3385   12.4612 H   0  0  0  0  0
   22.1914   -0.0849   12.5667 H   0  0  0  0  0
   17.0628   -0.5552   10.0025 H   0  0  0  0  0
   16.5172    3.0459    7.3817 H   0  0  0  0  0
   17.6516    3.2881    8.7377 H   0  0  0  0  0
   15.9108    4.9712    8.9648 H   0  0  0  0  0
   16.4732    3.5974   11.1582 H   0  0  0  0  0
   14.9227    4.8817   12.2489 H   0  0  0  0  0
   14.9095    1.6479   10.7091 H   0  0  0  0  0
   12.9821    4.0668   10.0783 H   0  0  0  0  0
    8.7440    4.7649    9.3015 H   0  0  0  0  0
   13.6409    0.3502    9.3894 H   0  0  0  0  0
    7.6144    0.1501    8.6295 H   0  0  0  0  0
    9.1566   -0.7065    8.7246 H   0  0  0  0  0
   12.7188    1.4223   14.2153 H   0  0  0  0  0
   13.8049    0.0252   12.6959 H   0  0  0  0  0
  1  2  1  0  0  0
  1  3  2  0  0  0
  1  4  1  0  0  0
  1  5  1  0  0  0
  4 15  1  0  0  0
  5  6  1  0  0  0
  6  7  1  0  0  0
  7  8  1  0  0  0
  7  9  1  0  0  0
  8 13  1  0  0  0
  9 10  1  0  0  0
  9 11  1  0  0  0
 11 12  1  0  0  0
 11 13  1  0  0  0
 13 14  1  0  0  0
 15 16  2  0  0  0
 15 17  1  0  0  0
 15 18  1  0  0  0
 18 19  1  0  0  0
 19 20  1  0  0  0
 20 21  1  0  0  0
 20 22  1  0  0  0
 21 26  1  0  0  0
 22 23  1  0  0  0
 22 24  1  0  0  0
 24 25  1  0  0  0
 24 26  1  0  0  0
 25 37  1  0  0  0
 26 27  1  0  0  0
 27 28  4  0  0  0
 27 35  4  0  0  0
 28 29  4  0  0  0
 28 33  4  0  0  0
 29 30  4  0  0  0
 30 31  4  0  0  0
 31 32  4  0  0  0
 32 33  4  0  0  0
 32 36  1  0  0  0
 33 34  4  0  0  0
 34 35  4  0  0  0
 37 38  1  0  0  0
 37 39  1  0  0  0
 37 40  2  0  0  0
  2 41  1  0  0  0
  6 42  1  0  0  0
  6 43  1  0  0  0
  7 44  1  0  0  0
  9 45  1  0  0  0
 10 46  1  0  0  0
 11 47  1  0  0  0
 12 48  1  0  0  0
 13 49  1  0  0  0
 14 50  1  0  0  0
 17 51  1  0  0  0
 19 52  1  0  0  0
 19 53  1  0  0  0
 20 54  1  0  0  0
 22 55  1  0  0  0
 23 56  1  0  0  0
 24 57  1  0  0  0
 26 58  1  0  0  0
 30 59  1  0  0  0
 35 60  1  0  0  0
 36 61  1  0  0  0
 36 62  1  0  0  0
 38 63  1  0  0  0
 39 64  1  0  0  0
M  END
$$$$
