1noj_ligand
  -I-interpret- 

 24 25  0  0  0  0  0  0  0  0999 V2000
   34.2960   22.7680   27.5250 C   0  0  0  0  0
   34.2310   23.1820   26.0800 C   0  0  0  0  0
   32.9220   22.6430   25.4330 C   0  0  0  0  0
   32.6480   21.2010   25.8260 C   0  0  0  0  0
   32.4420   21.0550   27.3600 C   0  0  0  0  0
   32.4450   19.6130   27.8200 C   0  0  0  0  0
   33.4670   21.7860   28.0390 N   0  0  0  0  0
   33.8730   21.6990   29.3640 N   0  0  0  0  0
   34.9080   22.6060   29.6140 N   0  0  0  0  0
   35.1840   23.2940   28.4460 N   0  0  0  0  0
   34.3180   24.6000   25.9090 O   0  0  0  0  0
   33.1190   22.6840   24.0130 O   0  0  0  0  0
   31.4850   20.7110   25.1540 O   0  0  0  0  0
   33.4420   18.8580   27.1300 O   0  0  0  0  0
   35.0970   22.7478   25.5803 H   0  0  0  0  0
   32.0796   23.2490   25.7664 H   0  0  0  0  0
   33.5203   20.6172   25.5320 H   0  0  0  0  0
   31.4579   21.4571   27.6007 H   0  0  0  0  0
   31.4684   19.1769   27.6102 H   0  0  0  0  0
   32.6630   19.5869   28.8877 H   0  0  0  0  0
   35.1284   24.9206   26.3116 H   0  0  0  0  0
   33.2942   23.5879   23.7413 H   0  0  0  0  0
   31.6045   20.7978   24.2054 H   0  0  0  0  0
   33.4240   17.9491   27.4385 H   0  0  0  0  0
  1  2  1  0  0  0
  7  1  4  0  0  0
  1 10  4  0  0  0
  3  2  1  0  0  0
  2 11  1  0  0  0
  4  3  1  0  0  0
  3 12  1  0  0  0
  5  4  1  0  0  0
  4 13  1  0  0  0
  6  5  1  0  0  0
  5  7  1  0  0  0
  6 14  1  0  0  0
  7  8  4  0  0  0
  8  9  4  0  0  0
  9 10  4  0  0  0
  2 15  1  0  0  0
  3 16  1  0  0  0
  4 17  1  0  0  0
  5 18  1  0  0  0
  6 19  1  0  0  0
  6 20  1  0  0  0
 11 21  1  0  0  0
 12 22  1  0  0  0
 13 23  1  0  0  0
 14 24  1  0  0  0
M  END
$$$$
