3mlb_ligand
  -I-interpret- 

 66 68  0  0  0  0  0  0  0  0999 V2000
   11.7270  -28.7330  -12.2270 O   0  0  0  0  0
   20.9760  -39.4560  -16.1250 O   0  0  0  0  0
   10.0640  -33.0340  -11.0130 O   0  0  0  0  0
   16.3510  -40.3750  -17.0120 O   0  0  0  0  0
    8.0930  -34.6060  -13.1910 Cl  0  0  0  0  0
   14.7670  -42.1090  -15.0220 Cl  0  0  0  0  0
   15.3930  -30.9800  -13.9760 C   0  0  0  0  0
   19.1470  -35.4090  -14.4940 C   0  0  0  0  0
    5.3510  -34.9910  -10.2510 C   0  0  0  0  0
   14.1480  -45.0660  -17.6660 C   0  0  0  0  0
    5.4030  -33.6970   -9.5940 C   0  0  0  0  0
   15.3830  -45.1910  -18.2900 C   0  0  0  0  0
    6.1910  -35.2520  -11.3750 C   0  0  0  0  0
   13.9640  -44.1030  -16.6440 C   0  0  0  0  0
    6.2970  -32.6610  -10.0660 C   0  0  0  0  0
   16.4680  -44.3610  -17.9040 C   0  0  0  0  0
   17.6990  -31.8700  -14.2120 C   0  0  0  0  0
   18.5930  -32.9540  -14.3370 C   0  0  0  0  0
   15.8760  -33.4830  -14.1370 C   0  0  0  0  0
   16.7750  -34.5790  -14.2710 C   0  0  0  0  0
   11.5370  -31.0930  -12.2860 C   0  0  0  0  0
   18.6160  -39.1500  -15.9700 C   0  0  0  0  0
   10.1440  -30.7760  -11.7620 C   0  0  0  0  0
   18.6810  -40.5490  -16.5800 C   0  0  0  0  0
   14.3640  -31.0190  -13.1770 N   0  0  0  0  0
   18.9300  -36.5640  -15.0800 N   0  0  0  0  0
   13.3780  -30.1280  -13.4340 N   0  0  0  0  0
   20.0550  -37.3360  -15.2370 N   0  0  0  0  0
    8.0020  -31.8220  -11.6040 N   0  0  0  0  0
   17.4370  -42.5790  -16.5190 N   0  0  0  0  0
   12.3600  -29.8490  -12.5990 C   0  0  0  0  0
   20.0400  -38.5630  -15.8160 C   0  0  0  0  0
    9.3210  -32.0490  -11.5240 C   0  0  0  0  0
   17.3120  -41.2280  -16.6510 C   0  0  0  0  0
   16.3500  -32.1340  -14.1030 C   0  0  0  0  0
   18.1280  -34.3030  -14.3720 C   0  0  0  0  0
    7.0770  -34.2380  -11.8390 C   0  0  0  0  0
   15.0330  -43.2800  -16.2620 C   0  0  0  0  0
    7.1190  -32.8990  -11.1590 C   0  0  0  0  0
   16.3030  -43.4150  -16.8960 C   0  0  0  0  0
   15.5657  -30.0831  -14.5709 H   0  0  0  0  0
   20.1341  -35.2370  -14.0649 H   0  0  0  0  0
    4.6717  -35.7615   -9.8864 H   0  0  0  0  0
   13.3200  -45.7096  -17.9633 H   0  0  0  0  0
    4.7609  -33.5034   -8.7348 H   0  0  0  0  0
   15.5194  -45.9299  -19.0797 H   0  0  0  0  0
    6.1547  -36.2201  -11.8745 H   0  0  0  0  0
   12.9946  -44.0019  -16.1560 H   0  0  0  0  0
    6.3247  -31.6942   -9.5633 H   0  0  0  0  0
   17.4338  -44.4647  -18.3986 H   0  0  0  0  0
   18.0672  -30.8441  -14.2018 H   0  0  0  0  0
   19.6627  -32.7570  -14.4084 H   0  0  0  0  0
   14.8060  -33.6758  -14.0588 H   0  0  0  0  0
   16.4087  -35.6054  -14.2934 H   0  0  0  0  0
   11.4207  -31.6534  -13.2136 H   0  0  0  0  0
   12.0625  -31.6493  -11.5099 H   0  0  0  0  0
   18.1490  -39.2122  -14.9871 H   0  0  0  0  0
   18.0339  -38.5029  -16.6261 H   0  0  0  0  0
    9.6282  -30.1688  -12.5059 H   0  0  0  0  0
   10.2466  -30.2518  -10.8118 H   0  0  0  0  0
   19.3245  -41.1599  -15.9470 H   0  0  0  0  0
   19.0593  -40.4525  -17.5977 H   0  0  0  0  0
   13.4087  -29.6322  -14.3249 H   0  0  0  0  0
   20.9457  -36.9689  -14.9018 H   0  0  0  0  0
    7.6322  -30.9399  -11.9584 H   0  0  0  0  0
   18.2996  -42.9937  -16.1664 H   0  0  0  0  0
 31  1  2  0  0  0
 32  2  2  0  0  0
 33  3  2  0  0  0
 34  4  2  0  0  0
 37  5  1  0  0  0
 38  6  1  0  0  0
  7 25  2  0  0  0
 35  7  1  0  0  0
 26  8  2  0  0  0
  8 36  1  0  0  0
 11  9  4  0  0  0
  9 13  4  0  0  0
 12 10  4  0  0  0
 10 14  4  0  0  0
 15 11  4  0  0  0
 16 12  4  0  0  0
 13 37  4  0  0  0
 14 38  4  0  0  0
 39 15  4  0  0  0
 40 16  4  0  0  0
 18 17  4  0  0  0
 17 35  4  0  0  0
 36 18  4  0  0  0
 20 19  4  0  0  0
 19 35  4  0  0  0
 36 20  4  0  0  0
 21 23  1  0  0  0
 31 21  1  0  0  0
 24 22  1  0  0  0
 22 32  1  0  0  0
 23 33  1  0  0  0
 34 24  1  0  0  0
 25 27  1  0  0  0
 28 26  1  0  0  0
 27 31  1  0  0  0
 32 28  1  0  0  0
 33 29  1  0  0  0
 29 39  1  0  0  0
 30 34  1  0  0  0
 30 40  1  0  0  0
 37 39  4  0  0  0
 38 40  4  0  0  0
  7 41  1  0  0  0
  8 42  1  0  0  0
  9 43  1  0  0  0
 10 44  1  0  0  0
 11 45  1  0  0  0
 12 46  1  0  0  0
 13 47  1  0  0  0
 14 48  1  0  0  0
 15 49  1  0  0  0
 16 50  1  0  0  0
 17 51  1  0  0  0
 18 52  1  0  0  0
 19 53  1  0  0  0
 20 54  1  0  0  0
 21 55  1  0  0  0
 21 56  1  0  0  0
 22 57  1  0  0  0
 22 58  1  0  0  0
 23 59  1  0  0  0
 23 60  1  0  0  0
 24 61  1  0  0  0
 24 62  1  0  0  0
 27 63  1  0  0  0
 28 64  1  0  0  0
 29 65  1  0  0  0
 30 66  1  0  0  0
M  END
$$$$
