1jq8_ligand
  -I-interpret- 

 84 84  0  0  0  0  0  0  0  0999 V2000
    9.9060   15.7700   37.3930 N   0  3  0  0  0
    9.0230   16.9600   37.4950 C   0  0  0  0  0
    9.8540   18.1800   37.8930 C   0  0  0  0  0
   11.0100   18.0540   38.3070 O   0  0  0  0  0
    7.9390   16.7100   38.5480 C   0  0  0  0  0
    6.5120   17.2500   38.3840 C   0  0  0  0  0
    6.4390   18.2960   37.2830 C   0  0  0  0  0
    5.5880   16.0870   38.0710 C   0  0  0  0  0
    9.2600   19.3600   37.7560 N   0  0  0  0  0
    9.9280   20.6050   38.1120 C   0  0  0  0  0
   10.4790   20.4350   39.5250 C   0  0  0  0  0
    9.8690   19.7440   40.3240 O   0  0  0  0  0
    8.9300   21.7390   38.0720 C   0  0  0  0  0
   11.6160   21.0590   39.8340 N   0  0  0  0  0
   12.2350   20.9540   41.1670 C   0  0  0  0  0
   12.7110   22.3290   41.6560 C   0  0  0  0  0
   12.6620   23.3020   40.9070 O   0  0  0  0  0
   13.4940   20.0800   41.1310 C   0  0  0  0  0
   13.9330   19.7280   42.5570 C   0  0  0  0  0
   14.6040   20.8460   40.4160 C   0  0  0  0  0
   15.4090   19.4820   42.7380 C   0  0  0  0  0
   13.1440   22.4150   42.9030 N   0  0  0  0  0
   13.7030   23.6520   43.3930 C   0  0  0  0  0
   15.1970   23.5630   43.0690 C   0  0  0  0  0
   15.9720   22.9800   43.8170 O   0  0  0  0  0
   13.3650   23.8970   44.8820 C   0  0  0  0  0
   14.4860   23.7370   45.9200 C   0  0  0  0  0
   15.6310   24.5330   45.9230 C   0  0  0  0  0
   14.3710   22.7480   46.8990 C   0  0  0  0  0
   16.6390   24.3360   46.8690 C   0  0  0  0  0
   15.3650   22.5490   47.8410 C   0  0  0  0  0
   16.4930   23.3370   47.8180 C   0  0  0  0  0
   17.4860   23.1350   48.7540 O   0  0  0  0  0
   15.5340   24.1240   41.9310 N   0  0  0  0  0
   16.8960   24.1240   41.3970 C   0  0  0  0  0
   17.9590   24.4720   42.4230 C   0  0  0  0  0
   17.6670   24.6320   43.6050 O   0  0  0  0  0
   16.5780   24.7590   40.0370 C   0  0  0  0  0
   17.9160   25.1700   39.8350 O   0  0  0  0  0
   19.2190   24.0740   42.0110 O   0  0  0  0  0
   10.6258   15.9414   36.6909 H   0  0  0  0  0
   10.3456   15.5958   38.2968 H   0  0  0  0  0
    9.3509   14.9585   37.1215 H   0  0  0  0  0
    8.5505   17.1427   36.5299 H   0  0  0  0  0
    8.3117   17.2306   39.4301 H   0  0  0  0  0
    7.8085   15.6280   38.5316 H   0  0  0  0  0
    6.2045   17.7341   39.3109 H   0  0  0  0  0
    6.7404   17.8471   36.3366 H   0  0  0  0  0
    5.4168   18.6657   37.2021 H   0  0  0  0  0
    7.1077   19.1224   37.5238 H   0  0  0  0  0
    4.5631   16.4498   37.9925 H   0  0  0  0  0
    5.8867   15.6312   37.1270 H   0  0  0  0  0
    5.6530   15.3479   38.8695 H   0  0  0  0  0
    8.3083   19.3957   37.3909 H   0  0  0  0  0
   10.7342   20.8342   37.4151 H   0  0  0  0  0
    8.1066   21.5208   38.7521 H   0  0  0  0  0
    9.4200   22.6635   38.3774 H   0  0  0  0  0
    8.5460   21.8478   37.0577 H   0  0  0  0  0
   12.0734   21.6291   39.1226 H   0  0  0  0  0
   11.4730   20.5287   41.8201 H   0  0  0  0  0
   13.2825   19.1535   40.5972 H   0  0  0  0  0
   13.4286   18.7973   42.8167 H   0  0  0  0  0
   13.6822   20.5863   43.1803 H   0  0  0  0  0
   14.2863   21.0793   39.3998 H   0  0  0  0  0
   14.8108   21.7707   40.9547 H   0  0  0  0  0
   15.5048   20.2330   40.3848 H   0  0  0  0  0
   15.7175   18.6495   42.1057 H   0  0  0  0  0
   15.9625   20.3779   42.4569 H   0  0  0  0  0
   15.6106   19.2413   43.7818 H   0  0  0  0  0
   13.0826   21.6049   43.5198 H   0  0  0  0  0
   13.2732   24.5319   42.9143 H   0  0  0  0  0
   12.6277   23.1359   45.1372 H   0  0  0  0  0
   13.0686   24.9443   44.9398 H   0  0  0  0  0
   15.7406   25.3198   45.1766 H   0  0  0  0  0
   13.4803   22.1201   46.9217 H   0  0  0  0  0
   17.5315   24.9617   46.8610 H   0  0  0  0  0
   15.2551   21.7720   48.5975 H   0  0  0  0  0
   17.2350   22.4127   49.3344 H   0  0  0  0  0
   14.8046   24.5863   41.3881 H   0  0  0  0  0
   17.4977   23.2403   41.1846 H   0  0  0  0  0
   15.7924   25.5131   39.9892 H   0  0  0  0  0
   16.1064   24.1393   39.2743 H   0  0  0  0  0
   17.9862   25.6245   38.9923 H   0  0  0  0  0
   19.2357   24.0093   41.0533 H   0  0  0  0  0
  3  2  1  0  0  0
  2  5  1  0  0  0
  2  1  1  0  0  0
  5  6  1  0  0  0
  6  8  1  0  0  0
  6  7  1  0  0  0
  3  4  2  0  0  0
 11 10  1  0  0  0
 10 13  1  0  0  0
 10  9  1  0  0  0
 11 12  2  0  0  0
 16 15  1  0  0  0
 15 18  1  0  0  0
 15 14  1  0  0  0
 18 19  1  0  0  0
 18 20  1  0  0  0
 19 21  1  0  0  0
 16 17  2  0  0  0
 24 23  1  0  0  0
 23 26  1  0  0  0
 23 22  1  0  0  0
 26 27  1  0  0  0
 27 29  4  0  0  0
 27 28  4  0  0  0
 28 30  4  0  0  0
 30 32  4  0  0  0
 32 33  1  0  0  0
 31 32  4  0  0  0
 29 31  4  0  0  0
 24 25  2  0  0  0
 35 36  1  0  0  0
 35 38  1  0  0  0
 34 35  1  0  0  0
 38 39  1  0  0  0
 36 40  1  0  0  0
 36 37  2  0  0  0
  9  3  1  0  0  0
 14 11  1  0  0  0
 22 16  1  0  0  0
 24 34  1  0  0  0
  1 41  1  0  0  0
  1 42  1  0  0  0
  1 43  1  0  0  0
  2 44  1  0  0  0
  5 45  1  0  0  0
  5 46  1  0  0  0
  6 47  1  0  0  0
  7 48  1  0  0  0
  7 49  1  0  0  0
  7 50  1  0  0  0
  8 51  1  0  0  0
  8 52  1  0  0  0
  8 53  1  0  0  0
  9 54  1  0  0  0
 10 55  1  0  0  0
 13 56  1  0  0  0
 13 57  1  0  0  0
 13 58  1  0  0  0
 14 59  1  0  0  0
 15 60  1  0  0  0
 18 61  1  0  0  0
 19 62  1  0  0  0
 19 63  1  0  0  0
 20 64  1  0  0  0
 20 65  1  0  0  0
 20 66  1  0  0  0
 21 67  1  0  0  0
 21 68  1  0  0  0
 21 69  1  0  0  0
 22 70  1  0  0  0
 23 71  1  0  0  0
 26 72  1  0  0  0
 26 73  1  0  0  0
 28 74  1  0  0  0
 29 75  1  0  0  0
 30 76  1  0  0  0
 31 77  1  0  0  0
 33 78  1  0  0  0
 34 79  1  0  0  0
 35 80  1  0  0  0
 38 81  1  0  0  0
 38 82  1  0  0  0
 39 83  1  0  0  0
 40 84  1  0  0  0
M  END
$$$$
