5nvh_ligand
  -I-interpret- 

 42 45  0  0  0  0  0  0  0  0999 V2000
    6.5060   40.1240    6.1940 C   0  0  0  0  0
    5.7310   40.5410    5.0190 C   0  0  0  0  0
    6.1230   39.5960    3.9150 C   0  0  0  0  0
    5.5160   38.2480    4.1650 C   0  0  0  0  0
    5.8150   37.6950    5.5680 C   0  0  0  0  0
    6.3050   38.6950    6.5910 N   0  0  0  0  0
    6.4200   38.3420    7.9150 C   0  0  0  0  0
    7.0230   39.1810    8.8570 C   0  0  0  0  0
    7.0960   38.8340   10.2110 C   0  0  0  0  0
    5.8880   37.1440    8.4130 C   0  0  0  0  0
    5.9770   36.7870    9.7540 C   0  0  0  0  0
    6.6060   37.6080   10.6840 C   0  0  0  0  0
    6.6300   37.2760   12.0550 C   0  0  0  0  0
    5.7990   36.3320   12.5210 N   0  0  0  0  0
    5.7670   36.0150   13.8280 C   0  0  0  0  0
    4.8930   35.0100   14.2220 C   0  0  0  0  0
    4.7960   34.6660   15.5630 C   0  0  0  0  0
    5.5700   35.3340   16.5220 C   0  0  0  0  0
    6.4490   36.3460   16.1190 C   0  0  0  0  0
    6.5390   36.6970   14.7790 C   0  0  0  0  0
    7.4180   37.6950   14.3310 C   0  0  0  0  0
    8.1710   38.3400   15.0710 O   0  0  0  0  0
    7.4290   37.9650   12.9760 N   0  0  0  0  0
    6.1742   40.7385    7.0309 H   0  0  0  0  0
    7.5597   40.2406    5.9404 H   0  0  0  0  0
    5.9432   41.5758    4.7501 H   0  0  0  0  0
    4.6595   40.5002    5.2150 H   0  0  0  0  0
    7.2087   39.5039    3.8865 H   0  0  0  0  0
    5.7624   39.9837    2.9622 H   0  0  0  0  0
    5.9441   37.5552    3.4405 H   0  0  0  0  0
    4.4347   38.3529    4.0766 H   0  0  0  0  0
    6.6186   36.9691    5.4436 H   0  0  0  0  0
    4.8702   37.3080    5.9497 H   0  0  0  0  0
    7.4472   40.1298    8.5284 H   0  0  0  0  0
    7.5449   39.5342   10.9155 H   0  0  0  0  0
    5.3855   36.4667    7.7225 H   0  0  0  0  0
    5.5441   35.8426   10.0837 H   0  0  0  0  0
    4.2848   34.4928   13.4799 H   0  0  0  0  0
    4.1150   33.8729   15.8719 H   0  0  0  0  0
    5.4878   35.0669   17.5756 H   0  0  0  0  0
    7.0637   36.8592   16.8585 H   0  0  0  0  0
    8.0470   38.6994   12.6309 H   0  0  0  0  0
  1  2  1  0  0  0
  1  6  1  0  0  0
  2  3  1  0  0  0
  3  4  1  0  0  0
  4  5  1  0  0  0
  5  6  1  0  0  0
  6  7  1  0  0  0
  7  8  4  0  0  0
  7 10  4  0  0  0
  8  9  4  0  0  0
  9 12  4  0  0  0
 10 11  4  0  0  0
 11 12  4  0  0  0
 12 13  1  0  0  0
 13 14  2  0  0  0
 13 23  1  0  0  0
 14 15  1  0  0  0
 15 16  4  0  0  0
 15 20  4  0  0  0
 16 17  4  0  0  0
 17 18  4  0  0  0
 18 19  4  0  0  0
 19 20  4  0  0  0
 20 21  1  0  0  0
 21 22  2  0  0  0
 21 23  1  0  0  0
  1 24  1  0  0  0
  1 25  1  0  0  0
  2 26  1  0  0  0
  2 27  1  0  0  0
  3 28  1  0  0  0
  3 29  1  0  0  0
  4 30  1  0  0  0
  4 31  1  0  0  0
  5 32  1  0  0  0
  5 33  1  0  0  0
  8 34  1  0  0  0
  9 35  1  0  0  0
 10 36  1  0  0  0
 11 37  1  0  0  0
 16 38  1  0  0  0
 17 39  1  0  0  0
 18 40  1  0  0  0
 19 41  1  0  0  0
 23 42  1  0  0  0
M  END
$$$$
