3k3j_ligand
  -I-interpret- 

 50 53  0  0  0  0  0  0  0  0999 V2000
   -0.7770    4.1060  -14.2440 N   0  0  0  0  0
    1.9400    3.0900  -17.2680 N   0  0  0  0  0
    0.3910    6.1300  -13.7940 C   0  0  0  0  0
    4.5690    1.4420  -20.2240 C   0  0  0  0  0
    2.1850    4.1870  -16.5420 C   0  0  0  0  0
    4.8980    1.3730  -18.7630 C   0  0  0  0  0
   -1.9210    3.4310  -13.7740 C   0  0  0  0  0
    0.3950    7.4000  -13.0160 C   0  0  0  0  0
   -3.0950    4.1850  -13.7310 C   0  0  0  0  0
   -4.2530    3.6250  -13.2320 C   0  0  0  0  0
    6.0750    0.7170  -18.3830 C   0  0  0  0  0
    1.0670    8.5170  -13.5130 C   0  0  0  0  0
   -0.3410    7.5190  -11.8430 C   0  0  0  0  0
    4.3440    1.8840  -16.4720 C   0  0  0  0  0
    5.5220    1.2440  -16.0800 C   0  0  0  0  0
   -5.3690    1.7900  -12.3000 F   0  0  0  0  0
   -4.2340    2.3130  -12.7720 C   0  0  0  0  0
   -3.0640    1.5540  -12.7950 C   0  0  0  0  0
   -1.8850    2.1270  -13.2790 C   0  0  0  0  0
    0.1030    3.7140  -15.1960 C   0  0  0  0  0
   -0.0330    2.6240  -15.8140 O   0  0  0  0  0
   -0.6120    5.3100  -13.5620 N   0  0  0  0  0
    1.0390    9.7120  -12.8030 C   0  0  0  0  0
   -0.3430    8.7430  -11.1720 C   0  0  0  0  0
    0.3630    9.7940  -11.6590 N   0  0  0  0  0
    1.3240    5.7730  -14.7930 C   0  0  0  0  0
    1.1880    4.5510  -15.4740 C   0  0  0  0  0
    3.1710    4.9100  -16.7450 O   0  0  0  0  0
    2.7700    2.6180  -18.3320 C   0  0  0  0  0
    4.0340    1.9480  -17.8330 C   0  0  0  0  0
    6.3770    0.6500  -17.0350 C   0  0  0  0  0
    5.6640    1.1370  -20.9070 F   0  0  0  0  0
    3.5760    0.6090  -20.5090 F   0  0  0  0  0
    4.1890    2.6790  -20.5140 F   0  0  0  0  0
    1.1018    2.5526  -17.0466 H   0  0  0  0  0
   -3.0968    5.2139  -14.0908 H   0  0  0  0  0
   -5.1746    4.2060  -13.1987 H   0  0  0  0  0
    6.7344    0.2719  -19.1281 H   0  0  0  0  0
    1.6121    8.4531  -14.4547 H   0  0  0  0  0
   -0.9063    6.6720  -11.4542 H   0  0  0  0  0
    3.6788    2.3254  -15.7299 H   0  0  0  0  0
    5.7852    1.2023  -15.0231 H   0  0  0  0  0
   -3.0693    0.5238  -12.4389 H   0  0  0  0  0
   -0.9517    1.5640  -13.2700 H   0  0  0  0  0
    1.5716   10.5835  -13.1837 H   0  0  0  0  0
   -0.9153    8.8550  -10.2511 H   0  0  0  0  0
    2.1480    6.4442  -15.0353 H   0  0  0  0  0
    3.0622    3.4774  -18.9355 H   0  0  0  0  0
    2.2013    1.8808  -18.8987 H   0  0  0  0  0
    7.2804    0.1356  -16.7074 H   0  0  0  0  0
  1  7  1  0  0  0
 20  1  1  0  0  0
  1 22  1  0  0  0
  2  5  1  0  0  0
 29  2  1  0  0  0
  3  8  1  0  0  0
  3 22  2  0  0  0
 26  3  1  0  0  0
  6  4  1  0  0  0
  4 32  1  0  0  0
  4 33  1  0  0  0
  4 34  1  0  0  0
  5 27  1  0  0  0
  5 28  2  0  0  0
  6 11  4  0  0  0
 30  6  4  0  0  0
  7  9  4  0  0  0
  7 19  4  0  0  0
  8 12  4  0  0  0
  8 13  4  0  0  0
  9 10  4  0  0  0
 10 17  4  0  0  0
 11 31  4  0  0  0
 12 23  4  0  0  0
 13 24  4  0  0  0
 14 15  4  0  0  0
 30 14  4  0  0  0
 15 31  4  0  0  0
 17 16  1  0  0  0
 18 17  4  0  0  0
 19 18  4  0  0  0
 20 21  2  0  0  0
 27 20  1  0  0  0
 23 25  4  0  0  0
 24 25  4  0  0  0
 27 26  2  0  0  0
 29 30  1  0  0  0
  2 35  1  0  0  0
  9 36  1  0  0  0
 10 37  1  0  0  0
 11 38  1  0  0  0
 12 39  1  0  0  0
 13 40  1  0  0  0
 14 41  1  0  0  0
 15 42  1  0  0  0
 18 43  1  0  0  0
 19 44  1  0  0  0
 23 45  1  0  0  0
 24 46  1  0  0  0
 26 47  1  0  0  0
 29 48  1  0  0  0
 29 49  1  0  0  0
 31 50  1  0  0  0
M  END
$$$$
