3wto_ligand
  -I-interpret- 

 23 24  0  0  0  0  0  0  0  0999 V2000
  -18.8160   -0.1070   25.3150 N   0  0  0  0  0
  -21.0140    0.0550   24.4140 N   0  0  0  0  0
  -20.0280    0.2970   25.4060 C   0  0  0  0  0
  -20.5680    1.0350   26.4800 N   0  0  0  0  0
  -21.9780    1.3120   26.2230 C   0  0  0  0  0
  -22.2760    0.6650   24.8530 C   0  0  0  0  0
  -22.2020   -4.7040   22.2470 C   0  0  0  0  0
  -22.7140   -6.2910   21.7280 Cl  0  0  0  0  0
  -21.8550   -3.8400   21.3030 N   0  0  0  0  0
  -21.4470   -2.6020   21.5800 C   0  0  0  0  0
  -21.3540   -2.1140   22.9140 C   0  0  0  0  0
  -21.7230   -3.0150   23.9650 C   0  0  0  0  0
  -22.1570   -4.3380   23.6370 C   0  0  0  0  0
  -20.8570   -0.6680   23.1230 C   0  0  0  0  0
  -18.5143   -0.6341   24.4955 H   0  0  0  0  0
  -18.1525    0.0984   26.0620 H   0  0  0  0  0
  -22.6720    1.8586   26.8615 H   0  0  0  0  0
  -23.2274    0.6616   24.3210 H   0  0  0  0  0
  -21.1753   -1.9407   20.7573 H   0  0  0  0  0
  -21.6735   -2.6951   25.0058 H   0  0  0  0  0
  -22.4441   -5.0454   24.4150 H   0  0  0  0  0
  -19.7760   -0.7555   23.0138 H   0  0  0  0  0
  -21.4719   -0.0888   22.4342 H   0  0  0  0  0
  3  1  1  0  0  0
  2  3  4  0  0  0
  2  6  4  0  0  0
 14  2  1  0  0  0
  3  4  4  0  0  0
  5  4  4  0  0  0
  6  5  4  0  0  0
  7  8  1  0  0  0
  9  7  4  0  0  0
  7 13  4  0  0  0
 10  9  4  0  0  0
 11 10  4  0  0  0
 11 12  4  0  0  0
 11 14  1  0  0  0
 12 13  4  0  0  0
  1 15  1  0  0  0
  1 16  1  0  0  0
  5 17  1  0  0  0
  6 18  1  0  0  0
 10 19  1  0  0  0
 12 20  1  0  0  0
 13 21  1  0  0  0
 14 22  1  0  0  0
 14 23  1  0  0  0
M  END
$$$$
