2w97_ligand
  -I-interpret- 

 14 13  0  0  0  0  0  0  0  0999 V2000
   33.6760   -9.6030   18.5610 C   0  0  0  0  0
   32.2500   -9.5970   18.6210 O   0  0  0  0  0
   34.1270   -8.6530   17.4600 C   0  0  0  0  0
   35.5400   -8.5330   17.5000 O   0  0  0  0  0
   33.7280   -9.2380   16.1120 C   0  0  0  0  0
   34.1570   -8.3810   15.0520 O   0  0  0  0  0
   34.0316  -10.6108   18.3468 H   0  0  0  0  0
   34.0865   -9.2799   19.5176 H   0  0  0  0  0
   31.9575  -10.1941   19.3134 H   0  0  0  0  0
   33.6641   -7.6764   17.6016 H   0  0  0  0  0
   35.8049   -8.1648   18.3461 H   0  0  0  0  0
   32.6430   -9.3351   16.0737 H   0  0  0  0  0
   34.2001  -10.2133   15.9939 H   0  0  0  0  0
   33.8989   -8.7621   14.2095 H   0  0  0  0  0
  1  2  1  0  0  0
  1  3  1  0  0  0
  3  4  1  0  0  0
  3  5  1  0  0  0
  5  6  1  0  0  0
  1  7  1  0  0  0
  1  8  1  0  0  0
  2  9  1  0  0  0
  3 10  1  0  0  0
  4 11  1  0  0  0
  5 12  1  0  0  0
  5 13  1  0  0  0
  6 14  1  0  0  0
M  END
$$$$
