2wq4_ligand
  -I-interpret- 

 26 26  0  0  0  0  0  0  0  0999 V2000
   11.7480   -7.5570   -9.6240 C   0  0  0  0  0
   13.0240   -6.8600   -9.1690 C   0  0  0  0  0
   13.3370   -5.6900  -10.1060 C   0  0  0  0  0
   12.1440   -4.7640  -10.2110 C   0  0  0  0  0
   10.8810   -5.5280  -10.6560 C   0  0  0  0  0
    9.6200   -4.6880  -10.7040 C   0  0  0  0  0
   14.1220   -7.7870   -9.1560 O   0  0  0  0  0
   14.5130   -5.0360   -9.6470 O   0  0  0  0  0
   11.9140   -4.1960   -8.9070 O   0  0  0  0  0
   10.6480   -6.6350   -9.7410 O   0  0  0  0  0
   10.2190   -9.1280  -11.4780 C   0  0  0  0  0
   12.0730   -8.5680  -11.3060 Se  0  0  0  0  0
   11.4588   -8.2762   -8.8577 H   0  0  0  0  0
   12.8772   -6.4803   -8.1579 H   0  0  0  0  0
   13.5301   -6.0493  -11.1168 H   0  0  0  0  0
   12.3504   -3.9926  -10.9529 H   0  0  0  0  0
   11.0797   -5.8602  -11.6749 H   0  0  0  0  0
    8.7901   -5.3006  -11.0563 H   0  0  0  0  0
    9.3973   -4.3118   -9.7055 H   0  0  0  0  0
    9.7691   -3.8497  -11.3846 H   0  0  0  0  0
   13.9167   -8.5163   -8.5664 H   0  0  0  0  0
   15.2328   -5.6696   -9.6006 H   0  0  0  0  0
   12.6975   -3.7187   -8.6244 H   0  0  0  0  0
    9.9347   -9.7125  -10.6030 H   0  0  0  0  0
    9.5803   -8.2478  -11.5518 H   0  0  0  0  0
   10.1063   -9.7365  -12.3753 H   0  0  0  0  0
  1  2  1  0  0  0
  1 10  1  0  0  0
  1 12  1  0  0  0
  2  3  1  0  0  0
  2  7  1  0  0  0
  3  4  1  0  0  0
  3  8  1  0  0  0
  4  5  1  0  0  0
  4  9  1  0  0  0
  5  6  1  0  0  0
  5 10  1  0  0  0
 12 11  1  0  0  0
  1 13  1  0  0  0
  2 14  1  0  0  0
  3 15  1  0  0  0
  4 16  1  0  0  0
  5 17  1  0  0  0
  6 18  1  0  0  0
  6 19  1  0  0  0
  6 20  1  0  0  0
  7 21  1  0  0  0
  8 22  1  0  0  0
  9 23  1  0  0  0
 11 24  1  0  0  0
 11 25  1  0  0  0
 11 26  1  0  0  0
M  END
$$$$
