### 
### Created by X-TOOL on Mon Aug  2 16:12:31 2021
### 

@<TRIPOS>MOLECULE
6a04_ligand
   68    74     1     0     0
SMALL
GAST_HUCK


@<TRIPOS>ATOM
      1 P1          6.0330   -3.1610  -18.4810 P.3       1 C2E         0.2557
      2 O2P         4.8660   -3.6450  -17.6630 O.co2     1 C2E        -0.6177
      3 O1P         6.9650   -4.2950  -18.5890 O.co2     1 C2E        -0.6177
      4 O5'         5.4690   -2.7530  -19.8700 O.3       1 C2E        -0.2514
      5 C5'         6.4290   -2.3450  -20.7900 C.3       1 C2E         0.1128
      6 C4'         5.8600   -1.6050  -21.9750 C.3       1 C2E         0.1242
      7 O4'         4.9600   -2.4610  -22.6190 O.3       1 C2E        -0.3359
      8 C3'         5.0600   -0.3790  -21.6600 C.3       1 C2E         0.1540
      9 O3'         5.8060    0.7930  -21.6100 O.3       1 C2E        -0.2453
     10 C2'         4.2070   -0.3060  -22.7790 C.3       1 C2E         0.1440
     11 O2'         4.8840    0.1680  -23.9290 O.3       1 C2E        -0.3832
     12 C1'         3.8450   -1.7240  -23.0160 C.3       1 C2E         0.1996
     13 N9          2.5800   -1.9700  -22.2780 N.pl3     1 C2E        -0.2101
     14 C8          2.4470   -2.4270  -21.0680 C.2       1 C2E         0.0957
     15 N7          1.2620   -2.5050  -20.6930 N.2       1 C2E        -0.3235
     16 C5          0.3850   -2.1030  -21.5970 C.2       1 C2E         0.0926
     17 C6         -1.0070   -1.9800  -21.7140 C.2       1 C2E         0.2135
     18 O6         -1.8040   -2.3340  -20.6980 O.2       1 C2E        -0.4091
     19 N1         -1.5310   -1.4990  -22.8700 N.am      1 C2E        -0.1839
     20 C2         -0.7040   -1.1430  -23.9010 C.2       1 C2E         0.2340
     21 N2         -1.3020   -0.6160  -25.1840 N.pl3     1 C2E        -0.2807
     22 N3          0.6520   -1.2410  -23.8310 N.2       1 C2E        -0.2765
     23 C4          1.2340   -1.7080  -22.7160 C.2       1 C2E         0.1159
     24 P11         5.3360    1.8650  -20.5450 P.3       1 C2E         0.2557
     25 O21         3.9060    2.2740  -20.8950 O.co2     1 C2E        -0.6177
     26 O11         6.2720    3.0550  -20.6350 O.co2     1 C2E        -0.6177
     27 O5A         5.2940    1.3120  -19.0760 O.3       1 C2E        -0.2514
     28 C5A         6.5540    1.1040  -18.5510 C.3       1 C2E         0.1128
     29 C4A         6.4960    0.3590  -17.2510 C.3       1 C2E         0.1242
     30 O4A         5.7070    1.1590  -16.3340 O.3       1 C2E        -0.3359
     31 C3A         5.8300   -0.9360  -17.3620 C.3       1 C2E         0.1540
     32 O3A         6.6910   -1.9770  -17.6910 O.3       1 C2E        -0.2453
     33 C2A         5.3550   -1.1120  -15.9920 C.3       1 C2E         0.1440
     34 O2A         6.4080   -1.5980  -15.2160 O.3       1 C2E        -0.3832
     35 C1A         4.9330    0.2670  -15.5650 C.3       1 C2E         0.1996
     36 N91         3.5960    0.3730  -15.8540 N.pl3     1 C2E        -0.2101
     37 C81         2.9900    0.7730  -16.9510 C.2       1 C2E         0.0957
     38 N71         1.7330    0.7330  -16.8910 N.2       1 C2E        -0.3235
     39 C51         1.3010    0.2910  -15.7330 C.2       1 C2E         0.0926
     40 C61         0.1070    0.0350  -15.0590 C.2       1 C2E         0.2135
     41 O61        -1.1470    0.2340  -15.6530 O.2       1 C2E        -0.4091
     42 N11         0.1480   -0.4430  -13.7850 N.am      1 C2E        -0.1839
     43 C21         1.3270   -0.6710  -13.1280 C.2       1 C2E         0.2340
     44 N21         1.3140   -1.1650  -11.7460 N.pl3     1 C2E        -0.2807
     45 N31         2.5060   -0.4320  -13.7240 N.2       1 C2E        -0.2765
     46 C41         2.5370    0.0380  -14.9820 C.2       1 C2E         0.1159
     47 H1          6.9572   -3.2366  -21.1588 H         1 C2E         0.0647
     48 H2          7.1418   -1.6826  -20.2770 H         1 C2E         0.0647
     49 H3          6.6874   -1.3317  -22.6463 H         1 C2E         0.0655
     50 H4          4.5034   -0.5039  -20.7195 H         1 C2E         0.0712
     51 H5          3.3254    0.3177  -22.5697 H         1 C2E         0.0681
     52 H6          5.2261    1.0376  -23.7578 H         1 C2E         0.2102
     53 H7          3.6645   -1.9070  -24.0855 H         1 C2E         0.0998
     54 H8          3.2909   -2.7140  -20.4425 H         1 C2E         0.1179
     55 H9         -2.5217   -1.4047  -22.9685 H         1 C2E         0.2515
     56 H10        -0.6879   -0.3455  -25.9654 H         1 C2E         0.1897
     57 H11        -2.3239   -0.5271  -25.2775 H         1 C2E         0.1897
     58 H12         7.0355    2.0785  -18.3824 H         1 C2E         0.0647
     59 H13         7.1482    0.5209  -19.2700 H         1 C2E         0.0647
     60 H14         7.5160    0.2160  -16.8647 H         1 C2E         0.0655
     61 H15         5.0030   -0.8990  -18.0863 H         1 C2E         0.0712
     62 H16         4.5055   -1.8095  -15.9482 H         1 C2E         0.0681
     63 H17         6.7007   -2.4307  -15.5673 H         1 C2E         0.2102
     64 H18         5.1075    0.4306  -14.4913 H         1 C2E         0.0998
     65 H19         3.5293    1.1098  -17.8351 H         1 C2E         0.1179
     66 H20        -0.7126   -0.6341  -13.3130 H         1 C2E         0.2515
     67 H21         2.2014   -1.3364  -11.2520 H         1 C2E         0.1897
     68 H22         0.4175   -1.3403  -11.2701 H         1 C2E         0.1897
@<TRIPOS>BOND
     1    1    2 ar 
     2    1    3 ar 
     3    1    4 1  
     4    1   32 1  
     5    4    5 1  
     6    5    6 1  
     7    6    7 1  
     8    6    8 1  
     9    7   12 1  
    10    8    9 1  
    11    8   10 1  
    12    9   24 1  
    13   10   11 1  
    14   10   12 1  
    15   12   13 1  
    16   13   14 1  
    17   13   23 1  
    18   14   15 2  
    19   15   16 1  
    20   16   17 1  
    21   16   23 2  
    22   17   18 2  
    23   17   19 am 
    24   19   20 am 
    25   20   21 1  
    26   20   22 2  
    27   22   23 1  
    28   24   25 ar 
    29   24   26 ar 
    30   24   27 1  
    31   27   28 1  
    32   28   29 1  
    33   29   30 1  
    34   29   31 1  
    35   30   35 1  
    36   31   32 1  
    37   31   33 1  
    38   33   34 1  
    39   33   35 1  
    40   35   36 1  
    41   36   37 1  
    42   36   46 1  
    43   37   38 2  
    44   38   39 1  
    45   39   40 1  
    46   39   46 2  
    47   40   41 2  
    48   40   42 am 
    49   42   43 am 
    50   43   44 1  
    51   43   45 2  
    52   45   46 1  
    53    5   47 1  
    54    5   48 1  
    55    6   49 1  
    56    8   50 1  
    57   10   51 1  
    58   11   52 1  
    59   12   53 1  
    60   14   54 1  
    61   19   55 1  
    62   21   56 1  
    63   21   57 1  
    64   28   58 1  
    65   28   59 1  
    66   29   60 1  
    67   31   61 1  
    68   33   62 1  
    69   34   63 1  
    70   35   64 1  
    71   37   65 1  
    72   42   66 1  
    73   44   67 1  
    74   44   68 1  
@<TRIPOS>SUBSTRUCTURE
     1 C2E         1

