6a04_ligand
  -I-interpret- 

 70 76  0  0  0  0  0  0  0  0999 V2000
    6.0330   -3.1610  -18.4810 P   0  0  0  0  0
    4.8660   -3.6450  -17.6630 O   0  0  0  0  0
    6.9650   -4.2950  -18.5890 O   0  0  0  0  0
    5.4690   -2.7530  -19.8700 O   0  0  0  0  0
    6.4290   -2.3450  -20.7900 C   0  0  0  0  0
    5.8600   -1.6050  -21.9750 C   0  0  0  0  0
    4.9600   -2.4610  -22.6190 O   0  0  0  0  0
    5.0600   -0.3790  -21.6600 C   0  0  0  0  0
    5.8060    0.7930  -21.6100 O   0  0  0  0  0
    4.2070   -0.3060  -22.7790 C   0  0  0  0  0
    4.8840    0.1680  -23.9290 O   0  0  0  0  0
    3.8450   -1.7240  -23.0160 C   0  0  0  0  0
    2.5800   -1.9700  -22.2780 N   0  0  0  0  0
    2.4470   -2.4270  -21.0680 C   0  0  0  0  0
    1.2620   -2.5050  -20.6930 N   0  0  0  0  0
    0.3850   -2.1030  -21.5970 C   0  0  0  0  0
   -1.0070   -1.9800  -21.7140 C   0  0  0  0  0
   -1.8040   -2.3340  -20.6980 O   0  0  0  0  0
   -1.5310   -1.4990  -22.8700 N   0  0  0  0  0
   -0.7040   -1.1430  -23.9010 C   0  0  0  0  0
   -1.3020   -0.6160  -25.1840 N   0  0  0  0  0
    0.6520   -1.2410  -23.8310 N   0  0  0  0  0
    1.2340   -1.7080  -22.7160 C   0  0  0  0  0
    5.3360    1.8650  -20.5450 P   0  0  0  0  0
    3.9060    2.2740  -20.8950 O   0  0  0  0  0
    6.2720    3.0550  -20.6350 O   0  0  0  0  0
    5.2940    1.3120  -19.0760 O   0  0  0  0  0
    6.5540    1.1040  -18.5510 C   0  0  0  0  0
    6.4960    0.3590  -17.2510 C   0  0  0  0  0
    5.7070    1.1590  -16.3340 O   0  0  0  0  0
    5.8300   -0.9360  -17.3620 C   0  0  0  0  0
    6.6910   -1.9770  -17.6910 O   0  0  0  0  0
    5.3550   -1.1120  -15.9920 C   0  0  0  0  0
    6.4080   -1.5980  -15.2160 O   0  0  0  0  0
    4.9330    0.2670  -15.5650 C   0  0  0  0  0
    3.5960    0.3730  -15.8540 N   0  0  0  0  0
    2.9900    0.7730  -16.9510 C   0  0  0  0  0
    1.7330    0.7330  -16.8910 N   0  0  0  0  0
    1.3010    0.2910  -15.7330 C   0  0  0  0  0
    0.1070    0.0350  -15.0590 C   0  0  0  0  0
   -1.1470    0.2340  -15.6530 O   0  0  0  0  0
    0.1480   -0.4430  -13.7850 N   0  0  0  0  0
    1.3270   -0.6710  -13.1280 C   0  0  0  0  0
    1.3140   -1.1650  -11.7460 N   0  0  0  0  0
    2.5060   -0.4320  -13.7240 N   0  0  0  0  0
    2.5370    0.0380  -14.9820 C   0  0  0  0  0
    4.2282   -2.9342  -17.5657 H   0  0  0  0  0
    6.9169   -3.2423  -21.1706 H   0  0  0  0  0
    7.1046   -1.6626  -20.2742 H   0  0  0  0  0
    6.7290   -1.2970  -22.5565 H   0  0  0  0  0
    4.5891   -0.4560  -20.6800 H   0  0  0  0  0
    3.3683    0.3671  -22.6014 H   0  0  0  0  0
    4.2717    0.2035  -24.6675 H   0  0  0  0  0
    3.6348   -2.0110  -24.0463 H   0  0  0  0  0
    3.2917   -2.7143  -20.4419 H   0  0  0  0  0
   -2.5415   -1.4028  -22.9705 H   0  0  0  0  0
   -0.6939   -0.3487  -25.9581 H   0  0  0  0  0
   -2.3139   -0.5274  -25.2763 H   0  0  0  0  0
    3.3308    1.5080  -20.8321 H   0  0  0  0  0
    7.0158    2.0747  -18.3706 H   0  0  0  0  0
    7.1290    0.5106  -19.2619 H   0  0  0  0  0
    7.5201    0.1867  -16.9200 H   0  0  0  0  0
    5.0732   -0.9537  -18.1463 H   0  0  0  0  0
    4.5330   -1.8207  -15.8913 H   0  0  0  0  0
    6.1087   -1.7183  -14.3118 H   0  0  0  0  0
    5.0804    0.4775  -14.5057 H   0  0  0  0  0
    3.5298    1.1101  -17.8359 H   0  0  0  0  0
   -0.7298   -0.6379  -13.3036 H   0  0  0  0  0
    2.1926   -1.3220  -11.2522 H   0  0  0  0  0
    0.4264   -1.3513  -11.2793 H   0  0  0  0  0
  1  2  1  0  0  0
  1  3  2  0  0  0
  1  4  1  0  0  0
  1 32  1  0  0  0
  4  5  1  0  0  0
  5  6  1  0  0  0
  6  7  1  0  0  0
  6  8  1  0  0  0
  7 12  1  0  0  0
  8  9  1  0  0  0
  8 10  1  0  0  0
  9 24  1  0  0  0
 10 11  1  0  0  0
 10 12  1  0  0  0
 12 13  1  0  0  0
 13 14  4  0  0  0
 13 23  4  0  0  0
 14 15  4  0  0  0
 15 16  4  0  0  0
 16 17  1  0  0  0
 16 23  4  0  0  0
 17 18  2  0  0  0
 17 19  1  0  0  0
 19 20  1  0  0  0
 20 21  1  0  0  0
 20 22  2  0  0  0
 22 23  1  0  0  0
 24 25  1  0  0  0
 24 26  2  0  0  0
 24 27  1  0  0  0
 27 28  1  0  0  0
 28 29  1  0  0  0
 29 30  1  0  0  0
 29 31  1  0  0  0
 30 35  1  0  0  0
 31 32  1  0  0  0
 31 33  1  0  0  0
 33 34  1  0  0  0
 33 35  1  0  0  0
 35 36  1  0  0  0
 36 37  4  0  0  0
 36 46  4  0  0  0
 37 38  4  0  0  0
 38 39  4  0  0  0
 39 40  1  0  0  0
 39 46  4  0  0  0
 40 41  2  0  0  0
 40 42  1  0  0  0
 42 43  1  0  0  0
 43 44  1  0  0  0
 43 45  2  0  0  0
 45 46  1  0  0  0
  2 47  1  0  0  0
  5 48  1  0  0  0
  5 49  1  0  0  0
  6 50  1  0  0  0
  8 51  1  0  0  0
 10 52  1  0  0  0
 11 53  1  0  0  0
 12 54  1  0  0  0
 14 55  1  0  0  0
 19 56  1  0  0  0
 21 57  1  0  0  0
 21 58  1  0  0  0
 25 59  1  0  0  0
 28 60  1  0  0  0
 28 61  1  0  0  0
 29 62  1  0  0  0
 31 63  1  0  0  0
 33 64  1  0  0  0
 34 65  1  0  0  0
 35 66  1  0  0  0
 37 67  1  0  0  0
 42 68  1  0  0  0
 44 69  1  0  0  0
 44 70  1  0  0  0
M  END
$$$$
