5yea_ligand
  -I-interpret- 

 45 47  0  0  0  0  0  0  0  0999 V2000
   12.9080  -10.1570   26.4420 C   0  0  0  0  0
   14.7380   -5.0220   30.5860 C   0  0  0  0  0
   12.2300   -8.9660   26.2450 C   0  0  0  0  0
   10.8900   -9.0020   25.9030 C   0  0  0  0  0
   12.5050   -5.1730   29.7060 C   0  0  0  0  0
   13.0020  -12.6550   26.5050 C   0  0  0  0  0
   10.6300   -6.4030   28.0410 C   0  0  0  0  0
   11.0330   -7.0160   29.2160 C   0  0  0  0  0
   11.9670   -6.4130   30.0380 C   0  0  0  0  0
   12.0930   -4.5350   28.5280 C   0  0  0  0  0
   11.1470   -5.1540   27.7020 C   0  0  0  0  0
    9.6630   -7.0190   27.2020 N   0  0  0  0  0
   13.0810   -2.2420   27.8800 N   0  0  0  0  0
   12.2590  -11.3730   26.2890 C   0  0  0  0  0
   10.2250  -10.2080   25.7640 C   0  0  0  0  0
   15.2220   -5.9260   29.6690 C   0  0  0  0  0
   16.5280   -6.3790   29.7890 C   0  0  0  0  0
   17.3310   -5.9410   30.8310 C   0  0  0  0  0
   16.8410   -5.0250   31.7590 C   0  0  0  0  0
   15.5290   -4.5840   31.6270 C   0  0  0  0  0
   10.9140  -11.3910   25.9530 C   0  0  0  0  0
   12.6170   -3.2440   28.1760 C   0  0  0  0  0
   17.6830   -4.5220   32.8950 C   0  0  0  0  0
   18.7170   -3.8000   32.4860 F   0  0  0  0  0
   18.1920   -5.5070   33.6280 F   0  0  0  0  0
   17.0000   -3.7470   33.7240 F   0  0  0  0  0
   12.3810  -13.7170   26.3430 O   0  0  0  0  0
   14.1980  -12.5790   26.8420 O   0  0  0  0  0
    8.7940   -7.8200   25.0180 O   0  0  0  0  0
   10.9020   -6.5340   25.1170 O   0  0  0  0  0
   13.4350   -4.5310   30.5230 O   0  0  0  0  0
   10.0150   -7.4980   25.6830 S   0  0  0  0  0
   18.9740   -6.5460   30.9200 Cl  0  0  0  0  0
   13.9618  -10.1387   26.7200 H   0  0  0  0  0
   12.7454   -8.0122   26.3579 H   0  0  0  0  0
   10.6105   -7.9813   29.4948 H   0  0  0  0  0
   12.2845   -6.9126   30.9532 H   0  0  0  0  0
   10.8138   -4.6573   26.7907 H   0  0  0  0  0
    8.7195   -7.1663   27.5606 H   0  0  0  0  0
    9.1658  -10.2245   25.5074 H   0  0  0  0  0
   14.5871   -6.2822   28.8578 H   0  0  0  0  0
   16.9255   -7.0841   29.0590 H   0  0  0  0  0
   15.1207   -3.8834   32.3554 H   0  0  0  0  0
   10.3971  -12.3436   25.8373 H   0  0  0  0  0
   14.4542  -11.6558   26.9027 H   0  0  0  0  0
  3  1  4  0  0  0
  1 14  4  0  0  0
  2 16  4  0  0  0
  2 20  4  0  0  0
 31  2  1  0  0  0
  4  3  4  0  0  0
  4 15  4  0  0  0
 32  4  1  0  0  0
  9  5  4  0  0  0
 10  5  4  0  0  0
  5 31  1  0  0  0
 14  6  1  0  0  0
  6 27  2  0  0  0
  6 28  1  0  0  0
  7  8  4  0  0  0
  7 11  4  0  0  0
 12  7  1  0  0  0
  8  9  4  0  0  0
 11 10  4  0  0  0
 10 22  1  0  0  0
 12 32  1  0  0  0
 22 13  3  0  0  0
 14 21  4  0  0  0
 15 21  4  0  0  0
 16 17  4  0  0  0
 17 18  4  0  0  0
 18 19  4  0  0  0
 18 33  1  0  0  0
 19 20  4  0  0  0
 19 23  1  0  0  0
 23 24  1  0  0  0
 23 25  1  0  0  0
 23 26  1  0  0  0
 32 29  2  0  0  0
 32 30  2  0  0  0
  1 34  1  0  0  0
  3 35  1  0  0  0
  8 36  1  0  0  0
  9 37  1  0  0  0
 11 38  1  0  0  0
 12 39  1  0  0  0
 15 40  1  0  0  0
 16 41  1  0  0  0
 17 42  1  0  0  0
 20 43  1  0  0  0
 21 44  1  0  0  0
 28 45  1  0  0  0
M  END
$$$$
