4qp1_ligand
  -I-interpret- 

 27 29  0  0  0  0  0  0  0  0999 V2000
  -16.7790  -37.1570  -27.6600 N   0  0  0  0  0
  -17.5160  -36.8520  -28.7120 C   0  0  0  0  0
  -17.8420  -35.6140  -29.0090 N   0  0  0  0  0
  -17.4310  -34.6020  -28.2410 C   0  0  0  0  0
  -16.6480  -34.8830  -27.1130 C   0  0  0  0  0
  -16.3310  -36.2110  -26.8390 C   0  0  0  0  0
  -14.5480  -37.5930  -25.8440 C   0  0  0  0  0
  -16.3740  -33.6690  -26.5190 N   0  0  0  0  0
  -16.9710  -32.7180  -27.2690 C   0  0  0  0  0
  -17.5900  -33.2680  -28.2760 N   0  0  0  0  0
  -14.8680  -38.6940  -24.8680 C   0  0  0  0  0
  -15.7080  -39.7250  -25.2460 C   0  0  0  0  0
  -16.0020  -40.7370  -24.3530 C   0  0  0  0  0
  -15.4560  -40.7170  -23.0820 C   0  0  0  0  0
  -14.6150  -39.6860  -22.7040 C   0  0  0  0  0
  -14.3210  -38.6740  -23.5980 C   0  0  0  0  0
  -15.5510  -36.5300  -25.7390 N   0  0  0  0  0
  -17.8671  -37.6566  -29.3581 H   0  0  0  0  0
  -14.5544  -37.9959  -26.8568 H   0  0  0  0  0
  -13.5638  -37.1838  -25.6159 H   0  0  0  0  0
  -16.9400  -31.6481  -27.0629 H   0  0  0  0  0
  -16.1378  -39.7393  -26.2476 H   0  0  0  0  0
  -16.6637  -41.5508  -24.6495 H   0  0  0  0  0
  -15.6890  -41.5152  -22.3772 H   0  0  0  0  0
  -14.1848  -39.6717  -21.7026 H   0  0  0  0  0
  -13.6584  -37.8606  -23.3023 H   0  0  0  0  0
  -15.6745  -36.0271  -24.8602 H   0  0  0  0  0
  1  2  4  0  0  0
  6  1  4  0  0  0
  2  3  4  0  0  0
  4  3  4  0  0  0
  5  4  4  0  0  0
  4 10  4  0  0  0
  6  5  4  0  0  0
  5  8  4  0  0  0
 17  6  1  0  0  0
  7 11  1  0  0  0
  7 17  1  0  0  0
  8  9  4  0  0  0
  9 10  4  0  0  0
 11 12  4  0  0  0
 11 16  4  0  0  0
 12 13  4  0  0  0
 13 14  4  0  0  0
 14 15  4  0  0  0
 15 16  4  0  0  0
  2 18  1  0  0  0
  7 19  1  0  0  0
  7 20  1  0  0  0
  9 21  1  0  0  0
 12 22  1  0  0  0
 13 23  1  0  0  0
 14 24  1  0  0  0
 15 25  1  0  0  0
 16 26  1  0  0  0
 17 27  1  0  0  0
M  END
$$$$
