2rf2_ligand
  -I-interpret- 

 34 36  0  0  0  0  0  0  0  0999 V2000
    6.6800   10.2160   18.0890 Br  0  0  0  0  0
    7.4420   11.5910   16.9300 C   0  0  0  0  0
    8.7500   12.1020   17.0540 C   0  0  0  0  0
    6.6520   12.0880   15.8560 C   0  0  0  0  0
    7.1630   13.0090   14.9290 C   0  0  0  0  0
    8.4540   13.5170   15.1070 C   0  0  0  0  0
    9.1950   14.4610   14.3710 N   0  0  0  0  0
   10.4590   14.6970   14.8560 C   0  0  0  0  0
   11.2090   15.6740   14.1570 C   0  0  0  0  0
   12.5280   16.1410   14.4480 N   0  0  0  0  0
   10.6330   16.2420   13.1600 O   0  0  0  0  0
   10.5760   13.8330   15.9840 C   0  0  0  0  0
    9.2890   13.0740   16.1480 C   0  0  0  0  0
   11.9600   13.6750   17.0640 S   0  0  0  0  0
   13.0900   14.4320   16.4800 O   0  0  0  0  0
   11.8340   12.3280   17.5590 O   0  0  0  0  0
   11.6390   14.5860   18.5490 N   0  0  0  0  0
   11.5470   16.0860   18.5370 C   0  0  0  0  0
   10.9450   16.5560   19.8330 C   0  0  0  0  0
   10.6930   15.2130   20.5450 C   0  0  0  0  0
   10.4640   14.2360   19.3940 C   0  0  0  0  0
    9.3765   11.7440   17.8710 H   0  0  0  0  0
    5.6230   11.7443   15.7507 H   0  0  0  0  0
    6.5596   13.3256   14.0782 H   0  0  0  0  0
   12.9459   16.8765   13.8781 H   0  0  0  0  0
   13.0514   15.7388   15.2256 H   0  0  0  0  0
   10.9200   16.4070   17.7052 H   0  0  0  0  0
   12.5434   16.5123   18.4211 H   0  0  0  0  0
   10.0487   17.1636   19.7080 H   0  0  0  0  0
   11.5833   17.2390   20.3934 H   0  0  0  0  0
    9.8467   15.2562   21.2306 H   0  0  0  0  0
   11.5245   14.9171   21.1847 H   0  0  0  0  0
   10.4063   13.1878   19.6872 H   0  0  0  0  0
    9.4981   14.3306   18.8978 H   0  0  0  0  0
  1  2  1  0  0  0
  2  3  4  0  0  0
  2  4  4  0  0  0
  3 13  4  0  0  0
  4  5  4  0  0  0
  5  6  4  0  0  0
  6  7  4  0  0  0
  6 13  4  0  0  0
  7  8  4  0  0  0
  8  9  1  0  0  0
  8 12  4  0  0  0
  9 10  1  0  0  0
  9 11  2  0  0  0
 12 13  4  0  0  0
 12 14  1  0  0  0
 14 15  2  0  0  0
 14 16  2  0  0  0
 14 17  1  0  0  0
 17 18  1  0  0  0
 17 21  1  0  0  0
 18 19  1  0  0  0
 19 20  1  0  0  0
 20 21  1  0  0  0
  3 22  1  0  0  0
  4 23  1  0  0  0
  5 24  1  0  0  0
 10 25  1  0  0  0
 10 26  1  0  0  0
 18 27  1  0  0  0
 18 28  1  0  0  0
 19 29  1  0  0  0
 19 30  1  0  0  0
 20 31  1  0  0  0
 20 32  1  0  0  0
 21 33  1  0  0  0
 21 34  1  0  0  0
M  END
$$$$
