### 
### Created by X-TOOL on Mon Sep 10 21:12:56 2018
### 

@<TRIPOS>MOLECULE
2oi9_ligand
  150   153     1     0     0
SMALL
GAST_HUCK


@<TRIPOS>ATOM
      1 N         -16.8000  -47.1670   -0.0010 N.4       1 GLN         0.2380
      2 CA        -16.8380  -48.6470    0.2210 C.3       1 GLN         0.0671
      3 C         -17.6270  -49.4550   -0.8180 C.2       1 GLN         0.2269
      4 O         -18.8480  -49.3650   -0.9300 O.2       1 GLN        -0.3907
      5 CB        -17.3340  -48.9730    1.6170 C.3       1 GLN         0.0247
      6 CG        -16.3670  -48.6140    2.7330 C.3       1 GLN         0.0443
      7 CD        -14.9900  -49.1700    2.5270 C.2       1 GLN         0.1738
      8 OE1       -14.2420  -48.6860    1.6680 O.2       1 GLN        -0.3973
      9 NE2       -14.6300  -50.1840    3.3260 N.am      1 GLN        -0.3009
     10 N         -16.8790  -50.2750   -1.5400 N.am      1 LEU        -0.2610
     11 CA        -17.3660  -51.0710   -2.6430 C.3       1 LEU         0.1313
     12 C         -17.9200  -52.4140   -2.1840 C.2       1 LEU         0.2040
     13 O         -17.9060  -52.7310   -0.9940 O.2       1 LEU        -0.3944
     14 CB        -16.2270  -51.2570   -3.6470 C.3       1 LEU        -0.0101
     15 CG        -15.9000  -50.0820   -4.5920 C.3       1 LEU        -0.0425
     16 CD1       -16.5760  -48.7620   -4.2070 C.3       1 LEU        -0.0625
     17 CD2       -14.3950  -49.8950   -4.7580 C.3       1 LEU        -0.0625
     18 N         -18.4400  -53.1850   -3.1350 N.am      1 SER        -0.2616
     19 CA        -18.9320  -54.5340   -2.8800 C.3       1 SER         0.1541
     20 C         -17.7900  -55.4120   -2.3600 C.2       1 SER         0.2087
     21 O         -16.6410  -55.2300   -2.7650 O.2       1 SER        -0.3941
     22 CB        -19.5050  -55.1310   -4.1740 C.3       1 SER         0.0843
     23 OG        -19.6450  -56.5430   -4.1150 O.3       1 SER        -0.3903
     24 N         -18.1000  -56.3850   -1.4800 N.am      1 PRO        -0.2498
     25 CA        -17.0610  -57.3440   -1.1130 C.3       1 PRO         0.1338
     26 C         -16.6710  -58.1660   -2.3390 C.2       1 PRO         0.2042
     27 O         -17.3730  -58.1170   -3.3630 O.2       1 PRO        -0.3944
     28 CB        -17.7490  -58.2220   -0.0670 C.3       1 PRO        -0.0104
     29 CG        -19.2080  -58.1220   -0.4090 C.3       1 PRO        -0.0281
     30 CD        -19.3750  -56.6820   -0.8010 C.3       1 PRO         0.0369
     31 N         -15.5670  -58.9030   -2.2320 N.am      1 PHE        -0.2619
     32 CA        -15.0160  -59.6770   -3.3350 C.3       1 PHE         0.1406
     33 C         -16.0470  -60.7070   -3.8110 C.2       1 PHE         0.2085
     34 O         -16.5740  -61.4760   -3.0010 O.2       1 PHE        -0.3940
     35 CB        -13.6860  -60.3360   -2.9100 C.3       1 PHE         0.0214
     36 CG        -12.8980  -60.9110   -4.0500 C.ar      1 PHE        -0.0386
     37 CD1       -12.2510  -60.0820   -4.9600 C.ar      1 PHE        -0.0601
     38 CD2       -12.7870  -62.2850   -4.2040 C.ar      1 PHE        -0.0601
     39 CE1       -11.5280  -60.6190   -6.0190 C.ar      1 PHE        -0.0686
     40 CE2       -12.0680  -62.8350   -5.2620 C.ar      1 PHE        -0.0686
     41 CZ        -11.4300  -61.9970   -6.1710 C.ar      1 PHE        -0.0687
     42 N         -16.3700  -60.6970   -5.1170 N.am      1 PRO        -0.2497
     43 CA        -17.4000  -61.5840   -5.6900 C.3       1 PRO         0.1338
     44 C         -16.9630  -63.0600   -5.8330 C.2       1 PRO         0.2042
     45 O         -15.7680  -63.3440   -5.9370 O.2       1 PRO        -0.3944
     46 CB        -17.6630  -60.9620   -7.0660 C.3       1 PRO        -0.0104
     47 CG        -16.3840  -60.2980   -7.4220 C.3       1 PRO        -0.0281
     48 CD        -15.7570  -59.8220   -6.1360 C.3       1 PRO         0.0369
     49 N         -17.9430  -63.9720   -5.8420 N.am      1 PHE        -0.2619
     50 CA        -17.7140  -65.4150   -5.9940 C.3       1 PHE         0.1404
     51 C         -17.2880  -65.7770   -7.4230 C.2       1 PHE         0.2060
     52 O         -17.5180  -65.0040   -8.3340 O.2       1 PHE        -0.3942
     53 CB        -18.9810  -66.1900   -5.6260 C.3       1 PHE         0.0214
     54 CG        -19.3280  -66.1580   -4.1550 C.ar      1 PHE        -0.0386
     55 CD1       -20.1660  -67.1250   -3.6170 C.ar      1 PHE        -0.0601
     56 CD2       -18.8050  -65.1880   -3.3030 C.ar      1 PHE        -0.0601
     57 CE1       -20.4950  -67.1170   -2.2730 C.ar      1 PHE        -0.0686
     58 CE2       -19.1330  -65.1870   -1.9540 C.ar      1 PHE        -0.0686
     59 CZ        -19.9860  -66.1540   -1.4430 C.ar      1 PHE        -0.0687
     60 N         -16.6810  -66.9490   -7.6160 N.am      1 ASP        -0.2620
     61 CA        -16.2530  -67.4020   -8.9410 C.3       1 ASP         0.1423
     62 C         -17.4590  -67.5840   -9.8610 C.2       1 ASP         0.2057
     63 O         -18.5210  -68.0180   -9.4230 O.2       1 ASP        -0.3943
     64 CB        -15.5540  -68.7650   -8.8580 C.3       1 ASP         0.0406
     65 CG        -14.3090  -68.7680   -7.9850 C.2       1 ASP         0.0393
     66 OD1       -13.8920  -67.7010   -7.4680 O.co2     1 ASP        -0.5688
     67 OD2       -13.7520  -69.8850   -7.8110 O.co2     1 ASP        -0.5688
     68 N         -17.2710  -67.2980  -11.1430 N.am      1 LEU        -0.2623
     69 CA        -18.3320  -67.4320  -12.1390 C.3       1 LEU         0.1422
     70 C         -18.6340  -68.9010  -12.4490 C.2       1 LEU         0.2571
     71 O         -17.7310  -69.7400  -12.3910 O.2       1 LEU        -0.3680
     72 CB        -17.9240  -66.6920  -13.4120 C.3       1 LEU        -0.0087
     73 CG        -18.8080  -65.5560  -13.9080 C.3       1 LEU        -0.0424
     74 CD1       -19.3430  -64.7240  -12.7580 C.3       1 LEU        -0.0624
     75 CD2       -18.0390  -64.7010  -14.9030 C.3       1 LEU        -0.0624
     76 O1        -19.8675  -69.2719  -12.7802 O.3       1 LEU        -0.2910
     77 H1        -16.2609  -46.7312    0.7308 H         1 GLN         0.2015
     78 H2        -17.7392  -46.8013    0.0103 H         1 GLN         0.2015
     79 H3        -16.3742  -46.9719   -0.8936 H         1 GLN         0.2015
     80 H4        -15.7959  -48.9931    0.1555 H         1 GLN         0.1100
     81 H5        -17.5297  -50.0543    1.6676 H         1 GLN         0.0370
     82 H6        -18.2713  -48.4224    1.7852 H         1 GLN         0.0370
     83 H7        -16.7646  -49.0085    3.6797 H         1 GLN         0.0506
     84 H8        -16.2954  -47.5180    2.7937 H         1 GLN         0.0506
     85 H9        -13.7230  -50.5951    3.2343 H         1 GLN         0.1814
     86 H10       -15.2684  -50.5295    4.0138 H         1 GLN         0.1814
     87 H11       -15.9096  -50.3485   -1.3056 H         1 LEU         0.1884
     88 H12       -18.1811  -50.5203   -3.1352 H         1 LEU         0.0800
     89 H13       -16.4827  -52.1223   -4.2762 H         1 LEU         0.0315
     90 H14       -15.3159  -51.4783   -3.0718 H         1 LEU         0.0315
     91 H15       -16.2988  -50.3596   -5.5789 H         1 LEU         0.0298
     92 H16       -16.2920  -47.9809   -4.9275 H         1 LEU         0.0232
     93 H17       -16.2531  -48.4652   -3.1982 H         1 LEU         0.0232
     94 H18       -17.6682  -48.8922   -4.2189 H         1 LEU         0.0232
     95 H19       -13.9345  -50.8551   -5.0337 H         1 LEU         0.0232
     96 H20       -13.9629  -49.5397   -3.8108 H         1 LEU         0.0232
     97 H21       -14.2024  -49.1554   -5.5491 H         1 LEU         0.0232
     98 H22       -18.4960  -52.8237   -4.0658 H         1 SER         0.1884
     99 H23       -19.7268  -54.4905   -2.1208 H         1 SER         0.0823
    100 H24       -18.8305  -54.8794   -5.0057 H         1 SER         0.0606
    101 H25       -20.4947  -54.6873   -4.3574 H         1 SER         0.0606
    102 H26       -18.7944  -56.9384   -3.9645 H         1 SER         0.2097
    103 H27       -16.1752  -56.8427   -0.6957 H         1 PRO         0.0802
    104 H28       -17.5587  -57.8426    0.9478 H         1 PRO         0.0313
    105 H29       -17.4010  -59.2629   -0.1406 H         1 PRO         0.0313
    106 H30       -19.4630  -58.7898   -1.2451 H         1 PRO         0.0287
    107 H31       -19.8341  -58.3683    0.4612 H         1 PRO         0.0287
    108 H32       -20.2281  -56.5523   -1.4832 H         1 PRO         0.0524
    109 H33       -19.5124  -56.0428    0.0836 H         1 PRO         0.0524
    110 H34       -15.0936  -58.9259   -1.3514 H         1 PHE         0.1885
    111 H35       -14.8053  -58.9933   -4.1705 H         1 PHE         0.0823
    112 H36       -13.9125  -61.1471   -2.2023 H         1 PHE         0.0474
    113 H37       -13.0673  -59.5758   -2.4107 H         1 PHE         0.0474
    114 H38       -12.3111  -59.0061   -4.8424 H         1 PHE         0.0557
    115 H39       -13.2682  -62.9419   -3.4885 H         1 PHE         0.0557
    116 H40       -11.0392  -59.9610   -6.7283 H         1 PHE         0.0599
    117 H41       -12.0056  -63.9111   -5.3769 H         1 PHE         0.0599
    118 H42       -10.8602  -62.4161   -6.9924 H         1 PHE         0.0559
    119 H43       -18.3080  -61.5503   -5.0701 H         1 PRO         0.0802
    120 H44       -18.4805  -60.2280   -7.0115 H         1 PRO         0.0313
    121 H45       -17.9162  -61.7389   -7.8023 H         1 PRO         0.0313
    122 H46       -15.7159  -61.0121   -7.9256 H         1 PRO         0.0287
    123 H47       -16.5754  -59.4431   -8.0872 H         1 PRO         0.0287
    124 H48       -14.6646  -59.9490   -6.1593 H         1 PRO         0.0524
    125 H49       -15.9994  -58.7659   -5.9464 H         1 PRO         0.0524
    126 H50       -18.8850  -63.6526   -5.7394 H         1 PHE         0.1885
    127 H51       -16.9076  -65.7103   -5.3066 H         1 PHE         0.0823
    128 H52       -18.8408  -67.2397   -5.9235 H         1 PHE         0.0474
    129 H53       -19.8231  -65.7591   -6.1874 H         1 PHE         0.0474
    130 H54       -20.5692  -67.8989   -4.2601 H         1 PHE         0.0557
    131 H55       -18.1378  -64.4293   -3.6957 H         1 PHE         0.0557
    132 H56       -21.1586  -67.8764   -1.8754 H         1 PHE         0.0599
    133 H57       -18.7213  -64.4284   -1.2982 H         1 PHE         0.0599
    134 H58       -20.2486  -66.1475   -0.3913 H         1 PHE         0.0559
    135 H59       -16.5121  -67.5398   -6.8270 H         1 ASP         0.1884
    136 H60       -15.5658  -66.6573   -9.3690 H         1 ASP         0.0819
    137 H61       -15.2643  -69.0680   -9.8750 H         1 ASP         0.0478
    138 H62       -16.2667  -69.4951   -8.4469 H         1 ASP         0.0478
    139 H63       -16.3704  -66.9791  -11.4384 H         1 LEU         0.1885
    140 H64       -19.2463  -66.9693  -11.7390 H         1 LEU         0.0816
    141 H65       -17.8715  -67.4382  -14.2185 H         1 LEU         0.0316
    142 H66       -16.9230  -66.2712  -13.2361 H         1 LEU         0.0316
    143 H67       -19.6690  -65.9974  -14.4313 H         1 LEU         0.0298
    144 H68       -19.9753  -63.9155  -13.1535 H         1 LEU         0.0232
    145 H69       -18.5021  -64.2906  -12.1967 H         1 LEU         0.0232
    146 H70       -19.9396  -65.3625  -12.0899 H         1 LEU         0.0232
    147 H71       -17.6668  -65.3355  -15.7209 H         1 LEU         0.0232
    148 H72       -17.1892  -64.2219  -14.3949 H         1 LEU         0.0232
    149 H73       -18.7047  -63.9273  -15.3131 H         1 LEU         0.0232
    150 H74       -19.8583  -69.6598  -13.6473 H         1 LEU         0.2540
@<TRIPOS>BOND
     1    2    1 1  
     2    2    5 1  
     3    3    2 1  
     4    3    4 2  
     5    5    6 1  
     6    6    7 1  
     7    7    9 am 
     8    7    8 2  
     9   11   10 1  
    10   11   14 1  
    11   12   11 1  
    12   12   13 2  
    13   14   15 1  
    14   15   16 1  
    15   15   17 1  
    16   10    3 am 
    17   19   18 1  
    18   19   22 1  
    19   20   19 1  
    20   20   21 2  
    21   22   23 1  
    22   18   12 am 
    23   26   25 1  
    24   25   28 1  
    25   25   24 1  
    26   24   30 1  
    27   30   29 1  
    28   28   29 1  
    29   26   27 2  
    30   24   20 am 
    31   32   31 1  
    32   32   35 1  
    33   33   32 1  
    34   33   34 2  
    35   35   36 1  
    36   36   37 ar 
    37   36   38 ar 
    38   38   40 ar 
    39   40   41 ar 
    40   39   41 ar 
    41   37   39 ar 
    42   31   26 am 
    43   44   43 1  
    44   43   46 1  
    45   43   42 1  
    46   42   48 1  
    47   48   47 1  
    48   46   47 1  
    49   44   45 2  
    50   42   33 am 
    51   50   49 1  
    52   50   53 1  
    53   51   50 1  
    54   51   52 2  
    55   53   54 1  
    56   54   55 ar 
    57   54   56 ar 
    58   56   58 ar 
    59   58   59 ar 
    60   57   59 ar 
    61   55   57 ar 
    62   49   44 am 
    63   61   60 1  
    64   61   64 1  
    65   62   61 1  
    66   62   63 2  
    67   64   65 1  
    68   65   66 ar 
    69   65   67 ar 
    70   60   51 am 
    71   68   69 1  
    72   69   72 1  
    73   69   70 1  
    74   70   71 2  
    75   72   73 1  
    76   73   74 1  
    77   73   75 1  
    78   62   68 am 
    79   70   76 1  
    80    1   77 1  
    81    1   78 1  
    82    1   79 1  
    83    2   80 1  
    84    5   81 1  
    85    5   82 1  
    86    6   83 1  
    87    6   84 1  
    88    9   85 1  
    89    9   86 1  
    90   10   87 1  
    91   11   88 1  
    92   14   89 1  
    93   14   90 1  
    94   15   91 1  
    95   16   92 1  
    96   16   93 1  
    97   16   94 1  
    98   17   95 1  
    99   17   96 1  
   100   17   97 1  
   101   18   98 1  
   102   19   99 1  
   103   22  100 1  
   104   22  101 1  
   105   23  102 1  
   106   25  103 1  
   107   28  104 1  
   108   28  105 1  
   109   29  106 1  
   110   29  107 1  
   111   30  108 1  
   112   30  109 1  
   113   31  110 1  
   114   32  111 1  
   115   35  112 1  
   116   35  113 1  
   117   37  114 1  
   118   38  115 1  
   119   39  116 1  
   120   40  117 1  
   121   41  118 1  
   122   43  119 1  
   123   46  120 1  
   124   46  121 1  
   125   47  122 1  
   126   47  123 1  
   127   48  124 1  
   128   48  125 1  
   129   49  126 1  
   130   50  127 1  
   131   53  128 1  
   132   53  129 1  
   133   55  130 1  
   134   56  131 1  
   135   57  132 1  
   136   58  133 1  
   137   59  134 1  
   138   60  135 1  
   139   61  136 1  
   140   64  137 1  
   141   64  138 1  
   142   68  139 1  
   143   69  140 1  
   144   72  141 1  
   145   72  142 1  
   146   73  143 1  
   147   74  144 1  
   148   74  145 1  
   149   74  146 1  
   150   75  147 1  
   151   75  148 1  
   152   75  149 1  
   153   76  150 1  
@<TRIPOS>SUBSTRUCTURE
     1 GLN         1

