2oi9_ligand
  -I-interpret- 

151154  0  0  0  0  0  0  0  0999 V2000
  -16.8000  -47.1670   -0.0010 N   0  3  0  0  0
  -16.8380  -48.6470    0.2210 C   0  0  0  0  0
  -17.6270  -49.4550   -0.8180 C   0  0  0  0  0
  -18.8480  -49.3650   -0.9300 O   0  0  0  0  0
  -17.3340  -48.9730    1.6170 C   0  0  0  0  0
  -16.3670  -48.6140    2.7330 C   0  0  0  0  0
  -14.9900  -49.1700    2.5270 C   0  0  0  0  0
  -14.2420  -48.6860    1.6680 O   0  0  0  0  0
  -14.6300  -50.1840    3.3260 N   0  0  0  0  0
  -16.8790  -50.2750   -1.5400 N   0  0  0  0  0
  -17.3660  -51.0710   -2.6430 C   0  0  0  0  0
  -17.9200  -52.4140   -2.1840 C   0  0  0  0  0
  -17.9060  -52.7310   -0.9940 O   0  0  0  0  0
  -16.2270  -51.2570   -3.6470 C   0  0  0  0  0
  -15.9000  -50.0820   -4.5920 C   0  0  0  0  0
  -16.5760  -48.7620   -4.2070 C   0  0  0  0  0
  -14.3950  -49.8950   -4.7580 C   0  0  0  0  0
  -18.4400  -53.1850   -3.1350 N   0  0  0  0  0
  -18.9320  -54.5340   -2.8800 C   0  0  0  0  0
  -17.7900  -55.4120   -2.3600 C   0  0  0  0  0
  -16.6410  -55.2300   -2.7650 O   0  0  0  0  0
  -19.5050  -55.1310   -4.1740 C   0  0  0  0  0
  -19.6450  -56.5430   -4.1150 O   0  0  0  0  0
  -18.1000  -56.3850   -1.4800 N   0  0  0  0  0
  -17.0610  -57.3440   -1.1130 C   0  0  0  0  0
  -16.6710  -58.1660   -2.3390 C   0  0  0  0  0
  -17.3730  -58.1170   -3.3630 O   0  0  0  0  0
  -17.7490  -58.2220   -0.0670 C   0  0  0  0  0
  -19.2080  -58.1220   -0.4090 C   0  0  0  0  0
  -19.3750  -56.6820   -0.8010 C   0  0  0  0  0
  -15.5670  -58.9030   -2.2320 N   0  0  0  0  0
  -15.0160  -59.6770   -3.3350 C   0  0  0  0  0
  -16.0470  -60.7070   -3.8110 C   0  0  0  0  0
  -16.5740  -61.4760   -3.0010 O   0  0  0  0  0
  -13.6860  -60.3360   -2.9100 C   0  0  0  0  0
  -12.8980  -60.9110   -4.0500 C   0  0  0  0  0
  -12.2510  -60.0820   -4.9600 C   0  0  0  0  0
  -12.7870  -62.2850   -4.2040 C   0  0  0  0  0
  -11.5280  -60.6190   -6.0190 C   0  0  0  0  0
  -12.0680  -62.8350   -5.2620 C   0  0  0  0  0
  -11.4300  -61.9970   -6.1710 C   0  0  0  0  0
  -16.3700  -60.6970   -5.1170 N   0  0  0  0  0
  -17.4000  -61.5840   -5.6900 C   0  0  0  0  0
  -16.9630  -63.0600   -5.8330 C   0  0  0  0  0
  -15.7680  -63.3440   -5.9370 O   0  0  0  0  0
  -17.6630  -60.9620   -7.0660 C   0  0  0  0  0
  -16.3840  -60.2980   -7.4220 C   0  0  0  0  0
  -15.7570  -59.8220   -6.1360 C   0  0  0  0  0
  -17.9430  -63.9720   -5.8420 N   0  0  0  0  0
  -17.7140  -65.4150   -5.9940 C   0  0  0  0  0
  -17.2880  -65.7770   -7.4230 C   0  0  0  0  0
  -17.5180  -65.0040   -8.3340 O   0  0  0  0  0
  -18.9810  -66.1900   -5.6260 C   0  0  0  0  0
  -19.3280  -66.1580   -4.1550 C   0  0  0  0  0
  -20.1660  -67.1250   -3.6170 C   0  0  0  0  0
  -18.8050  -65.1880   -3.3030 C   0  0  0  0  0
  -20.4950  -67.1170   -2.2730 C   0  0  0  0  0
  -19.1330  -65.1870   -1.9540 C   0  0  0  0  0
  -19.9860  -66.1540   -1.4430 C   0  0  0  0  0
  -16.6810  -66.9490   -7.6160 N   0  0  0  0  0
  -16.2530  -67.4020   -8.9410 C   0  0  0  0  0
  -17.4590  -67.5840   -9.8610 C   0  0  0  0  0
  -18.5210  -68.0180   -9.4230 O   0  0  0  0  0
  -15.5540  -68.7650   -8.8580 C   0  0  0  0  0
  -14.3090  -68.7680   -7.9850 C   0  0  0  0  0
  -13.8920  -67.7010   -7.4680 O   0  0  0  0  0
  -13.7520  -69.8850   -7.8110 O   0  0  0  0  0
  -17.2710  -67.2980  -11.1430 N   0  0  0  0  0
  -18.3320  -67.4320  -12.1390 C   0  0  0  0  0
  -18.6340  -68.9010  -12.4490 C   0  0  0  0  0
  -17.7310  -69.7400  -12.3910 O   0  0  0  0  0
  -17.9240  -66.6920  -13.4120 C   0  0  0  0  0
  -18.8080  -65.5560  -13.9080 C   0  0  0  0  0
  -19.3430  -64.7240  -12.7580 C   0  0  0  0  0
  -18.0390  -64.7010  -14.9030 C   0  0  0  0  0
  -19.8675  -69.2719  -12.7802 O   0  0  0  0  0
  -16.2543  -46.7271    0.7401 H   0  0  0  0  0
  -16.3690  -46.9709   -0.9044 H   0  0  0  0  0
  -17.7509  -46.7981    0.0106 H   0  0  0  0  0
  -15.8012  -48.9611    0.1004 H   0  0  0  0  0
  -17.4802  -50.0524    1.6583 H   0  0  0  0  0
  -18.2377  -48.3854    1.7784 H   0  0  0  0  0
  -16.7587  -49.0387    3.6573 H   0  0  0  0  0
  -16.2829  -47.5276    2.7589 H   0  0  0  0  0
  -13.6999  -50.5942    3.2419 H   0  0  0  0  0
  -15.2861  -50.5456    4.0182 H   0  0  0  0  0
  -15.8903  -50.3499   -1.3009 H   0  0  0  0  0
  -18.1971  -50.5477   -3.1157 H   0  0  0  0  0
  -16.5431  -52.0730   -4.2969 H   0  0  0  0  0
  -15.3303  -51.4036   -3.0449 H   0  0  0  0  0
  -16.3251  -50.3658   -5.5547 H   0  0  0  0  0
  -17.6581  -48.8924   -4.2191 H   0  0  0  0  0
  -16.2552  -48.4690   -3.2073 H   0  0  0  0  0
  -16.2939  -47.9888   -4.9216 H   0  0  0  0  0
  -13.9462  -49.6901   -3.7860 H   0  0  0  0  0
  -13.9612  -50.8035   -5.1757 H   0  0  0  0  0
  -14.2061  -49.0582   -5.4305 H   0  0  0  0  0
  -18.4972  -52.8165   -4.0844 H   0  0  0  0  0
  -19.7199  -54.4930   -2.1279 H   0  0  0  0  0
  -18.8133  -54.8981   -4.9835 H   0  0  0  0  0
  -20.4959  -54.7038   -4.3280 H   0  0  0  0  0
  -20.0054  -56.8627   -4.9454 H   0  0  0  0  0
  -16.1465  -56.8835   -0.7392 H   0  0  0  0  0
  -17.5402  -57.8918    0.9506 H   0  0  0  0  0
  -17.3893  -59.2507   -0.0908 H   0  0  0  0  0
  -19.5002  -58.8090   -1.2032 H   0  0  0  0  0
  -19.8535  -58.4077    0.4216 H   0  0  0  0  0
  -20.2456  -56.5103   -1.4340 H   0  0  0  0  0
  -19.5680  -56.0280    0.0493 H   0  0  0  0  0
  -15.0841  -58.9263   -1.3338 H   0  0  0  0  0
  -14.7957  -59.0180   -4.1748 H   0  0  0  0  0
  -13.9329  -61.1594   -2.2398 H   0  0  0  0  0
  -13.0726  -59.5601   -2.4519 H   0  0  0  0  0
  -12.3114  -59.0001   -4.8417 H   0  0  0  0  0
  -13.2709  -62.9455   -3.4845 H   0  0  0  0  0
  -11.0365  -59.9573   -6.7323 H   0  0  0  0  0
  -12.0053  -63.9170   -5.3775 H   0  0  0  0  0
  -10.8570  -62.4184   -6.9970 H   0  0  0  0  0
  -18.2735  -61.6405   -5.0405 H   0  0  0  0  0
  -18.4967  -60.2601   -7.0453 H   0  0  0  0  0
  -17.9555  -61.7091   -7.8038 H   0  0  0  0  0
  -15.7214  -60.9924   -7.9386 H   0  0  0  0  0
  -16.5607  -59.4602   -8.0965 H   0  0  0  0  0
  -14.6692  -59.8897   -6.1486 H   0  0  0  0  0
  -15.9390  -58.7642   -5.9461 H   0  0  0  0  0
  -18.9039  -63.6462   -5.7373 H   0  0  0  0  0
  -16.9031  -65.6905   -5.3197 H   0  0  0  0  0
  -18.8061  -67.2328   -5.8906 H   0  0  0  0  0
  -19.8083  -65.7223   -6.1599 H   0  0  0  0  0
  -20.5714  -67.9032   -4.2637 H   0  0  0  0  0
  -18.1341  -64.4251   -3.6979 H   0  0  0  0  0
  -21.1622  -67.8806   -1.8732 H   0  0  0  0  0
  -18.7190  -64.4242   -1.2946 H   0  0  0  0  0
  -20.2500  -66.1475   -0.3855 H   0  0  0  0  0
  -16.5087  -67.5516   -6.8113 H   0  0  0  0  0
  -15.5729  -66.6435   -9.3286 H   0  0  0  0  0
  -15.2419  -69.0309   -9.8680 H   0  0  0  0  0
  -16.2619  -69.4655   -8.4149 H   0  0  0  0  0
  -14.2334  -70.5602   -8.2947 H   0  0  0  0  0
  -16.3524  -66.9727  -11.4443 H   0  0  0  0  0
  -19.2436  -66.9930  -11.7335 H   0  0  0  0  0
  -17.9568  -67.4434  -14.2009 H   0  0  0  0  0
  -16.9673  -66.2260  -13.1761 H   0  0  0  0  0
  -19.6725  -65.9856  -14.4142 H   0  0  0  0  0
  -19.9339  -65.3578  -12.0968 H   0  0  0  0  0
  -18.5089  -64.2952  -12.2026 H   0  0  0  0  0
  -19.9694  -63.9232  -13.1512 H   0  0  0  0  0
  -17.1562  -64.2855  -14.4170 H   0  0  0  0  0
  -17.7337  -65.3165  -15.7492 H   0  0  0  0  0
  -18.6778  -63.8903  -15.2535 H   0  0  0  0  0
  -20.4429  -68.5034  -12.7783 H   0  0  0  0  0
  2  1  1  0  0  0
  2  5  1  0  0  0
  3  2  1  0  0  0
  3  4  2  0  0  0
  5  6  1  0  0  0
  6  7  1  0  0  0
  7  9  1  0  0  0
  7  8  2  0  0  0
 11 10  1  0  0  0
 11 14  1  0  0  0
 12 11  1  0  0  0
 12 13  2  0  0  0
 14 15  1  0  0  0
 15 16  1  0  0  0
 15 17  1  0  0  0
 10  3  1  0  0  0
 19 18  1  0  0  0
 19 22  1  0  0  0
 20 19  1  0  0  0
 20 21  2  0  0  0
 22 23  1  0  0  0
 18 12  1  0  0  0
 26 25  1  0  0  0
 25 28  1  0  0  0
 25 24  1  0  0  0
 24 30  1  0  0  0
 30 29  1  0  0  0
 28 29  1  0  0  0
 26 27  2  0  0  0
 24 20  1  0  0  0
 32 31  1  0  0  0
 32 35  1  0  0  0
 33 32  1  0  0  0
 33 34  2  0  0  0
 35 36  1  0  0  0
 36 37  4  0  0  0
 36 38  4  0  0  0
 38 40  4  0  0  0
 40 41  4  0  0  0
 39 41  4  0  0  0
 37 39  4  0  0  0
 31 26  1  0  0  0
 44 43  1  0  0  0
 43 46  1  0  0  0
 43 42  1  0  0  0
 42 48  1  0  0  0
 48 47  1  0  0  0
 46 47  1  0  0  0
 44 45  2  0  0  0
 42 33  1  0  0  0
 50 49  1  0  0  0
 50 53  1  0  0  0
 51 50  1  0  0  0
 51 52  2  0  0  0
 53 54  1  0  0  0
 54 55  4  0  0  0
 54 56  4  0  0  0
 56 58  4  0  0  0
 58 59  4  0  0  0
 57 59  4  0  0  0
 55 57  4  0  0  0
 49 44  1  0  0  0
 61 60  1  0  0  0
 61 64  1  0  0  0
 62 61  1  0  0  0
 62 63  2  0  0  0
 64 65  1  0  0  0
 65 66  2  0  0  0
 65 67  1  0  0  0
 60 51  1  0  0  0
 68 69  1  0  0  0
 69 72  1  0  0  0
 69 70  1  0  0  0
 70 71  2  0  0  0
 72 73  1  0  0  0
 73 74  1  0  0  0
 73 75  1  0  0  0
 62 68  1  0  0  0
 70 76  1  0  0  0
  1 77  1  0  0  0
  1 78  1  0  0  0
  1 79  1  0  0  0
  2 80  1  0  0  0
  5 81  1  0  0  0
  5 82  1  0  0  0
  6 83  1  0  0  0
  6 84  1  0  0  0
  9 85  1  0  0  0
  9 86  1  0  0  0
 10 87  1  0  0  0
 11 88  1  0  0  0
 14 89  1  0  0  0
 14 90  1  0  0  0
 15 91  1  0  0  0
 16 92  1  0  0  0
 16 93  1  0  0  0
 16 94  1  0  0  0
 17 95  1  0  0  0
 17 96  1  0  0  0
 17 97  1  0  0  0
 18 98  1  0  0  0
 19 99  1  0  0  0
 22100  1  0  0  0
 22101  1  0  0  0
 23102  1  0  0  0
 25103  1  0  0  0
 28104  1  0  0  0
 28105  1  0  0  0
 29106  1  0  0  0
 29107  1  0  0  0
 30108  1  0  0  0
 30109  1  0  0  0
 31110  1  0  0  0
 32111  1  0  0  0
 35112  1  0  0  0
 35113  1  0  0  0
 37114  1  0  0  0
 38115  1  0  0  0
 39116  1  0  0  0
 40117  1  0  0  0
 41118  1  0  0  0
 43119  1  0  0  0
 46120  1  0  0  0
 46121  1  0  0  0
 47122  1  0  0  0
 47123  1  0  0  0
 48124  1  0  0  0
 48125  1  0  0  0
 49126  1  0  0  0
 50127  1  0  0  0
 53128  1  0  0  0
 53129  1  0  0  0
 55130  1  0  0  0
 56131  1  0  0  0
 57132  1  0  0  0
 58133  1  0  0  0
 59134  1  0  0  0
 60135  1  0  0  0
 61136  1  0  0  0
 64137  1  0  0  0
 64138  1  0  0  0
 67139  1  0  0  0
 68140  1  0  0  0
 69141  1  0  0  0
 72142  1  0  0  0
 72143  1  0  0  0
 73144  1  0  0  0
 74145  1  0  0  0
 74146  1  0  0  0
 74147  1  0  0  0
 75148  1  0  0  0
 75149  1  0  0  0
 75150  1  0  0  0
 76151  1  0  0  0
M  END
$$$$
