2pgl_ligand
  -I-interpret- 

 53 57  0  0  0  0  0  0  0  0999 V2000
    5.5760    3.7310    3.4880 O   0  0  0  0  0
    4.1500    4.3030    3.5420 P   0  0  0  0  0
    3.6050    4.2030    5.0570 O   0  0  0  0  0
    3.8040    5.6690    3.0020 O   0  0  0  0  0
    3.1920    3.3220    2.6770 O   0  0  0  0  0
    1.7740    3.5160    2.6980 C   0  0  0  0  0
    1.2420    3.7840    1.2900 C   0  0  0  0  0
   -0.2640    3.6200    1.2640 C   0  0  0  0  0
   -0.7840    4.7760    0.5950 O   0  0  0  0  0
   -0.5340    2.2960    0.5380 C   0  0  0  0  0
   -1.4020    2.5430   -0.5810 O   0  0  0  0  0
    1.7160    2.8480    0.3010 O   0  0  0  0  0
    0.8410    1.7220    0.1420 C   0  0  0  0  0
    1.3430    0.6900    1.0840 N   0  0  0  0  0
    0.4940   -0.3080    1.6170 C   0  0  0  0  0
   -0.7100   -0.3670    1.2880 O   0  0  0  0  0
    1.0600   -1.2980    2.5830 C   0  0  0  0  0
    0.5350   -2.3430    3.2640 N   0  0  0  0  0
    1.5210   -2.8800    4.0050 C   0  0  0  0  0
    2.6400    0.6870    1.4810 C   0  0  0  0  0
    3.1540   -0.2050    2.3600 N   0  0  0  0  0
    2.3970   -1.1960    2.9250 C   0  0  0  0  0
    2.6470   -2.1990    3.7890 N   0  0  0  0  0
    3.9190   -2.5280    4.4730 C   0  0  0  0  0
    4.0050   -1.5980    5.5650 O   0  0  0  0  0
    5.1480   -2.3210    3.5970 C   0  0  0  0  0
    6.1030   -3.3590    3.8890 O   0  0  0  0  0
    5.6390   -0.9990    4.0860 C   0  0  0  0  0
    6.6210   -0.3010    3.5280 O   0  0  0  0  0
    4.9600   -0.5980    5.1400 C   0  0  0  0  0
    5.1360    0.7410    5.8220 C   0  0  0  0  0
    4.2120    1.7470    5.3720 O   0  0  0  0  0
    4.3130    3.1960    6.1010 P   0  0  0  0  0
    5.7890    3.5620    6.1960 O   0  0  0  0  0
    3.4400    3.1630    7.3300 O   0  0  0  0  0
    5.5834    2.8552    3.8811 H   0  0  0  0  0
    1.5460    4.3748    3.3293 H   0  0  0  0  0
    1.3015    2.6139    3.0865 H   0  0  0  0  0
    1.5847    4.7916    1.0546 H   0  0  0  0  0
   -0.7455    3.5654    2.2403 H   0  0  0  0  0
   -1.7413    4.7169    0.5539 H   0  0  0  0  0
   -1.0475    1.5627    1.1599 H   0  0  0  0  0
   -1.5744    1.7172   -1.0392 H   0  0  0  0  0
    0.7857    1.2663   -0.8466 H   0  0  0  0  0
    1.4164   -3.7341    4.6741 H   0  0  0  0  0
    3.3058    1.4454    1.0691 H   0  0  0  0  0
    3.9108   -3.5788    4.7624 H   0  0  0  0  0
    4.9679   -2.3494    2.5223 H   0  0  0  0  0
    6.8825   -3.2382    3.3419 H   0  0  0  0  0
    6.9695   -0.7857    2.7762 H   0  0  0  0  0
    6.1405    1.0948    5.5897 H   0  0  0  0  0
    4.9586    0.5895    6.8867 H   0  0  0  0  0
    6.1822    3.5309    5.3208 H   0  0  0  0  0
  1  2  1  0  0  0
  2  3  1  0  0  0
  2  4  2  0  0  0
  2  5  1  0  0  0
  3 33  1  0  0  0
  5  6  1  0  0  0
  6  7  1  0  0  0
  7  8  1  0  0  0
  7 12  1  0  0  0
  8  9  1  0  0  0
  8 10  1  0  0  0
 10 11  1  0  0  0
 10 13  1  0  0  0
 12 13  1  0  0  0
 13 14  1  0  0  0
 14 15  1  0  0  0
 14 20  1  0  0  0
 15 16  2  0  0  0
 15 17  1  0  0  0
 17 18  4  0  0  0
 17 22  4  0  0  0
 18 19  4  0  0  0
 19 23  4  0  0  0
 20 21  2  0  0  0
 21 22  1  0  0  0
 22 23  4  0  0  0
 23 24  1  0  0  0
 24 25  1  0  0  0
 24 26  1  0  0  0
 25 30  1  0  0  0
 26 27  1  0  0  0
 26 28  1  0  0  0
 28 29  1  0  0  0
 28 30  2  0  0  0
 30 31  1  0  0  0
 31 32  1  0  0  0
 32 33  1  0  0  0
 33 34  1  0  0  0
 33 35  2  0  0  0
  1 36  1  0  0  0
  6 37  1  0  0  0
  6 38  1  0  0  0
  7 39  1  0  0  0
  8 40  1  0  0  0
  9 41  1  0  0  0
 10 42  1  0  0  0
 11 43  1  0  0  0
 13 44  1  0  0  0
 19 45  1  0  0  0
 20 46  1  0  0  0
 24 47  1  0  0  0
 26 48  1  0  0  0
 27 49  1  0  0  0
 29 50  1  0  0  0
 31 51  1  0  0  0
 31 52  1  0  0  0
 34 53  1  0  0  0
M  END
$$$$
