### 
### Created by X-TOOL on Mon Sep 10 21:12:56 2018
### 

@<TRIPOS>MOLECULE
2pgl_ligand
   51    55     1     0     0
SMALL
GAST_HUCK


@<TRIPOS>ATOM
      1 O1B         5.5760    3.7310    3.4880 O.co2     1 N1C        -0.6127
      2 PB          4.1500    4.3030    3.5420 P.3       1 N1C         0.2972
      3 O3A         3.6050    4.2030    5.0570 O.3       1 N1C        -0.1318
      4 O2B         3.8040    5.6690    3.0020 O.co2     1 N1C        -0.6127
      5 O5D         3.1920    3.3220    2.6770 O.3       1 N1C        -0.2476
      6 C5D         1.7740    3.5160    2.6980 C.3       1 N1C         0.1128
      7 C4D         1.2420    3.7840    1.2900 C.3       1 N1C         0.1190
      8 C3D        -0.2640    3.6200    1.2640 C.3       1 N1C         0.1151
      9 O3D        -0.7840    4.7760    0.5950 O.3       1 N1C        -0.3864
     10 C2D        -0.5340    2.2960    0.5380 C.3       1 N1C         0.1403
     11 O2D        -1.4020    2.5430   -0.5810 O.3       1 N1C        -0.3834
     12 O4D         1.7160    2.8480    0.3010 O.3       1 N1C        -0.3350
     13 C1D         0.8410    1.7220    0.1420 C.3       1 N1C         0.2106
     14 N1          1.3430    0.6900    1.0840 N.am      1 N1C        -0.1598
     15 C6          0.4940   -0.3080    1.6170 C.2       1 N1C         0.2247
     16 O6         -0.7100   -0.3670    1.2880 O.2       1 N1C        -0.4063
     17 C5          1.0600   -1.2980    2.5830 C.2       1 N1C         0.1046
     18 N7          0.5350   -2.3430    3.2640 N.2       1 N1C        -0.3155
     19 C8          1.5210   -2.8800    4.0050 C.2       1 N1C         0.1008
     20 C2          2.6400    0.6870    1.4810 C.2       1 N1C         0.1328
     21 N3          3.1540   -0.2050    2.3600 N.2       1 N1C        -0.2681
     22 C4          2.3970   -1.1960    2.9250 C.2       1 N1C         0.1358
     23 N9          2.6470   -2.1990    3.7890 N.pl3     1 N1C        -0.2005
     24 C1'         3.9190   -2.5280    4.4730 C.3       1 N1C         0.2163
     25 O4'         4.0050   -1.5980    5.5650 O.3       1 N1C        -0.3098
     26 C2'         5.1480   -2.3210    3.5970 C.3       1 N1C         0.1541
     27 O2'         6.1030   -3.3590    3.8890 O.3       1 N1C        -0.3775
     28 C3'         5.6390   -0.9990    4.0860 C.2       1 N1C         0.0948
     29 O3'         6.6210   -0.3010    3.5280 O.3       1 N1C        -0.3619
     30 C4'         4.9600   -0.5980    5.1400 C.2       1 N1C         0.0987
     31 C5'         5.1360    0.7410    5.8220 C.3       1 N1C         0.1248
     32 O5'         4.2120    1.7470    5.3720 O.3       1 N1C        -0.2415
     33 PA          4.3130    3.1960    6.1010 P.3       1 N1C         0.2985
     34 O1A         5.7890    3.5620    6.1960 O.co2     1 N1C        -0.6127
     35 O2A         3.4400    3.1630    7.3300 O.co2     1 N1C        -0.6127
     36 H1          1.5370    4.3752    3.3426 H         1 N1C         0.0648
     37 H2          1.2922    2.6123    3.0996 H         1 N1C         0.0648
     38 H3          1.5232    4.8065    0.9979 H         1 N1C         0.0651
     39 H4         -0.6753    3.5706    2.2830 H         1 N1C         0.0648
     40 H5         -0.4300    4.8168   -0.2857 H         1 N1C         0.2100
     41 H6         -1.0335    1.5905    1.2182 H         1 N1C         0.0678
     42 H7         -2.2208    2.9108   -0.2700 H         1 N1C         0.2101
     43 H8          0.8280    1.3340   -0.8872 H         1 N1C         0.1018
     44 H9          1.4165   -3.7333    4.6735 H         1 N1C         0.1213
     45 H10         3.3052    1.4447    1.0695 H         1 N1C         0.1496
     46 H11         3.8952   -3.5666    4.8344 H         1 N1C         0.1059
     47 H12         4.9058   -2.3040    2.5241 H         1 N1C         0.0765
     48 H13         6.8744   -3.2395    3.3476 H         1 N1C         0.2123
     49 H14         6.7523    0.5040    4.0151 H         1 N1C         0.2342
     50 H15         6.1584    1.0974    5.6280 H         1 N1C         0.0732
     51 H16         4.9958    0.6004    6.9039 H         1 N1C         0.0732
@<TRIPOS>BOND
     1    1    2 ar 
     2    2    3 1  
     3    2    4 ar 
     4    2    5 1  
     5    3   33 1  
     6    5    6 1  
     7    6    7 1  
     8    7    8 1  
     9    7   12 1  
    10    8    9 1  
    11    8   10 1  
    12   10   11 1  
    13   10   13 1  
    14   12   13 1  
    15   13   14 1  
    16   14   15 am 
    17   14   20 1  
    18   15   16 2  
    19   15   17 1  
    20   17   18 1  
    21   17   22 2  
    22   18   19 2  
    23   19   23 1  
    24   20   21 2  
    25   21   22 1  
    26   22   23 1  
    27   23   24 1  
    28   24   25 1  
    29   24   26 1  
    30   25   30 1  
    31   26   27 1  
    32   26   28 1  
    33   28   29 1  
    34   28   30 2  
    35   30   31 1  
    36   31   32 1  
    37   32   33 1  
    38   33   34 ar 
    39   33   35 ar 
    40    6   36 1  
    41    6   37 1  
    42    7   38 1  
    43    8   39 1  
    44    9   40 1  
    45   10   41 1  
    46   11   42 1  
    47   13   43 1  
    48   19   44 1  
    49   20   45 1  
    50   24   46 1  
    51   26   47 1  
    52   27   48 1  
    53   29   49 1  
    54   31   50 1  
    55   31   51 1  
@<TRIPOS>SUBSTRUCTURE
     1 N1C         1

