5l4j_ligand
  -I-interpret- 

 27 28  0  0  0  0  0  0  0  0999 V2000
  -41.4930   -1.3160   68.4570 O   0  0  0  0  0
  -42.3750   -0.2180   68.6590 S   0  0  0  0  0
  -41.9950    1.0670   68.1830 O   0  0  0  0  0
  -43.9080   -0.6500   67.9140 C   0  0  0  0  0
  -44.5200   -1.8930   68.1850 C   0  0  0  0  0
  -45.7370   -2.2060   67.5700 C   0  0  0  0  0
  -46.3320   -1.3120   66.6890 C   0  0  0  0  0
  -47.5260   -1.6200   66.0780 O   0  0  0  0  0
  -45.7260   -0.0910   66.4130 C   0  0  0  0  0
  -44.5140    0.2460   67.0180 C   0  0  0  0  0
  -42.6470   -0.0940   70.3920 C   0  0  0  0  0
  -42.2910    1.0820   71.0780 C   0  0  0  0  0
  -42.5060    1.1670   72.4610 C   0  0  0  0  0
  -43.0630    0.0980   73.1550 C   0  0  0  0  0
  -43.2770    0.1710   74.5120 O   0  0  0  0  0
  -43.4100   -1.0650   72.4780 C   0  0  0  0  0
  -43.1990   -1.1590   71.1040 C   0  0  0  0  0
  -44.0492   -2.6016   68.8664 H   0  0  0  0  0
  -46.2219   -3.1585   67.7838 H   0  0  0  0  0
  -47.7885   -0.8943   65.5070 H   0  0  0  0  0
  -46.1995    0.6058   65.7213 H   0  0  0  0  0
  -44.0393    1.2017   66.7957 H   0  0  0  0  0
  -41.8513    1.9207   70.5382 H   0  0  0  0  0
  -42.2347    2.0771   72.9959 H   0  0  0  0  0
  -43.6649   -0.6520   74.8184 H   0  0  0  0  0
  -43.8468   -1.9029   73.0214 H   0  0  0  0  0
  -43.4684   -2.0756   70.5792 H   0  0  0  0  0
  1  2  2  0  0  0
  2  3  2  0  0  0
  2  4  1  0  0  0
  2 11  1  0  0  0
  4  5  4  0  0  0
  4 10  4  0  0  0
  5  6  4  0  0  0
  6  7  4  0  0  0
  7  8  1  0  0  0
  7  9  4  0  0  0
  9 10  4  0  0  0
 11 12  4  0  0  0
 11 17  4  0  0  0
 12 13  4  0  0  0
 13 14  4  0  0  0
 14 15  1  0  0  0
 14 16  4  0  0  0
 16 17  4  0  0  0
  5 18  1  0  0  0
  6 19  1  0  0  0
  8 20  1  0  0  0
  9 21  1  0  0  0
 10 22  1  0  0  0
 12 23  1  0  0  0
 13 24  1  0  0  0
 15 25  1  0  0  0
 16 26  1  0  0  0
 17 27  1  0  0  0
M  END
$$$$
