3wzn_ligand
  -I-interpret- 

 32 33  0  0  0  0  0  0  0  0999 V2000
    2.5050  -17.5940    0.5180 C   0  0  0  0  0
    3.2150  -18.3450   -0.2270 O   0  0  0  0  0
    1.2720  -17.9390    0.7660 O   0  0  0  0  0
    3.0720  -16.2990    1.0680 C   0  0  0  0  0
    4.4450  -16.4720    1.7530 C   0  0  0  0  0
    4.4990  -17.4910    2.9000 C   0  0  0  0  0
    5.9440  -17.5640    3.3890 C   0  0  0  0  0
    6.0300  -18.4630    4.6300 C   0  0  0  0  0
    5.3050  -17.8350    6.0940 S   0  0  0  0  0
    6.0770  -19.1380    7.1250 C   0  0  0  0  0
    7.4740  -19.2850    6.4940 C   0  0  0  0  0
    8.3710  -18.2920    7.0950 N   0  0  0  0  0
    8.8490  -17.4930    6.1320 C   0  0  0  0  0
    9.5110  -16.3660    6.4070 O   0  0  0  0  0
    8.3830  -17.7250    4.8820 N   0  0  0  0  0
    7.4980  -18.9010    5.0020 C   0  0  0  0  0
    0.8657  -17.2823    1.3363 H   0  0  0  0  0
    2.3747  -15.9282    1.8192 H   0  0  0  0  0
    3.2075  -15.6172    0.2284 H   0  0  0  0  0
    4.6939  -15.5049    2.1898 H   0  0  0  0  0
    5.1269  -16.8377    0.9853 H   0  0  0  0  0
    4.1659  -18.4695    2.5540 H   0  0  0  0  0
    3.8391  -17.1839    3.7114 H   0  0  0  0  0
    6.2879  -16.5621    3.6460 H   0  0  0  0  0
    6.5704  -17.9795    2.5996 H   0  0  0  0  0
    5.4406  -19.3155    4.2926 H   0  0  0  0  0
    5.5111  -20.0696    7.1272 H   0  0  0  0  0
    6.1133  -18.8776    8.1828 H   0  0  0  0  0
    7.7594  -20.3260    6.6457 H   0  0  0  0  0
    8.5949  -18.2213    8.0876 H   0  0  0  0  0
    8.5981  -17.1982    4.0355 H   0  0  0  0  0
    7.8401  -19.7134    4.3609 H   0  0  0  0  0
  1  2  2  0  0  0
  1  3  1  0  0  0
  1  4  1  0  0  0
  4  5  1  0  0  0
  5  6  1  0  0  0
  6  7  1  0  0  0
  7  8  1  0  0  0
  8  9  1  0  0  0
  8 16  1  0  0  0
  9 10  1  0  0  0
 10 11  1  0  0  0
 11 12  1  0  0  0
 11 16  1  0  0  0
 12 13  1  0  0  0
 13 14  2  0  0  0
 13 15  1  0  0  0
 15 16  1  0  0  0
  3 17  1  0  0  0
  4 18  1  0  0  0
  4 19  1  0  0  0
  5 20  1  0  0  0
  5 21  1  0  0  0
  6 22  1  0  0  0
  6 23  1  0  0  0
  7 24  1  0  0  0
  7 25  1  0  0  0
  8 26  1  0  0  0
 10 27  1  0  0  0
 10 28  1  0  0  0
 11 29  1  0  0  0
 12 30  1  0  0  0
 15 31  1  0  0  0
 16 32  1  0  0  0
M  END
$$$$
