5kz0_ligand
  -I-interpret- 

 53 55  0  0  0  0  0  0  0  0999 V2000
   34.7820   46.3750    8.7590 C   0  0  0  0  0
   35.0420   46.2260   10.1360 C   0  0  0  0  0
   29.8660   45.4720    8.3110 C   0  0  0  0  0
   33.4820   44.3360   10.2360 C   0  0  0  0  0
   27.7530   45.9740    9.3150 C   0  0  0  0  0
   29.8210   48.1960    7.0410 C   0  0  0  0  0
   28.7610   46.3710    8.4130 C   0  0  0  0  0
   28.6990   47.6260    7.6270 C   0  0  0  0  0
   33.8620   45.4970    8.1020 C   0  0  0  0  0
   33.1810   44.4440    8.8360 C   0  0  0  0  0
   29.9510   44.2620    9.0600 C   0  0  0  0  0
   34.3930   45.2110   10.8580 C   0  0  0  0  0
   27.6420   48.5510    7.2530 C   0  0  0  0  0
   28.8740   43.9650    9.9370 C   0  0  0  0  0
   33.6870   45.7740    6.6430 C   0  0  0  0  0
   26.1860   48.5440    7.5520 C   0  0  0  0  0
   32.7380   42.0310    8.1530 C   0  0  0  0  0
   30.2590   50.2330    5.6630 C   0  0  0  0  0
   34.3410   45.3810    4.2790 C   0  0  0  0  0
   35.5440   44.0910    5.9940 C   0  0  0  0  0
   32.1670   43.4550    8.2230 C   0  0  0  0  0
   27.7890   44.8160   10.0590 N   0  0  0  0  0
   28.1060   49.5660    6.5170 N   0  0  0  0  0
   29.4190   49.3220    6.4080 N   0  0  0  0  0
   28.8990   42.7810   10.7090 N   0  0  0  0  0
   34.5060   45.0890    5.6990 N   0  0  0  0  0
   32.8260   46.6080    6.3550 O   0  0  0  0  0
   30.9770   43.3300    9.0400 O   0  0  0  0  0
   34.6390   45.0700   12.1560 F   0  0  0  0  0
   35.2826   47.1606    8.1930 H   0  0  0  0  0
   35.7422   46.8941   10.6375 H   0  0  0  0  0
   30.6801   45.7220    7.6306 H   0  0  0  0  0
   32.9956   43.5613   10.8288 H   0  0  0  0  0
   26.8879   46.6269    9.4311 H   0  0  0  0  0
   30.8386   47.8077    7.0832 H   0  0  0  0  0
   25.7382   47.6352    7.1499 H   0  0  0  0  0
   26.0379   48.5767    8.6314 H   0  0  0  0  0
   25.7180   49.4150    7.0932 H   0  0  0  0  0
   33.6361   42.0310    7.5354 H   0  0  0  0  0
   32.9868   41.6909    9.1582 H   0  0  0  0  0
   31.9949   41.3640    7.7159 H   0  0  0  0  0
   31.0271   50.6381    6.3218 H   0  0  0  0  0
   30.7307   49.6984    4.8385 H   0  0  0  0  0
   29.6502   51.0468    5.2691 H   0  0  0  0  0
   33.3199   45.1475    3.9776 H   0  0  0  0  0
   34.5411   46.4376    4.1010 H   0  0  0  0  0
   35.0392   44.7753    3.7013 H   0  0  0  0  0
   36.3099   44.5410    6.6257 H   0  0  0  0  0
   35.0949   43.2440    6.5128 H   0  0  0  0  0
   35.9942   43.7504    5.0616 H   0  0  0  0  0
   31.9431   43.8572    7.2350 H   0  0  0  0  0
   29.6899   42.1411   10.6358 H   0  0  0  0  0
   28.1261   42.5666   11.3392 H   0  0  0  0  0
  1  2  4  0  0  0
  9  1  4  0  0  0
 12  2  4  0  0  0
  3  7  4  0  0  0
 11  3  4  0  0  0
 10  4  4  0  0  0
  4 12  4  0  0  0
  7  5  4  0  0  0
 22  5  4  0  0  0
  8  6  4  0  0  0
  6 24  4  0  0  0
  7  8  1  0  0  0
  8 13  4  0  0  0
 10  9  4  0  0  0
  9 15  1  0  0  0
 21 10  1  0  0  0
 11 14  4  0  0  0
 28 11  1  0  0  0
 12 29  1  0  0  0
 13 16  1  0  0  0
 13 23  4  0  0  0
 14 22  4  0  0  0
 14 25  1  0  0  0
 15 26  1  0  0  0
 15 27  2  0  0  0
 21 17  1  0  0  0
 24 18  1  0  0  0
 26 19  1  0  0  0
 26 20  1  0  0  0
 21 28  1  0  0  0
 23 24  4  0  0  0
  1 30  1  0  0  0
  2 31  1  0  0  0
  3 32  1  0  0  0
  4 33  1  0  0  0
  5 34  1  0  0  0
  6 35  1  0  0  0
 16 36  1  0  0  0
 16 37  1  0  0  0
 16 38  1  0  0  0
 17 39  1  0  0  0
 17 40  1  0  0  0
 17 41  1  0  0  0
 18 42  1  0  0  0
 18 43  1  0  0  0
 18 44  1  0  0  0
 19 45  1  0  0  0
 19 46  1  0  0  0
 19 47  1  0  0  0
 20 48  1  0  0  0
 20 49  1  0  0  0
 20 50  1  0  0  0
 21 51  1  0  0  0
 25 52  1  0  0  0
 25 53  1  0  0  0
M  END
$$$$
