6do4_ligand
  -I-interpret- 

 61 61  0  0  0  0  0  0  0  0999 V2000
  181.9720    4.7050   98.5200 N   0  3  0  0  0
  180.9850    3.7770   97.9810 C   0  0  0  0  0
  179.9390    3.2910   98.9860 C   0  0  0  0  0
  179.3140    4.0970   99.6830 O   0  0  0  0  0
  179.7250    1.9700   99.0400 N   0  0  0  0  0
  178.6430    1.4310   99.8920 C   0  0  0  0  0
  178.8860    1.6290  101.3690 C   0  0  0  0  0
  177.9200    1.7320  102.1460 O   0  0  0  0  0
  178.6280   -0.0650   99.5450 C   0  0  0  0  0
  179.3730   -0.1910   98.2450 C   0  0  0  0  0
  180.3330    0.9450   98.1750 C   0  0  0  0  0
  180.1520    1.6720  101.7890 N   0  0  0  0  0
  180.4530    1.6570  103.2090 C   0  0  0  0  0
  180.6280    3.0380  103.8110 C   0  0  0  0  0
  180.7740    3.1310  105.0340 O   0  0  0  0  0
  181.7160    0.8510  103.4730 C   0  0  0  0  0
  182.7830    1.4260  102.7620 O   0  0  0  0  0
  180.6420    4.0990  103.0050 N   0  0  0  0  0
  180.8370    5.4340  103.5590 C   0  0  0  0  0
  179.6920    5.7960  104.4940 C   0  0  0  0  0
  178.5390    5.4050  104.2890 O   0  0  0  0  0
  180.9320    6.4900  102.4560 C   0  0  0  0  0
  181.8340    6.0910  101.4450 O   0  0  0  0  0
  180.0180    6.5550  105.5350 N   0  0  0  0  0
  179.0190    6.9950  106.4690 C   0  0  0  0  0
  178.7270    6.0120  107.5690 C   0  0  0  0  0
  178.0280    6.3740  108.5180 O   0  0  0  0  0
  179.2410    4.7850  107.4740 N   0  0  0  0  0
  179.1470    3.8260  108.5600 C   0  0  0  0  0
  180.3710    3.8380  109.4630 C   0  0  0  0  0
  181.4350    4.4290  109.1610 O   0  0  0  0  0
  180.3060    3.2430  110.5440 O   0  0  0  0  0
  182.6237    4.9726   97.7824 H   0  0  0  0  0
  181.4979    5.5357   98.8744 H   0  0  0  0  0
  182.4824    4.2536   99.2790 H   0  0  0  0  0
  181.5317    2.8961   97.6447 H   0  0  0  0  0
  180.4457    4.3105   97.1983 H   0  0  0  0  0
  177.6991    1.9426   99.7036 H   0  0  0  0  0
  177.6089   -0.4414   99.4563 H   0  0  0  0  0
  179.0964   -0.6590  100.3298 H   0  0  0  0  0
  178.6820   -0.1618   97.4025 H   0  0  0  0  0
  179.9013   -1.1432   98.1964 H   0  0  0  0  0
  181.3338    0.6644   98.5033 H   0  0  0  0  0
  180.4850    1.2986   97.1552 H   0  0  0  0  0
  180.9113    1.7156  101.1094 H   0  0  0  0  0
  179.5874    1.1984  103.6871 H   0  0  0  0  0
  181.5697   -0.1787  103.1469 H   0  0  0  0  0
  181.9396    0.8572  104.5398 H   0  0  0  0  0
  183.5833    0.9214  102.9247 H   0  0  0  0  0
  180.5163    3.9775  102.0001 H   0  0  0  0  0
  181.7755    5.4195  104.1131 H   0  0  0  0  0
  181.2904    7.4211  102.8950 H   0  0  0  0  0
  179.9452    6.6192  102.0114 H   0  0  0  0  0
  181.8743    6.7699  100.7675 H   0  0  0  0  0
  180.9908    6.8289  105.6728 H   0  0  0  0  0
  178.0944    7.1343  105.9088 H   0  0  0  0  0
  179.3973    7.9020  106.9406 H   0  0  0  0  0
  179.7143    4.5122  106.6126 H   0  0  0  0  0
  179.0649    2.8315  108.1215 H   0  0  0  0  0
  178.2814    4.0919  109.1667 H   0  0  0  0  0
  181.3370    4.8421  108.3000 H   0  0  0  0  0
  1  2  1  0  0  0
  2  3  1  0  0  0
  3  4  2  0  0  0
  3  5  1  0  0  0
  5  6  1  0  0  0
  5 11  1  0  0  0
  6  7  1  0  0  0
  6  9  1  0  0  0
  7  8  2  0  0  0
  7 12  1  0  0  0
  9 10  1  0  0  0
 10 11  1  0  0  0
 12 13  1  0  0  0
 13 14  1  0  0  0
 13 16  1  0  0  0
 14 15  2  0  0  0
 14 18  1  0  0  0
 16 17  1  0  0  0
 18 19  1  0  0  0
 19 20  1  0  0  0
 19 22  1  0  0  0
 20 21  2  0  0  0
 20 24  1  0  0  0
 22 23  1  0  0  0
 24 25  1  0  0  0
 25 26  1  0  0  0
 26 27  2  0  0  0
 26 28  1  0  0  0
 28 29  1  0  0  0
 29 30  1  0  0  0
 30 31  1  0  0  0
 30 32  2  0  0  0
  1 33  1  0  0  0
  1 34  1  0  0  0
  1 35  1  0  0  0
  2 36  1  0  0  0
  2 37  1  0  0  0
  6 38  1  0  0  0
  9 39  1  0  0  0
  9 40  1  0  0  0
 10 41  1  0  0  0
 10 42  1  0  0  0
 11 43  1  0  0  0
 11 44  1  0  0  0
 12 45  1  0  0  0
 13 46  1  0  0  0
 16 47  1  0  0  0
 16 48  1  0  0  0
 17 49  1  0  0  0
 18 50  1  0  0  0
 19 51  1  0  0  0
 22 52  1  0  0  0
 22 53  1  0  0  0
 23 54  1  0  0  0
 24 55  1  0  0  0
 25 56  1  0  0  0
 25 57  1  0  0  0
 28 58  1  0  0  0
 29 59  1  0  0  0
 29 60  1  0  0  0
 31 61  1  0  0  0
M  END
$$$$
