5evz_ligand
  -I-interpret- 

 42 44  0  0  0  0  0  0  0  0999 V2000
   20.3340   -0.3910    2.9960 P   0  0  0  0  0
   20.1830   -0.0100    1.5640 O   0  0  0  0  0
   21.7230   -0.2740    3.6090 O   0  0  0  0  0
   19.2670    0.1670    3.9070 O   0  0  0  0  0
   18.9690   -2.9280    2.4560 P   0  0  0  0  0
   17.9710   -2.1220    1.7150 O   0  0  0  0  0
   19.6880   -4.0750    1.8040 O   0  0  0  0  0
   20.1030   -2.0010    3.1070 O   0  0  0  0  0
   18.1700   -3.4430    3.7600 O   0  0  0  0  0
   18.8780   -4.1400    4.7990 C   0  0  0  0  0
   17.8920   -4.7120    5.8050 C   0  0  0  0  0
   17.0360   -5.6150    5.1110 O   0  0  0  0  0
   18.5940   -5.4900    6.9120 C   0  0  0  0  0
   18.0990   -5.1270    8.1930 O   0  0  0  0  0
   18.2660   -6.9390    6.6200 C   0  0  0  0  0
   18.2430   -7.7010    7.8450 O   0  0  0  0  0
   16.9080   -6.7460    5.9550 C   0  0  0  0  0
   16.4880   -7.9240    5.1830 N   0  0  0  0  0
   17.1210   -8.4560    4.1360 C   0  0  0  0  0
   16.4500   -9.5570    3.7100 N   0  0  0  0  0
   15.3620   -9.6990    4.4960 C   0  0  0  0  0
   14.2500  -10.6480    4.5870 C   0  0  0  0  0
   14.2130  -11.6600    3.6840 N   0  0  0  0  0
   13.3210  -10.4510    5.5550 N   0  0  0  0  0
   13.3930   -9.4270    6.4340 C   0  0  0  0  0
   14.4030   -8.5230    6.4070 N   0  0  0  0  0
   15.3900   -8.6150    5.4780 C   0  0  0  0  0
   21.6895   -0.5464    4.5289 H   0  0  0  0  0
   19.4334   -0.1217    4.8073 H   0  0  0  0  0
   20.2908   -4.4739    2.4357 H   0  0  0  0  0
   19.5463   -3.4446    5.3068 H   0  0  0  0  0
   19.4534   -4.9538    4.3577 H   0  0  0  0  0
   17.3453   -3.8859    6.2596 H   0  0  0  0  0
   19.6654   -5.2904    6.9300 H   0  0  0  0  0
   18.5589   -5.6321    8.8675 H   0  0  0  0  0
   18.9670   -7.5032    6.0049 H   0  0  0  0  0
   18.0342   -8.6169    7.6470 H   0  0  0  0  0
   16.1380   -6.6021    6.7130 H   0  0  0  0  0
   18.0365   -8.0665    3.6908 H   0  0  0  0  0
   14.9430  -11.7386    2.9759 H   0  0  0  0  0
   13.4552  -12.3422    3.7132 H   0  0  0  0  0
   12.6137   -9.3246    7.1892 H   0  0  0  0  0
  1  2  2  0  0  0
  1  3  1  0  0  0
  1  4  1  0  0  0
  8  1  1  0  0  0
  5  6  2  0  0  0
  5  7  1  0  0  0
  5  8  1  0  0  0
  5  9  1  0  0  0
  9 10  1  0  0  0
 10 11  1  0  0  0
 11 12  1  0  0  0
 11 13  1  0  0  0
 12 17  1  0  0  0
 13 14  1  0  0  0
 13 15  1  0  0  0
 15 16  1  0  0  0
 15 17  1  0  0  0
 17 18  1  0  0  0
 18 19  4  0  0  0
 18 27  4  0  0  0
 19 20  4  0  0  0
 20 21  4  0  0  0
 21 22  4  0  0  0
 21 27  4  0  0  0
 22 23  1  0  0  0
 22 24  4  0  0  0
 24 25  4  0  0  0
 25 26  4  0  0  0
 26 27  4  0  0  0
  3 28  1  0  0  0
  4 29  1  0  0  0
  7 30  1  0  0  0
 10 31  1  0  0  0
 10 32  1  0  0  0
 11 33  1  0  0  0
 13 34  1  0  0  0
 14 35  1  0  0  0
 15 36  1  0  0  0
 16 37  1  0  0  0
 17 38  1  0  0  0
 19 39  1  0  0  0
 23 40  1  0  0  0
 23 41  1  0  0  0
 25 42  1  0  0  0
M  END
$$$$
