1pfu_ligand
  -I-interpret- 

 23 22  0  0  0  0  0  0  0  0999 V2000
   14.6630    8.9880   19.4450 N   0  3  0  0  0
   14.3030   10.3730   19.8510 C   0  0  0  0  0
   12.8200   10.5350   20.2230 C   0  0  0  0  0
   11.8650   10.0490   19.1580 C   0  0  0  0  0
   10.1910   10.3110   19.7740 S   0  0  0  0  0
    9.2260    9.9980   18.2650 C   0  0  0  0  0
   15.1360    9.8070   22.4350 O   0  0  0  0  0
   14.8870   12.5660   21.4470 O   0  0  0  0  0
   15.3000   10.9980   21.1990 P   0  0  0  0  0
   16.7352   11.0073   20.7987 O   0  0  0  0  0
   14.0608    8.6929   18.6765 H   0  0  0  0  0
   15.6371    8.9658   19.1431 H   0  0  0  0  0
   14.5371    8.3589   20.2380 H   0  0  0  0  0
   14.5076   10.9625   18.9573 H   0  0  0  0  0
   12.6353   11.6002   20.3624 H   0  0  0  0  0
   12.6424    9.9353   21.1157 H   0  0  0  0  0
   12.0334    8.9929   18.9472 H   0  0  0  0  0
   12.0197   10.5960   18.2280 H   0  0  0  0  0
    9.5243   10.7054   17.4912 H   0  0  0  0  0
    9.4124    8.9808   17.9205 H   0  0  0  0  0
    8.1649   10.1209   18.4818 H   0  0  0  0  0
   14.2207    9.7693   22.7221 H   0  0  0  0  0
   13.9647   12.6152   21.7089 H   0  0  0  0  0
  1  2  1  0  0  0
  2  3  1  0  0  0
  2  9  1  0  0  0
  3  4  1  0  0  0
  4  5  1  0  0  0
  5  6  1  0  0  0
  9  7  1  0  0  0
  9  8  1  0  0  0
  9 10  2  0  0  0
  1 11  1  0  0  0
  1 12  1  0  0  0
  1 13  1  0  0  0
  2 14  1  0  0  0
  3 15  1  0  0  0
  3 16  1  0  0  0
  4 17  1  0  0  0
  4 18  1  0  0  0
  6 19  1  0  0  0
  6 20  1  0  0  0
  6 21  1  0  0  0
  7 22  1  0  0  0
  8 23  1  0  0  0
M  END
$$$$
