3uqg_ligand
  -I-interpret- 

 34 36  0  0  0  0  0  0  0  0999 V2000
   -8.7940  -41.1780    2.9130 C   0  0  0  0  0
   -8.5290  -41.0960    1.3970 C   0  0  0  0  0
   -7.0710  -41.0770    1.1530 N   0  3  0  0  0
   -6.4380  -39.8910    1.7700 C   0  0  0  0  0
   -6.6370  -39.9010    3.2960 C   0  0  0  0  0
   -8.1370  -39.9980    3.6580 C   0  0  0  0  0
   -8.3260  -40.1380    5.1780 C   0  0  0  0  0
   -8.3680  -38.8230    5.8540 N   0  0  0  0  0
   -7.3750  -38.2650    6.3230 N   0  0  0  0  0
   -7.7190  -37.1010    6.8770 C   0  0  0  0  0
   -9.0310  -36.9500    6.7140 C   0  0  0  0  0
   -9.4620  -38.0850    6.0380 C   0  0  0  0  0
  -10.7680  -38.2120    5.7150 N   0  0  0  0  0
  -11.6340  -37.2560    6.0540 C   0  0  0  0  0
  -11.2580  -36.1520    6.7010 N   0  0  0  0  0
   -9.9650  -35.9600    7.0480 C   0  0  0  0  0
   -9.5920  -34.8450    7.6890 N   0  0  0  0  0
   -8.3694  -42.1081    3.2909 H   0  0  0  0  0
   -9.8703  -41.1398    3.0809 H   0  0  0  0  0
   -8.9764  -40.1855    0.9983 H   0  0  0  0  0
   -8.9691  -41.9625    0.9034 H   0  0  0  0  0
   -6.9108  -41.0436    0.1462 H   0  0  0  0  0
   -6.6618  -41.9151    1.5660 H   0  0  0  0  0
   -6.8988  -38.9922    1.3602 H   0  0  0  0  0
   -5.3698  -39.9088    1.5536 H   0  0  0  0  0
   -6.2371  -38.9741    3.7071 H   0  0  0  0  0
   -6.1203  -40.7666    3.7105 H   0  0  0  0  0
   -8.6265  -39.0764    3.3431 H   0  0  0  0  0
   -7.4810  -40.6995    5.5765 H   0  0  0  0  0
   -9.2740  -40.6447    5.3586 H   0  0  0  0  0
   -7.0471  -36.4007    7.3732 H   0  0  0  0  0
  -12.6849  -37.3812    5.7934 H   0  0  0  0  0
   -8.6139  -34.7054    7.9424 H   0  0  0  0  0
  -10.2860  -34.1353    7.9239 H   0  0  0  0  0
  1  2  1  0  0  0
  1  6  1  0  0  0
  2  3  1  0  0  0
  3  4  1  0  0  0
  4  5  1  0  0  0
  5  6  1  0  0  0
  6  7  1  0  0  0
  7  8  1  0  0  0
  8  9  4  0  0  0
  8 12  4  0  0  0
  9 10  4  0  0  0
 10 11  4  0  0  0
 11 12  4  0  0  0
 11 16  4  0  0  0
 12 13  4  0  0  0
 13 14  4  0  0  0
 14 15  4  0  0  0
 15 16  4  0  0  0
 16 17  1  0  0  0
  1 18  1  0  0  0
  1 19  1  0  0  0
  2 20  1  0  0  0
  2 21  1  0  0  0
  3 22  1  0  0  0
  3 23  1  0  0  0
  4 24  1  0  0  0
  4 25  1  0  0  0
  5 26  1  0  0  0
  5 27  1  0  0  0
  6 28  1  0  0  0
  7 29  1  0  0  0
  7 30  1  0  0  0
 10 31  1  0  0  0
 14 32  1  0  0  0
 17 33  1  0  0  0
 17 34  1  0  0  0
M  END
$$$$
