1q3w_ligand
  -I-interpret- 

 32 35  0  0  0  0  0  0  0  0999 V2000
   24.1660  -19.5740    7.2620 N   0  0  0  0  0
   22.8120  -19.5350    7.1670 C   0  0  0  0  0
   21.9550  -19.2230    8.3870 C   0  0  0  0  0
   22.2480  -19.7300    6.0920 O   0  0  0  0  0
   24.8840  -18.1630    9.1830 C   0  0  0  0  0
   25.1210  -19.0570    8.0570 C   0  0  0  0  0
   26.3990  -19.7170    7.9560 C   0  0  0  0  0
   27.4280  -19.5100    8.9340 C   0  0  0  0  0
   27.1890  -18.6230   10.0500 C   0  0  0  0  0
   25.9240  -17.9590   10.1640 C   0  0  0  0  0
   23.4500  -16.2270    9.9560 N   0  0  0  0  0
   22.3050  -17.9560    9.1650 C   0  0  0  0  0
   23.6730  -17.4840    9.3890 C   0  0  0  0  0
   21.2910  -16.9330    9.4990 C   0  0  0  0  0
   22.1120  -15.7700   10.0390 C   0  0  0  0  0
   21.4350  -14.5800   10.4680 C   0  0  0  0  0
   20.0090  -14.4980   10.3860 C   0  0  0  0  0
   19.2200  -15.5950    9.8750 C   0  0  0  0  0
   19.8730  -16.8060    9.4370 C   0  0  0  0  0
   17.7250  -15.4840    9.7960 N   0  0  0  0  0
   17.1340  -14.4820   10.1540 O   0  0  0  0  0
   17.0590  -16.3970    9.3680 O   0  0  0  0  0
   24.5711  -20.1556    6.5285 H   0  0  0  0  0
   22.1050  -20.0515    9.0792 H   0  0  0  0  0
   20.9420  -19.0753    8.0126 H   0  0  0  0  0
   26.5875  -20.3881    7.1180 H   0  0  0  0  0
   28.3865  -20.0197    8.8359 H   0  0  0  0  0
   27.9644  -18.4605   10.7986 H   0  0  0  0  0
   25.7440  -17.2891   11.0048 H   0  0  0  0  0
   22.0075  -13.7378   10.8567 H   0  0  0  0  0
   19.5072  -13.5884   10.7161 H   0  0  0  0  0
   19.2744  -17.6327    9.0545 H   0  0  0  0  0
  1  2  1  0  0  0
  1  6  1  0  0  0
  2  3  1  0  0  0
  2  4  2  0  0  0
  3 12  1  0  0  0
  6  7  4  0  0  0
  7  8  4  0  0  0
  8  9  4  0  0  0
  9 10  4  0  0  0
 12 13  4  0  0  0
 12 14  4  0  0  0
 14 15  4  0  0  0
 14 19  4  0  0  0
 15 16  4  0  0  0
 16 17  4  0  0  0
 17 18  4  0  0  0
 18 19  4  0  0  0
 18 20  1  0  0  0
 20 21  2  0  0  0
 20 22  2  0  0  0
 15 11  4  0  0  0
 13 11  4  0  0  0
 13  5  1  0  0  0
 10  5  4  0  0  0
  6  5  4  0  0  0
  1 23  1  0  0  0
  3 24  1  0  0  0
  3 25  1  0  0  0
  7 26  1  0  0  0
  8 27  1  0  0  0
  9 28  1  0  0  0
 10 29  1  0  0  0
 16 30  1  0  0  0
 17 31  1  0  0  0
 19 32  1  0  0  0
M  END
$$$$
