3wix_ligand
  -I-interpret- 

 57 61  0  0  0  0  0  0  0  0999 V2000
   -7.9480    9.0820  -62.6290 C   0  0  0  0  0
   -8.5610   10.0160  -61.8110 C   0  0  0  0  0
   -7.7450    7.8050  -62.1510 C   0  0  0  0  0
   -7.4960    9.3870  -64.0110 C   0  0  0  0  0
   -8.9440    9.6720  -60.5230 C   0  0  0  0  0
   -8.1290    7.4610  -60.8760 C   0  0  0  0  0
   -7.9130   10.4420  -64.5580 O   0  0  0  0  0
   -6.6860    8.5680  -64.5350 O   0  0  0  0  0
   -8.7180    8.3900  -60.0520 C   0  0  0  0  0
   -8.6890    8.1250  -56.3170 C   0  0  0  0  0
   -8.4020    8.5490  -57.6640 C   0  0  0  0  0
   -9.0440    7.9710  -58.6890 C   0  0  0  0  0
   -9.9570    6.9740  -58.4260 N   0  0  0  0  0
  -10.2560    6.5370  -57.1560 C   0  0  0  0  0
   -9.5800    7.1530  -56.0700 C   0  0  0  0  0
  -10.6730    6.3060  -59.3500 N   0  0  0  0  0
  -11.4330    5.4470  -58.6610 C   0  0  0  0  0
  -11.2150    5.5470  -57.2560 C   0  0  0  0  0
  -12.4000    4.5250  -59.4210 C   0  0  0  0  0
  -11.8330    4.7890  -56.1450 C   0  0  0  0  0
  -13.2340    5.2760  -55.8220 C   0  0  0  0  0
  -13.3100    6.4200  -54.8390 C   0  0  0  0  0
  -12.1740    6.3520  -53.9750 O   0  0  0  0  0
  -12.0280    4.1490  -60.5540 O   0  0  0  0  0
  -13.5140    4.2750  -58.8890 O   0  0  0  0  0
  -12.0970    7.4380  -53.1170 C   0  0  0  0  0
  -12.5250    8.6920  -53.4660 C   0  0  0  0  0
  -12.4220    9.7440  -52.5790 C   0  0  0  0  0
  -11.8600    9.5150  -51.3370 C   0  0  0  0  0
  -11.4160    8.2490  -50.9930 C   0  0  0  0  0
  -11.5230    7.2000  -51.8830 C   0  0  0  0  0
  -10.8480    8.0260  -49.7590 C   0  0  0  0  0
  -10.3980    6.7590  -49.4380 C   0  0  0  0  0
  -10.5120    5.7050  -50.3220 C   0  0  0  0  0
  -11.0760    5.9310  -51.5620 C   0  0  0  0  0
   -8.7432   11.0251  -62.1805 H   0  0  0  0  0
   -7.2744    7.0589  -62.7913 H   0  0  0  0  0
   -9.4232   10.4115  -59.8814 H   0  0  0  0  0
   -7.9652    6.4451  -60.5167 H   0  0  0  0  0
   -6.5222    7.8462  -63.9237 H   0  0  0  0  0
   -8.1730    8.6025  -55.4840 H   0  0  0  0  0
   -7.6684    9.3339  -57.8480 H   0  0  0  0  0
   -9.7829    6.8393  -55.0460 H   0  0  0  0  0
  -11.2150    4.9266  -55.2578 H   0  0  0  0  0
  -11.9001    3.7435  -56.4460 H   0  0  0  0  0
  -13.7581    4.4367  -55.3648 H   0  0  0  0  0
  -13.6610    5.6393  -56.7568 H   0  0  0  0  0
  -14.2270    6.3476  -54.2542 H   0  0  0  0  0
  -13.3145    7.3700  -55.3735 H   0  0  0  0  0
  -13.5491    4.6778  -58.0183 H   0  0  0  0  0
  -12.9514    8.8604  -54.4549 H   0  0  0  0  0
  -12.7773   10.7375  -52.8527 H   0  0  0  0  0
  -11.7658   10.3348  -50.6249 H   0  0  0  0  0
  -10.7539    8.8411  -49.0415 H   0  0  0  0  0
   -9.9419    6.5880  -48.4629 H   0  0  0  0  0
  -10.1624    4.7102  -50.0457 H   0  0  0  0  0
  -11.1681    5.1170  -52.2811 H   0  0  0  0  0
  2  1  4  0  0  0
  3  1  4  0  0  0
  1  4  1  0  0  0
  5  2  4  0  0  0
  6  3  4  0  0  0
  4  7  2  0  0  0
  4  8  1  0  0  0
  9  5  4  0  0  0
  9  6  4  0  0  0
 12  9  1  0  0  0
 11 10  4  0  0  0
 10 15  4  0  0  0
 11 12  4  0  0  0
 12 13  4  0  0  0
 13 14  4  0  0  0
 13 16  4  0  0  0
 14 15  4  0  0  0
 14 18  4  0  0  0
 16 17  4  0  0  0
 17 18  4  0  0  0
 17 19  1  0  0  0
 18 20  1  0  0  0
 19 24  2  0  0  0
 19 25  1  0  0  0
 20 21  1  0  0  0
 21 22  1  0  0  0
 22 23  1  0  0  0
 23 26  1  0  0  0
 26 27  4  0  0  0
 26 31  4  0  0  0
 27 28  4  0  0  0
 28 29  4  0  0  0
 29 30  4  0  0  0
 30 31  4  0  0  0
 30 32  4  0  0  0
 31 35  4  0  0  0
 32 33  4  0  0  0
 33 34  4  0  0  0
 34 35  4  0  0  0
  2 36  1  0  0  0
  3 37  1  0  0  0
  5 38  1  0  0  0
  6 39  1  0  0  0
  8 40  1  0  0  0
 10 41  1  0  0  0
 11 42  1  0  0  0
 15 43  1  0  0  0
 20 44  1  0  0  0
 20 45  1  0  0  0
 21 46  1  0  0  0
 21 47  1  0  0  0
 22 48  1  0  0  0
 22 49  1  0  0  0
 25 50  1  0  0  0
 27 51  1  0  0  0
 28 52  1  0  0  0
 29 53  1  0  0  0
 32 54  1  0  0  0
 33 55  1  0  0  0
 34 56  1  0  0  0
 35 57  1  0  0  0
M  END
$$$$
