### 
### Created by X-TOOL on Mon Sep 10 21:13:07 2018
### 

@<TRIPOS>MOLECULE
3arf_ligand
  137   137     1     0     0
SMALL
GAST_HUCK


@<TRIPOS>ATOM
      1 C1         -9.5620  -44.0820  -62.7410 C.3       1 DB3         0.0762
      2 C2         -9.9400  -45.0820  -63.8450 C.3       1 DB3         0.0936
      3 N2        -11.4100  -45.1540  -63.9290 N.am      1 DB3        -0.2791
      4 C3         -9.3680  -46.4690  -63.5050 C.3       1 DB3         0.1059
      5 O3         -7.9390  -46.3660  -63.4870 O.3       1 DB3        -0.3869
      6 C4         -9.7340  -47.6280  -64.4410 C.3       1 DB3         0.0833
      7 O4         -8.8690  -48.7400  -64.1550 O.3       1 DB3        -0.3892
      8 C5         -9.6300  -47.3080  -65.9320 C.3       1 DB3        -0.0243
      9 C6         -9.4750  -48.5740  -66.7740 C.3       1 DB3        -0.0506
     10 C7        -10.8190  -49.1760  -67.1570 C.3       1 DB3        -0.0530
     11 C8        -10.7700  -49.6970  -68.5850 C.3       1 DB3        -0.0531
     12 C9        -11.0750  -51.1890  -68.6350 C.3       1 DB3        -0.0531
     13 C10        -9.8080  -52.0160  -68.8140 C.3       1 DB3        -0.0531
     14 C11       -10.0270  -53.1120  -69.8440 C.3       1 DB3        -0.0531
     15 C12        -9.9350  -54.4810  -69.1870 C.3       1 DB3        -0.0531
     16 C13        -8.9550  -55.3780  -69.9310 C.3       1 DB3        -0.0531
     17 C14        -7.6820  -55.5710  -69.1170 C.3       1 DB3        -0.0531
     18 C15        -6.7690  -56.6020  -69.7680 C.3       1 DB3        -0.0531
     19 C16        -5.3160  -56.1590  -69.6860 C.3       1 DB3        -0.0533
     20 C17        -4.3890  -57.3230  -70.0050 C.3       1 DB3        -0.0559
     21 C18        -2.9710  -56.8400  -70.2080 C.3       1 DB3        -0.0653
     22 C1A        -9.5240  -43.8630  -60.3560 C.3       1 DB3         0.1880
     23 O1A       -10.1170  -44.4900  -61.4940 O.3       1 DB3        -0.3463
     24 C2A        -9.8110  -44.7220  -59.1310 C.3       1 DB3         0.1341
     25 O2A        -9.2940  -46.0360  -59.3320 O.3       1 DB3        -0.3841
     26 C3A       -11.3120  -44.7860  -58.8690 C.3       1 DB3         0.1141
     27 O3A       -11.5390  -45.5110  -57.6600 O.3       1 DB3        -0.3864
     28 C4A       -11.9070  -43.3820  -58.7610 C.3       1 DB3         0.1119
     29 O4A       -11.4860  -42.7570  -57.5410 O.3       1 DB3        -0.3865
     30 O5A       -11.3200  -40.2680  -60.8040 O.3       1 DB3        -0.3924
     31 C5M       -11.4930  -42.5200  -59.9540 C.3       1 DB3         0.1130
     32 C6A       -11.9430  -41.0730  -59.7980 C.3       1 DB3         0.0730
     33 O6A       -10.0720  -42.5570  -60.1300 O.3       1 DB3        -0.3405
     34 CAA       -12.2400  -44.1530  -64.2990 C.2       1 DB3         0.1764
     35 OAA       -11.9010  -43.0130  -64.6070 O.2       1 DB3        -0.3971
     36 CAB       -13.7120  -44.4980  -64.3160 C.3       1 DB3         0.0372
     37 CAC       -14.3030  -44.1760  -65.6860 C.3       1 DB3        -0.0361
     38 CAD       -14.5970  -45.4430  -66.4840 C.3       1 DB3        -0.0510
     39 CAE       -14.7950  -45.1320  -67.9640 C.3       1 DB3        -0.0529
     40 CAF       -15.2820  -46.3540  -68.7430 C.3       1 DB3        -0.0530
     41 CAG       -14.7320  -46.3780  -70.1690 C.3       1 DB3        -0.0529
     42 CAH       -15.7300  -45.8300  -71.1880 C.3       1 DB3        -0.0515
     43 CAI       -15.4930  -46.4300  -72.5720 C.3       1 DB3        -0.0463
     44 CAJ       -15.3340  -45.3590  -73.6510 C.3       1 DB3        -0.0360
     45 CAK       -13.8740  -45.2130  -74.0350 C.2       1 DB3        -0.0967
     46 CAL       -13.4280  -44.4950  -75.0740 C.2       1 DB3        -0.0910
     47 CAM       -14.3240  -43.7290  -76.0250 C.3       1 DB3        -0.0204
     48 CAN       -14.5800  -42.3410  -75.4860 C.2       1 DB3        -0.0910
     49 CAO       -15.3390  -41.4850  -76.1650 C.2       1 DB3        -0.0967
     50 CAP       -15.5940  -40.1020  -75.6070 C.3       1 DB3        -0.0360
     51 CAQ       -16.9720  -39.5950  -76.0370 C.3       1 DB3        -0.0463
     52 CAR       -18.1050  -40.1680  -75.1900 C.3       1 DB3        -0.0517
     53 CAS       -19.4580  -39.6510  -75.6560 C.3       1 DB3        -0.0558
     54 CAT       -20.5350  -40.0110  -74.6560 C.3       1 DB3        -0.0653
     55 H          -9.9549  -43.0991  -63.0011 H         1 DB3         0.0585
     56 H          -8.4763  -44.0434  -62.6520 H         1 DB3         0.0585
     57 H          -9.5290  -44.7573  -64.8009 H         1 DB3         0.0605
     58 H         -11.8426  -46.0448  -63.6844 H         1 DB3         0.1856
     59 H          -9.8209  -46.7241  -62.5469 H         1 DB3         0.0643
     60 H          -7.5602  -47.2226  -63.2763 H         1 DB3         0.2100
     61 H         -10.7839  -47.8491  -64.2487 H         1 DB3         0.0620
     62 H          -7.9563  -48.4792  -64.2986 H         1 DB3         0.2099
     63 H          -8.7509  -46.6827  -66.0880 H         1 DB3         0.0291
     64 H         -10.5455  -46.8022  -66.2388 H         1 DB3         0.0291
     65 H          -8.9291  -49.3099  -66.1836 H         1 DB3         0.0266
     66 H          -8.9476  -48.3098  -67.6906 H         1 DB3         0.0266
     67 H         -11.5892  -48.4084  -67.0824 H         1 DB3         0.0265
     68 H         -11.0466  -50.0015  -66.4825 H         1 DB3         0.0265
     69 H          -9.7685  -49.5321  -68.9824 H         1 DB3         0.0265
     70 H         -11.5182  -49.1680  -69.1753 H         1 DB3         0.0265
     71 H         -11.7317  -51.3775  -69.4843 H         1 DB3         0.0265
     72 H         -11.5430  -51.4761  -67.6934 H         1 DB3         0.0265
     73 H          -9.5472  -52.4743  -67.8600 H         1 DB3         0.0265
     74 H          -9.0053  -51.3634  -69.1574 H         1 DB3         0.0265
     75 H          -9.2594  -53.0348  -70.6140 H         1 DB3         0.0265
     76 H         -11.0176  -52.9943  -70.2834 H         1 DB3         0.0265
     77 H         -10.9205  -54.9462  -69.2082 H         1 DB3         0.0265
     78 H          -9.5851  -54.3546  -68.1625 H         1 DB3         0.0265
     79 H          -8.6992  -54.9101  -70.8816 H         1 DB3         0.0265
     80 H          -9.4202  -56.3499  -70.0954 H         1 DB3         0.0265
     81 H          -7.9533  -55.9230  -68.1217 H         1 DB3         0.0265
     82 H          -7.1531  -54.6194  -69.0640 H         1 DB3         0.0265
     83 H          -7.0471  -56.7077  -70.8166 H         1 DB3         0.0265
     84 H          -6.8786  -57.5515  -69.2440 H         1 DB3         0.0265
     85 H          -5.1085  -55.8058  -68.6759 H         1 DB3         0.0265
     86 H          -5.1463  -55.3610  -70.4089 H         1 DB3         0.0265
     87 H          -4.7311  -57.8038  -70.9215 H         1 DB3         0.0263
     88 H          -4.4054  -58.0242  -69.1706 H         1 DB3         0.0263
     89 H          -2.9448  -56.1320  -71.0363 H         1 DB3         0.0230
     90 H          -2.6215  -56.3507  -69.2989 H         1 DB3         0.0230
     91 H          -2.3278  -57.6903  -70.4347 H         1 DB3         0.0230
     92 H          -8.4535  -43.7628  -60.5351 H         1 DB3         0.0937
     93 H          -9.3251  -44.2742  -58.2641 H         1 DB3         0.0671
     94 H          -9.7123  -46.4290  -60.1016 H         1 DB3         0.2101
     95 H         -11.7994  -45.2920  -59.7024 H         1 DB3         0.0648
     96 H         -11.1862  -46.3993  -57.7498 H         1 DB3         0.2100
     97 H         -12.9931  -43.4745  -58.7608 H         1 DB3         0.0647
     98 H         -11.7829  -43.2825  -56.7945 H         1 DB3         0.2100
     99 H         -10.3662  -40.3190  -60.7078 H         1 DB3         0.2095
    100 H         -11.9855  -42.9366  -60.8326 H         1 DB3         0.0647
    101 H         -13.0261  -41.0158  -59.9064 H         1 DB3         0.0584
    102 H         -11.6564  -40.7079  -58.8118 H         1 DB3         0.0584
    103 H         -14.2280  -43.9131  -63.5545 H         1 DB3         0.0502
    104 H         -13.8352  -45.5615  -64.1114 H         1 DB3         0.0502
    105 H         -13.5790  -43.5798  -66.2415 H         1 DB3         0.0290
    106 H         -15.2390  -43.6372  -65.5388 H         1 DB3         0.0290
    107 H         -15.5124  -45.8916  -66.0981 H         1 DB3         0.0267
    108 H         -13.7501  -46.1216  -66.3822 H         1 DB3         0.0267
    109 H         -13.8362  -44.8217  -68.3793 H         1 DB3         0.0265
    110 H         -15.5481  -44.3488  -68.0509 H         1 DB3         0.0265
    111 H         -16.3699  -46.3132  -68.7971 H         1 DB3         0.0265
    112 H         -14.9335  -47.2489  -68.2274 H         1 DB3         0.0265
    113 H         -14.5181  -47.4144  -70.4304 H         1 DB3         0.0265
    114 H         -13.8418  -45.7497  -70.1975 H         1 DB3         0.0265
    115 H         -15.6040  -44.7492  -71.2514 H         1 DB3         0.0267
    116 H         -16.7372  -46.0916  -70.8635 H         1 DB3         0.0267
    117 H         -16.3587  -47.0410  -72.8278 H         1 DB3         0.0285
    118 H         -14.5715  -47.0110  -72.5347 H         1 DB3         0.0285
    119 H         -15.6976  -44.4070  -73.2643 H         1 DB3         0.0390
    120 H         -15.9063  -45.6523  -74.5311 H         1 DB3         0.0390
    121 H         -13.1352  -45.7291  -73.4219 H         1 DB3         0.0458
    122 H         -12.3522  -44.4597  -75.2460 H         1 DB3         0.0463
    123 H         -15.2730  -44.2554  -76.1270 H         1 DB3         0.0511
    124 H         -13.8351  -43.6527  -76.9962 H         1 DB3         0.0511
    125 H         -14.1403  -42.0392  -74.5354 H         1 DB3         0.0463
    126 H         -15.7755  -41.7789  -77.1196 H         1 DB3         0.0458
    127 H         -14.8323  -39.4213  -75.9871 H         1 DB3         0.0390
    128 H         -15.5577  -40.1476  -74.5186 H         1 DB3         0.0390
    129 H         -17.1355  -39.9079  -77.0682 H         1 DB3         0.0285
    130 H         -16.9810  -38.5117  -75.9170 H         1 DB3         0.0285
    131 H         -17.9539  -39.8619  -74.1548 H         1 DB3         0.0267
    132 H         -18.0960  -41.2537  -75.2864 H         1 DB3         0.0267
    133 H         -19.6997  -40.1062  -76.6165 H         1 DB3         0.0263
    134 H         -19.4097  -38.5661  -75.7497 H         1 DB3         0.0263
    135 H         -20.5855  -41.0949  -74.5528 H         1 DB3         0.0230
    136 H         -20.2972  -39.5635  -73.6910 H         1 DB3         0.0230
    137 H         -21.4954  -39.6330  -75.0064 H         1 DB3         0.0230
@<TRIPOS>BOND
     1    1    2 1  
     2   23    1 1  
     3    2    3 1  
     4    2    4 1  
     5    3   34 am 
     6    4    5 1  
     7    4    6 1  
     8    6    7 1  
     9    6    8 1  
    10    8    9 1  
    11    9   10 1  
    12   10   11 1  
    13   11   12 1  
    14   12   13 1  
    15   13   14 1  
    16   14   15 1  
    17   15   16 1  
    18   16   17 1  
    19   17   18 1  
    20   18   19 1  
    21   19   20 1  
    22   20   21 1  
    23   22   23 1  
    24   24   22 1  
    25   22   33 1  
    26   24   25 1  
    27   26   24 1  
    28   26   27 1  
    29   28   26 1  
    30   28   29 1  
    31   31   28 1  
    32   32   30 1  
    33   31   32 1  
    34   31   33 1  
    35   34   35 2  
    36   34   36 1  
    37   36   37 1  
    38   37   38 1  
    39   38   39 1  
    40   39   40 1  
    41   40   41 1  
    42   41   42 1  
    43   42   43 1  
    44   43   44 1  
    45   44   45 1  
    46   45   46 2  
    47   46   47 1  
    48   47   48 1  
    49   48   49 2  
    50   49   50 1  
    51   50   51 1  
    52   51   52 1  
    53   52   53 1  
    54   53   54 1  
    55    1   55 1  
    56    1   56 1  
    57    2   57 1  
    58    3   58 1  
    59    4   59 1  
    60    5   60 1  
    61    6   61 1  
    62    7   62 1  
    63    8   63 1  
    64    8   64 1  
    65    9   65 1  
    66    9   66 1  
    67   10   67 1  
    68   10   68 1  
    69   11   69 1  
    70   11   70 1  
    71   12   71 1  
    72   12   72 1  
    73   13   73 1  
    74   13   74 1  
    75   14   75 1  
    76   14   76 1  
    77   15   77 1  
    78   15   78 1  
    79   16   79 1  
    80   16   80 1  
    81   17   81 1  
    82   17   82 1  
    83   18   83 1  
    84   18   84 1  
    85   19   85 1  
    86   19   86 1  
    87   20   87 1  
    88   20   88 1  
    89   21   89 1  
    90   21   90 1  
    91   21   91 1  
    92   22   92 1  
    93   24   93 1  
    94   25   94 1  
    95   26   95 1  
    96   27   96 1  
    97   28   97 1  
    98   29   98 1  
    99   30   99 1  
   100   31  100 1  
   101   32  101 1  
   102   32  102 1  
   103   36  103 1  
   104   36  104 1  
   105   37  105 1  
   106   37  106 1  
   107   38  107 1  
   108   38  108 1  
   109   39  109 1  
   110   39  110 1  
   111   40  111 1  
   112   40  112 1  
   113   41  113 1  
   114   41  114 1  
   115   42  115 1  
   116   42  116 1  
   117   43  117 1  
   118   43  118 1  
   119   44  119 1  
   120   44  120 1  
   121   45  121 1  
   122   46  122 1  
   123   47  123 1  
   124   47  124 1  
   125   48  125 1  
   126   49  126 1  
   127   50  127 1  
   128   50  128 1  
   129   51  129 1  
   130   51  130 1  
   131   52  131 1  
   132   52  132 1  
   133   53  133 1  
   134   53  134 1  
   135   54  135 1  
   136   54  136 1  
   137   54  137 1  
@<TRIPOS>SUBSTRUCTURE
     1 DB3         1

