3arf_ligand
  -I-interpret- 

137137  0  0  0  0  0  0  0  0999 V2000
   -9.5620  -44.0820  -62.7410 C   0  0  0  0  0
   -9.9400  -45.0820  -63.8450 C   0  0  0  0  0
  -11.4100  -45.1540  -63.9290 N   0  0  0  0  0
   -9.3680  -46.4690  -63.5050 C   0  0  0  0  0
   -7.9390  -46.3660  -63.4870 O   0  0  0  0  0
   -9.7340  -47.6280  -64.4410 C   0  0  0  0  0
   -8.8690  -48.7400  -64.1550 O   0  0  0  0  0
   -9.6300  -47.3080  -65.9320 C   0  0  0  0  0
   -9.4750  -48.5740  -66.7740 C   0  0  0  0  0
  -10.8190  -49.1760  -67.1570 C   0  0  0  0  0
  -10.7700  -49.6970  -68.5850 C   0  0  0  0  0
  -11.0750  -51.1890  -68.6350 C   0  0  0  0  0
   -9.8080  -52.0160  -68.8140 C   0  0  0  0  0
  -10.0270  -53.1120  -69.8440 C   0  0  0  0  0
   -9.9350  -54.4810  -69.1870 C   0  0  0  0  0
   -8.9550  -55.3780  -69.9310 C   0  0  0  0  0
   -7.6820  -55.5710  -69.1170 C   0  0  0  0  0
   -6.7690  -56.6020  -69.7680 C   0  0  0  0  0
   -5.3160  -56.1590  -69.6860 C   0  0  0  0  0
   -4.3890  -57.3230  -70.0050 C   0  0  0  0  0
   -2.9710  -56.8400  -70.2080 C   0  0  0  0  0
   -9.5240  -43.8630  -60.3560 C   0  0  0  0  0
  -10.1170  -44.4900  -61.4940 O   0  0  0  0  0
   -9.8110  -44.7220  -59.1310 C   0  0  0  0  0
   -9.2940  -46.0360  -59.3320 O   0  0  0  0  0
  -11.3120  -44.7860  -58.8690 C   0  0  0  0  0
  -11.5390  -45.5110  -57.6600 O   0  0  0  0  0
  -11.9070  -43.3820  -58.7610 C   0  0  0  0  0
  -11.4860  -42.7570  -57.5410 O   0  0  0  0  0
  -11.3200  -40.2680  -60.8040 O   0  0  0  0  0
  -11.4930  -42.5200  -59.9540 C   0  0  0  0  0
  -11.9430  -41.0730  -59.7980 C   0  0  0  0  0
  -10.0720  -42.5570  -60.1300 O   0  0  0  0  0
  -12.2400  -44.1530  -64.2990 C   0  0  0  0  0
  -11.9010  -43.0130  -64.6070 O   0  0  0  0  0
  -13.7120  -44.4980  -64.3160 C   0  0  0  0  0
  -14.3030  -44.1760  -65.6860 C   0  0  0  0  0
  -14.5970  -45.4430  -66.4840 C   0  0  0  0  0
  -14.7950  -45.1320  -67.9640 C   0  0  0  0  0
  -15.2820  -46.3540  -68.7430 C   0  0  0  0  0
  -14.7320  -46.3780  -70.1690 C   0  0  0  0  0
  -15.7300  -45.8300  -71.1880 C   0  0  0  0  0
  -15.4930  -46.4300  -72.5720 C   0  0  0  0  0
  -15.3340  -45.3590  -73.6510 C   0  0  0  0  0
  -13.8740  -45.2130  -74.0350 C   0  0  0  0  0
  -13.4280  -44.4950  -75.0740 C   0  0  0  0  0
  -14.3240  -43.7290  -76.0250 C   0  0  0  0  0
  -14.5800  -42.3410  -75.4860 C   0  0  0  0  0
  -15.3390  -41.4850  -76.1650 C   0  0  0  0  0
  -15.5940  -40.1020  -75.6070 C   0  0  0  0  0
  -16.9720  -39.5950  -76.0370 C   0  0  0  0  0
  -18.1050  -40.1680  -75.1900 C   0  0  0  0  0
  -19.4580  -39.6510  -75.6560 C   0  0  0  0  0
  -20.5350  -40.0110  -74.6560 C   0  0  0  0  0
   -9.9549  -43.0991  -63.0011 H   0  0  0  0  0
   -8.4763  -44.0434  -62.6520 H   0  0  0  0  0
   -9.5290  -44.7573  -64.8009 H   0  0  0  0  0
  -11.8426  -46.0448  -63.6844 H   0  0  0  0  0
   -9.8209  -46.7241  -62.5469 H   0  0  0  0  0
   -7.6784  -45.6464  -62.9074 H   0  0  0  0  0
  -10.7839  -47.8491  -64.2487 H   0  0  0  0  0
   -8.9229  -48.9539  -63.2207 H   0  0  0  0  0
   -8.7509  -46.6827  -66.0880 H   0  0  0  0  0
  -10.5455  -46.8022  -66.2388 H   0  0  0  0  0
   -8.9291  -49.3099  -66.1836 H   0  0  0  0  0
   -8.9476  -48.3098  -67.6906 H   0  0  0  0  0
  -11.5892  -48.4084  -67.0824 H   0  0  0  0  0
  -11.0466  -50.0015  -66.4825 H   0  0  0  0  0
   -9.7685  -49.5321  -68.9824 H   0  0  0  0  0
  -11.5182  -49.1680  -69.1753 H   0  0  0  0  0
  -11.7317  -51.3775  -69.4843 H   0  0  0  0  0
  -11.5430  -51.4761  -67.6934 H   0  0  0  0  0
   -9.5472  -52.4743  -67.8600 H   0  0  0  0  0
   -9.0053  -51.3634  -69.1574 H   0  0  0  0  0
   -9.2594  -53.0348  -70.6140 H   0  0  0  0  0
  -11.0176  -52.9943  -70.2834 H   0  0  0  0  0
  -10.9205  -54.9462  -69.2082 H   0  0  0  0  0
   -9.5851  -54.3546  -68.1625 H   0  0  0  0  0
   -8.6992  -54.9101  -70.8816 H   0  0  0  0  0
   -9.4202  -56.3499  -70.0954 H   0  0  0  0  0
   -7.9533  -55.9230  -68.1217 H   0  0  0  0  0
   -7.1531  -54.6194  -69.0640 H   0  0  0  0  0
   -7.0471  -56.7077  -70.8166 H   0  0  0  0  0
   -6.8786  -57.5515  -69.2440 H   0  0  0  0  0
   -5.1085  -55.8058  -68.6759 H   0  0  0  0  0
   -5.1463  -55.3610  -70.4089 H   0  0  0  0  0
   -4.7311  -57.8038  -70.9215 H   0  0  0  0  0
   -4.4054  -58.0242  -69.1706 H   0  0  0  0  0
   -2.9448  -56.1320  -71.0363 H   0  0  0  0  0
   -2.6215  -56.3507  -69.2989 H   0  0  0  0  0
   -2.3278  -57.6903  -70.4347 H   0  0  0  0  0
   -8.4535  -43.7628  -60.5351 H   0  0  0  0  0
   -9.3251  -44.2742  -58.2641 H   0  0  0  0  0
   -9.4775  -46.5728  -58.5575 H   0  0  0  0  0
  -11.7994  -45.2920  -59.7024 H   0  0  0  0  0
  -12.4823  -45.5560  -57.4875 H   0  0  0  0  0
  -12.9931  -43.4745  -58.7608 H   0  0  0  0  0
  -11.8661  -41.8772  -57.4857 H   0  0  0  0  0
  -11.6045  -39.3565  -60.7045 H   0  0  0  0  0
  -11.9855  -42.9366  -60.8326 H   0  0  0  0  0
  -13.0261  -41.0158  -59.9064 H   0  0  0  0  0
  -11.6564  -40.7079  -58.8118 H   0  0  0  0  0
  -14.2280  -43.9131  -63.5545 H   0  0  0  0  0
  -13.8352  -45.5615  -64.1114 H   0  0  0  0  0
  -13.5790  -43.5798  -66.2415 H   0  0  0  0  0
  -15.2390  -43.6372  -65.5388 H   0  0  0  0  0
  -15.5124  -45.8916  -66.0981 H   0  0  0  0  0
  -13.7501  -46.1216  -66.3822 H   0  0  0  0  0
  -13.8362  -44.8217  -68.3793 H   0  0  0  0  0
  -15.5481  -44.3488  -68.0509 H   0  0  0  0  0
  -16.3699  -46.3132  -68.7971 H   0  0  0  0  0
  -14.9335  -47.2489  -68.2274 H   0  0  0  0  0
  -14.5181  -47.4144  -70.4304 H   0  0  0  0  0
  -13.8418  -45.7497  -70.1975 H   0  0  0  0  0
  -15.6040  -44.7492  -71.2514 H   0  0  0  0  0
  -16.7372  -46.0916  -70.8635 H   0  0  0  0  0
  -16.3587  -47.0410  -72.8278 H   0  0  0  0  0
  -14.5715  -47.0110  -72.5347 H   0  0  0  0  0
  -15.6976  -44.4070  -73.2643 H   0  0  0  0  0
  -15.9063  -45.6523  -74.5311 H   0  0  0  0  0
  -13.1352  -45.7291  -73.4219 H   0  0  0  0  0
  -12.3522  -44.4597  -75.2460 H   0  0  0  0  0
  -15.2730  -44.2554  -76.1270 H   0  0  0  0  0
  -13.8351  -43.6527  -76.9962 H   0  0  0  0  0
  -14.1403  -42.0392  -74.5354 H   0  0  0  0  0
  -15.7755  -41.7789  -77.1196 H   0  0  0  0  0
  -14.8323  -39.4213  -75.9871 H   0  0  0  0  0
  -15.5577  -40.1476  -74.5186 H   0  0  0  0  0
  -17.1355  -39.9079  -77.0682 H   0  0  0  0  0
  -16.9810  -38.5117  -75.9170 H   0  0  0  0  0
  -17.9539  -39.8619  -74.1548 H   0  0  0  0  0
  -18.0960  -41.2537  -75.2864 H   0  0  0  0  0
  -19.6997  -40.1062  -76.6165 H   0  0  0  0  0
  -19.4097  -38.5661  -75.7497 H   0  0  0  0  0
  -20.5855  -41.0949  -74.5528 H   0  0  0  0  0
  -20.2972  -39.5635  -73.6910 H   0  0  0  0  0
  -21.4954  -39.6330  -75.0064 H   0  0  0  0  0
  1  2  1  0  0  0
 23  1  1  0  0  0
  2  3  1  0  0  0
  2  4  1  0  0  0
  3 34  1  0  0  0
  4  5  1  0  0  0
  4  6  1  0  0  0
  6  7  1  0  0  0
  6  8  1  0  0  0
  8  9  1  0  0  0
  9 10  1  0  0  0
 10 11  1  0  0  0
 11 12  1  0  0  0
 12 13  1  0  0  0
 13 14  1  0  0  0
 14 15  1  0  0  0
 15 16  1  0  0  0
 16 17  1  0  0  0
 17 18  1  0  0  0
 18 19  1  0  0  0
 19 20  1  0  0  0
 20 21  1  0  0  0
 22 23  1  0  0  0
 24 22  1  0  0  0
 22 33  1  0  0  0
 24 25  1  0  0  0
 26 24  1  0  0  0
 26 27  1  0  0  0
 28 26  1  0  0  0
 28 29  1  0  0  0
 31 28  1  0  0  0
 32 30  1  0  0  0
 31 32  1  0  0  0
 31 33  1  0  0  0
 34 35  2  0  0  0
 34 36  1  0  0  0
 36 37  1  0  0  0
 37 38  1  0  0  0
 38 39  1  0  0  0
 39 40  1  0  0  0
 40 41  1  0  0  0
 41 42  1  0  0  0
 42 43  1  0  0  0
 43 44  1  0  0  0
 44 45  1  0  0  0
 45 46  2  0  0  0
 46 47  1  0  0  0
 47 48  1  0  0  0
 48 49  2  0  0  0
 49 50  1  0  0  0
 50 51  1  0  0  0
 51 52  1  0  0  0
 52 53  1  0  0  0
 53 54  1  0  0  0
  1 55  1  0  0  0
  1 56  1  0  0  0
  2 57  1  0  0  0
  3 58  1  0  0  0
  4 59  1  0  0  0
  5 60  1  0  0  0
  6 61  1  0  0  0
  7 62  1  0  0  0
  8 63  1  0  0  0
  8 64  1  0  0  0
  9 65  1  0  0  0
  9 66  1  0  0  0
 10 67  1  0  0  0
 10 68  1  0  0  0
 11 69  1  0  0  0
 11 70  1  0  0  0
 12 71  1  0  0  0
 12 72  1  0  0  0
 13 73  1  0  0  0
 13 74  1  0  0  0
 14 75  1  0  0  0
 14 76  1  0  0  0
 15 77  1  0  0  0
 15 78  1  0  0  0
 16 79  1  0  0  0
 16 80  1  0  0  0
 17 81  1  0  0  0
 17 82  1  0  0  0
 18 83  1  0  0  0
 18 84  1  0  0  0
 19 85  1  0  0  0
 19 86  1  0  0  0
 20 87  1  0  0  0
 20 88  1  0  0  0
 21 89  1  0  0  0
 21 90  1  0  0  0
 21 91  1  0  0  0
 22 92  1  0  0  0
 24 93  1  0  0  0
 25 94  1  0  0  0
 26 95  1  0  0  0
 27 96  1  0  0  0
 28 97  1  0  0  0
 29 98  1  0  0  0
 30 99  1  0  0  0
 31100  1  0  0  0
 32101  1  0  0  0
 32102  1  0  0  0
 36103  1  0  0  0
 36104  1  0  0  0
 37105  1  0  0  0
 37106  1  0  0  0
 38107  1  0  0  0
 38108  1  0  0  0
 39109  1  0  0  0
 39110  1  0  0  0
 40111  1  0  0  0
 40112  1  0  0  0
 41113  1  0  0  0
 41114  1  0  0  0
 42115  1  0  0  0
 42116  1  0  0  0
 43117  1  0  0  0
 43118  1  0  0  0
 44119  1  0  0  0
 44120  1  0  0  0
 45121  1  0  0  0
 46122  1  0  0  0
 47123  1  0  0  0
 47124  1  0  0  0
 48125  1  0  0  0
 49126  1  0  0  0
 50127  1  0  0  0
 50128  1  0  0  0
 51129  1  0  0  0
 51130  1  0  0  0
 52131  1  0  0  0
 52132  1  0  0  0
 53133  1  0  0  0
 53134  1  0  0  0
 54135  1  0  0  0
 54136  1  0  0  0
 54137  1  0  0  0
M  END
$$$$
