5f3t_ligand
  -I-interpret- 

 32 33  0  0  0  0  0  0  0  0999 V2000
   18.0890   60.8460   10.5690 C   0  0  0  0  0
   17.9010   61.0270   11.9520 C   0  0  0  0  0
   17.7320   62.3130   12.4730 C   0  0  0  0  0
   18.7230   66.8550   12.2070 O   0  0  0  0  0
   19.8530   65.0260   12.6710 O   0  0  0  0  0
   19.2860   60.8060    6.2780 C   0  0  0  0  0
   18.4890   61.5550    5.4180 C   0  0  0  0  0
   17.5720   62.4640    5.9500 C   0  0  0  0  0
   17.4510   62.6160    7.3340 C   0  0  0  0  0
   18.7880   65.6180   12.3860 C   0  0  0  0  0
   17.5240   64.8080   12.2800 C   0  0  0  0  0
   17.7610   63.4460   11.6530 C   0  0  0  0  0
   17.9310   63.3170   10.2650 C   0  0  0  0  0
   18.1150   62.0500    9.6820 C   0  0  0  0  0
   18.2510   59.5900   10.0170 O   0  0  0  0  0
   17.9440   58.4010   10.7510 C   0  0  0  0  0
   18.2760   61.8880    8.2020 C   0  0  0  0  0
   19.2040   60.9870    7.6630 C   0  0  0  0  0
   17.8872   60.1637   12.6173 H   0  0  0  0  0
   17.5737   62.4360   13.5444 H   0  0  0  0  0
   17.8183   67.1001   11.9996 H   0  0  0  0  0
   19.9803   60.0718    5.8692 H   0  0  0  0  0
   18.5796   61.4334    4.3386 H   0  0  0  0  0
   16.9476   63.0579    5.2825 H   0  0  0  0  0
   16.7106   63.3048    7.7407 H   0  0  0  0  0
   16.8253   65.3542   11.6463 H   0  0  0  0  0
   17.1370   64.6531   13.2872 H   0  0  0  0  0
   17.9203   64.2059    9.6342 H   0  0  0  0  0
   18.5630   58.3588   11.6472 H   0  0  0  0  0
   16.8917   58.4123   11.0349 H   0  0  0  0  0
   18.1443   57.5292   10.1282 H   0  0  0  0  0
   19.8638   60.4256    8.3245 H   0  0  0  0  0
  1  2  4  0  0  0
 14  1  4  0  0  0
  1 15  1  0  0  0
  2  3  4  0  0  0
 12  3  4  0  0  0
 10  4  1  0  0  0
 10  5  2  0  0  0
  7  6  4  0  0  0
  6 18  4  0  0  0
  8  7  4  0  0  0
  9  8  4  0  0  0
 17  9  4  0  0  0
 11 10  1  0  0  0
 12 11  1  0  0  0
 13 12  4  0  0  0
 14 13  4  0  0  0
 14 17  1  0  0  0
 15 16  1  0  0  0
 17 18  4  0  0  0
  2 19  1  0  0  0
  3 20  1  0  0  0
  4 21  1  0  0  0
  6 22  1  0  0  0
  7 23  1  0  0  0
  8 24  1  0  0  0
  9 25  1  0  0  0
 11 26  1  0  0  0
 11 27  1  0  0  0
 13 28  1  0  0  0
 16 29  1  0  0  0
 16 30  1  0  0  0
 16 31  1  0  0  0
 18 32  1  0  0  0
M  END
$$$$
