3veh_ligand
  -I-interpret- 

 31 31  0  0  0  0  0  0  0  0999 V2000
   -4.5260   -0.6680   33.3570 O   0  0  0  0  0
   -4.4180    0.5160   33.7320 C   0  0  0  0  0
   -3.9340    0.7580   34.8510 O   0  0  0  0  0
   -4.6420    1.6250   32.7660 C   0  0  0  0  0
   -4.6800    2.9330   33.1050 C   0  0  0  0  0
   -4.8630    3.9190   31.9840 C   0  0  0  0  0
   -4.8170    1.3290   31.3390 O   0  0  0  0  0
   -3.7430    0.5940   30.6850 C   0  0  0  0  0
   -2.5310    0.3190   31.2160 C   0  0  0  0  0
   -1.4330   -0.1900   30.3980 C   0  0  0  0  0
   -1.7580   -0.7040   29.1530 C   0  0  0  0  0
   -4.1240    0.0730   29.3450 C   0  0  0  0  0
   -5.1730    0.7920   28.7230 O   0  0  0  0  0
   -2.9290   -0.0880   28.4310 C   0  0  0  0  0
   -3.3430   -0.5470   27.0280 C   0  0  0  0  0
   -4.4980   -0.2040   26.5910 O   0  0  0  0  0
   -2.4910   -1.1910   26.3890 O   0  0  0  0  0
   -4.9139   -0.6903   32.4792 H   0  0  0  0  0
   -4.5827    3.2576   34.1410 H   0  0  0  0  0
   -4.0391    3.8206   31.2772 H   0  0  0  0  0
   -5.8058    3.7179   31.4753 H   0  0  0  0  0
   -4.8763    4.9305   32.3900 H   0  0  0  0  0
   -2.3687    0.4811   32.2816 H   0  0  0  0  0
   -1.0056   -1.0209   30.9593 H   0  0  0  0  0
   -0.7854    0.6654   30.2057 H   0  0  0  0  0
   -2.0345   -1.7438   29.3275 H   0  0  0  0  0
   -0.8904   -0.5140   28.5212 H   0  0  0  0  0
   -4.5276   -0.9218   29.5336 H   0  0  0  0  0
   -5.3637    0.4012   27.8671 H   0  0  0  0  0
   -2.4793    0.8683   28.1640 H   0  0  0  0  0
   -4.9650    0.2840   27.2732 H   0  0  0  0  0
  1  2  1  0  0  0
  2  3  2  0  0  0
  2  4  1  0  0  0
  4  5  2  0  0  0
  4  7  1  0  0  0
  5  6  1  0  0  0
  7  8  1  0  0  0
  8  9  2  0  0  0
  8 12  1  0  0  0
  9 10  1  0  0  0
 10 11  1  0  0  0
 11 14  1  0  0  0
 12 13  1  0  0  0
 12 14  1  0  0  0
 14 15  1  0  0  0
 15 16  1  0  0  0
 15 17  2  0  0  0
  1 18  1  0  0  0
  5 19  1  0  0  0
  6 20  1  0  0  0
  6 21  1  0  0  0
  6 22  1  0  0  0
  9 23  1  0  0  0
 10 24  1  0  0  0
 10 25  1  0  0  0
 11 26  1  0  0  0
 11 27  1  0  0  0
 12 28  1  0  0  0
 13 29  1  0  0  0
 14 30  1  0  0  0
 16 31  1  0  0  0
M  END
$$$$
