5ap0_ligand
  -I-interpret- 

 66 70  0  0  0  0  0  0  0  0999 V2000
   -2.8270   15.9450  -18.0020 O   0  0  0  0  0
   -2.0900   14.9910  -18.0040 C   0  0  0  0  0
   -1.7200   14.2580  -19.1490 N   0  0  0  0  0
   -2.1870   14.5570  -20.4880 C   0  0  0  0  0
   -0.8660   13.2240  -18.7590 C   0  0  0  0  0
   -0.2060   12.2150  -19.4200 C   0  0  0  0  0
    0.5460   11.3330  -18.7530 N   0  0  0  0  0
   -1.4500   14.3940  -16.8860 N   0  0  0  0  0
   -1.5440   14.8660  -15.4980 C   0  0  0  0  0
   -0.1740   15.2540  -14.9210 C   0  0  0  0  0
   -0.2530   14.9890  -13.4210 C   0  0  0  0  0
   -1.4040   14.0110  -13.1970 C   0  0  0  0  0
   -2.0660   13.7770  -14.5530 C   0  0  0  0  0
   -0.7050   13.3030  -17.3420 C   0  0  0  0  0
    0.0260   12.4520  -16.6030 N   0  0  0  0  0
    0.6140   11.4810  -17.3790 C   0  0  0  0  0
    1.3470   10.4800  -16.7780 N   0  0  0  0  0
    1.6090   10.2850  -15.4100 C   0  0  0  0  0
    1.5410    9.0290  -14.8180 C   0  0  0  0  0
    1.1650    7.9450  -15.5570 O   0  0  0  0  0
    2.1670    6.9660  -15.6410 C   0  0  0  0  0
    1.8240    8.8380  -13.4760 C   0  0  0  0  0
    2.1780    9.9320  -12.7180 C   0  0  0  0  0
    2.2370   11.2150  -13.2730 C   0  0  0  0  0
    1.9560   11.3860  -14.6160 C   0  0  0  0  0
    2.5420    9.7890  -11.4130 O   0  0  0  0  0
    1.8120   10.4910  -10.4350 C   0  0  0  0  0
    2.7030   10.5430   -9.1860 C   0  0  0  0  0
    1.8970   11.0810   -7.9990 C   0  0  0  0  0
    0.6960   10.2710   -7.6980 N   0  3  0  0  0
   -0.0420   10.7960   -6.5220 C   0  0  0  0  0
   -0.1520   10.1750   -8.9110 C   0  0  0  0  0
    0.5810    9.6250  -10.1480 C   0  0  0  0  0
   -1.3323   14.7661  -21.1313 H   0  0  0  0  0
   -2.7370   13.7011  -20.8792 H   0  0  0  0  0
   -2.8418   15.4279  -20.4570 H   0  0  0  0  0
   -0.2970   12.1329  -20.5031 H   0  0  0  0  0
   -2.2189   15.7204  -15.5496 H   0  0  0  0  0
    0.0555   16.3001  -15.1235 H   0  0  0  0  0
    0.6249   14.6725  -15.3811 H   0  0  0  0  0
   -0.4251   15.9167  -12.8752 H   0  0  0  0  0
    0.6843   14.5701  -13.0547 H   0  0  0  0  0
   -2.1212   14.4181  -12.4843 H   0  0  0  0  0
   -1.0359   13.0727  -12.7819 H   0  0  0  0  0
   -1.8242   12.7852  -14.9351 H   0  0  0  0  0
   -3.1514   13.8276  -14.4671 H   0  0  0  0  0
    1.7532    9.7892  -17.4091 H   0  0  0  0  0
    3.0539    7.3948  -16.1076 H   0  0  0  0  0
    2.4154    6.6153  -14.6393 H   0  0  0  0  0
    1.8072    6.1303  -16.2412 H   0  0  0  0  0
    1.7679    7.8450  -13.0300 H   0  0  0  0  0
    2.5019   12.0713  -12.6528 H   0  0  0  0  0
    2.0046   12.3809  -15.0586 H   0  0  0  0  0
    1.5230   11.4984  -10.7346 H   0  0  0  0  0
    3.5515   11.2007   -9.3745 H   0  0  0  0  0
    3.0605    9.5395   -8.9550 H   0  0  0  0  0
    1.5628   12.0866   -8.2542 H   0  0  0  0  0
    2.5427   11.0548   -7.1212 H   0  0  0  0  0
    0.9861    9.3278   -7.4397 H   0  0  0  0  0
    0.6101   10.7801   -5.6487 H   0  0  0  0  0
   -0.3597   11.8195   -6.7213 H   0  0  0  0  0
   -0.9164   10.1726   -6.3355 H   0  0  0  0  0
   -0.4825   11.1848   -9.1543 H   0  0  0  0  0
   -0.9637    9.4841   -8.6833 H   0  0  0  0  0
    0.8937    8.5979   -9.9597 H   0  0  0  0  0
   -0.0884    9.6466  -11.0079 H   0  0  0  0  0
  1  2  2  0  0  0
  2  3  1  0  0  0
  2  8  1  0  0  0
  3  4  1  0  0  0
  3  5  1  0  0  0
  5  6  4  0  0  0
  5 14  4  0  0  0
  6  7  4  0  0  0
  7 16  4  0  0  0
  8  9  1  0  0  0
  8 14  1  0  0  0
  9 10  1  0  0  0
  9 13  1  0  0  0
 10 11  1  0  0  0
 11 12  1  0  0  0
 12 13  1  0  0  0
 14 15  4  0  0  0
 15 16  4  0  0  0
 16 17  1  0  0  0
 17 18  1  0  0  0
 18 19  4  0  0  0
 18 25  4  0  0  0
 19 20  1  0  0  0
 19 22  4  0  0  0
 20 21  1  0  0  0
 22 23  4  0  0  0
 23 24  4  0  0  0
 23 26  1  0  0  0
 24 25  4  0  0  0
 26 27  1  0  0  0
 27 28  1  0  0  0
 27 33  1  0  0  0
 28 29  1  0  0  0
 29 30  1  0  0  0
 30 31  1  0  0  0
 30 32  1  0  0  0
 32 33  1  0  0  0
  4 34  1  0  0  0
  4 35  1  0  0  0
  4 36  1  0  0  0
  6 37  1  0  0  0
  9 38  1  0  0  0
 10 39  1  0  0  0
 10 40  1  0  0  0
 11 41  1  0  0  0
 11 42  1  0  0  0
 12 43  1  0  0  0
 12 44  1  0  0  0
 13 45  1  0  0  0
 13 46  1  0  0  0
 17 47  1  0  0  0
 21 48  1  0  0  0
 21 49  1  0  0  0
 21 50  1  0  0  0
 22 51  1  0  0  0
 24 52  1  0  0  0
 25 53  1  0  0  0
 27 54  1  0  0  0
 28 55  1  0  0  0
 28 56  1  0  0  0
 29 57  1  0  0  0
 29 58  1  0  0  0
 30 59  1  0  0  0
 31 60  1  0  0  0
 31 61  1  0  0  0
 31 62  1  0  0  0
 32 63  1  0  0  0
 32 64  1  0  0  0
 33 65  1  0  0  0
 33 66  1  0  0  0
M  END
$$$$
