5vjp_ligand
  -I-interpret- 

 35 35  0  0  0  0  0  0  0  0999 V2000
  -37.6210  -14.3860   12.9810 O   0  0  0  0  0
  -36.7280  -15.3560   13.7230 P   0  0  0  0  0
  -37.4790  -16.6330   13.9730 O   0  0  0  0  0
  -36.2280  -14.7270   15.0050 O   0  0  0  0  0
  -35.4470  -15.6970   12.8290 O   0  0  0  0  0
  -34.3420  -16.3600   13.4260 C   0  0  0  0  0
  -33.1660  -16.2220   12.4720 C   0  0  0  0  0
  -31.8820  -16.8880   12.9240 C   0  0  0  0  0
  -32.1240  -18.2460   13.3070 O   0  0  0  0  0
  -33.4500  -16.8440   11.1580 N   0  3  0  0  0
  -32.1380  -17.2900   10.6320 C   0  0  0  0  0
  -31.1000  -16.8280   11.6390 C   0  0  0  0  0
  -29.9460  -17.6600   11.6400 O   0  0  0  0  0
  -31.8910  -16.7120    9.2570 C   0  0  0  0  0
  -33.0280  -16.9970    8.4470 O   0  0  0  0  0
  -32.9940  -18.1640    7.3430 P   0  0  0  0  0
  -33.0590  -19.5110    8.0230 O   0  0  0  0  0
  -31.7070  -18.0480    6.5570 O   0  0  0  0  0
  -34.1840  -17.9640    6.4310 O   0  0  0  0  0
  -37.1417  -13.5698   12.8210 H   0  0  0  0  0
  -35.7558  -13.9168   14.7996 H   0  0  0  0  0
  -34.5734  -17.4107   13.6006 H   0  0  0  0  0
  -34.1055  -15.9170   14.3934 H   0  0  0  0  0
  -33.0320  -15.1412   12.4281 H   0  0  0  0  0
  -31.3974  -16.4303   13.7864 H   0  0  0  0  0
  -31.2999  -18.6493   13.5895 H   0  0  0  0  0
  -33.8996  -16.1837   10.5237 H   0  0  0  0  0
  -34.0988  -17.6257   11.2494 H   0  0  0  0  0
  -32.0962  -18.3727   10.5128 H   0  0  0  0  0
  -30.6836  -15.8413   11.4361 H   0  0  0  0  0
  -29.4929  -17.5778   10.7977 H   0  0  0  0  0
  -30.9965  -17.1543    8.8184 H   0  0  0  0  0
  -31.7376  -15.6349    9.3240 H   0  0  0  0  0
  -31.6719  -17.1902    6.1275 H   0  0  0  0  0
  -34.1222  -17.1033    6.0102 H   0  0  0  0  0
  1  2  1  0  0  0
  2  3  2  0  0  0
  2  4  1  0  0  0
  2  5  1  0  0  0
  5  6  1  0  0  0
  6  7  1  0  0  0
  7  8  1  0  0  0
  7 10  1  0  0  0
  8  9  1  0  0  0
  8 12  1  0  0  0
 10 11  1  0  0  0
 11 12  1  0  0  0
 11 14  1  0  0  0
 12 13  1  0  0  0
 14 15  1  0  0  0
 15 16  1  0  0  0
 16 17  2  0  0  0
 16 18  1  0  0  0
 16 19  1  0  0  0
  1 20  1  0  0  0
  4 21  1  0  0  0
  6 22  1  0  0  0
  6 23  1  0  0  0
  7 24  1  0  0  0
  8 25  1  0  0  0
  9 26  1  0  0  0
 10 27  1  0  0  0
 10 28  1  0  0  0
 11 29  1  0  0  0
 12 30  1  0  0  0
 13 31  1  0  0  0
 14 32  1  0  0  0
 14 33  1  0  0  0
 18 34  1  0  0  0
 19 35  1  0  0  0
M  END
$$$$
