### 
### Created by X-TOOL on Mon Sep 10 21:13:34 2018
### 

@<TRIPOS>MOLECULE
5vjp_ligand
   31    31     1     0     0
SMALL
GAST_HUCK


@<TRIPOS>ATOM
      1 O3P       -37.6210  -14.3860   12.9810 O.co2     1 IR9        -0.5537
      2 P1        -36.7280  -15.3560   13.7230 P.3       1 IR9         0.2010
      3 O1P       -37.4790  -16.6330   13.9730 O.co2     1 IR9        -0.5537
      4 O2P       -36.2280  -14.7270   15.0050 O.co2     1 IR9        -0.5537
      5 O1        -35.4470  -15.6970   12.8290 O.3       1 IR9        -0.2704
      6 C1        -34.3420  -16.3600   13.4260 C.3       1 IR9         0.1233
      7 C2        -33.1660  -16.2220   12.4720 C.3       1 IR9         0.0353
      8 C3        -31.8820  -16.8880   12.9240 C.3       1 IR9         0.1311
      9 O3        -32.1240  -18.2460   13.3070 O.3       1 IR9        -0.3833
     10 N1        -33.4500  -16.8440   11.1580 N.4       1 IR9         0.2389
     11 C5        -32.1380  -17.2900   10.6320 C.3       1 IR9         0.0353
     12 C4        -31.1000  -16.8280   11.6390 C.3       1 IR9         0.1311
     13 O4        -29.9460  -17.6600   11.6400 O.3       1 IR9        -0.3833
     14 C6        -31.8910  -16.7120    9.2570 C.3       1 IR9         0.1233
     15 O6        -33.0280  -16.9970    8.4470 O.3       1 IR9        -0.2704
     16 P2        -32.9940  -18.1640    7.3430 P.3       1 IR9         0.2010
     17 O4P       -33.0590  -19.5110    8.0230 O.co2     1 IR9        -0.5537
     18 O5P       -31.7070  -18.0480    6.5570 O.co2     1 IR9        -0.5537
     19 O6P       -34.1840  -17.9640    6.4310 O.co2     1 IR9        -0.5537
     20 H1        -34.5790  -17.4230   13.5808 H         1 IR9         0.0670
     21 H2        -34.1000  -15.8938   14.3924 H         1 IR9         0.0670
     22 H3        -32.9786  -15.1465   12.3370 H         1 IR9         0.0904
     23 H4        -31.3897  -16.3421   13.7423 H         1 IR9         0.0679
     24 H5        -31.3085  -18.6451   13.5865 H         1 IR9         0.2102
     25 H6        -33.8683  -16.1717   10.5342 H         1 IR9         0.2023
     26 H7        -34.0700  -17.6310   11.2686 H         1 IR9         0.2023
     27 H8        -32.1183  -18.3875   10.5609 H         1 IR9         0.0904
     28 H9        -30.7842  -15.7957   11.4280 H         1 IR9         0.0679
     29 H10       -30.1980  -18.5488   11.8613 H         1 IR9         0.2102
     30 H11       -30.9940  -17.1706    8.8152 H         1 IR9         0.0670
     31 H12       -31.7484  -15.6237    9.3300 H         1 IR9         0.0670
@<TRIPOS>BOND
     1    1    2 ar 
     2    2    3 ar 
     3    2    4 ar 
     4    2    5 1  
     5    5    6 1  
     6    6    7 1  
     7    7    8 1  
     8    7   10 1  
     9    8    9 1  
    10    8   12 1  
    11   10   11 1  
    12   11   12 1  
    13   11   14 1  
    14   12   13 1  
    15   14   15 1  
    16   15   16 1  
    17   16   17 ar 
    18   16   18 ar 
    19   16   19 ar 
    20    6   20 1  
    21    6   21 1  
    22    7   22 1  
    23    8   23 1  
    24    9   24 1  
    25   10   25 1  
    26   10   26 1  
    27   11   27 1  
    28   12   28 1  
    29   13   29 1  
    30   14   30 1  
    31   14   31 1  
@<TRIPOS>SUBSTRUCTURE
     1 IR9         1

