3s8l_ligand
  -I-interpret- 

 63 64  0  0  0  0  0  0  0  0999 V2000
   -7.6070    7.3370    2.5360 C   0  0  0  0  0
   -8.7420    6.8410    2.6570 O   0  0  0  0  0
   -6.5650    7.1910    3.6600 C   0  0  0  0  0
   -7.1510    8.0100    1.4600 N   0  0  0  0  0
   -8.0370    8.2760    0.2830 C   0  0  0  0  0
   -7.3120    7.8820   -1.0000 C   0  0  0  0  0
   -6.1290    8.1460   -1.1450 O   0  0  0  0  0
   -8.4450    9.7580    0.2140 C   0  0  0  0  0
   -9.1420   10.1790    1.5110 C   0  0  0  0  0
   -8.3550   10.6420    2.5650 C   0  0  0  0  0
  -10.5280   10.0390    1.6510 C   0  0  0  0  0
   -8.9970   10.9830    3.7390 C   0  0  0  0  0
  -11.1700   10.3790    2.8710 C   0  0  0  0  0
  -10.3600   10.8280    3.9110 C   0  0  0  0  0
  -10.8110   11.2050    5.1700 O   0  0  0  0  0
  -12.3330   10.8370    5.6620 P   0  0  0  0  0
  -13.2890   11.9080    5.1990 O   0  0  0  0  0
  -12.6420    9.4970    5.3780 O   0  0  0  0  0
  -12.1400   10.9950    7.2600 O   0  0  0  0  0
   -8.0460    7.2350   -1.8660 N   0  0  0  0  0
   -5.7230    7.7910   -4.6080 O   0  0  0  0  0
   -7.4410    6.7530   -3.1180 C   0  0  0  0  0
   -6.7550    7.9220   -3.9050 C   0  0  0  0  0
   -6.6510    5.4500   -2.9350 C   0  0  0  0  0
   -7.8830    4.6110   -3.3570 C   0  0  0  0  0
   -8.5110    5.9290   -3.8700 C   0  0  0  0  0
   -7.3880    9.0610   -3.8110 N   0  0  0  0  0
   -6.9860   10.2650   -4.5460 C   0  0  0  0  0
   -6.2890   11.2690   -3.6320 C   0  0  0  0  0
   -6.1690   12.4150   -3.9950 O   0  0  0  0  0
   -8.2030   10.8520   -5.3480 C   0  0  0  0  0
   -9.3510   11.4230   -4.4330 C   0  0  0  0  0
   -9.3730   11.1260   -3.2220 O   0  0  0  0  0
  -10.1680   12.3260   -4.9860 N   0  0  0  0  0
   -5.7300   10.8580   -2.4750 N   0  0  0  0  0
   -6.9503    7.6464    4.5723 H   0  0  0  0  0
   -6.3677    6.1335    3.8356 H   0  0  0  0  0
   -5.6419    7.6901    3.3650 H   0  0  0  0  0
   -6.1870    8.3431    1.4479 H   0  0  0  0  0
   -8.9429    7.6805    0.3956 H   0  0  0  0  0
   -9.1316    9.8993   -0.6207 H   0  0  0  0  0
   -7.5514   10.3668    0.0767 H   0  0  0  0  0
   -7.2732   10.7314    2.4658 H   0  0  0  0  0
  -11.1199    9.6654    0.8154 H   0  0  0  0  0
   -8.4073   11.3895    4.5606 H   0  0  0  0  0
  -12.2502   10.2923    2.9884 H   0  0  0  0  0
  -12.9539   12.7690    5.4598 H   0  0  0  0  0
  -11.9281   11.9082    7.4669 H   0  0  0  0  0
   -9.0334    7.0648   -1.6752 H   0  0  0  0  0
   -6.1671    5.2472   -1.9796 H   0  0  0  0  0
   -5.7069    5.3178   -3.4635 H   0  0  0  0  0
   -8.4051    3.9669   -2.6494 H   0  0  0  0  0
   -7.7854    3.7364   -4.0002 H   0  0  0  0  0
   -8.6511    6.0778   -4.9407 H   0  0  0  0  0
   -9.5677    6.1275   -3.6910 H   0  0  0  0  0
   -8.2007    9.1156   -3.1971 H   0  0  0  0  0
   -6.2371    9.9986   -5.2919 H   0  0  0  0  0
   -8.6291   10.0379   -5.9343 H   0  0  0  0  0
   -7.8267   11.6782   -5.9512 H   0  0  0  0  0
  -10.8550   12.8125   -4.4100 H   0  0  0  0  0
  -10.1041   12.5282   -5.9837 H   0  0  0  0  0
   -5.2025   11.5161   -1.9014 H   0  0  0  0  0
   -5.8348    9.8891   -2.1739 H   0  0  0  0  0
  1  2  2  0  0  0
  1  3  1  0  0  0
  4  1  1  0  0  0
  5  4  1  0  0  0
  6  5  1  0  0  0
  5  8  1  0  0  0
  6  7  2  0  0  0
 20  6  1  0  0  0
  8  9  1  0  0  0
  9 10  4  0  0  0
  9 11  4  0  0  0
 10 12  4  0  0  0
 11 13  4  0  0  0
 12 14  4  0  0  0
 13 14  4  0  0  0
 14 15  1  0  0  0
 15 16  1  0  0  0
 16 17  1  0  0  0
 16 18  2  0  0  0
 16 19  1  0  0  0
 22 20  1  0  0  0
 23 21  2  0  0  0
 22 23  1  0  0  0
 22 24  1  0  0  0
 22 26  1  0  0  0
 23 27  1  0  0  0
 24 25  1  0  0  0
 25 26  1  0  0  0
 27 28  1  0  0  0
 28 29  1  0  0  0
 28 31  1  0  0  0
 29 30  2  0  0  0
 29 35  1  0  0  0
 31 32  1  0  0  0
 32 33  2  0  0  0
 32 34  1  0  0  0
  3 36  1  0  0  0
  3 37  1  0  0  0
  3 38  1  0  0  0
  4 39  1  0  0  0
  5 40  1  0  0  0
  8 41  1  0  0  0
  8 42  1  0  0  0
 10 43  1  0  0  0
 11 44  1  0  0  0
 12 45  1  0  0  0
 13 46  1  0  0  0
 17 47  1  0  0  0
 19 48  1  0  0  0
 20 49  1  0  0  0
 24 50  1  0  0  0
 24 51  1  0  0  0
 25 52  1  0  0  0
 25 53  1  0  0  0
 26 54  1  0  0  0
 26 55  1  0  0  0
 27 56  1  0  0  0
 28 57  1  0  0  0
 31 58  1  0  0  0
 31 59  1  0  0  0
 34 60  1  0  0  0
 34 61  1  0  0  0
 35 62  1  0  0  0
 35 63  1  0  0  0
M  END
$$$$
