### 
### Created by X-TOOL on Mon Sep 10 21:13:03 2018
### 

@<TRIPOS>MOLECULE
3if7_ligand
   72    71     1     0     0
SMALL
GAST_HUCK


@<TRIPOS>ATOM
      1 C11       -28.7180    7.4870  -17.4100 C.3       1 SPU        -0.0653
      2 C14       -27.9110    8.4660  -18.2570 C.3       1 SPU        -0.0559
      3 C17       -28.3630    9.9100  -18.0700 C.3       1 SPU        -0.0533
      4 C20       -27.3330   10.6690  -17.2620 C.3       1 SPU        -0.0531
      5 C23       -26.9880   12.0470  -17.8150 C.3       1 SPU        -0.0531
      6 C26       -26.3380   12.8970  -16.7370 C.3       1 SPU        -0.0531
      7 C29       -26.2720   14.3490  -17.1190 C.3       1 SPU        -0.0529
      8 C32       -25.2780   15.1080  -16.2540 C.3       1 SPU        -0.0515
      9 C35       -24.7140   16.2820  -17.0170 C.3       1 SPU        -0.0464
     10 C38       -23.8930   15.7440  -18.1900 C.3       1 SPU        -0.0364
     11 C41       -22.5380   16.3700  -18.1420 C.2       1 SPU        -0.0961
     12 C43       -21.9260   16.8160  -19.2330 C.2       1 SPU        -0.0651
     13 C45       -20.5670   17.4460  -19.0700 C.3       1 SPU         0.1175
     14 O47       -20.2360   18.0080  -20.3210 O.3       1 SPU        -0.3772
     15 C49       -20.6320   18.5790  -18.0500 C.3       1 SPU         0.0376
     16 N51       -22.0170   19.0060  -17.8770 N.4       1 SPU         0.2258
     17 C54       -20.1180   18.2440  -16.6640 C.3       1 SPU         0.1301
     18 O57       -20.9330   19.0080  -15.7900 O.3       1 SPU        -0.2482
     19 P58       -20.7970   18.8170  -14.2230 P.3       1 SPU         0.2555
     20 O59       -21.6830   17.6320  -13.8520 O.co2     1 SPU        -0.6177
     21 O60       -19.2970   18.8330  -13.9630 O.co2     1 SPU        -0.6177
     22 O61       -21.4530   20.1310  -13.5410 O.3       1 SPU        -0.2488
     23 C62       -21.3630   20.3190  -12.1210 C.3       1 SPU         0.1234
     24 C65       -21.2980   21.8150  -11.7760 C.3       1 SPU        -0.0017
     25 N68       -19.9290   22.3520  -11.7450 N.4       1 SPU         0.2388
     26 C70       -19.1860   21.8430  -12.8930 C.3       1 SPU        -0.0417
     27 C74       -19.9380   23.8340  -11.7920 C.3       1 SPU        -0.0417
     28 C78       -19.2160   21.8760  -10.5540 C.3       1 SPU        -0.0417
     29 H         -28.6045    7.7411  -16.3561 H         1 SPU         0.0230
     30 H         -29.7699    7.5488  -17.6887 H         1 SPU         0.0230
     31 H         -28.3541    6.4740  -17.5821 H         1 SPU         0.0230
     32 H         -28.0543    8.2017  -19.3047 H         1 SPU         0.0263
     33 H         -26.8679    8.3974  -17.9482 H         1 SPU         0.0263
     34 H         -29.3166    9.9237  -17.5422 H         1 SPU         0.0265
     35 H         -28.4745   10.3820  -19.0462 H         1 SPU         0.0265
     36 H         -26.4163   10.0795  -17.2784 H         1 SPU         0.0265
     37 H         -27.7544   10.8199  -16.2682 H         1 SPU         0.0265
     38 H         -27.9024   12.5356  -18.1517 H         1 SPU         0.0265
     39 H         -26.2934   11.9338  -18.6474 H         1 SPU         0.0265
     40 H         -25.3189   12.5386  -16.5920 H         1 SPU         0.0265
     41 H         -26.9385   12.8123  -15.8313 H         1 SPU         0.0265
     42 H         -27.2593   14.7886  -16.9773 H         1 SPU         0.0265
     43 H         -25.9493   14.4185  -18.1578 H         1 SPU         0.0265
     44 H         -24.4638   14.4391  -15.9750 H         1 SPU         0.0267
     45 H         -25.7869   15.4732  -15.3620 H         1 SPU         0.0267
     46 H         -24.0821   16.8834  -16.3635 H         1 SPU         0.0285
     47 H         -25.5237   16.9117  -17.3855 H         1 SPU         0.0285
     48 H         -24.3838   15.9879  -19.1322 H         1 SPU         0.0388
     49 H         -23.8061   14.6598  -18.1188 H         1 SPU         0.0388
     50 H         -22.0347   16.4640  -17.1797 H         1 SPU         0.0451
     51 H         -22.3918   16.7291  -20.2146 H         1 SPU         0.0477
     52 H         -19.8400   16.7058  -18.7357 H         1 SPU         0.0776
     53 H         -19.3724   18.4235  -20.2654 H         1 SPU         0.2129
     54 H         -19.9821   19.3479  -18.4677 H         1 SPU         0.0924
     55 H         -22.0554   19.7631  -17.1946 H         1 SPU         0.2000
     56 H         -22.3849   19.3329  -18.7704 H         1 SPU         0.2000
     57 H         -22.5752   18.2193  -17.5455 H         1 SPU         0.2000
     58 H         -19.0606   18.4834  -16.5510 H         1 SPU         0.0680
     59 H         -20.1794   17.1766  -16.4519 H         1 SPU         0.0680
     60 H         -20.4576   19.8332  -11.7573 H         1 SPU         0.0674
     61 H         -22.2462   19.8864  -11.6510 H         1 SPU         0.0674
     62 H         -21.7211   21.9397  -10.7792 H         1 SPU         0.0841
     63 H         -21.8433   22.3536  -12.5510 H         1 SPU         0.0841
     64 H         -19.1530   20.7544  -12.8491 H         1 SPU         0.0778
     65 H         -19.6810   22.1560  -13.8123 H         1 SPU         0.0778
     66 H         -18.1710   22.2397  -12.8721 H         1 SPU         0.0778
     67 H         -20.4228   24.1642  -12.7107 H         1 SPU         0.0778
     68 H         -20.4851   24.2202  -10.9320 H         1 SPU         0.0778
     69 H         -18.9127   24.2032  -11.7677 H         1 SPU         0.0778
     70 H         -19.7457   22.2042   -9.6597 H         1 SPU         0.0778
     71 H         -19.1692   20.7871  -10.5711 H         1 SPU         0.0778
     72 H         -18.2054   22.2844  -10.5497 H         1 SPU         0.0778
@<TRIPOS>BOND
     1    1    2 1  
     2    2    3 1  
     3    3    4 1  
     4    4    5 1  
     5    5    6 1  
     6    6    7 1  
     7    7    8 1  
     8    8    9 1  
     9    9   10 1  
    10   10   11 1  
    11   11   12 2  
    12   12   13 1  
    13   13   14 1  
    14   13   15 1  
    15   15   16 1  
    16   15   17 1  
    17   17   18 1  
    18   18   19 1  
    19   19   20 ar 
    20   19   21 ar 
    21   19   22 1  
    22   22   23 1  
    23   23   24 1  
    24   24   25 1  
    25   25   26 1  
    26   25   27 1  
    27   25   28 1  
    28    1   29 1  
    29    1   30 1  
    30    1   31 1  
    31    2   32 1  
    32    2   33 1  
    33    3   34 1  
    34    3   35 1  
    35    4   36 1  
    36    4   37 1  
    37    5   38 1  
    38    5   39 1  
    39    6   40 1  
    40    6   41 1  
    41    7   42 1  
    42    7   43 1  
    43    8   44 1  
    44    8   45 1  
    45    9   46 1  
    46    9   47 1  
    47   10   48 1  
    48   10   49 1  
    49   11   50 1  
    50   12   51 1  
    51   13   52 1  
    52   14   53 1  
    53   15   54 1  
    54   16   55 1  
    55   16   56 1  
    56   16   57 1  
    57   17   58 1  
    58   17   59 1  
    59   23   60 1  
    60   23   61 1  
    61   24   62 1  
    62   24   63 1  
    63   26   64 1  
    64   26   65 1  
    65   26   66 1  
    66   27   67 1  
    67   27   68 1  
    68   27   69 1  
    69   28   70 1  
    70   28   71 1  
    71   28   72 1  
@<TRIPOS>SUBSTRUCTURE
     1 SPU         1

