3if7_ligand
  -I-interpret- 

 73 72  0  0  0  0  0  0  0  0999 V2000
  -28.7180    7.4870  -17.4100 C   0  0  0  0  0
  -27.9110    8.4660  -18.2570 C   0  0  0  0  0
  -28.3630    9.9100  -18.0700 C   0  0  0  0  0
  -27.3330   10.6690  -17.2620 C   0  0  0  0  0
  -26.9880   12.0470  -17.8150 C   0  0  0  0  0
  -26.3380   12.8970  -16.7370 C   0  0  0  0  0
  -26.2720   14.3490  -17.1190 C   0  0  0  0  0
  -25.2780   15.1080  -16.2540 C   0  0  0  0  0
  -24.7140   16.2820  -17.0170 C   0  0  0  0  0
  -23.8930   15.7440  -18.1900 C   0  0  0  0  0
  -22.5380   16.3700  -18.1420 C   0  0  0  0  0
  -21.9260   16.8160  -19.2330 C   0  0  0  0  0
  -20.5670   17.4460  -19.0700 C   0  0  0  0  0
  -20.2360   18.0080  -20.3210 O   0  0  0  0  0
  -20.6320   18.5790  -18.0500 C   0  0  0  0  0
  -22.0170   19.0060  -17.8770 N   0  3  0  0  0
  -20.1180   18.2440  -16.6640 C   0  0  0  0  0
  -20.9330   19.0080  -15.7900 O   0  0  0  0  0
  -20.7970   18.8170  -14.2230 P   0  0  0  0  0
  -21.6830   17.6320  -13.8520 O   0  0  0  0  0
  -19.2970   18.8330  -13.9630 O   0  0  0  0  0
  -21.4530   20.1310  -13.5410 O   0  0  0  0  0
  -21.3630   20.3190  -12.1210 C   0  0  0  0  0
  -21.2980   21.8150  -11.7760 C   0  0  0  0  0
  -19.9290   22.3520  -11.7450 N   0  3  0  0  0
  -19.1860   21.8430  -12.8930 C   0  0  0  0  0
  -19.9380   23.8340  -11.7920 C   0  0  0  0  0
  -19.2160   21.8760  -10.5540 C   0  0  0  0  0
  -28.6045    7.7411  -16.3561 H   0  0  0  0  0
  -29.7699    7.5488  -17.6887 H   0  0  0  0  0
  -28.3541    6.4740  -17.5821 H   0  0  0  0  0
  -28.0543    8.2017  -19.3047 H   0  0  0  0  0
  -26.8679    8.3974  -17.9482 H   0  0  0  0  0
  -29.3166    9.9237  -17.5422 H   0  0  0  0  0
  -28.4745   10.3820  -19.0462 H   0  0  0  0  0
  -26.4163   10.0795  -17.2784 H   0  0  0  0  0
  -27.7544   10.8199  -16.2682 H   0  0  0  0  0
  -27.9024   12.5356  -18.1517 H   0  0  0  0  0
  -26.2934   11.9338  -18.6474 H   0  0  0  0  0
  -25.3189   12.5386  -16.5920 H   0  0  0  0  0
  -26.9385   12.8123  -15.8313 H   0  0  0  0  0
  -27.2593   14.7886  -16.9773 H   0  0  0  0  0
  -25.9493   14.4185  -18.1578 H   0  0  0  0  0
  -24.4638   14.4391  -15.9750 H   0  0  0  0  0
  -25.7869   15.4732  -15.3620 H   0  0  0  0  0
  -24.0821   16.8834  -16.3635 H   0  0  0  0  0
  -25.5237   16.9117  -17.3855 H   0  0  0  0  0
  -24.3838   15.9879  -19.1322 H   0  0  0  0  0
  -23.8061   14.6598  -18.1188 H   0  0  0  0  0
  -22.0347   16.4640  -17.1797 H   0  0  0  0  0
  -22.3918   16.7291  -20.2146 H   0  0  0  0  0
  -19.8400   16.7058  -18.7357 H   0  0  0  0  0
  -19.3724   18.4235  -20.2654 H   0  0  0  0  0
  -19.9821   19.3479  -18.4677 H   0  0  0  0  0
  -22.0554   19.7631  -17.1946 H   0  0  0  0  0
  -22.3849   19.3329  -18.7704 H   0  0  0  0  0
  -22.5752   18.2193  -17.5455 H   0  0  0  0  0
  -19.0606   18.4834  -16.5510 H   0  0  0  0  0
  -20.1794   17.1766  -16.4519 H   0  0  0  0  0
  -22.5908   17.8230  -14.0989 H   0  0  0  0  0
  -20.4576   19.8332  -11.7573 H   0  0  0  0  0
  -22.2462   19.8864  -11.6510 H   0  0  0  0  0
  -21.7211   21.9397  -10.7792 H   0  0  0  0  0
  -21.8433   22.3536  -12.5510 H   0  0  0  0  0
  -19.1530   20.7544  -12.8491 H   0  0  0  0  0
  -19.6810   22.1560  -13.8123 H   0  0  0  0  0
  -18.1710   22.2397  -12.8721 H   0  0  0  0  0
  -20.4228   24.1642  -12.7107 H   0  0  0  0  0
  -20.4851   24.2202  -10.9320 H   0  0  0  0  0
  -18.9127   24.2032  -11.7677 H   0  0  0  0  0
  -19.7457   22.2042   -9.6597 H   0  0  0  0  0
  -19.1692   20.7871  -10.5711 H   0  0  0  0  0
  -18.2054   22.2844  -10.5497 H   0  0  0  0  0
  1  2  1  0  0  0
  2  3  1  0  0  0
  3  4  1  0  0  0
  4  5  1  0  0  0
  5  6  1  0  0  0
  6  7  1  0  0  0
  7  8  1  0  0  0
  8  9  1  0  0  0
  9 10  1  0  0  0
 10 11  1  0  0  0
 11 12  2  0  0  0
 12 13  1  0  0  0
 13 14  1  0  0  0
 13 15  1  0  0  0
 15 16  1  0  0  0
 15 17  1  0  0  0
 17 18  1  0  0  0
 18 19  1  0  0  0
 19 20  1  0  0  0
 19 21  2  0  0  0
 19 22  1  0  0  0
 22 23  1  0  0  0
 23 24  1  0  0  0
 24 25  1  0  0  0
 25 26  1  0  0  0
 25 27  1  0  0  0
 25 28  1  0  0  0
  1 29  1  0  0  0
  1 30  1  0  0  0
  1 31  1  0  0  0
  2 32  1  0  0  0
  2 33  1  0  0  0
  3 34  1  0  0  0
  3 35  1  0  0  0
  4 36  1  0  0  0
  4 37  1  0  0  0
  5 38  1  0  0  0
  5 39  1  0  0  0
  6 40  1  0  0  0
  6 41  1  0  0  0
  7 42  1  0  0  0
  7 43  1  0  0  0
  8 44  1  0  0  0
  8 45  1  0  0  0
  9 46  1  0  0  0
  9 47  1  0  0  0
 10 48  1  0  0  0
 10 49  1  0  0  0
 11 50  1  0  0  0
 12 51  1  0  0  0
 13 52  1  0  0  0
 14 53  1  0  0  0
 15 54  1  0  0  0
 16 55  1  0  0  0
 16 56  1  0  0  0
 16 57  1  0  0  0
 17 58  1  0  0  0
 17 59  1  0  0  0
 20 60  1  0  0  0
 23 61  1  0  0  0
 23 62  1  0  0  0
 24 63  1  0  0  0
 24 64  1  0  0  0
 26 65  1  0  0  0
 26 66  1  0  0  0
 26 67  1  0  0  0
 27 68  1  0  0  0
 27 69  1  0  0  0
 27 70  1  0  0  0
 28 71  1  0  0  0
 28 72  1  0  0  0
 28 73  1  0  0  0
M  END
$$$$
