5j32_ligand
  -I-interpret- 

 24 23  0  0  0  0  0  0  0  0999 V2000
   20.7620    6.7090   19.7850 C   0  0  0  0  0
   20.6750    8.0780   19.1960 C   0  0  0  0  0
   21.9080    8.8390   19.5760 C   0  0  0  0  0
   23.0870    8.0810   19.0540 C   0  0  0  0  0
   21.8910   10.2510   19.0520 C   0  0  0  0  0
   23.0660   11.0130   19.5840 C   0  0  0  0  0
   20.6570   10.9610   19.5210 C   0  0  0  0  0
   20.5830    7.9760   17.8200 O   0  0  0  0  0
   20.7680    6.5620   21.0340 O   0  0  0  0  0
   20.8400    5.7010   19.0370 O   0  0  0  0  0
   23.5020    8.2590   17.8740 O   0  0  0  0  0
   23.6710    7.2480   19.7950 O   0  0  0  0  0
   19.7944    8.5997   19.5708 H   0  0  0  0  0
   21.9607    8.9273   20.6611 H   0  0  0  0  0
   21.9206   10.2029   17.9635 H   0  0  0  0  0
   23.0396   12.0331   19.2008 H   0  0  0  0  0
   23.0227   11.0313   20.6730 H   0  0  0  0  0
   23.9877   10.5271   19.2639 H   0  0  0  0  0
   20.6423   10.9799   20.6107 H   0  0  0  0  0
   20.6592   11.9817   19.1386 H   0  0  0  0  0
   19.7754   10.4358   19.1535 H   0  0  0  0  0
   19.7899    7.4870   17.5888 H   0  0  0  0  0
   20.8227    5.9827   18.1194 H   0  0  0  0  0
   22.9570    8.9199   17.4406 H   0  0  0  0  0
  1  2  1  0  0  0
  1  9  2  0  0  0
  1 10  1  0  0  0
  2  3  1  0  0  0
  2  8  1  0  0  0
  3  4  1  0  0  0
  3  5  1  0  0  0
  4 11  1  0  0  0
  4 12  2  0  0  0
  5  6  1  0  0  0
  5  7  1  0  0  0
  2 13  1  0  0  0
  3 14  1  0  0  0
  5 15  1  0  0  0
  6 16  1  0  0  0
  6 17  1  0  0  0
  6 18  1  0  0  0
  7 19  1  0  0  0
  7 20  1  0  0  0
  7 21  1  0  0  0
  8 22  1  0  0  0
 10 23  1  0  0  0
 11 24  1  0  0  0
M  END
$$$$
