6e5s_ligand
  -I-interpret- 

 50 50  0  0  0  0  0  0  0  0999 V2000
    1.2420  -14.6680    9.9560 C   0  0  0  0  0
    2.1530  -14.4200    8.7540 C   0  0  0  0  0
    3.2630  -15.4510    8.6730 C   0  0  0  0  0
    4.1660  -15.1950    9.8650 C   0  0  0  0  0
    3.3470  -15.4550   11.1010 C   0  0  0  0  0
    2.0230  -15.2190   11.1500 C   0  0  0  0  0
    1.3230  -15.5410   12.4260 C   0  0  0  0  0
    0.9490  -14.6470   13.3290 C   0  0  0  0  0
    0.2780  -15.0620   14.5800 C   0  0  0  0  0
   -1.0020  -14.7300   14.8030 C   0  0  0  0  0
   -1.6180  -15.1190   16.0690 C   0  0  0  0  0
   -2.7650  -14.5490   16.4370 C   0  0  0  0  0
   -3.3760  -14.9070   17.7260 C   0  0  0  0  0
   -4.5400  -14.3620   18.1310 C   0  0  0  0  0
   -5.1230  -14.7260   19.4250 C   0  0  0  0  0
    0.1280  -15.6560    9.5960 C   0  0  0  0  0
    0.6090  -13.3270   10.3060 C   0  0  0  0  0
    4.0610  -15.9990   12.3070 C   0  0  0  0  0
    1.0420  -15.8120   15.6450 C   0  0  0  0  0
   -2.6340  -15.8720   18.5870 C   0  0  0  0  0
    2.6055  -13.4343    8.8622 H   0  0  0  0  0
    1.5526  -14.4881    7.8468 H   0  0  0  0  0
    3.8138  -15.3628    7.7366 H   0  0  0  0  0
    2.8610  -16.4639    8.6949 H   0  0  0  0  0
    4.5357  -14.1696    9.8558 H   0  0  0  0  0
    5.0381  -15.8482    9.8356 H   0  0  0  0  0
    1.1028  -16.5887   12.6310 H   0  0  0  0  0
    1.1387  -13.5891   13.1473 H   0  0  0  0  0
   -1.5718  -14.1804   14.0538 H   0  0  0  0  0
   -1.1450  -15.8669   16.7054 H   0  0  0  0  0
   -3.2481  -13.8207   15.7856 H   0  0  0  0  0
   -5.0523  -13.6441   17.4904 H   0  0  0  0  0
   -5.3188  -15.7981   19.4452 H   0  0  0  0  0
   -4.4256  -14.4676   20.2218 H   0  0  0  0  0
   -6.0568  -14.1821   19.5672 H   0  0  0  0  0
   -0.5418  -15.7725   10.4480 H   0  0  0  0  0
   -0.4316  -15.2751    8.7416 H   0  0  0  0  0
    0.5676  -16.6209    9.3431 H   0  0  0  0  0
    0.0472  -12.9570    9.4483 H   0  0  0  0  0
   -0.0631  -13.4544   11.1547 H   0  0  0  0  0
    1.3916  -12.6137   10.5645 H   0  0  0  0  0
    3.9482  -15.3036   13.1388 H   0  0  0  0  0
    3.6316  -16.9636   12.5774 H   0  0  0  0  0
    5.1190  -16.1228   12.0761 H   0  0  0  0  0
    1.0709  -15.2161   16.5573 H   0  0  0  0  0
    0.5460  -16.7617   15.8454 H   0  0  0  0  0
    2.0586  -15.9976   15.2984 H   0  0  0  0  0
   -2.3724  -15.3899   19.5289 H   0  0  0  0  0
   -3.2636  -16.7397   18.7841 H   0  0  0  0  0
   -1.7255  -16.1894   18.0752 H   0  0  0  0  0
  1  2  1  0  0  0
  1  6  1  0  0  0
  1 16  1  0  0  0
  1 17  1  0  0  0
  2  3  1  0  0  0
  3  4  1  0  0  0
  4  5  1  0  0  0
  5  6  2  0  0  0
  5 18  1  0  0  0
  6  7  1  0  0  0
  7  8  2  0  0  0
  8  9  1  0  0  0
  9 10  2  0  0  0
  9 19  1  0  0  0
 10 11  1  0  0  0
 11 12  2  0  0  0
 12 13  1  0  0  0
 13 14  2  0  0  0
 13 20  1  0  0  0
 14 15  1  0  0  0
  2 21  1  0  0  0
  2 22  1  0  0  0
  3 23  1  0  0  0
  3 24  1  0  0  0
  4 25  1  0  0  0
  4 26  1  0  0  0
  7 27  1  0  0  0
  8 28  1  0  0  0
 10 29  1  0  0  0
 11 30  1  0  0  0
 12 31  1  0  0  0
 14 32  1  0  0  0
 15 33  1  0  0  0
 15 34  1  0  0  0
 15 35  1  0  0  0
 16 36  1  0  0  0
 16 37  1  0  0  0
 16 38  1  0  0  0
 17 39  1  0  0  0
 17 40  1  0  0  0
 17 41  1  0  0  0
 18 42  1  0  0  0
 18 43  1  0  0  0
 18 44  1  0  0  0
 19 45  1  0  0  0
 19 46  1  0  0  0
 19 47  1  0  0  0
 20 48  1  0  0  0
 20 49  1  0  0  0
 20 50  1  0  0  0
M  END
$$$$
