### 
### Created by X-TOOL on Mon Sep 10 21:13:14 2018
### 

@<TRIPOS>MOLECULE
3wdz_ligand
  168   168     1     0     0
SMALL
GAST_HUCK


@<TRIPOS>ATOM
      1 N          -3.4700   -5.3210   15.7060 N.4       1 LYS         0.2379
      2 CA         -3.2740   -4.8750   14.2890 C.3       1 LYS         0.0650
      3 C          -2.7520   -3.4410   14.2140 C.2       1 LYS         0.2267
      4 O          -2.8260   -2.6950   15.1910 O.2       1 LYS        -0.3907
      5 CB         -4.5650   -5.0400   13.4840 C.3       1 LYS         0.0080
      6 CG         -4.9910   -6.4830   13.3800 C.3       1 LYS        -0.0410
      7 CD         -6.2850   -6.6290   12.5980 C.3       1 LYS        -0.0123
      8 CE         -6.7470   -8.0850   12.5910 C.3       1 LYS        -0.0354
      9 NZ         -7.9270   -8.3420   11.7150 N.4       1 LYS         0.2185
     10 N          -2.2050   -3.0710   13.0570 N.am      1 GLU        -0.2609
     11 CA         -1.6630   -1.7160   12.8410 C.3       1 GLU         0.1326
     12 C          -2.7370   -0.8060   12.2840 C.2       1 GLU         0.2040
     13 O          -3.4330   -1.1320   11.3130 O.2       1 GLU        -0.3944
     14 CB         -0.4210   -1.7170   11.9420 C.3       1 GLU        -0.0008
     15 CG          0.8110   -2.3120   12.6070 C.3       1 GLU         0.0044
     16 CD          1.8120   -2.8420   11.5910 C.2       1 GLU         0.0350
     17 OE1         1.3770   -3.5120   10.6160 O.co2     1 GLU        -0.5690
     18 OE2         3.0320   -2.5920   11.7650 O.co2     1 GLU        -0.5690
     19 N          -2.8100    0.3610   12.9040 N.am      1 VAL        -0.2635
     20 CA         -3.8890    1.2850   12.7130 C.3       1 VAL         0.1333
     21 C          -3.3590    2.7010   12.5270 C.2       1 VAL         0.2042
     22 O          -2.5200    3.1460   13.3150 O.2       1 VAL        -0.3944
     23 CB         -4.8150    1.1260   13.9410 C.3       1 VAL        -0.0063
     24 CG1        -5.1820    2.4470   14.6030 C.3       1 VAL        -0.0584
     25 CG2        -6.0140    0.2850   13.5700 C.3       1 VAL        -0.0584
     26 N          -3.8240    3.4070   11.4960 N.am      1 ASP        -0.2622
     27 CA         -3.3790    4.7870   11.2730 C.3       1 ASP         0.1425
     28 C          -3.9150    5.6220   12.4200 C.2       1 ASP         0.2081
     29 O          -5.1220    5.7350   12.5670 O.2       1 ASP        -0.3941
     30 CB         -3.8760    5.3280    9.9430 C.3       1 ASP         0.0406
     31 CG         -3.1810    4.7000    8.7500 C.2       1 ASP         0.0393
     32 OD1        -3.2860    5.2860    7.6770 O.co2     1 ASP        -0.5688
     33 OD2        -2.5330    3.6410    8.8500 O.co2     1 ASP        -0.5688
     34 N          -3.0200    6.2180   13.2330 N.am      1 PRO        -0.2497
     35 CA         -3.4510    6.8260   14.5100 C.3       1 PRO         0.1338
     36 C          -4.4170    7.9910   14.3660 C.2       1 PRO         0.2042
     37 O          -5.1360    8.3020   15.3270 O.2       1 PRO        -0.3944
     38 CB         -2.1330    7.2990   15.1520 C.3       1 PRO        -0.0104
     39 CG         -1.1830    7.4520   14.0260 C.3       1 PRO        -0.0281
     40 CD         -1.6260    6.5660   12.8860 C.3       1 PRO         0.0369
     41 N          -4.4340    8.6320   13.1890 N.am      1 SEP        -0.2613
     42 CA         -5.3200    9.8020   12.9630 C.3       1 SEP         0.1586
     43 CB         -4.7010   10.8190   12.0220 C.3       1 SEP         0.1184
     44 OG         -4.6010   10.1810   10.7720 O.3       1 SEP        -0.2714
     45 C          -6.7200    9.4850   12.4780 C.2       1 SEP         0.2066
     46 O          -7.5860   10.3640   12.5280 O.2       1 SEP        -0.3943
     47 P          -3.1770    9.9960   10.0510 P.3       1 SEP         0.2010
     48 O1P        -2.5920   11.3860   10.2550 O.co2     1 SEP        -0.5537
     49 O2P        -2.5060    8.8770   10.8120 O.co2     1 SEP        -0.5537
     50 O3P        -3.4320    9.5640    8.6190 O.co2     1 SEP        -0.5537
     51 N          -6.9680    8.2550   12.0170 N.am      1 THR        -0.2613
     52 CA         -8.3130    7.8450   11.5510 C.3       1 THR         0.1565
     53 C          -8.8360    6.5300   12.1520 C.2       1 THR         0.2063
     54 O         -10.0210    6.1810   11.9870 O.2       1 THR        -0.3943
     55 CB         -8.3510    7.6250   10.0270 C.3       1 THR         0.0924
     56 OG1        -7.5840    6.4600    9.7080 O.3       1 THR        -0.3874
     57 CG2        -7.8240    8.8460    9.2600 C.3       1 THR        -0.0346
     58 N          -7.9390    5.7840   12.7920 N.am      1 GLY        -0.2663
     59 CA         -8.2460    4.4620   13.2750 C.3       1 GLY         0.1201
     60 C          -8.1680    3.3790   12.2090 C.2       1 GLY         0.2007
     61 O          -8.1730    2.2190   12.5520 O.2       1 GLY        -0.3947
     62 N          -8.1040    3.7190   10.9230 N.am      1 GLU        -0.2639
     63 CA         -8.1280    2.6820    9.8510 C.3       1 GLU         0.1324
     64 C          -6.9410    1.6950    9.8320 C.2       1 GLU         0.2040
     65 O          -5.8290    2.0400   10.2400 O.2       1 GLU        -0.3944
     66 CB         -8.2880    3.3130    8.4570 C.3       1 GLU        -0.0008
     67 CG         -9.4500    4.2930    8.3160 C.3       1 GLU         0.0044
     68 CD         -9.9350    4.4210    6.8870 C.2       1 GLU         0.0350
     69 OE1        -9.4110    3.7400    5.9860 O.co2     1 GLU        -0.5690
     70 OE2       -10.8460    5.2040    6.6400 O.co2     1 GLU        -0.5690
     71 N          -7.1880    0.4820    9.3320 N.am      1 LEU        -0.2637
     72 CA         -6.1790   -0.5930    9.2400 C.3       1 LEU         0.1312
     73 C          -5.1090   -0.4330    8.1670 C.2       1 LEU         0.2034
     74 O          -5.3540    0.1340    7.0980 O.2       1 LEU        -0.3944
     75 CB         -6.8570   -1.9610    9.0080 C.3       1 LEU        -0.0101
     76 CG         -7.6530   -2.6730   10.1300 C.3       1 LEU        -0.0425
     77 CD1        -8.4100   -3.8810    9.5770 C.3       1 LEU        -0.0625
     78 CD2        -6.7680   -3.0550   11.3150 C.3       1 LEU        -0.0625
     79 N          -3.9390   -0.9990    8.4800 N.am      1 GLN        -0.2693
     80 CA         -2.7490   -1.1220    7.6120 C.3       1 GLN         0.0964
     81 C          -1.9850    0.1840    7.4970 C.2       1 GLN         0.0602
     82 O          -1.4361    0.6491    8.5314 O.co2     1 GLN        -0.5666
     83 CB         -3.0360   -1.8160    6.2550 C.3       1 GLN        -0.0010
     84 CG         -3.3160   -0.9290    5.0540 C.3       1 GLN         0.0407
     85 CD         -3.1110   -1.6600    3.7140 C.2       1 GLN         0.1737
     86 OE1        -3.0290   -1.0160    2.6700 O.2       1 GLN        -0.3973
     87 NE2        -3.0170   -3.0010    3.7390 N.am      1 GLN        -0.3009
     88 O          -1.9015    0.7883    6.3945 O.co2     1 GLN        -0.5666
     89 H1         -3.8139   -6.2685   15.7155 H         1 LYS         0.2015
     90 H2         -4.1375   -4.7167   16.1592 H         1 LYS         0.2015
     91 H3         -2.5905   -5.2779   16.1965 H         1 LYS         0.2015
     92 H4         -2.5128   -5.5280   13.8371 H         1 LYS         0.1098
     93 H5         -4.4035   -4.6444   12.4704 H         1 LYS         0.0346
     94 H6         -5.3655   -4.4690   13.9772 H         1 LYS         0.0346
     95 H7         -5.1388   -6.8855   14.3930 H         1 LYS         0.0270
     96 H8         -4.1999   -7.0530   12.8707 H         1 LYS         0.0270
     97 H9         -6.1211   -6.2967   11.5623 H         1 LYS         0.0317
     98 H10        -7.0618   -6.0054   13.0646 H         1 LYS         0.0317
     99 H11        -7.0117   -8.3691   13.6202 H         1 LYS         0.0813
    100 H12        -5.9131   -8.7110   12.2407 H         1 LYS         0.0813
    101 H13        -8.1732   -9.3184   11.7609 H         1 LYS         0.1994
    102 H14        -7.6992   -8.0974   10.7641 H         1 LYS         0.1994
    103 H15        -8.7059   -7.7840   12.0282 H         1 LYS         0.1994
    104 H16        -2.1603   -3.7341   12.3098 H         1 GLU         0.1885
    105 H17        -1.3595   -1.3194   13.8211 H         1 GLU         0.0801
    106 H18        -0.1958   -0.6783   11.6586 H         1 GLU         0.0330
    107 H19        -0.6459   -2.3030   11.0387 H         1 GLU         0.0330
    108 H20         0.4966   -3.1397   13.2597 H         1 GLU         0.0433
    109 H21         1.2985   -1.5330   13.2116 H         1 GLU         0.0433
    110 H22        -2.0767    0.6103   13.5365 H         1 VAL         0.1883
    111 H23        -4.4499    1.0109   11.8073 H         1 VAL         0.0802
    112 H24        -4.2489    0.5569   14.6930 H         1 VAL         0.0343
    113 H25        -5.8390    2.2554   15.4642 H         1 VAL         0.0234
    114 H26        -5.7054    3.0876   13.8779 H         1 VAL         0.0234
    115 H27        -4.2669    2.9524   14.9452 H         1 VAL         0.0234
    116 H28        -5.6748   -0.6494   13.0989 H         1 VAL         0.0234
    117 H29        -6.6484    0.8419   12.8647 H         1 VAL         0.0234
    118 H30        -6.5917    0.0501   14.4761 H         1 VAL         0.0234
    119 H31        -4.4826    2.9917   10.8685 H         1 ASP         0.1884
    120 H32        -2.2795    4.8195   11.2770 H         1 ASP         0.0819
    121 H33        -3.7010    6.4137    9.9189 H         1 ASP         0.0478
    122 H34        -4.9550    5.1287    9.8648 H         1 ASP         0.0478
    123 H35        -3.9290    6.0596   15.1377 H         1 PRO         0.0802
    124 H36        -1.7634    6.5511   15.8690 H         1 PRO         0.0313
    125 H37        -2.2783    8.2601   15.6668 H         1 PRO         0.0313
    126 H38        -0.1744    7.1575   14.3516 H         1 PRO         0.0287
    127 H39        -1.1697    8.5007   13.6944 H         1 PRO         0.0287
    128 H40        -1.5835    7.1073   11.9294 H         1 PRO         0.0524
    129 H41        -1.0001    5.6635   12.8248 H         1 PRO         0.0524
    130 H42        -3.8392    8.3166   12.4496 H         1 SEP         0.1884
    131 H43        -5.4306   10.2889   13.9431 H         1 SEP         0.0827
    132 H44        -3.7041   11.1146   12.3809 H         1 SEP         0.0662
    133 H45        -5.3423   11.7095   11.9462 H         1 SEP         0.0662
    134 H46        -6.2216    7.5903   11.9857 H         1 THR         0.1884
    135 H47        -9.0100    8.6533   11.8172 H         1 THR         0.0826
    136 H48        -9.3949    7.4547    9.7248 H         1 THR         0.0639
    137 H49        -7.6025    6.3174    8.7690 H         1 THR         0.2101
    138 H50        -7.8685    8.6472    8.1790 H         1 THR         0.0257
    139 H51        -6.7824    9.0422    9.5541 H         1 THR         0.0257
    140 H52        -8.4435    9.7234    9.4972 H         1 THR         0.0257
    141 H53        -7.0219    6.1531   12.9426 H         1 GLY         0.1881
    142 H54        -9.2672    4.4717   13.6838 H         1 GLY         0.0763
    143 H55        -7.5333    4.2119   14.0746 H         1 GLY         0.0763
    144 H56        -8.0388    4.6848   10.6720 H         1 GLU         0.1883
    145 H57        -9.0277    2.0776   10.0387 H         1 GLU         0.0801
    146 H58        -8.4383    2.5004    7.7310 H         1 GLU         0.0330
    147 H59        -7.3586    3.8508    8.2183 H         1 GLU         0.0330
    148 H60        -9.1206    5.2824    8.6660 H         1 GLU         0.0433
    149 H61       -10.2844    3.9421    8.9409 H         1 GLU         0.0433
    150 H62        -8.1114    0.2896    8.9999 H         1 LEU         0.1883
    151 H63        -5.6635   -0.6219   10.2113 H         1 LEU         0.0800
    152 H64        -6.0589   -2.6551    8.7060 H         1 LEU         0.0315
    153 H65        -7.5577   -1.8217    8.1716 H         1 LEU         0.0315
    154 H66        -8.4017   -1.9586   10.5028 H         1 LEU         0.0298
    155 H67        -8.9664   -4.3690   10.3908 H         1 LEU         0.0232
    156 H68        -7.6945   -4.5947    9.1427 H         1 LEU         0.0232
    157 H69        -9.1137   -3.5484    8.7998 H         1 LEU         0.0232
    158 H70        -6.2421   -2.1616   11.6829 H         1 LEU         0.0232
    159 H71        -6.0324   -3.8079   10.9956 H         1 LEU         0.0232
    160 H72        -7.3921   -3.4705   12.1199 H         1 LEU         0.0232
    161 H73        -3.8604   -1.3804    9.4011 H         1 GLN         0.1875
    162 H74        -2.0714   -1.8070    8.1427 H         1 GLN         0.0727
    163 H75        -3.9134   -2.4641    6.3964 H         1 GLN         0.0330
    164 H76        -2.1595   -2.4338    6.0100 H         1 GLN         0.0330
    165 H77        -2.6379   -0.0636    5.0900 H         1 GLN         0.0504
    166 H78        -4.3580   -0.5809    5.1090 H         1 GLN         0.0504
    167 H79        -2.8837   -3.5088    2.8879 H         1 GLN         0.1814
    168 H80        -3.0804   -3.4905    4.6087 H         1 GLN         0.1814
@<TRIPOS>BOND
     1    1    2 1  
     2    2    3 1  
     3    2    5 1  
     4    3    4 2  
     5    3   10 am 
     6    5    6 1  
     7    6    7 1  
     8    7    8 1  
     9    8    9 1  
    10   10   11 1  
    11   11   12 1  
    12   11   14 1  
    13   12   13 2  
    14   12   19 am 
    15   14   15 1  
    16   15   16 1  
    17   16   17 ar 
    18   16   18 ar 
    19   19   20 1  
    20   20   21 1  
    21   20   23 1  
    22   21   22 2  
    23   21   26 am 
    24   23   24 1  
    25   23   25 1  
    26   26   27 1  
    27   27   28 1  
    28   27   30 1  
    29   28   29 2  
    30   28   34 am 
    31   30   31 1  
    32   31   32 ar 
    33   31   33 ar 
    34   34   35 1  
    35   34   40 1  
    36   35   36 1  
    37   35   38 1  
    38   36   37 2  
    39   36   41 am 
    40   38   39 1  
    41   39   40 1  
    42   41   42 1  
    43   42   43 1  
    44   42   45 1  
    45   43   44 1  
    46   44   47 1  
    47   45   46 2  
    48   45   51 am 
    49   47   48 ar 
    50   47   49 ar 
    51   47   50 ar 
    52   51   52 1  
    53   52   53 1  
    54   52   55 1  
    55   53   54 2  
    56   53   58 am 
    57   55   56 1  
    58   55   57 1  
    59   58   59 1  
    60   59   60 1  
    61   60   61 2  
    62   60   62 am 
    63   62   63 1  
    64   63   64 1  
    65   63   66 1  
    66   64   65 2  
    67   64   71 am 
    68   66   67 1  
    69   67   68 1  
    70   68   69 ar 
    71   68   70 ar 
    72   71   72 1  
    73   72   73 1  
    74   72   75 1  
    75   73   74 2  
    76   73   79 am 
    77   75   76 1  
    78   76   77 1  
    79   76   78 1  
    80   79   80 1  
    81   80   81 1  
    82   80   83 1  
    83   81   82 ar 
    84   83   84 1  
    85   84   85 1  
    86   85   86 2  
    87   85   87 am 
    88   81   88 ar 
    89    1   89 1  
    90    1   90 1  
    91    1   91 1  
    92    2   92 1  
    93    5   93 1  
    94    5   94 1  
    95    6   95 1  
    96    6   96 1  
    97    7   97 1  
    98    7   98 1  
    99    8   99 1  
   100    8  100 1  
   101    9  101 1  
   102    9  102 1  
   103    9  103 1  
   104   10  104 1  
   105   11  105 1  
   106   14  106 1  
   107   14  107 1  
   108   15  108 1  
   109   15  109 1  
   110   19  110 1  
   111   20  111 1  
   112   23  112 1  
   113   24  113 1  
   114   24  114 1  
   115   24  115 1  
   116   25  116 1  
   117   25  117 1  
   118   25  118 1  
   119   26  119 1  
   120   27  120 1  
   121   30  121 1  
   122   30  122 1  
   123   35  123 1  
   124   38  124 1  
   125   38  125 1  
   126   39  126 1  
   127   39  127 1  
   128   40  128 1  
   129   40  129 1  
   130   41  130 1  
   131   42  131 1  
   132   43  132 1  
   133   43  133 1  
   134   51  134 1  
   135   52  135 1  
   136   55  136 1  
   137   56  137 1  
   138   57  138 1  
   139   57  139 1  
   140   57  140 1  
   141   58  141 1  
   142   59  142 1  
   143   59  143 1  
   144   62  144 1  
   145   63  145 1  
   146   66  146 1  
   147   66  147 1  
   148   67  148 1  
   149   67  149 1  
   150   71  150 1  
   151   72  151 1  
   152   75  152 1  
   153   75  153 1  
   154   76  154 1  
   155   77  155 1  
   156   77  156 1  
   157   77  157 1  
   158   78  158 1  
   159   78  159 1  
   160   78  160 1  
   161   79  161 1  
   162   80  162 1  
   163   83  163 1  
   164   83  164 1  
   165   84  165 1  
   166   84  166 1  
   167   87  167 1  
   168   87  168 1  
@<TRIPOS>SUBSTRUCTURE
     1 LYS         1

