3wdz_ligand
  -I-interpret- 

174174  0  0  0  0  0  0  0  0999 V2000
   -3.4700   -5.3210   15.7060 N   0  3  0  0  0
   -3.2740   -4.8750   14.2890 C   0  0  0  0  0
   -2.7520   -3.4410   14.2140 C   0  0  0  0  0
   -2.8260   -2.6950   15.1910 O   0  0  0  0  0
   -4.5650   -5.0400   13.4840 C   0  0  0  0  0
   -4.9910   -6.4830   13.3800 C   0  0  0  0  0
   -6.2850   -6.6290   12.5980 C   0  0  0  0  0
   -6.7470   -8.0850   12.5910 C   0  0  0  0  0
   -7.9270   -8.3420   11.7150 N   0  3  0  0  0
   -2.2050   -3.0710   13.0570 N   0  0  0  0  0
   -1.6630   -1.7160   12.8410 C   0  0  0  0  0
   -2.7370   -0.8060   12.2840 C   0  0  0  0  0
   -3.4330   -1.1320   11.3130 O   0  0  0  0  0
   -0.4210   -1.7170   11.9420 C   0  0  0  0  0
    0.8110   -2.3120   12.6070 C   0  0  0  0  0
    1.8120   -2.8420   11.5910 C   0  0  0  0  0
    1.3770   -3.5120   10.6160 O   0  0  0  0  0
    3.0320   -2.5920   11.7650 O   0  0  0  0  0
   -2.8100    0.3610   12.9040 N   0  0  0  0  0
   -3.8890    1.2850   12.7130 C   0  0  0  0  0
   -3.3590    2.7010   12.5270 C   0  0  0  0  0
   -2.5200    3.1460   13.3150 O   0  0  0  0  0
   -4.8150    1.1260   13.9410 C   0  0  0  0  0
   -5.1820    2.4470   14.6030 C   0  0  0  0  0
   -6.0140    0.2850   13.5700 C   0  0  0  0  0
   -3.8240    3.4070   11.4960 N   0  0  0  0  0
   -3.3790    4.7870   11.2730 C   0  0  0  0  0
   -3.9150    5.6220   12.4200 C   0  0  0  0  0
   -5.1220    5.7350   12.5670 O   0  0  0  0  0
   -3.8760    5.3280    9.9430 C   0  0  0  0  0
   -3.1810    4.7000    8.7500 C   0  0  0  0  0
   -3.2860    5.2860    7.6770 O   0  0  0  0  0
   -2.5330    3.6410    8.8500 O   0  0  0  0  0
   -3.0200    6.2180   13.2330 N   0  0  0  0  0
   -3.4510    6.8260   14.5100 C   0  0  0  0  0
   -4.4170    7.9910   14.3660 C   0  0  0  0  0
   -5.1360    8.3020   15.3270 O   0  0  0  0  0
   -2.1330    7.2990   15.1520 C   0  0  0  0  0
   -1.1830    7.4520   14.0260 C   0  0  0  0  0
   -1.6260    6.5660   12.8860 C   0  0  0  0  0
   -4.4340    8.6320   13.1890 N   0  0  0  0  0
   -5.3200    9.8020   12.9630 C   0  0  0  0  0
   -4.7010   10.8190   12.0220 C   0  0  0  0  0
   -4.6010   10.1810   10.7720 O   0  0  0  0  0
   -6.7200    9.4850   12.4780 C   0  0  0  0  0
   -7.5860   10.3640   12.5280 O   0  0  0  0  0
   -3.1770    9.9960   10.0510 P   0  0  0  0  0
   -2.5920   11.3860   10.2550 O   0  0  0  0  0
   -2.5060    8.8770   10.8120 O   0  0  0  0  0
   -3.4320    9.5640    8.6190 O   0  0  0  0  0
   -6.9680    8.2550   12.0170 N   0  0  0  0  0
   -8.3130    7.8450   11.5510 C   0  0  0  0  0
   -8.8360    6.5300   12.1520 C   0  0  0  0  0
  -10.0210    6.1810   11.9870 O   0  0  0  0  0
   -8.3510    7.6250   10.0270 C   0  0  0  0  0
   -7.5840    6.4600    9.7080 O   0  0  0  0  0
   -7.8240    8.8460    9.2600 C   0  0  0  0  0
   -7.9390    5.7840   12.7920 N   0  0  0  0  0
   -8.2460    4.4620   13.2750 C   0  0  0  0  0
   -8.1680    3.3790   12.2090 C   0  0  0  0  0
   -8.1730    2.2190   12.5520 O   0  0  0  0  0
   -8.1040    3.7190   10.9230 N   0  0  0  0  0
   -8.1280    2.6820    9.8510 C   0  0  0  0  0
   -6.9410    1.6950    9.8320 C   0  0  0  0  0
   -5.8290    2.0400   10.2400 O   0  0  0  0  0
   -8.2880    3.3130    8.4570 C   0  0  0  0  0
   -9.4500    4.2930    8.3160 C   0  0  0  0  0
   -9.9350    4.4210    6.8870 C   0  0  0  0  0
   -9.4110    3.7400    5.9860 O   0  0  0  0  0
  -10.8460    5.2040    6.6400 O   0  0  0  0  0
   -7.1880    0.4820    9.3320 N   0  0  0  0  0
   -6.1790   -0.5930    9.2400 C   0  0  0  0  0
   -5.1090   -0.4330    8.1670 C   0  0  0  0  0
   -5.3540    0.1340    7.0980 O   0  0  0  0  0
   -6.8570   -1.9610    9.0080 C   0  0  0  0  0
   -7.6530   -2.6730   10.1300 C   0  0  0  0  0
   -8.4100   -3.8810    9.5770 C   0  0  0  0  0
   -6.7680   -3.0550   11.3150 C   0  0  0  0  0
   -3.9390   -0.9990    8.4800 N   0  0  0  0  0
   -2.7490   -1.1220    7.6120 C   0  0  0  0  0
   -1.9850    0.1840    7.4970 C   0  0  0  0  0
   -1.4361    0.6491    8.5314 O   0  0  0  0  0
   -3.0360   -1.8160    6.2550 C   0  0  0  0  0
   -3.3160   -0.9290    5.0540 C   0  0  0  0  0
   -3.1110   -1.6600    3.7140 C   0  0  0  0  0
   -3.0290   -1.0160    2.6700 O   0  0  0  0  0
   -3.0170   -3.0010    3.7390 N   0  0  0  0  0
   -1.9015    0.7883    6.3945 O   0  0  0  0  0
   -2.5984   -5.2021   16.2222 H   0  0  0  0  0
   -4.2027   -4.7594   16.1397 H   0  0  0  0  0
   -3.7419   -6.3040   15.7173 H   0  0  0  0  0
   -2.5132   -5.5159   13.8435 H   0  0  0  0  0
   -4.3863   -4.6656   12.4760 H   0  0  0  0  0
   -5.3553   -4.4890   13.9938 H   0  0  0  0  0
   -5.1518   -6.8680   14.3870 H   0  0  0  0  0
   -4.2095   -7.0361   12.8590 H   0  0  0  0  0
   -6.1152   -6.3072   11.5705 H   0  0  0  0  0
   -7.0537   -6.0166   13.0693 H   0  0  0  0  0
   -7.0397   -8.3366   13.6104 H   0  0  0  0  0
   -5.9218   -8.6846   12.2066 H   0  0  0  0  0
   -8.1752   -9.3302   11.7623 H   0  0  0  0  0
   -8.7144   -7.7768   12.0328 H   0  0  0  0  0
   -7.6953   -8.0941   10.7531 H   0  0  0  0  0
   -2.1594   -3.7473   12.2948 H   0  0  0  0  0
   -1.3429   -1.3343   13.8105 H   0  0  0  0  0
   -0.1924   -0.6793   11.6989 H   0  0  0  0  0
   -0.6494   -2.3290   11.0695 H   0  0  0  0  0
    0.4901   -3.1443   13.2334 H   0  0  0  0  0
    1.2976   -1.5263   13.1850 H   0  0  0  0  0
    0.4215   -3.5817   10.6779 H   0  0  0  0  0
   -2.0620    0.6152   13.5492 H   0  0  0  0  0
   -4.4551    1.0796   11.8045 H   0  0  0  0  0
   -4.2580    0.5970   14.7143 H   0  0  0  0  0
   -4.2744    2.9468   14.9416 H   0  0  0  0  0
   -5.7005    3.0808   13.8836 H   0  0  0  0  0
   -5.8329    2.2559   15.4562 H   0  0  0  0  0
   -6.5626    0.7723   12.7640 H   0  0  0  0  0
   -5.6785   -0.6983   13.2403 H   0  0  0  0  0
   -6.6629    0.1763   14.4390 H   0  0  0  0  0
   -4.4958    2.9834   10.8560 H   0  0  0  0  0
   -2.2903    4.8247   11.2365 H   0  0  0  0  0
   -3.6694    6.3980    9.9220 H   0  0  0  0  0
   -4.9386    5.0974    9.8672 H   0  0  0  0  0
   -2.5637    3.3330    9.7587 H   0  0  0  0  0
   -4.0105    6.1019   15.1023 H   0  0  0  0  0
   -1.7679    6.5857   15.8910 H   0  0  0  0  0
   -2.2646    8.2344   15.6959 H   0  0  0  0  0
   -0.1820    7.1646   14.3477 H   0  0  0  0  0
   -1.1652    8.4915   13.6985 H   0  0  0  0  0
   -1.5503    7.0638   11.9192 H   0  0  0  0  0
   -0.9934    5.6854   12.7741 H   0  0  0  0  0
   -3.8273    8.3103   12.4348 H   0  0  0  0  0
   -5.4225   10.2179   13.9653 H   0  0  0  0  0
   -3.7234   11.1430   12.3789 H   0  0  0  0  0
   -5.3115   11.7197   11.9576 H   0  0  0  0  0
   -3.0867   12.0202    9.7310 H   0  0  0  0  0
   -3.8583   10.2793    8.1413 H   0  0  0  0  0
   -6.2066    7.5770   11.9851 H   0  0  0  0  0
   -8.9385    8.6756   11.8780 H   0  0  0  0  0
   -9.3875    7.4829    9.7210 H   0  0  0  0  0
   -7.6027    6.3159    8.7591 H   0  0  0  0  0
   -8.4387    9.7147    9.4959 H   0  0  0  0  0
   -6.7919    9.0394    9.5523 H   0  0  0  0  0
   -7.8686    8.6478    8.1891 H   0  0  0  0  0
   -7.0036    6.1605   12.9456 H   0  0  0  0  0
   -9.2727    4.4820   13.6406 H   0  0  0  0  0
   -7.5075    4.2175   14.0385 H   0  0  0  0  0
   -8.0375    4.7041   10.6670 H   0  0  0  0  0
   -9.0023    2.0837   10.1074 H   0  0  0  0  0
   -8.4831    2.4947    7.7638 H   0  0  0  0  0
   -7.3766    3.8786    8.2632 H   0  0  0  0  0
   -9.1026    5.2737    8.6411 H   0  0  0  0  0
  -10.2780    3.9199    8.9187 H   0  0  0  0  0
   -8.7211    3.1891    6.3630 H   0  0  0  0  0
   -8.1299    0.2858    8.9932 H   0  0  0  0  0
   -5.6694   -0.5286   10.2014 H   0  0  0  0  0
   -6.0223   -2.6347    8.8144 H   0  0  0  0  0
   -7.6101   -1.7518    8.2483 H   0  0  0  0  0
   -8.3861   -1.9616   10.5102 H   0  0  0  0  0
   -9.1069   -3.5501    8.8070 H   0  0  0  0  0
   -7.6999   -4.5874    9.1469 H   0  0  0  0  0
   -8.9609   -4.3636   10.3843 H   0  0  0  0  0
   -5.9819   -3.7302   10.9770 H   0  0  0  0  0
   -6.3195   -2.1555   11.7368 H   0  0  0  0  0
   -7.3732   -3.5509   12.0739 H   0  0  0  0  0
   -3.8589   -1.3881    9.4195 H   0  0  0  0  0
   -2.0728   -1.8118    8.1170 H   0  0  0  0  0
   -3.9472   -2.3939    6.4097 H   0  0  0  0  0
   -2.1256   -2.3623    6.0084 H   0  0  0  0  0
   -2.6200   -0.0908    5.0877 H   0  0  0  0  0
   -4.3580   -0.6134    5.1069 H   0  0  0  0  0
   -2.8727   -3.5184    2.8719 H   0  0  0  0  0
   -3.0900   -3.5009    4.6251 H   0  0  0  0  0
   -2.3755    0.2929    5.7226 H   0  0  0  0  0
  1  2  1  0  0  0
  2  3  1  0  0  0
  2  5  1  0  0  0
  3  4  2  0  0  0
  3 10  1  0  0  0
  5  6  1  0  0  0
  6  7  1  0  0  0
  7  8  1  0  0  0
  8  9  1  0  0  0
 10 11  1  0  0  0
 11 12  1  0  0  0
 11 14  1  0  0  0
 12 13  2  0  0  0
 12 19  1  0  0  0
 14 15  1  0  0  0
 15 16  1  0  0  0
 16 17  1  0  0  0
 16 18  2  0  0  0
 19 20  1  0  0  0
 20 21  1  0  0  0
 20 23  1  0  0  0
 21 22  2  0  0  0
 21 26  1  0  0  0
 23 24  1  0  0  0
 23 25  1  0  0  0
 26 27  1  0  0  0
 27 28  1  0  0  0
 27 30  1  0  0  0
 28 29  2  0  0  0
 28 34  1  0  0  0
 30 31  1  0  0  0
 31 32  2  0  0  0
 31 33  1  0  0  0
 34 35  1  0  0  0
 34 40  1  0  0  0
 35 36  1  0  0  0
 35 38  1  0  0  0
 36 37  2  0  0  0
 36 41  1  0  0  0
 38 39  1  0  0  0
 39 40  1  0  0  0
 41 42  1  0  0  0
 42 43  1  0  0  0
 42 45  1  0  0  0
 43 44  1  0  0  0
 44 47  1  0  0  0
 45 46  2  0  0  0
 45 51  1  0  0  0
 47 48  1  0  0  0
 47 49  2  0  0  0
 47 50  1  0  0  0
 51 52  1  0  0  0
 52 53  1  0  0  0
 52 55  1  0  0  0
 53 54  2  0  0  0
 53 58  1  0  0  0
 55 56  1  0  0  0
 55 57  1  0  0  0
 58 59  1  0  0  0
 59 60  1  0  0  0
 60 61  2  0  0  0
 60 62  1  0  0  0
 62 63  1  0  0  0
 63 64  1  0  0  0
 63 66  1  0  0  0
 64 65  2  0  0  0
 64 71  1  0  0  0
 66 67  1  0  0  0
 67 68  1  0  0  0
 68 69  1  0  0  0
 68 70  2  0  0  0
 71 72  1  0  0  0
 72 73  1  0  0  0
 72 75  1  0  0  0
 73 74  2  0  0  0
 73 79  1  0  0  0
 75 76  1  0  0  0
 76 77  1  0  0  0
 76 78  1  0  0  0
 79 80  1  0  0  0
 80 81  1  0  0  0
 80 83  1  0  0  0
 81 82  2  0  0  0
 83 84  1  0  0  0
 84 85  1  0  0  0
 85 86  2  0  0  0
 85 87  1  0  0  0
 81 88  1  0  0  0
  1 89  1  0  0  0
  1 90  1  0  0  0
  1 91  1  0  0  0
  2 92  1  0  0  0
  5 93  1  0  0  0
  5 94  1  0  0  0
  6 95  1  0  0  0
  6 96  1  0  0  0
  7 97  1  0  0  0
  7 98  1  0  0  0
  8 99  1  0  0  0
  8100  1  0  0  0
  9101  1  0  0  0
  9102  1  0  0  0
  9103  1  0  0  0
 10104  1  0  0  0
 11105  1  0  0  0
 14106  1  0  0  0
 14107  1  0  0  0
 15108  1  0  0  0
 15109  1  0  0  0
 17110  1  0  0  0
 19111  1  0  0  0
 20112  1  0  0  0
 23113  1  0  0  0
 24114  1  0  0  0
 24115  1  0  0  0
 24116  1  0  0  0
 25117  1  0  0  0
 25118  1  0  0  0
 25119  1  0  0  0
 26120  1  0  0  0
 27121  1  0  0  0
 30122  1  0  0  0
 30123  1  0  0  0
 33124  1  0  0  0
 35125  1  0  0  0
 38126  1  0  0  0
 38127  1  0  0  0
 39128  1  0  0  0
 39129  1  0  0  0
 40130  1  0  0  0
 40131  1  0  0  0
 41132  1  0  0  0
 42133  1  0  0  0
 43134  1  0  0  0
 43135  1  0  0  0
 48136  1  0  0  0
 50137  1  0  0  0
 51138  1  0  0  0
 52139  1  0  0  0
 55140  1  0  0  0
 56141  1  0  0  0
 57142  1  0  0  0
 57143  1  0  0  0
 57144  1  0  0  0
 58145  1  0  0  0
 59146  1  0  0  0
 59147  1  0  0  0
 62148  1  0  0  0
 63149  1  0  0  0
 66150  1  0  0  0
 66151  1  0  0  0
 67152  1  0  0  0
 67153  1  0  0  0
 69154  1  0  0  0
 71155  1  0  0  0
 72156  1  0  0  0
 75157  1  0  0  0
 75158  1  0  0  0
 76159  1  0  0  0
 77160  1  0  0  0
 77161  1  0  0  0
 77162  1  0  0  0
 78163  1  0  0  0
 78164  1  0  0  0
 78165  1  0  0  0
 79166  1  0  0  0
 80167  1  0  0  0
 83168  1  0  0  0
 83169  1  0  0  0
 84170  1  0  0  0
 84171  1  0  0  0
 87172  1  0  0  0
 87173  1  0  0  0
 88174  1  0  0  0
M  END
$$$$
