5w84_ligand
  -I-interpret- 

 47 50  0  0  0  0  0  0  0  0999 V2000
    7.7010   42.7300   11.5200 C   0  0  0  0  0
    6.9810   43.8920   11.2730 C   0  0  0  0  0
    7.3420   45.0880   11.8720 C   0  0  0  0  0
    8.4270   45.1370   12.7270 C   0  0  0  0  0
    9.1510   43.9880   12.9800 C   0  0  0  0  0
   11.5240   42.8390    8.0020 C   0  0  0  0  0
   11.3670   43.5020    9.2240 C   0  0  0  0  0
   12.4150   43.5000   10.1390 C   0  0  0  0  0
   13.6050   42.8420    9.8370 C   0  0  0  0  0
   13.7710   42.1770    8.6290 C   0  0  0  0  0
   12.7240   42.1800    7.7160 C   0  0  0  0  0
    7.3220   41.4170   10.8810 C   0  0  0  0  0
    6.4490   42.0590    7.2490 C   0  0  0  0  0
    7.1350   42.4180    6.0930 C   0  0  0  0  0
    8.4470   42.6580    6.0350 N   0  0  0  0  0
    9.1480   42.5470    7.1650 C   0  0  0  0  0
    8.5730   42.1820    8.3910 C   0  0  0  0  0
    7.1920   41.9290    8.4440 C   0  0  0  0  0
    6.5660   41.5590    9.6440 N   0  0  0  0  0
   10.4930   42.8430    7.0390 N   0  0  0  0  0
    4.9710   41.8420    7.2110 C   0  0  0  0  0
    4.4660   41.1440    6.1950 N   0  0  0  0  0
    4.2580   42.3140    8.1110 O   0  0  0  0  0
    8.7900   42.7920   12.3790 C   0  0  0  0  0
   12.5530   44.1110   11.5010 C   0  0  0  0  0
   13.9510   43.7250   11.9150 C   0  0  0  0  0
   14.4960   42.9880   10.8960 N   0  0  0  0  0
   14.5160   44.0140   12.9700 O   0  0  0  0  0
    6.1233   43.8626   10.6011 H   0  0  0  0  0
    6.7690   45.9926   11.6685 H   0  0  0  0  0
    8.7100   46.0777   13.1993 H   0  0  0  0  0
   10.0075   44.0218   13.6533 H   0  0  0  0  0
   10.4336   44.0146    9.4566 H   0  0  0  0  0
   14.7048   41.6627    8.4017 H   0  0  0  0  0
   12.8392   41.6618    6.7640 H   0  0  0  0  0
    6.6880   40.8831   11.5889 H   0  0  0  0  0
    8.2478   40.8960   10.6371 H   0  0  0  0  0
    6.5614   42.5097    5.1707 H   0  0  0  0  0
    9.1871   42.0961    9.2875 H   0  0  0  0  0
    5.5608   41.3859    9.6503 H   0  0  0  0  0
   10.7869   43.1066    6.0985 H   0  0  0  0  0
    3.4607   40.9815    6.1377 H   0  0  0  0  0
    5.0847   40.7721    5.4743 H   0  0  0  0  0
    9.3675   41.8904   12.5831 H   0  0  0  0  0
   11.7954   43.7549   12.1992 H   0  0  0  0  0
   12.4006   45.1903   11.4939 H   0  0  0  0  0
   15.4373   42.5955   10.9119 H   0  0  0  0  0
  1  2  4  0  0  0
 12  1  1  0  0  0
  1 24  4  0  0  0
  2  3  4  0  0  0
  3  4  4  0  0  0
  5  4  4  0  0  0
 24  5  4  0  0  0
  6  7  4  0  0  0
  6 11  4  0  0  0
 20  6  1  0  0  0
  7  8  4  0  0  0
  8  9  4  0  0  0
  8 25  1  0  0  0
 10  9  4  0  0  0
  9 27  1  0  0  0
 11 10  4  0  0  0
 19 12  1  0  0  0
 13 14  4  0  0  0
 18 13  4  0  0  0
 13 21  1  0  0  0
 14 15  4  0  0  0
 16 15  4  0  0  0
 17 16  4  0  0  0
 16 20  1  0  0  0
 18 17  4  0  0  0
 18 19  1  0  0  0
 21 22  1  0  0  0
 21 23  2  0  0  0
 25 26  1  0  0  0
 26 27  1  0  0  0
 26 28  2  0  0  0
  2 29  1  0  0  0
  3 30  1  0  0  0
  4 31  1  0  0  0
  5 32  1  0  0  0
  7 33  1  0  0  0
 10 34  1  0  0  0
 11 35  1  0  0  0
 12 36  1  0  0  0
 12 37  1  0  0  0
 14 38  1  0  0  0
 17 39  1  0  0  0
 19 40  1  0  0  0
 20 41  1  0  0  0
 22 42  1  0  0  0
 22 43  1  0  0  0
 24 44  1  0  0  0
 25 45  1  0  0  0
 25 46  1  0  0  0
 27 47  1  0  0  0
M  END
$$$$
