5zh3_ligand
  -I-interpret- 

 41 43  0  0  0  0  0  0  0  0999 V2000
   75.3400  406.7770   29.7960 C   0  0  0  0  0
   74.2590  406.6470   28.7600 C   0  0  0  0  0
   74.6390  405.6470   27.6910 C   0  0  0  0  0
   74.8390  404.3110   28.3400 C   0  0  0  0  0
   75.3180  403.3330   27.2760 C   0  0  0  0  0
   75.8760  404.4170   29.3180 O   0  0  0  0  0
   75.7540  405.4200   30.3280 C   0  0  0  0  0
   77.2000  405.5700   30.7830 C   0  0  0  0  0
   77.4960  404.8320   32.0880 C   0  0  0  0  0
   78.5360  403.7630   31.7650 C   0  0  0  0  0
   76.2740  404.2880   32.6190 O   0  0  0  0  0
   76.4170  403.4370   33.6690 C   0  0  0  0  0
   75.7200  403.5060   34.6830 O   0  0  0  0  0
   77.4170  402.4680   33.5210 C   0  0  0  0  0
   78.4510  402.6470   32.5920 C   0  0  0  0  0
   79.4410  401.6820   32.4580 C   0  0  0  0  0
   79.4140  400.5430   33.2390 C   0  0  0  0  0
   80.3880  399.6350   33.0800 O   0  0  0  0  0
   78.4010  400.3400   34.1630 C   0  0  0  0  0
   77.4090  401.3080   34.2910 C   0  0  0  0  0
   76.3940  401.1810   35.1790 O   0  0  0  0  0
   74.9585  407.3741   30.6243 H   0  0  0  0  0
   76.2077  407.2503   29.3364 H   0  0  0  0  0
   74.1114  407.6188   28.2890 H   0  0  0  0  0
   73.3487  406.3016   29.2501 H   0  0  0  0  0
   75.5578  405.9619   27.1963 H   0  0  0  0  0
   73.8486  405.5830   26.9432 H   0  0  0  0  0
   73.9081  403.9791   28.7997 H   0  0  0  0  0
   76.2345  403.7110   26.8230 H   0  0  0  0  0
   75.5114  402.3638   27.7358 H   0  0  0  0  0
   74.5498  403.2264   26.5101 H   0  0  0  0  0
   75.0092  405.1344   31.0708 H   0  0  0  0  0
   77.3862  406.6306   30.9521 H   0  0  0  0  0
   77.8374  405.1431   30.0086 H   0  0  0  0  0
   77.8957  405.4910   32.8588 H   0  0  0  0  0
   79.5211  404.2066   31.9094 H   0  0  0  0  0
   78.3603  403.4300   30.7421 H   0  0  0  0  0
   80.2427  401.8241   31.7334 H   0  0  0  0  0
   80.2425  398.9023   33.6830 H   0  0  0  0  0
   78.3816  399.4399   34.7774 H   0  0  0  0  0
   76.4864  400.3509   35.6523 H   0  0  0  0  0
  1  2  1  0  0  0
  1  7  1  0  0  0
  2  3  1  0  0  0
  3  4  1  0  0  0
  4  5  1  0  0  0
  4  6  1  0  0  0
  6  7  1  0  0  0
  7  8  1  0  0  0
  8  9  1  0  0  0
  9 10  1  0  0  0
  9 11  1  0  0  0
 10 15  1  0  0  0
 11 12  1  0  0  0
 12 13  2  0  0  0
 12 14  1  0  0  0
 14 15  4  0  0  0
 14 20  4  0  0  0
 15 16  4  0  0  0
 16 17  4  0  0  0
 17 18  1  0  0  0
 17 19  4  0  0  0
 19 20  4  0  0  0
 20 21  1  0  0  0
  1 22  1  0  0  0
  1 23  1  0  0  0
  2 24  1  0  0  0
  2 25  1  0  0  0
  3 26  1  0  0  0
  3 27  1  0  0  0
  4 28  1  0  0  0
  5 29  1  0  0  0
  5 30  1  0  0  0
  5 31  1  0  0  0
  7 32  1  0  0  0
  8 33  1  0  0  0
  8 34  1  0  0  0
  9 35  1  0  0  0
 10 36  1  0  0  0
 10 37  1  0  0  0
 16 38  1  0  0  0
 18 39  1  0  0  0
 19 40  1  0  0  0
 21 41  1  0  0  0
M  END
$$$$
