2zv9_ligand
  -I-interpret- 

 37 39  0  0  0  0  0  0  0  0999 V2000
   19.1000    9.4940   -6.8470 C   0  0  0  0  0
   18.0750    9.8760   -6.0380 N   0  0  0  0  0
   16.8040    9.6510   -6.4110 C   0  0  0  0  0
   16.5110    9.0540   -7.5790 N   0  0  0  0  0
   17.4890    8.6550   -8.4210 C   0  0  0  0  0
   18.8290    8.8710   -8.0690 C   0  0  0  0  0
   20.0570    8.5820   -8.6840 C   0  0  0  0  0
   21.0610    9.0170   -7.8900 N   0  0  0  0  0
   20.4340    9.5670   -6.7760 N   0  0  0  0  0
   20.2710    7.9440  -10.0080 C   0  0  0  0  0
   19.8770    8.6460  -11.1440 C   0  0  0  0  0
   20.0650    8.0930  -12.4030 C   0  0  0  0  0
   20.6590    6.8400  -12.5250 C   0  0  0  0  0
   21.0600    6.1370  -11.3870 C   0  0  0  0  0
   20.8710    6.6950  -10.1210 C   0  0  0  0  0
   21.2140   10.1440   -5.6320 C   0  0  0  0  0
   20.9030    9.3420   -4.3740 C   0  0  0  0  0
   20.8880   11.6170   -5.4190 C   0  0  0  0  0
   22.7070   10.0320   -5.9120 C   0  0  0  0  0
   17.1300    8.0560   -9.5840 N   0  0  0  0  0
   20.9010    6.1400  -14.1610 Cl  0  0  0  0  0
   15.9926    9.9594   -5.7518 H   0  0  0  0  0
   19.4205    9.6308  -11.0445 H   0  0  0  0  0
   19.7488    8.6376  -13.2927 H   0  0  0  0  0
   21.5200    5.1539  -11.4868 H   0  0  0  0  0
   21.1911    6.1561   -9.2292 H   0  0  0  0  0
   19.8355    9.4008   -4.1618 H   0  0  0  0  0
   21.1872    8.3011   -4.5287 H   0  0  0  0  0
   21.4647    9.7524   -3.5349 H   0  0  0  0  0
   21.1341   12.1765   -6.3215 H   0  0  0  0  0
   19.8254   11.7249   -5.2015 H   0  0  0  0  0
   21.4722   11.9998   -4.5821 H   0  0  0  0  0
   22.9743    8.9826   -6.0366 H   0  0  0  0  0
   22.9466   10.5799   -6.8233 H   0  0  0  0  0
   23.2648   10.4535   -5.0758 H   0  0  0  0  0
   16.1435    7.9175   -9.8030 H   0  0  0  0  0
   17.8466    7.7441  -10.2395 H   0  0  0  0  0
  1  2  4  0  0  0
  1  6  4  0  0  0
  1  9  4  0  0  0
  2  3  4  0  0  0
  3  4  4  0  0  0
  4  5  4  0  0  0
  5  6  4  0  0  0
  5 20  1  0  0  0
  6  7  4  0  0  0
  7  8  4  0  0  0
  7 10  1  0  0  0
  8  9  4  0  0  0
  9 16  1  0  0  0
 10 11  4  0  0  0
 10 15  4  0  0  0
 11 12  4  0  0  0
 12 13  4  0  0  0
 13 14  4  0  0  0
 13 21  1  0  0  0
 14 15  4  0  0  0
 16 17  1  0  0  0
 16 18  1  0  0  0
 16 19  1  0  0  0
  3 22  1  0  0  0
 11 23  1  0  0  0
 12 24  1  0  0  0
 14 25  1  0  0  0
 15 26  1  0  0  0
 17 27  1  0  0  0
 17 28  1  0  0  0
 17 29  1  0  0  0
 18 30  1  0  0  0
 18 31  1  0  0  0
 18 32  1  0  0  0
 19 33  1  0  0  0
 19 34  1  0  0  0
 19 35  1  0  0  0
 20 36  1  0  0  0
 20 37  1  0  0  0
M  END
$$$$
