5khi_ligand
  -I-interpret- 

 32 35  0  0  0  0  0  0  0  0999 V2000
   11.8450    2.3290   55.0280 N   0  0  0  0  0
   12.6390    1.8670   56.0320 C   0  0  0  0  0
   14.4600    3.0740   55.2200 C   0  0  0  0  0
   13.6140    3.5910   54.1240 C   0  0  0  0  0
   12.2840    3.1680   54.0700 C   0  0  0  0  0
   21.1560    4.3120   54.3000 P   0  0  0  0  0
   22.5370    3.7650   54.3440 O   0  0  0  0  0
   20.6250    5.0370   53.1170 O   0  0  0  0  0
   20.1050    3.1000   54.5200 O   0  0  0  0  0
   18.8280    3.5680   54.7660 C   0  0  0  0  0
   18.8240    4.4590   55.9780 C   0  0  0  0  0
   19.6420    5.7190   55.8470 C   0  0  0  0  0
   20.9600    5.2730   55.5570 O   0  0  0  0  0
   17.8310    2.5210   55.1930 C   0  0  0  0  0
   18.4350    1.5470   56.0440 O   0  0  0  0  0
   16.8200    3.3760   55.9210 C   0  0  0  0  0
   17.4290    4.6290   56.1800 O   0  0  0  0  0
   15.6530    3.6160   55.0440 N   0  0  0  0  0
   14.3980    4.4000   53.3820 N   0  0  0  0  0
   15.6330    4.4050   53.9460 C   0  0  0  0  0
   13.9350    2.2230   56.1370 N   0  0  0  0  0
   12.2147    1.1894   56.7729 H   0  0  0  0  0
   11.6200    3.5073   53.2750 H   0  0  0  0  0
   22.6831    3.3357   55.1901 H   0  0  0  0  0
   18.5569    4.0279   53.8157 H   0  0  0  0  0
   19.3305    4.0387   56.8468 H   0  0  0  0  0
   19.6093    6.3184   56.7568 H   0  0  0  0  0
   19.2553    6.3724   55.0649 H   0  0  0  0  0
   17.4066    1.9304   54.3811 H   0  0  0  0  0
   17.7780    0.8951   56.2991 H   0  0  0  0  0
   16.5010    2.8815   56.8385 H   0  0  0  0  0
   16.4875    4.9657   53.5673 H   0  0  0  0  0
  2  1  4  0  0  0
  5  1  4  0  0  0
 21  2  4  0  0  0
  3  4  4  0  0  0
 18  3  4  0  0  0
  3 21  4  0  0  0
  4  5  4  0  0  0
  4 19  4  0  0  0
  6  7  1  0  0  0
  6  8  2  0  0  0
  9  6  1  0  0  0
 13  6  1  0  0  0
 10  9  1  0  0  0
 11 10  1  0  0  0
 14 10  1  0  0  0
 11 12  1  0  0  0
 17 11  1  0  0  0
 12 13  1  0  0  0
 14 15  1  0  0  0
 16 14  1  0  0  0
 16 17  1  0  0  0
 16 18  1  0  0  0
 18 20  4  0  0  0
 19 20  4  0  0  0
  2 22  1  0  0  0
  5 23  1  0  0  0
  7 24  1  0  0  0
 10 25  1  0  0  0
 11 26  1  0  0  0
 12 27  1  0  0  0
 12 28  1  0  0  0
 14 29  1  0  0  0
 15 30  1  0  0  0
 16 31  1  0  0  0
 20 32  1  0  0  0
M  END
$$$$
