### 
### Created by X-TOOL on Mon Sep 10 21:13:29 2018
### 

@<TRIPOS>MOLECULE
5khi_ligand
   31    34     1     0     0
SMALL
GAST_HUCK


@<TRIPOS>ATOM
      1 N1         11.8450    2.3290   55.0280 N.ar      1 6SX        -0.2803
      2 C2         12.6390    1.8670   56.0320 C.ar      1 6SX         0.0725
      3 C4         14.4600    3.0740   55.2200 C.ar      1 6SX         0.1772
      4 C5         13.6140    3.5910   54.1240 C.ar      1 6SX         0.0862
      5 C6         12.2840    3.1680   54.0700 C.ar      1 6SX         0.0294
      6 P          21.1560    4.3120   54.3000 P.3       1 6SX         0.2557
      7 O1P        22.5370    3.7650   54.3440 O.co2     1 6SX        -0.6177
      8 O2P        20.6250    5.0370   53.1170 O.co2     1 6SX        -0.6177
      9 O3'        20.1050    3.1000   54.5200 O.3       1 6SX        -0.2453
     10 C3'        18.8280    3.5680   54.7660 C.3       1 6SX         0.1540
     11 C4'        18.8240    4.4590   55.9780 C.3       1 6SX         0.1242
     12 C5'        19.6420    5.7190   55.8470 C.3       1 6SX         0.1128
     13 O5'        20.9600    5.2730   55.5570 O.3       1 6SX        -0.2514
     14 C2'        17.8310    2.5210   55.1930 C.3       1 6SX         0.1440
     15 O2'        18.4350    1.5470   56.0440 O.3       1 6SX        -0.3832
     16 C1'        16.8200    3.3760   55.9210 C.3       1 6SX         0.2026
     17 O4'        17.4290    4.6290   56.1800 O.3       1 6SX        -0.3359
     18 N9         15.6530    3.6160   55.0440 N.pl3     1 6SX        -0.1845
     19 N7         14.3980    4.4000   53.3820 N.2       1 6SX        -0.2894
     20 C8         15.6330    4.4050   53.9460 C.2       1 6SX         0.1181
     21 N3         13.9350    2.2230   56.1370 N.ar      1 6SX        -0.2493
     22 H1         12.2171    1.1931   56.7688 H         1 6SX         0.1044
     23 H2         11.6236    3.5054   53.2794 H         1 6SX         0.0898
     24 H3         18.4699    4.0994   53.8719 H         1 6SX         0.0712
     25 H4         19.2433    3.9085   56.8330 H         1 6SX         0.0655
     26 H5         19.6252    6.2904   56.7868 H         1 6SX         0.0647
     27 H6         19.2575    6.3464   55.0294 H         1 6SX         0.0647
     28 H7         17.3784    2.0159   54.3270 H         1 6SX         0.0680
     29 H8         19.1442    1.1184   55.5794 H         1 6SX         0.2101
     30 H9         16.5059    2.8907   56.8568 H         1 6SX         0.0997
     31 H10        16.4868    4.9652   53.5676 H         1 6SX         0.1399
@<TRIPOS>BOND
     1    2    1 ar 
     2    5    1 ar 
     3   21    2 ar 
     4    3    4 ar 
     5   18    3 1  
     6    3   21 ar 
     7    4    5 ar 
     8    4   19 1  
     9    6    7 ar 
    10    6    8 ar 
    11    9    6 1  
    12   13    6 1  
    13   10    9 1  
    14   11   10 1  
    15   14   10 1  
    16   11   12 1  
    17   17   11 1  
    18   12   13 1  
    19   14   15 1  
    20   16   14 1  
    21   16   17 1  
    22   16   18 1  
    23   18   20 1  
    24   19   20 2  
    25    2   22 1  
    26    5   23 1  
    27   10   24 1  
    28   11   25 1  
    29   12   26 1  
    30   12   27 1  
    31   14   28 1  
    32   15   29 1  
    33   16   30 1  
    34   20   31 1  
@<TRIPOS>SUBSTRUCTURE
     1 6SX         1

