3ekp_ligand
  -I-interpret- 

 70 72  0  0  0  0  0  0  0  0999 V2000
    8.9390  -22.2750   29.7780 C   0  0  0  0  0
   11.2180  -21.6590   30.2550 C   0  0  0  0  0
   10.5500  -21.7060   33.0940 C   0  0  0  0  0
    9.8070  -21.5610   30.8000 C   0  0  0  0  0
   11.4930  -22.2660   35.2750 C   0  0  0  0  0
   13.0050  -22.4800   35.3110 C   0  0  0  0  0
   10.7460  -23.1270   36.3000 C   0  0  0  0  0
    9.2470  -22.9340   36.2130 C   0  0  0  0  0
    8.4250  -24.0460   36.0350 C   0  0  0  0  0
    8.6840  -21.6700   36.3870 C   0  0  0  0  0
    7.0410  -23.8890   35.9890 C   0  0  0  0  0
    7.2920  -21.5090   36.3190 C   0  0  0  0  0
    6.4610  -22.6200   36.1160 C   0  0  0  0  0
   13.5660  -21.9700   36.6200 C   0  0  0  0  0
   14.8790  -19.9830   36.4360 C   0  0  0  0  0
   15.1890  -19.7540   34.9570 C   0  0  0  0  0
   13.3940  -19.9120   39.2240 C   0  0  0  0  0
   12.9440  -20.7710   40.2300 C   0  0  0  0  0
   13.5190  -20.7590   41.5010 C   0  0  0  0  0
   14.5570  -19.8820   41.7540 C   0  0  0  0  0
   14.9640  -18.9770   40.7930 C   0  0  0  0  0
   14.3850  -19.0030   39.5310 C   0  0  0  0  0
   14.2380  -18.7110   34.3880 C   0  0  0  0  0
   16.6320  -19.2980   34.7960 C   0  0  0  0  0
   11.0610  -22.2220   28.8520 C   0  0  0  0  0
   10.9400  -22.5900   33.9950 N   0  0  0  0  0
   13.5230  -20.5180   36.5670 N   0  0  0  0  0
   15.1500  -19.8640   42.9550 N   0  0  0  0  0
    9.7400  -22.2630   32.0180 O   0  0  0  0  0
   10.7900  -20.5310   33.1220 O   0  0  0  0  0
   13.3960  -23.8410   35.2460 O   0  0  0  0  0
   11.3890  -20.5000   37.9220 O   0  0  0  0  0
   12.4170  -18.5160   37.4030 O   0  0  0  0  0
    9.8140  -22.8970   28.8210 O   0  0  0  0  0
   12.6720  -19.8610   37.7860 S   0  0  0  0  0
    8.2759  -21.5664   29.2818 H   0  0  0  0  0
    8.3161  -23.0245   30.2662 H   0  0  0  0  0
   11.8475  -22.2954   30.8770 H   0  0  0  0  0
   11.7158  -20.6893   30.2473 H   0  0  0  0  0
    9.4958  -20.5297   30.9665 H   0  0  0  0  0
   11.3606  -21.2088   35.5050 H   0  0  0  0  0
   13.3820  -21.9495   34.4366 H   0  0  0  0  0
   11.0716  -22.8312   37.2973 H   0  0  0  0  0
   10.9685  -24.1740   36.0942 H   0  0  0  0  0
    8.8648  -25.0380   35.9318 H   0  0  0  0  0
    9.3245  -20.8084   36.5755 H   0  0  0  0  0
    6.4033  -24.7624   35.8528 H   0  0  0  0  0
    6.8547  -20.5162   36.4244 H   0  0  0  0  0
    5.3794  -22.4981   36.0578 H   0  0  0  0  0
   14.5885  -22.3196   36.7625 H   0  0  0  0  0
   12.9799  -22.3417   37.4605 H   0  0  0  0  0
   14.9531  -19.0388   36.9755 H   0  0  0  0  0
   15.5937  -20.6921   36.8537 H   0  0  0  0  0
   15.0543  -20.6879   34.4113 H   0  0  0  0  0
   12.1290  -21.4630   40.0179 H   0  0  0  0  0
   13.1563  -21.4291   42.2804 H   0  0  0  0  0
   15.7374  -18.2446   41.0246 H   0  0  0  0  0
   14.7184  -18.2950   38.7723 H   0  0  0  0  0
   13.2113  -19.0620   34.4921 H   0  0  0  0  0
   14.3601  -17.7745   34.9322 H   0  0  0  0  0
   14.4638  -18.5520   33.3336 H   0  0  0  0  0
   16.7809  -18.3676   35.3439 H   0  0  0  0  0
   17.2999  -20.0640   35.1900 H   0  0  0  0  0
   16.8450  -19.1370   33.7392 H   0  0  0  0  0
   11.8776  -22.9034   28.6133 H   0  0  0  0  0
   11.0902  -21.4256   28.1084 H   0  0  0  0  0
   10.8395  -23.5777   33.7610 H   0  0  0  0  0
   14.8360  -20.4996   43.6884 H   0  0  0  0  0
   15.9155  -19.2147   43.1361 H   0  0  0  0  0
   13.0685  -24.2283   34.4309 H   0  0  0  0  0
  4  1  1  0  0  0
  1 34  1  0  0  0
  4  2  1  0  0  0
  2 25  1  0  0  0
 26  3  1  0  0  0
  3 29  1  0  0  0
  3 30  2  0  0  0
 29  4  1  0  0  0
  6  5  1  0  0  0
  5  7  1  0  0  0
  5 26  1  0  0  0
 14  6  1  0  0  0
  6 31  1  0  0  0
  7  8  1  0  0  0
  8  9  4  0  0  0
  8 10  4  0  0  0
  9 11  4  0  0  0
 10 12  4  0  0  0
 11 13  4  0  0  0
 12 13  4  0  0  0
 27 14  1  0  0  0
 15 16  1  0  0  0
 27 15  1  0  0  0
 16 23  1  0  0  0
 16 24  1  0  0  0
 17 18  4  0  0  0
 17 22  4  0  0  0
 35 17  1  0  0  0
 18 19  4  0  0  0
 19 20  4  0  0  0
 21 20  4  0  0  0
 20 28  1  0  0  0
 22 21  4  0  0  0
 25 34  1  0  0  0
 27 35  1  0  0  0
 35 32  2  0  0  0
 35 33  2  0  0  0
  1 36  1  0  0  0
  1 37  1  0  0  0
  2 38  1  0  0  0
  2 39  1  0  0  0
  4 40  1  0  0  0
  5 41  1  0  0  0
  6 42  1  0  0  0
  7 43  1  0  0  0
  7 44  1  0  0  0
  9 45  1  0  0  0
 10 46  1  0  0  0
 11 47  1  0  0  0
 12 48  1  0  0  0
 13 49  1  0  0  0
 14 50  1  0  0  0
 14 51  1  0  0  0
 15 52  1  0  0  0
 15 53  1  0  0  0
 16 54  1  0  0  0
 18 55  1  0  0  0
 19 56  1  0  0  0
 21 57  1  0  0  0
 22 58  1  0  0  0
 23 59  1  0  0  0
 23 60  1  0  0  0
 23 61  1  0  0  0
 24 62  1  0  0  0
 24 63  1  0  0  0
 24 64  1  0  0  0
 25 65  1  0  0  0
 25 66  1  0  0  0
 26 67  1  0  0  0
 28 68  1  0  0  0
 28 69  1  0  0  0
 31 70  1  0  0  0
M  END
$$$$
