2wb5_ligand
  -I-interpret- 

 51 53  0  0  0  0  0  0  0  0999 V2000
   37.1180   40.7830   22.4200 C   0  0  0  0  0
   36.3730   41.9840   21.8530 C   0  0  0  0  0
   34.8300   41.8550   21.8190 C   0  0  0  0  0
   34.1940   40.8890   22.2620 O   0  0  0  0  0
   34.2570   42.9020   21.2500 N   0  0  0  0  0
   32.7940   43.0210   21.1110 C   0  0  0  0  0
   32.1550   43.1900   22.4710 C   0  0  0  0  0
   32.2030   44.5760   22.7320 O   0  0  0  0  0
   30.7170   42.6680   22.4770 C   0  0  0  0  0
   30.1570   42.9940   23.7540 O   0  0  0  0  0
   30.7730   41.1640   22.2490 C   0  0  0  0  0
   29.4770   40.3640   22.4840 C   0  0  0  0  0
   28.4160   41.0020   21.8070 O   0  0  0  0  0
   31.1810   41.0250   20.8510 N   0  0  0  0  0
   30.8100   40.2080   19.8900 C   0  0  0  0  0
   32.1570   41.8780   20.3130 C   0  0  0  0  0
   32.2980   41.5580   19.0520 N   0  0  0  0  0
   31.4990   40.5410   18.7870 C   0  0  0  0  0
   31.4280   39.8440   17.4180 C   0  0  0  0  0
   31.2930   40.8880   16.3130 C   0  0  0  0  0
   29.8640   41.4530   16.1900 C   0  0  0  0  0
   28.8390   40.6370   15.7040 C   0  0  0  0  0
   27.5530   41.1440   15.5490 C   0  0  0  0  0
   27.3130   42.4690   15.8980 C   0  0  0  0  0
   28.3240   43.2950   16.3920 C   0  0  0  0  0
   29.6050   42.7840   16.5420 C   0  0  0  0  0
   36.8000   40.6122   23.4485 H   0  0  0  0  0
   36.8953   39.9018   21.8184 H   0  0  0  0  0
   38.1901   40.9784   22.3975 H   0  0  0  0  0
   36.6987   42.0915   20.8184 H   0  0  0  0  0
   36.6000   42.8269   22.5057 H   0  0  0  0  0
   34.8478   43.6537   20.8948 H   0  0  0  0  0
   32.6012   43.9156   20.5189 H   0  0  0  0  0
   32.6771   42.6185   23.2384 H   0  0  0  0  0
   33.1165   44.8711   22.7212 H   0  0  0  0  0
   30.0979   43.1110   21.6969 H   0  0  0  0  0
   29.2507   42.6801   23.7942 H   0  0  0  0  0
   31.4516   40.7403   22.9893 H   0  0  0  0  0
   29.2596   40.3206   23.5512 H   0  0  0  0  0
   29.5974   39.3488   22.1060 H   0  0  0  0  0
   27.6047   40.5088   21.9490 H   0  0  0  0  0
   30.0764   39.4061   19.9737 H   0  0  0  0  0
   30.5629   39.1812   17.3954 H   0  0  0  0  0
   32.3392   39.2671   17.2595 H   0  0  0  0  0
   31.5419   40.4054   15.3679 H   0  0  0  0  0
   31.9581   41.7167   16.5559 H   0  0  0  0  0
   29.0480   39.5990   15.4453 H   0  0  0  0  0
   26.7502   40.5163   15.1622 H   0  0  0  0  0
   26.3074   42.8735   15.7825 H   0  0  0  0  0
   28.1093   44.3303   16.6570 H   0  0  0  0  0
   30.4048   43.4140   16.9312 H   0  0  0  0  0
  1  2  1  0  0  0
  2  3  1  0  0  0
  3  4  2  0  0  0
  3  5  1  0  0  0
  5  6  1  0  0  0
  6  7  1  0  0  0
  6 16  1  0  0  0
  7  8  1  0  0  0
  7  9  1  0  0  0
  9 10  1  0  0  0
  9 11  1  0  0  0
 11 12  1  0  0  0
 11 14  1  0  0  0
 12 13  1  0  0  0
 14 15  4  0  0  0
 14 16  4  0  0  0
 15 18  4  0  0  0
 16 17  4  0  0  0
 17 18  4  0  0  0
 18 19  1  0  0  0
 19 20  1  0  0  0
 20 21  1  0  0  0
 21 22  4  0  0  0
 21 26  4  0  0  0
 22 23  4  0  0  0
 23 24  4  0  0  0
 24 25  4  0  0  0
 25 26  4  0  0  0
  1 27  1  0  0  0
  1 28  1  0  0  0
  1 29  1  0  0  0
  2 30  1  0  0  0
  2 31  1  0  0  0
  5 32  1  0  0  0
  6 33  1  0  0  0
  7 34  1  0  0  0
  8 35  1  0  0  0
  9 36  1  0  0  0
 10 37  1  0  0  0
 11 38  1  0  0  0
 12 39  1  0  0  0
 12 40  1  0  0  0
 13 41  1  0  0  0
 15 42  1  0  0  0
 19 43  1  0  0  0
 19 44  1  0  0  0
 20 45  1  0  0  0
 20 46  1  0  0  0
 22 47  1  0  0  0
 23 48  1  0  0  0
 24 49  1  0  0  0
 25 50  1  0  0  0
 26 51  1  0  0  0
M  END
$$$$
