### 
### Created by X-TOOL on Mon Aug  2 16:13:56 2021
### 

@<TRIPOS>MOLECULE
6hq3_ligand
   33    36     1     0     0
SMALL
GAST_HUCK


@<TRIPOS>ATOM
      1 P         -15.1580  -29.7020    8.7630 P.3       1 CMP         0.2557
      2 O1P       -15.3130  -30.2670    7.4040 O.co2     1 CMP        -0.6177
      3 O2P       -14.6670  -28.3410    8.4200 O.co2     1 CMP        -0.6177
      4 O5'       -13.9060  -30.4240    9.6870 O.3       1 CMP        -0.2514
      5 C5'       -14.0470  -30.3440   11.1840 C.3       1 CMP         0.1128
      6 C4'       -15.4210  -30.7010   11.4840 C.3       1 CMP         0.1242
      7 O4'       -15.6220  -30.7540   12.9220 O.3       1 CMP        -0.3360
      8 C3'       -16.3870  -29.6660   10.9580 C.3       1 CMP         0.1540
      9 O3'       -16.5480  -29.7530    9.5690 O.3       1 CMP        -0.2453
     10 C2'       -17.5890  -29.8460   11.7790 C.3       1 CMP         0.1439
     11 O2'       -18.5200  -30.7640   11.2230 O.3       1 CMP        -0.3832
     12 C1'       -17.1100  -30.4170   13.1070 C.3       1 CMP         0.2014
     13 N9        -17.2400  -29.5780   14.1650 N.pl3     1 CMP        -0.1919
     14 C8        -18.0910  -29.8370   15.1570 C.2       1 CMP         0.1123
     15 N7        -17.9680  -28.8180   16.0700 N.2       1 CMP        -0.2958
     16 C5        -16.9510  -27.9070   15.5490 C.ar      1 CMP         0.1045
     17 C6        -16.4140  -26.7420   16.0120 C.ar      1 CMP         0.1298
     18 N6        -16.8800  -26.2190   17.2560 N.pl3     1 CMP        -0.3152
     19 N1        -15.4430  -26.0800   15.3000 N.ar      1 CMP        -0.2698
     20 C2        -14.9840  -26.5950   14.0760 C.ar      1 CMP         0.0533
     21 N3        -15.5560  -27.7970   13.6340 N.ar      1 CMP        -0.2714
     22 C4        -16.5130  -28.4410   14.3400 C.ar      1 CMP         0.1613
     23 H1        -13.8343  -29.3226   11.5324 H         1 CMP         0.0647
     24 H2        -13.3559  -31.0485   11.6697 H         1 CMP         0.0647
     25 H3        -15.6436  -31.6804   11.0355 H         1 CMP         0.0655
     26 H4        -15.9834  -28.6635   11.1628 H         1 CMP         0.0712
     27 H5        -18.0826  -28.8744   11.9281 H         1 CMP         0.0680
     28 H6        -18.8002  -30.4519   10.3706 H         1 CMP         0.2101
     29 H7        -17.6782  -31.3339   13.3226 H         1 CMP         0.0996
     30 H8        -18.7581  -30.6946   15.2302 H         1 CMP         0.1349
     31 H9        -16.4883  -25.3405   17.6245 H         1 CMP         0.1820
     32 H10       -17.6079  -26.7201   17.7850 H         1 CMP         0.1820
     33 H11       -14.2211  -26.0856   13.4985 H         1 CMP         0.0996
@<TRIPOS>BOND
     1    1    2 ar 
     2    1    3 ar 
     3    1    4 1  
     4    1    9 1  
     5    4    5 1  
     6    5    6 1  
     7    6    7 1  
     8    6    8 1  
     9    7   12 1  
    10    8    9 1  
    11    8   10 1  
    12   10   11 1  
    13   10   12 1  
    14   12   13 1  
    15   13   14 1  
    16   13   22 1  
    17   14   15 2  
    18   15   16 1  
    19   16   17 ar 
    20   16   22 ar 
    21   17   18 1  
    22   17   19 ar 
    23   19   20 ar 
    24   20   21 ar 
    25   21   22 ar 
    26    5   23 1  
    27    5   24 1  
    28    6   25 1  
    29    8   26 1  
    30   10   27 1  
    31   11   28 1  
    32   12   29 1  
    33   14   30 1  
    34   18   31 1  
    35   18   32 1  
    36   20   33 1  
@<TRIPOS>SUBSTRUCTURE
     1 CMP         1

