6hq3_ligand
  -I-interpret- 

 34 37  0  0  0  0  0  0  0  0999 V2000
  -15.1580  -29.7020    8.7630 P   0  0  0  0  0
  -15.3130  -30.2670    7.4040 O   0  0  0  0  0
  -14.6670  -28.3410    8.4200 O   0  0  0  0  0
  -13.9060  -30.4240    9.6870 O   0  0  0  0  0
  -14.0470  -30.3440   11.1840 C   0  0  0  0  0
  -15.4210  -30.7010   11.4840 C   0  0  0  0  0
  -15.6220  -30.7540   12.9220 O   0  0  0  0  0
  -16.3870  -29.6660   10.9580 C   0  0  0  0  0
  -16.5480  -29.7530    9.5690 O   0  0  0  0  0
  -17.5890  -29.8460   11.7790 C   0  0  0  0  0
  -18.5200  -30.7640   11.2230 O   0  0  0  0  0
  -17.1100  -30.4170   13.1070 C   0  0  0  0  0
  -17.2400  -29.5780   14.1650 N   0  0  0  0  0
  -18.0910  -29.8370   15.1570 C   0  0  0  0  0
  -17.9680  -28.8180   16.0700 N   0  0  0  0  0
  -16.9510  -27.9070   15.5490 C   0  0  0  0  0
  -16.4140  -26.7420   16.0120 C   0  0  0  0  0
  -16.8800  -26.2190   17.2560 N   0  0  0  0  0
  -15.4430  -26.0800   15.3000 N   0  0  0  0  0
  -14.9840  -26.5950   14.0760 C   0  0  0  0  0
  -15.5560  -27.7970   13.6340 N   0  0  0  0  0
  -16.5130  -28.4410   14.3400 C   0  0  0  0  0
  -14.5177  -27.8431    9.2271 H   0  0  0  0  0
  -13.8143  -29.3427   11.5465 H   0  0  0  0  0
  -13.3496  -31.0192   11.6798 H   0  0  0  0  0
  -15.6036  -31.6676   11.0145 H   0  0  0  0  0
  -16.0386  -28.6379   11.0566 H   0  0  0  0  0
  -18.1001  -28.8870   11.8634 H   0  0  0  0  0
  -19.2807  -30.8379   11.8039 H   0  0  0  0  0
  -17.7320  -31.2802   13.3439 H   0  0  0  0  0
  -18.7587  -30.6954   15.2302 H   0  0  0  0  0
  -17.6009  -26.7153   17.7799 H   0  0  0  0  0
  -16.4921  -25.3491   17.6209 H   0  0  0  0  0
  -14.2169  -26.0828   13.4953 H   0  0  0  0  0
  1  2  2  0  0  0
  1  3  1  0  0  0
  1  4  1  0  0  0
  1  9  1  0  0  0
  4  5  1  0  0  0
  5  6  1  0  0  0
  6  7  1  0  0  0
  6  8  1  0  0  0
  7 12  1  0  0  0
  8  9  1  0  0  0
  8 10  1  0  0  0
 10 11  1  0  0  0
 10 12  1  0  0  0
 12 13  1  0  0  0
 13 14  4  0  0  0
 13 22  4  0  0  0
 14 15  4  0  0  0
 15 16  4  0  0  0
 16 17  4  0  0  0
 16 22  4  0  0  0
 17 18  1  0  0  0
 17 19  4  0  0  0
 19 20  4  0  0  0
 20 21  4  0  0  0
 21 22  4  0  0  0
  3 23  1  0  0  0
  5 24  1  0  0  0
  5 25  1  0  0  0
  6 26  1  0  0  0
  8 27  1  0  0  0
 10 28  1  0  0  0
 11 29  1  0  0  0
 12 30  1  0  0  0
 14 31  1  0  0  0
 18 32  1  0  0  0
 18 33  1  0  0  0
 20 34  1  0  0  0
M  END
$$$$
