### 
### Created by X-TOOL on Mon Sep 10 21:12:55 2018
### 

@<TRIPOS>MOLECULE
2vfz_ligand
   57    59     1     0     0
SMALL
GAST_HUCK


@<TRIPOS>ATOM
      1 N1         -4.4610    9.1130  -10.8310 N.am      1 UPF        -0.1592
      2 C2         -4.4020    8.9640  -12.2560 C.2       1 UPF         0.3328
      3 N3         -4.5300   10.0790  -13.1020 N.am      1 UPF        -0.1865
      4 C4         -4.7400   11.3640  -12.5440 C.2       1 UPF         0.1822
      5 C5         -4.8090   11.5540  -11.1450 C.2       1 UPF         0.0062
      6 C6         -4.6780   10.4380  -10.3000 C.2       1 UPF         0.0591
      7 O2         -4.2140    7.8420  -12.7680 O.2       1 UPF        -0.3815
      8 O4         -4.8580   12.3260  -13.2940 O.2       1 UPF        -0.4124
      9 C1D        -4.3100    7.9020   -9.8870 C.3       1 UPF         0.2059
     10 C2D        -2.8590    7.4480   -9.9090 C.3       1 UPF         0.1387
     11 O2'        -2.7760    6.0120   -9.8960 O.3       1 UPF        -0.3836
     12 C3D        -2.2740    8.0440   -8.6560 C.3       1 UPF         0.1149
     13 C4D        -3.4480    7.9830   -7.6640 C.3       1 UPF         0.1189
     14 O4D        -4.6530    8.2230   -8.4910 O.3       1 UPF        -0.3363
     15 O3D        -1.1080    7.3560   -8.2390 O.3       1 UPF        -0.3864
     16 C5D        -3.3730    9.0670   -6.5610 C.3       1 UPF         0.1128
     17 O5D        -3.3110   10.4070   -7.1180 O.3       1 UPF        -0.2476
     18 PA         -2.0460   11.3530   -6.8790 P.3       1 UPF         0.2972
     19 O1A        -0.8080   10.6010   -7.0400 O.co2     1 UPF        -0.6127
     20 O2A        -2.2290   12.5380   -7.7720 O.co2     1 UPF        -0.6127
     21 O3A        -2.2490   11.7860   -5.3480 O.3       1 UPF        -0.1318
     22 PB         -1.1490   11.9490   -4.1550 P.3       1 UPF         0.2997
     23 O1B         0.2500   11.6880   -4.5370 O.co2     1 UPF        -0.6127
     24 O2B        -1.4810   13.2560   -3.5200 O.co2     1 UPF        -0.6127
     25 O3B        -1.5300   10.6840   -3.2520 O.3       1 UPF        -0.2151
     26 C1'        -2.1370   10.5990   -1.9420 C.3       1 UPF         0.2278
     27 C2'        -2.2440    9.0730   -1.7010 C.3       1 UPF         0.1845
     28 C3'        -3.2800    8.4630   -2.7170 C.3       1 UPF         0.1196
     29 C4'        -4.6630    9.1600   -2.5600 C.3       1 UPF         0.1122
     30 C5'        -4.4820   10.7030   -2.7530 C.3       1 UPF         0.1134
     31 C6'        -5.7900   11.5030   -2.5690 C.3       1 UPF         0.0730
     32 F2'        -1.0100    8.4720   -1.8080 F         1 UPF        -0.2370
     33 O3'        -3.4110    7.0570   -2.5510 O.3       1 UPF        -0.3861
     34 O4'        -5.2160    8.8470   -1.2830 O.3       1 UPF        -0.3865
     35 O5'        -3.4460   11.2610   -1.8390 O.3       1 UPF        -0.3362
     36 O6'        -5.5040   12.9030   -2.7560 O.3       1 UPF        -0.3924
     37 H1         -4.4731    9.9657  -14.0939 H         1 UPF         0.2259
     38 H2         -4.9612   12.5486  -10.7285 H         1 UPF         0.0258
     39 H3         -4.7416   10.5759   -9.2216 H         1 UPF         0.1178
     40 H4         -4.9627    7.0904  -10.2409 H         1 UPF         0.0997
     41 H5         -2.3423    7.8342  -10.8000 H         1 UPF         0.0676
     42 H6         -3.2192    5.6634  -10.6605 H         1 UPF         0.2101
     43 H7         -1.9979    9.0942   -8.8317 H         1 UPF         0.0648
     44 H8         -3.4888    6.9904   -7.1917 H         1 UPF         0.0651
     45 H9         -0.7970    7.7284   -7.4223 H         1 UPF         0.2100
     46 H10        -2.4729    8.8933   -5.9530 H         1 UPF         0.0648
     47 H11        -4.2665    8.9882   -5.9243 H         1 UPF         0.0648
     48 H12        -1.4686   11.0534   -1.1959 H         1 UPF         0.1002
     49 H13        -2.6179    8.9045   -0.6803 H         1 UPF         0.0734
     50 H14        -2.9111    8.6527   -3.7358 H         1 UPF         0.0651
     51 H15        -5.3450    8.7856   -3.3377 H         1 UPF         0.0647
     52 H16        -4.1397   10.8591   -3.7867 H         1 UPF         0.0647
     53 H17        -6.1858   11.3379   -1.5560 H         1 UPF         0.0584
     54 H18        -6.5327   11.1744   -3.3109 H         1 UPF         0.0584
     55 H19        -3.7544    6.8722   -1.6847 H         1 UPF         0.2100
     56 H20        -5.3109    7.9052   -1.2025 H         1 UPF         0.2100
     57 H21        -4.8610   13.1821   -2.1148 H         1 UPF         0.2095
@<TRIPOS>BOND
     1    1    2 am 
     2    1    6 1  
     3    1    9 1  
     4    2    3 am 
     5    2    7 2  
     6    3    4 am 
     7    4    5 1  
     8    4    8 2  
     9    5    6 2  
    10    9   10 1  
    11    9   14 1  
    12   10   11 1  
    13   10   12 1  
    14   12   13 1  
    15   12   15 1  
    16   13   14 1  
    17   13   16 1  
    18   16   17 1  
    19   17   18 1  
    20   18   19 ar 
    21   18   20 ar 
    22   18   21 1  
    23   21   22 1  
    24   22   23 ar 
    25   22   24 ar 
    26   22   25 1  
    27   25   26 1  
    28   26   27 1  
    29   26   35 1  
    30   27   28 1  
    31   27   32 1  
    32   28   29 1  
    33   28   33 1  
    34   29   30 1  
    35   29   34 1  
    36   30   31 1  
    37   30   35 1  
    38   31   36 1  
    39    3   37 1  
    40    5   38 1  
    41    6   39 1  
    42    9   40 1  
    43   10   41 1  
    44   11   42 1  
    45   12   43 1  
    46   13   44 1  
    47   15   45 1  
    48   16   46 1  
    49   16   47 1  
    50   26   48 1  
    51   27   49 1  
    52   28   50 1  
    53   29   51 1  
    54   30   52 1  
    55   31   53 1  
    56   31   54 1  
    57   33   55 1  
    58   34   56 1  
    59   36   57 1  
@<TRIPOS>SUBSTRUCTURE
     1 UPF         1

