2vfz_ligand
  -I-interpret- 

 59 61  0  0  0  0  0  0  0  0999 V2000
   -4.4610    9.1130  -10.8310 N   0  0  0  0  0
   -4.4020    8.9640  -12.2560 C   0  0  0  0  0
   -4.5300   10.0790  -13.1020 N   0  0  0  0  0
   -4.7400   11.3640  -12.5440 C   0  0  0  0  0
   -4.8090   11.5540  -11.1450 C   0  0  0  0  0
   -4.6780   10.4380  -10.3000 C   0  0  0  0  0
   -4.2140    7.8420  -12.7680 O   0  0  0  0  0
   -4.8580   12.3260  -13.2940 O   0  0  0  0  0
   -4.3100    7.9020   -9.8870 C   0  0  0  0  0
   -2.8590    7.4480   -9.9090 C   0  0  0  0  0
   -2.7760    6.0120   -9.8960 O   0  0  0  0  0
   -2.2740    8.0440   -8.6560 C   0  0  0  0  0
   -3.4480    7.9830   -7.6640 C   0  0  0  0  0
   -4.6530    8.2230   -8.4910 O   0  0  0  0  0
   -1.1080    7.3560   -8.2390 O   0  0  0  0  0
   -3.3730    9.0670   -6.5610 C   0  0  0  0  0
   -3.3110   10.4070   -7.1180 O   0  0  0  0  0
   -2.0460   11.3530   -6.8790 P   0  0  0  0  0
   -0.8080   10.6010   -7.0400 O   0  0  0  0  0
   -2.2290   12.5380   -7.7720 O   0  0  0  0  0
   -2.2490   11.7860   -5.3480 O   0  0  0  0  0
   -1.1490   11.9490   -4.1550 P   0  0  0  0  0
    0.2500   11.6880   -4.5370 O   0  0  0  0  0
   -1.4810   13.2560   -3.5200 O   0  0  0  0  0
   -1.5300   10.6840   -3.2520 O   0  0  0  0  0
   -2.1370   10.5990   -1.9420 C   0  0  0  0  0
   -2.2440    9.0730   -1.7010 C   0  0  0  0  0
   -3.2800    8.4630   -2.7170 C   0  0  0  0  0
   -4.6630    9.1600   -2.5600 C   0  0  0  0  0
   -4.4820   10.7030   -2.7530 C   0  0  0  0  0
   -5.7900   11.5030   -2.5690 C   0  0  0  0  0
   -1.0100    8.4720   -1.8080 F   0  0  0  0  0
   -3.4110    7.0570   -2.5510 O   0  0  0  0  0
   -5.2160    8.8470   -1.2830 O   0  0  0  0  0
   -3.4460   11.2610   -1.8390 O   0  0  0  0  0
   -5.5040   12.9030   -2.7560 O   0  0  0  0  0
   -4.4719    9.9634  -14.1138 H   0  0  0  0  0
   -4.9613   12.5495  -10.7281 H   0  0  0  0  0
   -4.7416   10.5761   -9.2207 H   0  0  0  0  0
   -4.9937    7.1298  -10.2395 H   0  0  0  0  0
   -2.3267    7.7664  -10.8053 H   0  0  0  0  0
   -1.8538    5.7458   -9.9102 H   0  0  0  0  0
   -1.9099    9.0645   -8.7747 H   0  0  0  0  0
   -3.4459    7.0257   -7.1429 H   0  0  0  0  0
   -0.7656    7.7638   -7.4402 H   0  0  0  0  0
   -2.4675    8.8980   -5.9782 H   0  0  0  0  0
   -4.2722    8.9935   -5.9493 H   0  0  0  0  0
   -3.0725   12.9544   -7.5804 H   0  0  0  0  0
   -2.4208   13.2869   -3.3265 H   0  0  0  0  0
   -1.5431   11.1234   -1.1934 H   0  0  0  0  0
   -2.5984    8.8869   -0.6872 H   0  0  0  0  0
   -2.9038    8.6422   -3.7242 H   0  0  0  0  0
   -5.3590    8.8004   -3.3179 H   0  0  0  0  0
   -4.1588   10.8155   -3.7879 H   0  0  0  0  0
   -6.1888   11.3365   -1.5683 H   0  0  0  0  0
   -6.5308   11.1753   -3.2984 H   0  0  0  0  0
   -4.0484    6.7191   -3.1844 H   0  0  0  0  0
   -6.0685    9.2786   -1.1902 H   0  0  0  0  0
   -6.3108   13.4110   -2.6439 H   0  0  0  0  0
  1  2  1  0  0  0
  1  6  1  0  0  0
  1  9  1  0  0  0
  2  3  1  0  0  0
  2  7  2  0  0  0
  3  4  1  0  0  0
  4  5  1  0  0  0
  4  8  2  0  0  0
  5  6  2  0  0  0
  9 10  1  0  0  0
  9 14  1  0  0  0
 10 11  1  0  0  0
 10 12  1  0  0  0
 12 13  1  0  0  0
 12 15  1  0  0  0
 13 14  1  0  0  0
 13 16  1  0  0  0
 16 17  1  0  0  0
 17 18  1  0  0  0
 18 19  2  0  0  0
 18 20  1  0  0  0
 18 21  1  0  0  0
 21 22  1  0  0  0
 22 23  2  0  0  0
 22 24  1  0  0  0
 22 25  1  0  0  0
 25 26  1  0  0  0
 26 27  1  0  0  0
 26 35  1  0  0  0
 27 28  1  0  0  0
 27 32  1  0  0  0
 28 29  1  0  0  0
 28 33  1  0  0  0
 29 30  1  0  0  0
 29 34  1  0  0  0
 30 31  1  0  0  0
 30 35  1  0  0  0
 31 36  1  0  0  0
  3 37  1  0  0  0
  5 38  1  0  0  0
  6 39  1  0  0  0
  9 40  1  0  0  0
 10 41  1  0  0  0
 11 42  1  0  0  0
 12 43  1  0  0  0
 13 44  1  0  0  0
 15 45  1  0  0  0
 16 46  1  0  0  0
 16 47  1  0  0  0
 20 48  1  0  0  0
 24 49  1  0  0  0
 26 50  1  0  0  0
 27 51  1  0  0  0
 28 52  1  0  0  0
 29 53  1  0  0  0
 30 54  1  0  0  0
 31 55  1  0  0  0
 31 56  1  0  0  0
 33 57  1  0  0  0
 34 58  1  0  0  0
 36 59  1  0  0  0
M  END
$$$$
