5x62_ligand
  -I-interpret- 

 47 49  0  0  0  0  0  0  0  0999 V2000
   18.5120   40.7340  197.4130 N   0  3  0  0  0
   18.7030   39.3370  197.8980 C   0  0  0  0  0
   17.6150   38.9110  198.8880 C   0  0  0  0  0
   16.2190   38.9100  198.2720 C   0  0  0  0  0
   15.0000   38.4720  199.4860 S   0  0  0  0  0
   18.7570   38.3820  196.7350 C   0  0  0  0  0
   18.4360   38.8160  195.6060 O   0  0  0  0  0
   19.1240   37.2000  196.9320 O   0  0  0  0  0
   14.4370   39.9620  200.2640 C   0  0  0  0  0
   15.4740   40.5360  201.2380 C   0  0  0  0  0
   15.1190   41.8630  201.6740 O   0  0  0  0  0
   15.5330   39.7080  202.5060 C   0  0  0  0  0
   16.9140   39.6090  202.8530 O   0  0  0  0  0
   14.7680   40.5200  203.5390 C   0  0  0  0  0
   15.2180   40.2600  204.8700 O   0  0  0  0  0
   15.1300   41.9240  203.1040 C   0  0  0  0  0
   14.1740   42.9580  203.5570 N   0  0  0  0  0
   12.8310   42.8670  203.5200 C   0  0  0  0  0
   12.2580   44.0050  203.9800 N   0  0  0  0  0
   13.2560   44.8470  204.3180 C   0  0  0  0  0
   13.3410   46.2230  204.8620 C   0  0  0  0  0
   12.2020   46.8900  205.1480 N   0  0  0  0  0
   14.5640   46.7630  205.0690 N   0  0  0  0  0
   15.6860   46.0690  204.7850 C   0  0  0  0  0
   15.6820   44.8090  204.2880 N   0  0  0  0  0
   14.5170   44.1620  204.0310 C   0  0  0  0  0
   18.4775   41.3680  198.2113 H   0  0  0  0  0
   19.2904   40.9914  196.8062 H   0  0  0  0  0
   17.6379   40.7948  196.8909 H   0  0  0  0  0
   19.6529   39.3080  198.4319 H   0  0  0  0  0
   17.6153   39.6259  199.7109 H   0  0  0  0  0
   17.8376   37.8937  199.2098 H   0  0  0  0  0
   16.1904   38.1795  197.4635 H   0  0  0  0  0
   15.9988   39.9088  197.8950 H   0  0  0  0  0
   19.3223   37.0787  197.8634 H   0  0  0  0  0
   13.5343   39.7290  200.8288 H   0  0  0  0  0
   14.2567   40.7033  199.4855 H   0  0  0  0  0
   16.4206   40.5357  200.6976 H   0  0  0  0  0
   15.1115   38.7064  202.4209 H   0  0  0  0  0
   17.0047   39.0900  203.6555 H   0  0  0  0  0
   13.6997   40.3063  203.5746 H   0  0  0  0  0
   14.7103   40.7913  205.4877 H   0  0  0  0  0
   16.0866   42.2144  203.5383 H   0  0  0  0  0
   12.2795   41.9954  203.1675 H   0  0  0  0  0
   11.2975   46.4462  204.9891 H   0  0  0  0  0
   12.2463   47.8376  205.5229 H   0  0  0  0  0
   16.6480   46.5486  204.9654 H   0  0  0  0  0
  1  2  1  0  0  0
  2  3  1  0  0  0
  2  6  1  0  0  0
  3  4  1  0  0  0
  4  5  1  0  0  0
  5  9  1  0  0  0
  6  7  2  0  0  0
  6  8  1  0  0  0
  9 10  1  0  0  0
 10 11  1  0  0  0
 10 12  1  0  0  0
 11 16  1  0  0  0
 12 13  1  0  0  0
 12 14  1  0  0  0
 14 15  1  0  0  0
 14 16  1  0  0  0
 16 17  1  0  0  0
 17 18  4  0  0  0
 17 26  4  0  0  0
 18 19  4  0  0  0
 19 20  4  0  0  0
 20 21  4  0  0  0
 20 26  4  0  0  0
 21 22  1  0  0  0
 21 23  4  0  0  0
 23 24  4  0  0  0
 24 25  4  0  0  0
 25 26  4  0  0  0
  1 27  1  0  0  0
  1 28  1  0  0  0
  1 29  1  0  0  0
  2 30  1  0  0  0
  3 31  1  0  0  0
  3 32  1  0  0  0
  4 33  1  0  0  0
  4 34  1  0  0  0
  8 35  1  0  0  0
  9 36  1  0  0  0
  9 37  1  0  0  0
 10 38  1  0  0  0
 12 39  1  0  0  0
 13 40  1  0  0  0
 14 41  1  0  0  0
 15 42  1  0  0  0
 16 43  1  0  0  0
 18 44  1  0  0  0
 22 45  1  0  0  0
 22 46  1  0  0  0
 24 47  1  0  0  0
M  END
$$$$
