1w0z_ligand
  -I-interpret- 

 58 58  0  0  0  0  0  0  0  0999 V2000
   34.3950    4.7700   27.3880 N   0  0  0  0  0
   33.1770    2.9530   27.8990 N   0  0  0  0  0
   33.1870    4.2980   27.7840 C   0  0  0  0  0
   32.0490    5.0940   28.0620 C   0  0  0  0  0
   32.0740    6.4990   27.8890 C   0  0  0  0  0
   30.9720    7.3020   28.2420 C   0  0  0  0  0
   29.7680    6.7210   28.6810 C   0  0  0  0  0
   29.7170    5.3210   28.8170 C   0  0  0  0  0
   30.8440    4.5270   28.5260 C   0  0  0  0  0
   28.5850    7.5630   28.9930 C   0  0  0  0  0
   28.7810    8.3350   30.1590 N   0  0  0  0  0
   29.0710    9.6110   30.1330 C   0  0  0  0  0
   29.2390   10.2050   29.0590 O   0  0  0  0  0
   29.2050   10.3700   31.3810 C   0  0  0  0  0
   30.3020   11.2630   31.3040 N   0  0  0  0  0
   31.5700   10.9280   31.1760 C   0  0  0  0  0
   31.8750    9.7340   31.0790 O   0  0  0  0  0
   32.6660   11.9060   31.1340 C   0  0  0  0  0
   33.4010   12.1040   32.4900 C   0  0  0  0  0
   32.4930   12.1230   33.5950 O   0  0  0  0  0
   33.7980   11.5600   30.2380 N   0  0  0  0  0
   33.7560   12.1400   28.6580 S   0  0  0  0  0
   33.3650   13.6380   28.6020 O   0  0  0  0  0
   35.1840   11.8500   28.1110 O   0  0  0  0  0
   32.6150   11.1430   27.7700 C   0  0  0  0  0
   32.4750   11.4000   26.2510 C   0  0  0  0  0
   31.4570   10.3930   25.6520 C   0  0  0  0  0
   31.3430   10.6000   24.1210 C   0  0  0  0  0
   27.9160   11.1980   31.6240 C   0  0  0  0  0
   35.1638    4.1224   27.2149 H   0  0  0  0  0
   34.5348    5.7726   27.2632 H   0  0  0  0  0
   32.3275    2.4728   28.1960 H   0  0  0  0  0
   32.9653    6.9694   27.4737 H   0  0  0  0  0
   31.0529    8.3869   28.1743 H   0  0  0  0  0
   28.7949    4.8455   29.1513 H   0  0  0  0  0
   30.7830    3.4474   28.6630 H   0  0  0  0  0
   27.7314    6.9055   29.1579 H   0  0  0  0  0
   28.4191    8.2425   28.1571 H   0  0  0  0  0
   28.6923    7.8759   31.0655 H   0  0  0  0  0
   29.3662    9.6652   32.1967 H   0  0  0  0  0
   30.0903   12.2596   31.3522 H   0  0  0  0  0
   32.1107   12.7813   30.7969 H   0  0  0  0  0
   33.9199   13.0620   32.4593 H   0  0  0  0  0
   34.0892   11.2703   32.6291 H   0  0  0  0  0
   32.9851   12.2468   34.4100 H   0  0  0  0  0
   34.5760   10.9894   30.5689 H   0  0  0  0  0
   31.6369   11.3647   28.1968 H   0  0  0  0  0
   32.9836   10.1214   27.8624 H   0  0  0  0  0
   33.4436   11.2704   25.7682 H   0  0  0  0  0
   32.1226   12.4179   26.0841 H   0  0  0  0  0
   30.4809   10.5559   26.1090 H   0  0  0  0  0
   31.7984    9.3773   25.8516 H   0  0  0  0  0
   31.0048   11.6160   23.9172 H   0  0  0  0  0
   32.3181   10.4410   23.6606 H   0  0  0  0  0
   30.6261    9.8881   23.7118 H   0  0  0  0  0
   27.7666   11.8875   30.7931 H   0  0  0  0  0
   27.0618   10.5249   31.6974 H   0  0  0  0  0
   28.0171   11.7614   32.5516 H   0  0  0  0  0
  1  3  1  0  0  0
  3  2  2  0  0  0
  3  4  1  0  0  0
  4  5  4  0  0  0
  4  9  4  0  0  0
  5  6  4  0  0  0
  6  7  4  0  0  0
  7  8  4  0  0  0
  7 10  1  0  0  0
  8  9  4  0  0  0
 10 11  1  0  0  0
 11 12  1  0  0  0
 12 13  2  0  0  0
 12 14  1  0  0  0
 14 15  1  0  0  0
 14 29  1  0  0  0
 15 16  1  0  0  0
 16 17  2  0  0  0
 16 18  1  0  0  0
 18 19  1  0  0  0
 18 21  1  0  0  0
 19 20  1  0  0  0
 21 22  1  0  0  0
 22 23  2  0  0  0
 22 24  2  0  0  0
 22 25  1  0  0  0
 25 26  1  0  0  0
 26 27  1  0  0  0
 27 28  1  0  0  0
  1 30  1  0  0  0
  1 31  1  0  0  0
  2 32  1  0  0  0
  5 33  1  0  0  0
  6 34  1  0  0  0
  8 35  1  0  0  0
  9 36  1  0  0  0
 10 37  1  0  0  0
 10 38  1  0  0  0
 11 39  1  0  0  0
 14 40  1  0  0  0
 15 41  1  0  0  0
 18 42  1  0  0  0
 19 43  1  0  0  0
 19 44  1  0  0  0
 20 45  1  0  0  0
 21 46  1  0  0  0
 25 47  1  0  0  0
 25 48  1  0  0  0
 26 49  1  0  0  0
 26 50  1  0  0  0
 27 51  1  0  0  0
 27 52  1  0  0  0
 28 53  1  0  0  0
 28 54  1  0  0  0
 28 55  1  0  0  0
 29 56  1  0  0  0
 29 57  1  0  0  0
 29 58  1  0  0  0
M  END
$$$$
