### 
### Created by X-TOOL on Mon Sep 10 21:12:47 2018
### 

@<TRIPOS>MOLECULE
1e03_ligand
  158   162     1     0     0
SMALL
GAST_HUCK


@<TRIPOS>ATOM
      1 O10        -1.3670  -25.4760   21.3010 O.3       1 NTP        -0.3745
      2 C11        -0.5590  -26.6030   20.9500 C.3       1 NTP         0.0370
      3 C12        -2.4430  -25.2690   20.3920 C.3       1 NTP         0.1154
      4 C13        -3.5240  -24.3800   21.0240 C.3       1 NTP         0.1159
      5 O14        -4.5260  -24.0950   20.0290 O.3       1 NTP        -0.3403
      6 C15        -2.9350  -23.0550   21.5270 C.3       1 NTP         0.1076
      7 O16        -3.6350  -21.9630   20.9370 O.3       1 NTP        -0.2131
      8 S17        -2.8690  -20.5440   20.9080 S.o2      1 NTP         0.2076
      9 O18        -2.9710  -20.1150   19.5560 O.2       1 NTP        -0.1181
     10 O19        -1.5390  -20.8140   21.3370 O.2       1 NTP        -0.1181
     11 O1A        -3.6070  -19.7240   21.8100 O.3       1 NTP        -0.2311
     12 C1B        -3.0950  -26.5990   19.9950 C.3       1 NTP         0.1200
     13 O1C        -2.1070  -27.4570   19.4210 O.3       1 NTP        -0.3743
     14 C1D        -2.5590  -27.9960   18.1730 C.3       1 NTP         0.0370
     15 C1E        -4.1820  -26.2670   18.9390 C.3       1 NTP         0.1686
     16 O1F        -4.9360  -27.4740   18.6820 O.3       1 NTP        -0.2047
     17 S1G        -4.9770  -27.8950   17.1220 S.o2      1 NTP         0.2080
     18 O1H        -3.6560  -27.6240   16.6610 O.2       1 NTP        -0.1181
     19 O1I        -5.9760  -27.0600   16.5270 O.3       1 NTP        -0.2311
     20 O1J        -5.3110  -29.2820   17.1410 O.2       1 NTP        -0.1181
     21 C1K        -5.1810  -25.2530   19.5230 C.3       1 NTP         0.1912
     22 O1L        -5.8540  -25.9650   20.5670 O.3       1 NTP        -0.3383
     23 C20        -7.1660  -25.5460   20.9270 C.3       1 NTP         0.1281
     24 C21        -7.2800  -25.5470   22.4840 C.3       1 NTP         0.1424
     25 O22        -8.5850  -25.0630   22.8480 O.3       1 NTP        -0.3285
     26 C23        -6.1700  -24.6790   23.1110 C.2       1 NTP         0.0664
     27 O24        -5.7730  -23.6250   22.5440 O.co2     1 NTP        -0.5662
     28 O25        -5.4600  -25.1610   24.0310 O.co2     1 NTP        -0.5662
     29 C26        -8.2270  -26.5300   20.3790 C.3       1 NTP         0.1193
     30 O27        -8.1380  -26.6730   18.9670 O.3       1 NTP        -0.3743
     31 C28        -7.6800  -25.4940   18.2970 C.3       1 NTP         0.0370
     32 C29        -9.5750  -25.9460   20.7980 C.3       1 NTP         0.1377
     33 O2A       -10.6430  -26.7160   20.2850 O.3       1 NTP        -0.3721
     34 C2B       -11.3780  -26.0420   19.2660 C.3       1 NTP         0.0371
     35 C2C        -9.6370  -25.9020   22.3410 C.3       1 NTP         0.1905
     36 O2D       -10.9120  -25.3780   22.6630 O.3       1 NTP        -0.3399
     37 C30       -11.5370  -25.7040   23.9090 C.3       1 NTP         0.1212
     38 C31       -12.7750  -26.5710   23.6090 C.3       1 NTP         0.1161
     39 O32       -13.5440  -26.7980   24.8000 O.3       1 NTP        -0.3403
     40 C33       -12.3380  -27.9640   23.0870 C.3       1 NTP         0.1076
     41 O34       -11.9440  -28.7360   24.2250 O.3       1 NTP        -0.2131
     42 S35       -10.7540  -29.8220   24.0300 S.o2      1 NTP         0.2076
     43 O36        -9.8980  -29.2850   23.0180 O.3       1 NTP        -0.2311
     44 O37       -11.4000  -31.0240   23.6140 O.2       1 NTP        -0.1181
     45 O38       -10.1230  -29.9160   25.3090 O.2       1 NTP        -0.1181
     46 C39       -11.9880  -24.3820   24.5530 C.3       1 NTP         0.1514
     47 O3A       -10.8560  -23.5980   24.8660 O.3       1 NTP        -0.2069
     48 S3B       -10.8990  -22.0640   24.3870 S.o2      1 NTP         0.2079
     49 O3C       -11.9470  -21.4670   25.1380 O.2       1 NTP        -0.1181
     50 O3D        -9.5990  -21.5720   24.6900 O.2       1 NTP        -0.1181
     51 O3E       -11.1760  -22.1090   22.9870 O.3       1 NTP        -0.2311
     52 C3F       -12.7720  -24.6980   25.8350 C.3       1 NTP         0.1710
     53 O3G       -13.2600  -23.4550   26.3780 O.3       1 NTP        -0.2046
     54 S3H       -13.8350  -23.4510   27.8980 S.o2      1 NTP         0.2080
     55 O3I       -14.7200  -22.3310   27.9340 O.3       1 NTP        -0.2311
     56 O3J       -12.6980  -23.2990   28.7300 O.2       1 NTP        -0.1181
     57 O3K       -14.4900  -24.7050   28.0870 O.2       1 NTP        -0.1181
     58 C3L       -13.9980  -25.5790   25.4390 C.3       1 NTP         0.1913
     59 O3M       -14.7840  -24.7940   24.5160 O.3       1 NTP        -0.3383
     60 C40       -15.9540  -25.4110   23.9660 C.3       1 NTP         0.1282
     61 C41       -16.4410  -24.6230   22.7340 C.3       1 NTP         0.1424
     62 O42       -17.1120  -23.4320   23.0950 O.3       1 NTP        -0.3284
     63 C43       -15.3250  -24.3080   21.7340 C.2       1 NTP         0.0664
     64 O44       -14.5820  -25.2400   21.3290 O.co2     1 NTP        -0.5662
     65 O45       -14.9800  -23.1170   21.5220 O.co2     1 NTP        -0.5662
     66 C46       -17.0400  -25.4870   25.0590 C.3       1 NTP         0.1217
     67 O47       -17.1580  -26.8000   25.5750 O.3       1 NTP        -0.3742
     68 C48       -16.7370  -26.8930   26.9270 C.3       1 NTP         0.0370
     69 C49       -18.4060  -25.0260   24.5040 C.3       1 NTP         0.1689
     70 O4A       -19.3210  -24.9490   25.6100 O.3       1 NTP        -0.2047
     71 S4B       -20.6230  -25.9080   25.6560 S.o2      1 NTP         0.2080
     72 O4C       -21.2020  -25.9120   24.3450 O.2       1 NTP        -0.1181
     73 O4D       -21.4920  -25.3110   26.6270 O.3       1 NTP        -0.2311
     74 O4E       -20.1060  -27.1780   26.0580 O.2       1 NTP        -0.1181
     75 C4F       -18.2720  -23.6040   23.8690 C.3       1 NTP         0.1929
     76 O4G       -19.4540  -23.3320   23.1430 O.3       1 NTP        -0.3398
     77 C50       -19.6990  -22.0370   22.6450 C.3       1 NTP         0.1212
     78 C51       -20.9820  -21.4160   23.2080 C.3       1 NTP         0.1161
     79 O52       -21.1020  -20.0590   22.7400 O.3       1 NTP        -0.3403
     80 C53       -21.0250  -21.3970   24.7340 C.3       1 NTP         0.1076
     81 O54       -19.7310  -21.0850   25.2410 O.3       1 NTP        -0.2131
     82 S55       -19.6820  -20.4690   26.7410 S.o2      1 NTP         0.2076
     83 O56       -19.5630  -21.6090   27.5980 O.3       1 NTP        -0.2311
     84 O57       -20.9170  -19.7740   26.8980 O.2       1 NTP        -0.1181
     85 O58       -18.5450  -19.6080   26.7800 O.2       1 NTP        -0.1181
     86 C59       -19.8110  -22.0880   21.1110 C.3       1 NTP         0.1514
     87 O5A       -18.6030  -22.6630   20.6060 O.3       1 NTP        -0.2069
     88 S5B       -18.6320  -23.6410   19.3250 S.o2      1 NTP         0.2079
     89 O5C       -19.2900  -24.8220   19.7690 O.2       1 NTP        -0.1181
     90 O5D       -17.2570  -23.8580   19.0130 O.3       1 NTP        -0.2311
     91 O5E       -19.3420  -22.9450   18.3060 O.2       1 NTP        -0.1181
     92 C5F       -19.9150  -20.6140   20.6480 C.3       1 NTP         0.1710
     93 O5G       -20.0310  -20.5720   19.2200 O.3       1 NTP        -0.2046
     94 S5H       -19.3350  -19.3110   18.4710 S.o2      1 NTP         0.2080
     95 O5I       -18.4020  -19.8960   17.5710 O.2       1 NTP        -0.1181
     96 O5J       -18.7210  -18.5630   19.5070 O.2       1 NTP        -0.1181
     97 O5K       -20.4090  -18.6050   17.8500 O.3       1 NTP        -0.2311
     98 C5L       -21.1640  -19.9660   21.3050 C.3       1 NTP         0.1903
     99 O5M       -22.3380  -20.6250   20.8310 O.3       1 NTP        -0.3519
    100 C5N       -23.5330  -20.0070   21.3000 C.3       1 NTP         0.0395
    101 H1          0.2531  -26.7146   21.6835 H         1 NTP         0.0524
    102 H2         -0.1301  -26.4491   19.9488 H         1 NTP         0.0524
    103 H3         -1.1785  -27.5119   20.9478 H         1 NTP         0.0524
    104 H4         -2.0507  -24.7764   19.4901 H         1 NTP         0.0649
    105 H5         -3.9825  -24.9145   21.8690 H         1 NTP         0.0648
    106 H6         -1.8717  -22.9995   21.2510 H         1 NTP         0.0611
    107 H7         -3.0330  -23.0035   22.6214 H         1 NTP         0.0611
    108 H8         -4.5043  -19.6497   21.5069 H         1 NTP         0.2469
    109 H9         -3.5479  -27.0837   20.8725 H         1 NTP         0.0651
    110 H10        -1.7814  -28.6513   17.7536 H         1 NTP         0.0524
    111 H11        -2.7635  -27.1741   17.4712 H         1 NTP         0.0524
    112 H12        -3.4790  -28.5765   18.3360 H         1 NTP         0.0524
    113 H13        -3.7215  -25.8795   18.0182 H         1 NTP         0.0699
    114 H14        -6.8115  -27.2163   16.9512 H         1 NTP         0.2469
    115 H15        -5.8999  -24.9438   18.7500 H         1 NTP         0.0938
    116 H16        -7.3534  -24.5368   20.5316 H         1 NTP         0.0669
    117 H17        -7.1666  -26.5777   22.8512 H         1 NTP         0.0794
    118 H18        -8.0896  -27.5192   20.8401 H         1 NTP         0.0652
    119 H19        -7.6375  -25.6810   17.2138 H         1 NTP         0.0524
    120 H20        -6.6768  -25.2304   18.6632 H         1 NTP         0.0524
    121 H21        -8.3737  -24.6646   18.4989 H         1 NTP         0.0524
    122 H22        -9.6590  -24.9221   20.4048 H         1 NTP         0.0674
    123 H23       -12.1914  -26.6914   18.9101 H         1 NTP         0.0524
    124 H24       -10.7072  -25.8019   18.4279 H         1 NTP         0.0524
    125 H25       -11.8025  -25.1128   19.6738 H         1 NTP         0.0524
    126 H26        -9.5281  -26.9141   22.7579 H         1 NTP         0.0939
    127 H27       -10.8405  -26.2408   24.5699 H         1 NTP         0.0651
    128 H28       -13.3958  -26.0649   22.8550 H         1 NTP         0.0648
    129 H29       -11.4920  -27.8580   22.3920 H         1 NTP         0.0611
    130 H30       -13.1771  -28.4538   22.5712 H         1 NTP         0.0611
    131 H31       -10.3930  -29.1677   22.2156 H         1 NTP         0.2469
    132 H32       -12.6328  -23.8308   23.8528 H         1 NTP         0.0677
    133 H33       -12.0099  -22.5411   22.8440 H         1 NTP         0.2469
    134 H34       -12.1358  -25.2194   26.5654 H         1 NTP         0.0700
    135 H35       -14.2351  -21.5391   27.7335 H         1 NTP         0.2469
    136 H36       -14.5931  -25.8290   26.3297 H         1 NTP         0.0938
    137 H37       -15.7029  -26.4335   23.6476 H         1 NTP         0.0669
    138 H38       -17.1681  -25.2654   22.2157 H         1 NTP         0.0794
    139 H39       -16.7501  -24.8146   25.8799 H         1 NTP         0.0652
    140 H40       -16.8495  -27.9302   27.2755 H         1 NTP         0.0524
    141 H41       -17.3536  -26.2281   27.5496 H         1 NTP         0.0524
    142 H42       -15.6815  -26.5929   27.0039 H         1 NTP         0.0524
    143 H43       -18.7709  -25.7409   23.7518 H         1 NTP         0.0699
    144 H44       -21.7154  -24.4298   26.3511 H         1 NTP         0.2469
    145 H45       -18.2105  -22.8785   24.6936 H         1 NTP         0.0940
    146 H46       -18.8504  -21.3946   22.9229 H         1 NTP         0.0651
    147 H47       -21.8375  -22.0030   22.8425 H         1 NTP         0.0648
    148 H48       -21.3356  -22.3850   25.1045 H         1 NTP         0.0611
    149 H49       -21.7443  -20.6361   25.0712 H         1 NTP         0.0611
    150 H50       -20.3143  -22.1770   27.4737 H         1 NTP         0.2469
    151 H51       -20.6867  -22.6699   20.7877 H         1 NTP         0.0677
    152 H52       -16.8242  -24.2597   19.7571 H         1 NTP         0.2469
    153 H53       -19.0129  -20.0656   20.9569 H         1 NTP         0.0700
    154 H54       -21.0254  -18.3202   18.5144 H         1 NTP         0.2469
    155 H55       -21.2057  -18.9043   21.0202 H         1 NTP         0.0938
    156 H56       -24.4052  -20.5507   20.9079 H         1 NTP         0.0525
    157 H57       -23.5660  -18.9632   20.9545 H         1 NTP         0.0525
    158 H58       -23.5506  -20.0301   22.3996 H         1 NTP         0.0525
@<TRIPOS>BOND
     1    1    2 1  
     2    1    3 1  
     3    3    4 1  
     4    3   12 1  
     5    4    5 1  
     6    4    6 1  
     7    5   21 1  
     8    6    7 1  
     9    7    8 1  
    10    8    9 2  
    11    8   10 2  
    12    8   11 1  
    13   12   13 1  
    14   12   15 1  
    15   13   14 1  
    16   15   16 1  
    17   15   21 1  
    18   16   17 1  
    19   17   18 2  
    20   17   19 1  
    21   17   20 2  
    22   21   22 1  
    23   22   23 1  
    24   23   24 1  
    25   23   29 1  
    26   24   25 1  
    27   24   26 1  
    28   25   35 1  
    29   26   27 ar 
    30   26   28 ar 
    31   29   30 1  
    32   29   32 1  
    33   30   31 1  
    34   32   33 1  
    35   32   35 1  
    36   33   34 1  
    37   35   36 1  
    38   36   37 1  
    39   37   38 1  
    40   37   46 1  
    41   38   39 1  
    42   38   40 1  
    43   39   58 1  
    44   40   41 1  
    45   41   42 1  
    46   42   43 1  
    47   42   44 2  
    48   42   45 2  
    49   46   47 1  
    50   46   52 1  
    51   47   48 1  
    52   48   49 2  
    53   48   50 2  
    54   48   51 1  
    55   52   53 1  
    56   52   58 1  
    57   53   54 1  
    58   54   55 1  
    59   54   56 2  
    60   54   57 2  
    61   58   59 1  
    62   59   60 1  
    63   60   61 1  
    64   60   66 1  
    65   61   62 1  
    66   61   63 1  
    67   62   75 1  
    68   63   64 ar 
    69   63   65 ar 
    70   66   67 1  
    71   66   69 1  
    72   67   68 1  
    73   69   70 1  
    74   69   75 1  
    75   70   71 1  
    76   71   72 2  
    77   71   73 1  
    78   71   74 2  
    79   75   76 1  
    80   76   77 1  
    81   77   78 1  
    82   77   86 1  
    83   78   79 1  
    84   78   80 1  
    85   79   98 1  
    86   80   81 1  
    87   81   82 1  
    88   82   83 1  
    89   82   84 2  
    90   82   85 2  
    91   86   87 1  
    92   86   92 1  
    93   87   88 1  
    94   88   89 2  
    95   88   90 1  
    96   88   91 2  
    97   92   93 1  
    98   92   98 1  
    99   93   94 1  
   100   94   95 2  
   101   94   96 2  
   102   94   97 1  
   103   98   99 1  
   104   99  100 1  
   105    2  101 1  
   106    2  102 1  
   107    2  103 1  
   108    3  104 1  
   109    4  105 1  
   110    6  106 1  
   111    6  107 1  
   112   11  108 1  
   113   12  109 1  
   114   14  110 1  
   115   14  111 1  
   116   14  112 1  
   117   15  113 1  
   118   19  114 1  
   119   21  115 1  
   120   23  116 1  
   121   24  117 1  
   122   29  118 1  
   123   31  119 1  
   124   31  120 1  
   125   31  121 1  
   126   32  122 1  
   127   34  123 1  
   128   34  124 1  
   129   34  125 1  
   130   35  126 1  
   131   37  127 1  
   132   38  128 1  
   133   40  129 1  
   134   40  130 1  
   135   43  131 1  
   136   46  132 1  
   137   51  133 1  
   138   52  134 1  
   139   55  135 1  
   140   58  136 1  
   141   60  137 1  
   142   61  138 1  
   143   66  139 1  
   144   68  140 1  
   145   68  141 1  
   146   68  142 1  
   147   69  143 1  
   148   73  144 1  
   149   75  145 1  
   150   77  146 1  
   151   78  147 1  
   152   80  148 1  
   153   80  149 1  
   154   83  150 1  
   155   86  151 1  
   156   90  152 1  
   157   92  153 1  
   158   97  154 1  
   159   98  155 1  
   160  100  156 1  
   161  100  157 1  
   162  100  158 1  
@<TRIPOS>SUBSTRUCTURE
     1 NTP         1

