1e03_ligand
  -I-interpret- 

160164  0  0  0  0  0  0  0  0999 V2000
   -1.3670  -25.4760   21.3010 O   0  0  0  0  0
   -0.5590  -26.6030   20.9500 C   0  0  0  0  0
   -2.4430  -25.2690   20.3920 C   0  0  0  0  0
   -3.5240  -24.3800   21.0240 C   0  0  0  0  0
   -4.5260  -24.0950   20.0290 O   0  0  0  0  0
   -2.9350  -23.0550   21.5270 C   0  0  0  0  0
   -3.6350  -21.9630   20.9370 O   0  0  0  0  0
   -2.8690  -20.5440   20.9080 S   0  0  0  0  0
   -2.9710  -20.1150   19.5560 O   0  0  0  0  0
   -1.5390  -20.8140   21.3370 O   0  0  0  0  0
   -3.6070  -19.7240   21.8100 O   0  0  0  0  0
   -3.0950  -26.5990   19.9950 C   0  0  0  0  0
   -2.1070  -27.4570   19.4210 O   0  0  0  0  0
   -2.5590  -27.9960   18.1730 C   0  0  0  0  0
   -4.1820  -26.2670   18.9390 C   0  0  0  0  0
   -4.9360  -27.4740   18.6820 O   0  0  0  0  0
   -4.9770  -27.8950   17.1220 S   0  0  0  0  0
   -3.6560  -27.6240   16.6610 O   0  0  0  0  0
   -5.9760  -27.0600   16.5270 O   0  0  0  0  0
   -5.3110  -29.2820   17.1410 O   0  0  0  0  0
   -5.1810  -25.2530   19.5230 C   0  0  0  0  0
   -5.8540  -25.9650   20.5670 O   0  0  0  0  0
   -7.1660  -25.5460   20.9270 C   0  0  0  0  0
   -7.2800  -25.5470   22.4840 C   0  0  0  0  0
   -8.5850  -25.0630   22.8480 O   0  0  0  0  0
   -6.1700  -24.6790   23.1110 C   0  0  0  0  0
   -5.7730  -23.6250   22.5440 O   0  0  0  0  0
   -5.4600  -25.1610   24.0310 O   0  0  0  0  0
   -8.2270  -26.5300   20.3790 C   0  0  0  0  0
   -8.1380  -26.6730   18.9670 O   0  0  0  0  0
   -7.6800  -25.4940   18.2970 C   0  0  0  0  0
   -9.5750  -25.9460   20.7980 C   0  0  0  0  0
  -10.6430  -26.7160   20.2850 O   0  0  0  0  0
  -11.3780  -26.0420   19.2660 C   0  0  0  0  0
   -9.6370  -25.9020   22.3410 C   0  0  0  0  0
  -10.9120  -25.3780   22.6630 O   0  0  0  0  0
  -11.5370  -25.7040   23.9090 C   0  0  0  0  0
  -12.7750  -26.5710   23.6090 C   0  0  0  0  0
  -13.5440  -26.7980   24.8000 O   0  0  0  0  0
  -12.3380  -27.9640   23.0870 C   0  0  0  0  0
  -11.9440  -28.7360   24.2250 O   0  0  0  0  0
  -10.7540  -29.8220   24.0300 S   0  0  0  0  0
   -9.8980  -29.2850   23.0180 O   0  0  0  0  0
  -11.4000  -31.0240   23.6140 O   0  0  0  0  0
  -10.1230  -29.9160   25.3090 O   0  0  0  0  0
  -11.9880  -24.3820   24.5530 C   0  0  0  0  0
  -10.8560  -23.5980   24.8660 O   0  0  0  0  0
  -10.8990  -22.0640   24.3870 S   0  0  0  0  0
  -11.9470  -21.4670   25.1380 O   0  0  0  0  0
   -9.5990  -21.5720   24.6900 O   0  0  0  0  0
  -11.1760  -22.1090   22.9870 O   0  0  0  0  0
  -12.7720  -24.6980   25.8350 C   0  0  0  0  0
  -13.2600  -23.4550   26.3780 O   0  0  0  0  0
  -13.8350  -23.4510   27.8980 S   0  0  0  0  0
  -14.7200  -22.3310   27.9340 O   0  0  0  0  0
  -12.6980  -23.2990   28.7300 O   0  0  0  0  0
  -14.4900  -24.7050   28.0870 O   0  0  0  0  0
  -13.9980  -25.5790   25.4390 C   0  0  0  0  0
  -14.7840  -24.7940   24.5160 O   0  0  0  0  0
  -15.9540  -25.4110   23.9660 C   0  0  0  0  0
  -16.4410  -24.6230   22.7340 C   0  0  0  0  0
  -17.1120  -23.4320   23.0950 O   0  0  0  0  0
  -15.3250  -24.3080   21.7340 C   0  0  0  0  0
  -14.5820  -25.2400   21.3290 O   0  0  0  0  0
  -14.9800  -23.1170   21.5220 O   0  0  0  0  0
  -17.0400  -25.4870   25.0590 C   0  0  0  0  0
  -17.1580  -26.8000   25.5750 O   0  0  0  0  0
  -16.7370  -26.8930   26.9270 C   0  0  0  0  0
  -18.4060  -25.0260   24.5040 C   0  0  0  0  0
  -19.3210  -24.9490   25.6100 O   0  0  0  0  0
  -20.6230  -25.9080   25.6560 S   0  0  0  0  0
  -21.2020  -25.9120   24.3450 O   0  0  0  0  0
  -21.4920  -25.3110   26.6270 O   0  0  0  0  0
  -20.1060  -27.1780   26.0580 O   0  0  0  0  0
  -18.2720  -23.6040   23.8690 C   0  0  0  0  0
  -19.4540  -23.3320   23.1430 O   0  0  0  0  0
  -19.6990  -22.0370   22.6450 C   0  0  0  0  0
  -20.9820  -21.4160   23.2080 C   0  0  0  0  0
  -21.1020  -20.0590   22.7400 O   0  0  0  0  0
  -21.0250  -21.3970   24.7340 C   0  0  0  0  0
  -19.7310  -21.0850   25.2410 O   0  0  0  0  0
  -19.6820  -20.4690   26.7410 S   0  0  0  0  0
  -19.5630  -21.6090   27.5980 O   0  0  0  0  0
  -20.9170  -19.7740   26.8980 O   0  0  0  0  0
  -18.5450  -19.6080   26.7800 O   0  0  0  0  0
  -19.8110  -22.0880   21.1110 C   0  0  0  0  0
  -18.6030  -22.6630   20.6060 O   0  0  0  0  0
  -18.6320  -23.6410   19.3250 S   0  0  0  0  0
  -19.2900  -24.8220   19.7690 O   0  0  0  0  0
  -17.2570  -23.8580   19.0130 O   0  0  0  0  0
  -19.3420  -22.9450   18.3060 O   0  0  0  0  0
  -19.9150  -20.6140   20.6480 C   0  0  0  0  0
  -20.0310  -20.5720   19.2200 O   0  0  0  0  0
  -19.3350  -19.3110   18.4710 S   0  0  0  0  0
  -18.4020  -19.8960   17.5710 O   0  0  0  0  0
  -18.7210  -18.5630   19.5070 O   0  0  0  0  0
  -20.4090  -18.6050   17.8500 O   0  0  0  0  0
  -21.1640  -19.9660   21.3050 C   0  0  0  0  0
  -22.3380  -20.6250   20.8310 O   0  0  0  0  0
  -23.5330  -20.0070   21.3000 C   0  0  0  0  0
   -1.1740  -27.5029   20.9482 H   0  0  0  0  0
   -0.1347  -26.4493   19.9578 H   0  0  0  0  0
    0.2453  -26.7125   21.6775 H   0  0  0  0  0
   -2.0263  -24.7848   19.5089 H   0  0  0  0  0
   -3.9544  -24.9093   21.8741 H   0  0  0  0  0
   -1.8819  -23.0002   21.2513 H   0  0  0  0  0
   -3.0344  -23.0041   22.6113 H   0  0  0  0  0
   -3.5023  -20.0587   22.7037 H   0  0  0  0  0
   -3.5308  -27.1028   20.8578 H   0  0  0  0  0
   -3.4706  -28.5709   18.3359 H   0  0  0  0  0
   -2.7613  -27.1806   17.4785 H   0  0  0  0  0
   -1.7877  -28.6451   17.7584 H   0  0  0  0  0
   -3.7046  -25.8713   18.0426 H   0  0  0  0  0
   -6.8380  -27.2935   16.8793 H   0  0  0  0  0
   -5.8699  -24.8837   18.7633 H   0  0  0  0  0
   -7.3397  -24.5536   20.5109 H   0  0  0  0  0
   -7.1512  -26.5603   22.8644 H   0  0  0  0  0
   -6.4044  -23.3696   21.8674 H   0  0  0  0  0
   -8.0803  -27.5338   20.7777 H   0  0  0  0  0
   -8.3682  -24.6729   18.4979 H   0  0  0  0  0
   -6.6860  -25.2339   18.6608 H   0  0  0  0  0
   -7.6383  -25.6805   17.2239 H   0  0  0  0  0
   -9.6719  -24.9387   20.3929 H   0  0  0  0  0
  -11.7981  -25.1215   19.6713 H   0  0  0  0  0
  -10.7123  -25.8046   18.4362 H   0  0  0  0  0
  -12.1836  -26.6865   18.9142 H   0  0  0  0  0
   -9.4997  -26.8871   22.7869 H   0  0  0  0  0
  -10.8598  -26.2422   24.5722 H   0  0  0  0  0
  -13.3686  -26.0376   22.8665 H   0  0  0  0  0
  -11.5118  -27.8686   22.3824 H   0  0  0  0  0
  -13.1572  -28.4504   22.5574 H   0  0  0  0  0
   -9.4870  -28.4802   23.3420 H   0  0  0  0  0
  -12.6222  -23.8283   23.8607 H   0  0  0  0  0
  -10.4390  -22.5199   22.5292 H   0  0  0  0  0
  -12.1448  -25.2128   26.5628 H   0  0  0  0  0
  -15.4660  -22.4952   27.3525 H   0  0  0  0  0
  -14.5847  -25.8613   26.3132 H   0  0  0  0  0
  -15.7236  -26.4232   23.6336 H   0  0  0  0  0
  -17.1472  -25.2879   22.2367 H   0  0  0  0  0
  -14.9740  -26.0847   21.5624 H   0  0  0  0  0
  -16.7372  -24.8209   25.8669 H   0  0  0  0  0
  -15.6911  -26.5953   27.0018 H   0  0  0  0  0
  -17.3487  -26.2337   27.5428 H   0  0  0  0  0
  -16.8490  -27.9212   27.2712 H   0  0  0  0  0
  -18.7565  -25.7249   23.7446 H   0  0  0  0  0
  -21.0678  -25.3285   27.4880 H   0  0  0  0  0
  -18.1543  -22.8774   24.6729 H   0  0  0  0  0
  -18.8613  -21.4144   22.9591 H   0  0  0  0  0
  -21.8054  -22.0393   22.8594 H   0  0  0  0  0
  -21.3330  -22.3760   25.1012 H   0  0  0  0  0
  -21.7379  -20.6432   25.0683 H   0  0  0  0  0
  -18.7153  -22.0338   27.4478 H   0  0  0  0  0
  -20.6637  -22.6725   20.7654 H   0  0  0  0  0
  -16.8625  -23.0333   18.7200 H   0  0  0  0  0
  -19.0232  -20.0631   20.9469 H   0  0  0  0  0
  -20.9872  -18.2448   18.5265 H   0  0  0  0  0
  -21.1918  -18.9105   21.0345 H   0  0  0  0  0
  -23.5491  -20.0305   22.3896 H   0  0  0  0  0
  -23.5644  -18.9728   20.9571 H   0  0  0  0  0
  -24.3964  -20.5466   20.9109 H   0  0  0  0  0
  1  2  1  0  0  0
  1  3  1  0  0  0
  3  4  1  0  0  0
  3 12  1  0  0  0
  4  5  1  0  0  0
  4  6  1  0  0  0
  5 21  1  0  0  0
  6  7  1  0  0  0
  7  8  1  0  0  0
  8  9  2  0  0  0
  8 10  2  0  0  0
  8 11  1  0  0  0
 12 13  1  0  0  0
 12 15  1  0  0  0
 13 14  1  0  0  0
 15 16  1  0  0  0
 15 21  1  0  0  0
 16 17  1  0  0  0
 17 18  2  0  0  0
 17 19  1  0  0  0
 17 20  2  0  0  0
 21 22  1  0  0  0
 22 23  1  0  0  0
 23 24  1  0  0  0
 23 29  1  0  0  0
 24 25  1  0  0  0
 24 26  1  0  0  0
 25 35  1  0  0  0
 26 27  1  0  0  0
 26 28  2  0  0  0
 29 30  1  0  0  0
 29 32  1  0  0  0
 30 31  1  0  0  0
 32 33  1  0  0  0
 32 35  1  0  0  0
 33 34  1  0  0  0
 35 36  1  0  0  0
 36 37  1  0  0  0
 37 38  1  0  0  0
 37 46  1  0  0  0
 38 39  1  0  0  0
 38 40  1  0  0  0
 39 58  1  0  0  0
 40 41  1  0  0  0
 41 42  1  0  0  0
 42 43  1  0  0  0
 42 44  2  0  0  0
 42 45  2  0  0  0
 46 47  1  0  0  0
 46 52  1  0  0  0
 47 48  1  0  0  0
 48 49  2  0  0  0
 48 50  2  0  0  0
 48 51  1  0  0  0
 52 53  1  0  0  0
 52 58  1  0  0  0
 53 54  1  0  0  0
 54 55  1  0  0  0
 54 56  2  0  0  0
 54 57  2  0  0  0
 58 59  1  0  0  0
 59 60  1  0  0  0
 60 61  1  0  0  0
 60 66  1  0  0  0
 61 62  1  0  0  0
 61 63  1  0  0  0
 62 75  1  0  0  0
 63 64  1  0  0  0
 63 65  2  0  0  0
 66 67  1  0  0  0
 66 69  1  0  0  0
 67 68  1  0  0  0
 69 70  1  0  0  0
 69 75  1  0  0  0
 70 71  1  0  0  0
 71 72  2  0  0  0
 71 73  1  0  0  0
 71 74  2  0  0  0
 75 76  1  0  0  0
 76 77  1  0  0  0
 77 78  1  0  0  0
 77 86  1  0  0  0
 78 79  1  0  0  0
 78 80  1  0  0  0
 79 98  1  0  0  0
 80 81  1  0  0  0
 81 82  1  0  0  0
 82 83  1  0  0  0
 82 84  2  0  0  0
 82 85  2  0  0  0
 86 87  1  0  0  0
 86 92  1  0  0  0
 87 88  1  0  0  0
 88 89  2  0  0  0
 88 90  1  0  0  0
 88 91  2  0  0  0
 92 93  1  0  0  0
 92 98  1  0  0  0
 93 94  1  0  0  0
 94 95  2  0  0  0
 94 96  2  0  0  0
 94 97  1  0  0  0
 98 99  1  0  0  0
 99100  1  0  0  0
  2101  1  0  0  0
  2102  1  0  0  0
  2103  1  0  0  0
  3104  1  0  0  0
  4105  1  0  0  0
  6106  1  0  0  0
  6107  1  0  0  0
 11108  1  0  0  0
 12109  1  0  0  0
 14110  1  0  0  0
 14111  1  0  0  0
 14112  1  0  0  0
 15113  1  0  0  0
 19114  1  0  0  0
 21115  1  0  0  0
 23116  1  0  0  0
 24117  1  0  0  0
 27118  1  0  0  0
 29119  1  0  0  0
 31120  1  0  0  0
 31121  1  0  0  0
 31122  1  0  0  0
 32123  1  0  0  0
 34124  1  0  0  0
 34125  1  0  0  0
 34126  1  0  0  0
 35127  1  0  0  0
 37128  1  0  0  0
 38129  1  0  0  0
 40130  1  0  0  0
 40131  1  0  0  0
 43132  1  0  0  0
 46133  1  0  0  0
 51134  1  0  0  0
 52135  1  0  0  0
 55136  1  0  0  0
 58137  1  0  0  0
 60138  1  0  0  0
 61139  1  0  0  0
 64140  1  0  0  0
 66141  1  0  0  0
 68142  1  0  0  0
 68143  1  0  0  0
 68144  1  0  0  0
 69145  1  0  0  0
 73146  1  0  0  0
 75147  1  0  0  0
 77148  1  0  0  0
 78149  1  0  0  0
 80150  1  0  0  0
 80151  1  0  0  0
 83152  1  0  0  0
 86153  1  0  0  0
 90154  1  0  0  0
 92155  1  0  0  0
 97156  1  0  0  0
 98157  1  0  0  0
100158  1  0  0  0
100159  1  0  0  0
100160  1  0  0  0
M  END
$$$$
