2nqi_ligand
  -I-interpret- 

 82 83  0  0  0  0  0  0  0  0999 V2000
    6.3540    4.5090  -22.7670 C   0  0  0  0  0
    7.5920    5.3840  -22.9910 C   0  0  0  0  0
    8.9390    4.7740  -22.7130 O   0  0  0  0  0
    9.3960    5.3260  -21.5390 C   0  0  0  0  0
    8.5840    5.7750  -20.7310 O   0  0  0  0  0
   10.8790    5.3630  -21.1580 C   0  0  0  0  0
   11.7840    5.8820  -22.2850 C   0  0  0  0  0
   11.2900    7.1170  -22.8240 O   0  0  0  0  0
   13.1980    6.1310  -21.7570 C   0  0  0  0  0
   13.4090    6.9240  -20.8390 O   0  0  0  0  0
   14.1550    5.4420  -22.3750 N   0  0  0  0  0
   15.5730    5.6050  -22.0090 C   0  0  0  0  0
   16.2970    4.2800  -21.7630 C   0  0  0  0  0
   15.4580    3.1870  -21.6830 C   0  0  0  0  0
   15.7050    2.1400  -22.5390 C   0  0  0  0  0
   16.2700    6.2770  -23.1760 C   0  0  0  0  0
   16.4560    5.6020  -24.1850 O   0  0  0  0  0
   16.6820    7.5560  -23.0860 N   0  0  0  0  0
   16.5390    8.5470  -21.9960 C   0  0  0  0  0
   17.8700    8.6680  -21.1930 C   0  0  0  0  0
   18.9520    9.5700  -21.8050 C   0  0  0  0  0
   19.3720   10.6550  -20.7950 C   0  0  0  0  0
   19.9950   11.8120  -21.4860 N   0  0  0  0  0
   21.3240   11.8890  -21.7070 C   0  0  0  0  0
   22.1530   10.9140  -21.3090 N   0  0  0  0  0
   21.8380   12.9470  -22.3320 N   0  0  0  0  0
   15.9940    9.8640  -22.6690 C   0  0  0  0  0
   15.3680    9.7640  -23.7380 O   0  0  0  0  0
   16.2260   11.0480  -22.0490 N   0  0  0  0  0
   15.7810   12.4040  -22.5420 C   0  0  0  0  0
   14.2500   12.6050  -22.3830 C   0  0  0  0  0
   13.4400   11.8710  -22.9550 O   0  0  0  0  0
   13.8990   13.6320  -21.6000 N   0  0  0  0  0
   16.1990   12.7290  -24.0130 C   0  0  0  0  0
   16.5640   14.2170  -24.2590 C   0  0  0  0  0
   15.7990   15.2000  -24.9090 C   0  0  0  0  0
   14.5280   15.2100  -25.5100 C   0  0  0  0  0
   14.0320   16.3920  -26.0830 C   0  0  0  0  0
   14.8010   17.5680  -26.0600 C   0  0  0  0  0
   16.0670   17.5630  -25.4630 C   0  0  0  0  0
   16.5610   16.3810  -24.8870 C   0  0  0  0  0
   17.7090   16.0950  -24.2660 N   0  0  0  0  0
   17.7100   14.8060  -23.8910 C   0  0  0  0  0
    6.4098    3.6312  -23.4107 H   0  0  0  0  0
    6.3168    4.1945  -21.7240 H   0  0  0  0  0
    5.4579    5.0811  -23.0075 H   0  0  0  0  0
    7.4957    6.2112  -22.2878 H   0  0  0  0  0
    7.5931    5.6210  -24.0549 H   0  0  0  0  0
   11.1865    4.3418  -20.9329 H   0  0  0  0  0
   10.9846    6.0422  -20.3120 H   0  0  0  0  0
   11.7942    5.1214  -23.0657 H   0  0  0  0  0
   10.4014    6.9845  -23.1622 H   0  0  0  0  0
   13.9017    4.7886  -23.1162 H   0  0  0  0  0
   15.6047    6.1808  -21.0840 H   0  0  0  0  0
   16.8090    4.3649  -20.8045 H   0  0  0  0  0
   16.9635    4.1142  -22.6094 H   0  0  0  0  0
   14.6337    3.1553  -20.9706 H   0  0  0  0  0
   16.5357    2.1956  -23.2426 H   0  0  0  0  0
   15.0702    1.2543  -22.5141 H   0  0  0  0  0
   17.1767    7.9003  -23.9089 H   0  0  0  0  0
   15.8223    8.2582  -21.2272 H   0  0  0  0  0
   18.2952    7.6650  -21.1559 H   0  0  0  0  0
   17.6074    9.1154  -20.2344 H   0  0  0  0  0
   18.5538   10.0493  -22.6993 H   0  0  0  0  0
   19.8210    8.9632  -22.0596 H   0  0  0  0  0
   20.0986   10.2274  -20.1042 H   0  0  0  0  0
   18.4851   11.0008  -20.2640 H   0  0  0  0  0
   19.3978   12.5750  -21.8047 H   0  0  0  0  0
   23.1544   10.9919  -21.4866 H   0  0  0  0  0
   21.7825   10.0941  -20.8285 H   0  0  0  0  0
   21.2267   13.7013  -22.6447 H   0  0  0  0  0
   16.7470   11.0198  -21.1725 H   0  0  0  0  0
   16.3126   13.1067  -21.9004 H   0  0  0  0  0
   12.9129   13.8443  -21.4488 H   0  0  0  0  0
   14.6176   14.2025  -21.1544 H   0  0  0  0  0
   15.3432   12.4994  -24.6478 H   0  0  0  0  0
   17.0898   12.1399  -24.2309 H   0  0  0  0  0
   13.9278   14.3004  -25.5311 H   0  0  0  0  0
   13.0461   16.3975  -26.5477 H   0  0  0  0  0
   14.4120   18.4831  -26.5066 H   0  0  0  0  0
   16.6671   18.4727  -25.4452 H   0  0  0  0  0
   18.5250   14.3103  -23.3636 H   0  0  0  0  0
  1  2  1  0  0  0
  2  3  1  0  0  0
  3  4  1  0  0  0
  4  5  2  0  0  0
  4  6  1  0  0  0
  6  7  1  0  0  0
  7  8  1  0  0  0
  7  9  1  0  0  0
  9 10  2  0  0  0
  9 11  1  0  0  0
 11 12  1  0  0  0
 12 13  1  0  0  0
 12 16  1  0  0  0
 13 14  1  0  0  0
 14 15  2  0  0  0
 16 17  2  0  0  0
 16 18  1  0  0  0
 18 19  1  0  0  0
 19 20  1  0  0  0
 19 27  1  0  0  0
 20 21  1  0  0  0
 21 22  1  0  0  0
 22 23  1  0  0  0
 23 24  1  0  0  0
 24 25  1  0  0  0
 24 26  2  0  0  0
 27 28  2  0  0  0
 27 29  1  0  0  0
 29 30  1  0  0  0
 30 31  1  0  0  0
 30 34  1  0  0  0
 31 32  2  0  0  0
 31 33  1  0  0  0
 34 35  1  0  0  0
 35 36  4  0  0  0
 35 43  4  0  0  0
 36 37  4  0  0  0
 36 41  4  0  0  0
 37 38  4  0  0  0
 38 39  4  0  0  0
 39 40  4  0  0  0
 40 41  4  0  0  0
 41 42  4  0  0  0
 42 43  4  0  0  0
  1 44  1  0  0  0
  1 45  1  0  0  0
  1 46  1  0  0  0
  2 47  1  0  0  0
  2 48  1  0  0  0
  6 49  1  0  0  0
  6 50  1  0  0  0
  7 51  1  0  0  0
  8 52  1  0  0  0
 11 53  1  0  0  0
 12 54  1  0  0  0
 13 55  1  0  0  0
 13 56  1  0  0  0
 14 57  1  0  0  0
 15 58  1  0  0  0
 15 59  1  0  0  0
 18 60  1  0  0  0
 19 61  1  0  0  0
 20 62  1  0  0  0
 20 63  1  0  0  0
 21 64  1  0  0  0
 21 65  1  0  0  0
 22 66  1  0  0  0
 22 67  1  0  0  0
 23 68  1  0  0  0
 25 69  1  0  0  0
 25 70  1  0  0  0
 26 71  1  0  0  0
 29 72  1  0  0  0
 30 73  1  0  0  0
 33 74  1  0  0  0
 33 75  1  0  0  0
 34 76  1  0  0  0
 34 77  1  0  0  0
 37 78  1  0  0  0
 38 79  1  0  0  0
 39 80  1  0  0  0
 40 81  1  0  0  0
 43 82  1  0  0  0
M  END
$$$$
