3q96_ligand
  -I-interpret- 

 69 73  0  0  0  0  0  0  0  0999 V2000
   21.2410   -8.7270  -11.2920 C   0  0  0  0  0
   22.3680   -7.9840  -10.9290 C   0  0  0  0  0
   23.5180   -8.6280  -10.4670 C   0  0  0  0  0
   18.9570  -10.3740  -11.6970 C   0  0  0  0  0
   19.9690   -8.0270  -11.8030 C   0  0  0  0  0
   24.1770   -5.3590  -11.7430 C   0  0  0  0  0
   25.3410   -3.9740  -10.1300 C   0  0  0  0  0
   23.4270   -5.2750   -9.4480 C   0  0  0  0  0
   25.6150   -2.7940   -7.4800 C   0  0  0  0  0
   24.5490   -3.8890   -7.6780 C   0  0  0  0  0
   26.0590   -2.7520   -6.0190 C   0  0  0  0  0
   27.0820   -2.1650   -3.4050 C   0  0  0  0  0
   27.5500   -0.4540   -1.7680 C   0  0  0  0  0
   26.1000    2.2630   -1.3720 N   0  3  0  0  0
   27.2500    2.0160   -2.2500 C   0  0  0  0  0
   28.5300    2.2890   -1.4540 C   0  0  0  0  0
   27.1690    2.9480   -3.4640 C   0  0  0  0  0
   27.1910    0.5350   -2.6780 C   0  0  0  0  0
   26.7670    0.1520   -3.9540 C   0  0  0  0  0
   27.4980   -1.7920   -2.1370 C   0  0  0  0  0
   27.8880   -2.8710   -1.1490 C   0  0  0  0  0
   28.2630   -2.2920   -0.0090 F   0  0  0  0  0
   26.8270   -3.6610   -0.9560 F   0  0  0  0  0
   28.9040   -3.5720   -1.6520 F   0  0  0  0  0
   26.7140   -1.1950   -4.3260 C   0  0  0  0  0
   26.3110   -1.5200   -5.5610 N   0  0  0  0  0
   26.1720   -3.7920   -5.3720 O   0  0  0  0  0
   26.8460   -3.0280   -8.3630 C   0  0  0  0  0
   26.4830   -3.0000   -9.8480 C   0  0  0  0  0
   24.4520   -4.3780   -9.1310 C   0  0  0  0  0
   25.1990   -4.4670  -11.4270 C   0  0  0  0  0
   23.2950   -5.7770  -10.7450 C   0  0  0  0  0
   22.2730   -6.6300  -11.0490 O   0  0  0  0  0
   23.5290  -10.0160  -10.3800 C   0  0  0  0  0
   22.4580  -10.7110  -10.7270 N   0  0  0  0  0
   21.3360  -10.1170  -11.1740 C   0  0  0  0  0
   18.7060   -8.8590  -11.5750 C   0  0  0  0  0
   18.0150  -11.1220  -11.9670 O   0  0  0  0  0
   20.2430  -10.9230  -11.5090 N   0  0  0  0  0
   24.3959   -8.0500  -10.1782 H   0  0  0  0  0
   20.0796   -7.8734  -12.8764 H   0  0  0  0  0
   19.8577   -7.0920  -11.2539 H   0  0  0  0  0
   24.0667   -5.7282  -12.7626 H   0  0  0  0  0
   22.7239   -5.5856   -8.6752 H   0  0  0  0  0
   25.1591   -1.8460   -7.7657 H   0  0  0  0  0
   23.5828   -3.4643   -7.4058 H   0  0  0  0  0
   24.8300   -4.7412   -7.0593 H   0  0  0  0  0
   27.0439   -3.2194   -3.6785 H   0  0  0  0  0
   27.8726   -0.1785   -0.7639 H   0  0  0  0  0
   25.2370    2.0859   -1.8861 H   0  0  0  0  0
   26.1501    1.6412   -0.5650 H   0  0  0  0  0
   26.1165    3.2330   -1.0569 H   0  0  0  0  0
   28.5324    3.3254   -1.1165 H   0  0  0  0  0
   28.5683    1.6244   -0.5909 H   0  0  0  0  0
   29.3969    2.1107   -2.0902 H   0  0  0  0  0
   26.2449    2.7539   -4.0084 H   0  0  0  0  0
   27.1825    3.9843   -3.1264 H   0  0  0  0  0
   28.0222    2.7663   -4.1175 H   0  0  0  0  0
   26.4723    0.9173   -4.6720 H   0  0  0  0  0
   26.1832   -0.7511   -6.2189 H   0  0  0  0  0
   27.2593   -4.0085   -8.1268 H   0  0  0  0  0
   27.5668   -2.2338   -8.1685 H   0  0  0  0  0
   26.1679   -1.9924  -10.1194 H   0  0  0  0  0
   27.3543   -3.2924  -10.4340 H   0  0  0  0  0
   25.8963   -4.1504  -12.2027 H   0  0  0  0  0
   24.4213  -10.5320  -10.0254 H   0  0  0  0  0
   18.3541   -8.6600  -10.5627 H   0  0  0  0  0
   17.9802   -8.5790  -12.3385 H   0  0  0  0  0
   20.3784  -11.9279  -11.6196 H   0  0  0  0  0
  2  1  4  0  0  0
  1  5  1  0  0  0
  1 36  4  0  0  0
  2  3  4  0  0  0
 33  2  1  0  0  0
  3 34  4  0  0  0
 37  4  1  0  0  0
  4 38  2  0  0  0
  4 39  1  0  0  0
  5 37  1  0  0  0
  6 31  4  0  0  0
 32  6  4  0  0  0
  7 29  1  0  0  0
 30  7  4  0  0  0
 31  7  4  0  0  0
  8 30  4  0  0  0
 32  8  4  0  0  0
 10  9  1  0  0  0
  9 11  1  0  0  0
  9 28  1  0  0  0
 30 10  1  0  0  0
 11 26  1  0  0  0
 11 27  2  0  0  0
 12 20  4  0  0  0
 25 12  4  0  0  0
 18 13  4  0  0  0
 20 13  4  0  0  0
 15 14  1  0  0  0
 15 16  1  0  0  0
 15 17  1  0  0  0
 18 15  1  0  0  0
 19 18  4  0  0  0
 25 19  4  0  0  0
 20 21  1  0  0  0
 21 22  1  0  0  0
 21 23  1  0  0  0
 21 24  1  0  0  0
 26 25  1  0  0  0
 29 28  1  0  0  0
 32 33  1  0  0  0
 34 35  4  0  0  0
 35 36  4  0  0  0
 36 39  1  0  0  0
  3 40  1  0  0  0
  5 41  1  0  0  0
  5 42  1  0  0  0
  6 43  1  0  0  0
  8 44  1  0  0  0
  9 45  1  0  0  0
 10 46  1  0  0  0
 10 47  1  0  0  0
 12 48  1  0  0  0
 13 49  1  0  0  0
 14 50  1  0  0  0
 14 51  1  0  0  0
 14 52  1  0  0  0
 16 53  1  0  0  0
 16 54  1  0  0  0
 16 55  1  0  0  0
 17 56  1  0  0  0
 17 57  1  0  0  0
 17 58  1  0  0  0
 19 59  1  0  0  0
 26 60  1  0  0  0
 28 61  1  0  0  0
 28 62  1  0  0  0
 29 63  1  0  0  0
 29 64  1  0  0  0
 31 65  1  0  0  0
 34 66  1  0  0  0
 37 67  1  0  0  0
 37 68  1  0  0  0
 39 69  1  0  0  0
M  END
$$$$
