3szb_ligand
  -I-interpret- 

 20 20  0  0  0  0  0  0  0  0999 V2000
   11.9550   13.7960   66.8620 C   0  0  0  0  0
   12.6920   12.7660   67.4240 C   0  0  0  0  0
   13.9700   12.4930   66.9520 C   0  0  0  0  0
   14.5190   13.2530   65.9290 C   0  0  0  0  0
   13.7840   14.2860   65.3720 C   0  0  0  0  0
   12.4940   14.5630   65.8290 C   0  0  0  0  0
   11.6700   15.6850   65.2470 C   0  0  0  0  0
   11.3640   16.6350   65.9540 O   0  0  0  0  0
   11.1920   15.6530   63.8510 C   0  0  0  0  0
   10.2190   16.7110   63.3830 C   0  0  0  0  0
   10.9505   14.0077   67.2284 H   0  0  0  0  0
   12.2703   12.1714   68.2344 H   0  0  0  0  0
   14.5452   11.6763   67.3882 H   0  0  0  0  0
   15.5239   13.0379   65.5656 H   0  0  0  0  0
   14.2154   14.8869   64.5714 H   0  0  0  0  0
   10.6473   14.7130   63.7630 H   0  0  0  0  0
   12.0853   15.8065   63.2455 H   0  0  0  0  0
    9.3111   16.6592   63.9839 H   0  0  0  0  0
   10.6737   17.6954   63.4936 H   0  0  0  0  0
    9.9731   16.5386   62.3352 H   0  0  0  0  0
  1  2  4  0  0  0
  1  6  4  0  0  0
  2  3  4  0  0  0
  3  4  4  0  0  0
  4  5  4  0  0  0
  5  6  4  0  0  0
  6  7  1  0  0  0
  7  8  2  0  0  0
  7  9  1  0  0  0
  9 10  1  0  0  0
  1 11  1  0  0  0
  2 12  1  0  0  0
  3 13  1  0  0  0
  4 14  1  0  0  0
  5 15  1  0  0  0
  9 16  1  0  0  0
  9 17  1  0  0  0
 10 18  1  0  0  0
 10 19  1  0  0  0
 10 20  1  0  0  0
M  END
$$$$
