4kil_ligand
  -I-interpret- 

 29 31  0  0  0  0  0  0  0  0999 V2000
   11.1360   20.1050  -19.3420 F   0  0  0  0  0
   11.0430   20.4370  -18.0450 C   0  0  0  0  0
   11.2220   19.4810  -17.0580 C   0  0  0  0  0
   11.1390   19.8470  -15.7160 C   0  0  0  0  0
   10.7800   21.7500  -17.7110 C   0  0  0  0  0
   10.6910   22.1190  -16.3860 C   0  0  0  0  0
   10.8610   21.1670  -15.3950 C   0  0  0  0  0
   10.7710   21.6180  -13.9610 C   0  0  0  0  0
   10.2510   20.7800  -12.9770 C   0  0  0  0  0
   10.1890   21.2550  -11.6380 C   0  0  0  0  0
    9.6820   20.4230  -10.6800 N   0  0  0  0  0
    9.5890   20.8160   -9.4340 C   0  0  0  0  0
    9.0600   19.9670   -8.4670 O   0  0  0  0  0
   11.2450   22.8990  -13.6450 C   0  0  0  0  0
   11.1860   23.3620  -12.3380 C   0  0  0  0  0
   10.6450   22.5140  -11.3260 C   0  0  0  0  0
   10.5950   22.9900   -9.9680 C   0  0  0  0  0
   10.0420   22.0840   -9.0360 C   0  0  0  0  0
    9.9520   22.4440   -7.6950 O   0  0  0  0  0
   11.4271   18.4457  -17.3305 H   0  0  0  0  0
   11.2903   19.1067  -14.9304 H   0  0  0  0  0
   10.6427   22.4949  -18.4948 H   0  0  0  0  0
   10.4876   23.1561  -16.1193 H   0  0  0  0  0
    9.8985   19.7797  -13.2285 H   0  0  0  0  0
    9.0657   20.4106   -7.6156 H   0  0  0  0  0
   11.6610   23.5330  -14.4280 H   0  0  0  0  0
   11.5478   24.3594  -12.0881 H   0  0  0  0  0
   10.9573   23.9770   -9.6803 H   0  0  0  0  0
   10.2982   23.3319   -7.5793 H   0  0  0  0  0
  1  2  1  0  0  0
  2  3  4  0  0  0
  2  5  4  0  0  0
  3  4  4  0  0  0
  4  7  4  0  0  0
  5  6  4  0  0  0
  6  7  4  0  0  0
  7  8  1  0  0  0
  8  9  4  0  0  0
  8 14  4  0  0  0
  9 10  4  0  0  0
 10 11  4  0  0  0
 10 16  4  0  0  0
 11 12  4  0  0  0
 12 13  1  0  0  0
 12 18  4  0  0  0
 14 15  4  0  0  0
 15 16  4  0  0  0
 16 17  4  0  0  0
 17 18  4  0  0  0
 18 19  1  0  0  0
  3 20  1  0  0  0
  4 21  1  0  0  0
  5 22  1  0  0  0
  6 23  1  0  0  0
  9 24  1  0  0  0
 13 25  1  0  0  0
 14 26  1  0  0  0
 15 27  1  0  0  0
 17 28  1  0  0  0
 19 29  1  0  0  0
M  END
$$$$
