1j15_ligand
  -I-interpret- 

 17 17  0  0  0  0  0  0  0  0999 V2000
    7.6450   50.3300   55.6650 C   0  0  0  0  0
    7.6790   49.1640   54.8780 C   0  0  0  0  0
    7.8060   47.9060   55.4790 C   0  0  0  0  0
    7.8130   47.8000   56.8720 C   0  0  0  0  0
    7.8240   48.9590   57.6580 C   0  0  0  0  0
    7.7940   50.2210   57.0500 C   0  0  0  0  0
    7.4480   51.6850   55.0150 C   0  0  0  0  0
    6.9870   52.6880   55.7340 N   0  0  0  0  0
    7.7610   51.8320   53.7460 N   0  0  0  0  0
    7.6060   49.2408   53.7932 H   0  0  0  0  0
    7.8991   47.0122   54.8621 H   0  0  0  0  0
    7.8099   46.8183   57.3456 H   0  0  0  0  0
    7.8560   48.8792   58.7446 H   0  0  0  0  0
    7.8871   51.1201   57.6591 H   0  0  0  0  0
    6.8649   53.6069   55.3084 H   0  0  0  0  0
    6.7521   52.5457   56.7163 H   0  0  0  0  0
    7.6488   52.7399   53.2949 H   0  0  0  0  0
  1  2  4  0  0  0
  1  6  4  0  0  0
  1  7  1  0  0  0
  2  3  4  0  0  0
  3  4  4  0  0  0
  4  5  4  0  0  0
  5  6  4  0  0  0
  7  8  1  0  0  0
  7  9  2  0  0  0
  2 10  1  0  0  0
  3 11  1  0  0  0
  4 12  1  0  0  0
  5 13  1  0  0  0
  6 14  1  0  0  0
  8 15  1  0  0  0
  8 16  1  0  0  0
  9 17  1  0  0  0
M  END
$$$$
