3g45_ligand
  -I-interpret- 

 41 44  0  0  0  0  0  0  0  0999 V2000
   28.7660   22.9510   10.5380 C   0  0  0  0  0
   29.1370   21.7100   11.0080 C   0  0  0  0  0
   29.4740   21.5690   12.4370 C   0  0  0  0  0
   29.4270   22.6460   13.2540 N   0  0  0  0  0
   29.0660   23.8460   12.7610 C   0  0  0  0  0
   28.7290   24.0260   11.4200 C   0  0  0  0  0
   29.1910   20.6030   10.1820 C   0  0  0  0  0
   29.5510   19.3400   10.6710 C   0  0  0  0  0
   29.8780   19.1560   12.0220 C   0  0  0  0  0
   29.8390   20.2240   12.9190 C   0  0  0  0  0
   30.2040   20.0630   14.3350 C   0  0  0  0  0
   31.4100   19.4650   14.6290 C   0  0  0  0  0
   31.8170   19.2890   15.9410 C   0  0  0  0  0
   31.0130   19.7360   16.9680 C   0  0  0  0  0
   29.8040   20.3490   16.6750 C   0  0  0  0  0
   29.3980   20.5140   15.3580 C   0  0  0  0  0
   29.6140   18.1750    9.6960 C   0  0  0  0  0
   28.6080   17.1180   10.0280 C   0  0  0  0  0
   27.2750   17.2630    9.6550 C   0  0  0  0  0
   26.3650   16.2640    9.9960 C   0  0  0  0  0
   26.7520   15.1740   10.6610 N   0  0  0  0  0
   28.0320   15.0030   11.0070 C   0  0  0  0  0
   28.9970   15.9700   10.6970 C   0  0  0  0  0
   33.0400   18.6630   16.2260 N   0  0  0  0  0
   33.7630   18.2430   15.3230 O   0  0  0  0  0
   33.4310   18.5200   17.5660 O   0  0  0  0  0
   28.5049   23.0885    9.4887 H   0  0  0  0  0
   29.0363   24.7045   13.4320 H   0  0  0  0  0
   28.4355   25.0127   11.0616 H   0  0  0  0  0
   28.9478   20.7151    9.1254 H   0  0  0  0  0
   30.1663   18.1662   12.3759 H   0  0  0  0  0
   32.0531   19.1255   13.8171 H   0  0  0  0  0
   31.3258   19.6083   18.0043 H   0  0  0  0  0
   29.1675   20.7041   17.4855 H   0  0  0  0  0
   28.4471   20.9975   15.1341 H   0  0  0  0  0
   30.6083   17.7323    9.7546 H   0  0  0  0  0
   29.3976   18.5524    8.6966 H   0  0  0  0  0
   26.9476   18.1448    9.1043 H   0  0  0  0  0
   25.3179   16.3752    9.7142 H   0  0  0  0  0
   28.3289   14.0984   11.5378 H   0  0  0  0  0
   30.0394   15.8207   10.9785 H   0  0  0  0  0
  1  2  4  0  0  0
  1  6  4  0  0  0
  2  3  4  0  0  0
  2  7  4  0  0  0
  3  4  4  0  0  0
  3 10  4  0  0  0
  4  5  4  0  0  0
  5  6  4  0  0  0
  7  8  4  0  0  0
  8  9  4  0  0  0
  8 17  1  0  0  0
  9 10  4  0  0  0
 10 11  1  0  0  0
 11 12  4  0  0  0
 11 16  4  0  0  0
 12 13  4  0  0  0
 13 14  4  0  0  0
 13 24  1  0  0  0
 14 15  4  0  0  0
 15 16  4  0  0  0
 17 18  1  0  0  0
 18 19  4  0  0  0
 18 23  4  0  0  0
 19 20  4  0  0  0
 20 21  4  0  0  0
 21 22  4  0  0  0
 22 23  4  0  0  0
 24 25  2  0  0  0
 24 26  2  0  0  0
  1 27  1  0  0  0
  5 28  1  0  0  0
  6 29  1  0  0  0
  7 30  1  0  0  0
  9 31  1  0  0  0
 12 32  1  0  0  0
 14 33  1  0  0  0
 15 34  1  0  0  0
 16 35  1  0  0  0
 17 36  1  0  0  0
 17 37  1  0  0  0
 19 38  1  0  0  0
 20 39  1  0  0  0
 22 40  1  0  0  0
 23 41  1  0  0  0
M  END
$$$$
