6dcy_ligand
  -I-interpret- 

 18 18  0  0  0  0  0  0  0  0999 V2000
  -16.7650   17.1100  135.1470 O   0  0  0  0  0
  -17.8530   16.5280  135.3260 C   0  0  0  0  0
  -17.7230   15.3690  135.6150 O   0  0  0  0  0
  -19.0670   17.2380  135.1360 C   0  0  0  0  0
  -19.6110   17.3880  133.8650 C   0  0  0  0  0
  -19.0280   16.9000  132.9130 O   0  0  0  0  0
  -20.8220   18.0960  133.6710 C   0  0  0  0  0
  -21.3470   18.2340  132.3950 O   0  0  0  0  0
  -21.4520   18.6320  134.7560 C   0  0  0  0  0
  -20.9200   18.4850  136.0080 O   0  0  0  0  0
  -19.7570   17.8080  136.2060 C   0  0  0  0  0
  -19.3310   17.7300  137.4820 C   0  0  0  0  0
  -16.9282   18.0283  134.9198 H   0  0  0  0  0
  -20.7714   17.7953  131.7642 H   0  0  0  0  0
  -22.3847   19.1806  134.6247 H   0  0  0  0  0
  -19.2655   16.6831  137.7785 H   0  0  0  0  0
  -18.3484   18.1946  137.5647 H   0  0  0  0  0
  -20.0357   18.2494  138.1314 H   0  0  0  0  0
  1  2  1  0  0  0
  2  3  2  0  0  0
  2  4  1  0  0  0
  4  5  1  0  0  0
  4 11  2  0  0  0
  5  6  2  0  0  0
  5  7  1  0  0  0
  7  8  1  0  0  0
  7  9  2  0  0  0
  9 10  1  0  0  0
 10 11  1  0  0  0
 11 12  1  0  0  0
  1 13  1  0  0  0
  8 14  1  0  0  0
  9 15  1  0  0  0
 12 16  1  0  0  0
 12 17  1  0  0  0
 12 18  1  0  0  0
M  END
$$$$
