### 
### Created by X-TOOL on Mon Sep 10 21:13:00 2018
### 

@<TRIPOS>MOLECULE
3g2t_ligand
  133   133     1     0     0
SMALL
GAST_HUCK


@<TRIPOS>ATOM
      1 N          33.1350    5.0780   15.3740 N.4       1 SEP         0.2398
      2 CA         31.6540    4.9900   15.2000 C.3       1 SEP         0.0932
      3 CB         31.1120    6.2330   14.4880 C.3       1 SEP         0.1380
      4 OG         30.8670    7.2910   15.4020 O.3       1 SEP        -0.2680
      5 C          31.2310    3.7190   14.4620 C.2       1 SEP         0.2294
      6 O          30.0370    3.4730   14.2830 O.2       1 SEP        -0.3906
      7 P          32.2330    7.9240   15.9940 P.3       1 SEP         0.2012
      8 O1P        33.3920    7.9050   14.8700 O.co2     1 SEP        -0.5537
      9 O2P        31.9480    9.4450   16.4510 O.co2     1 SEP        -0.5537
     10 O3P        32.7160    7.0760   17.2770 O.co2     1 SEP        -0.5537
     11 N          32.2010    3.0070   13.8930 N.am      1 ASP        -0.2594
     12 CA         33.2770    3.6450   13.1460 C.3       1 ASP         0.1424
     13 C          32.6730    4.2160   11.8690 C.2       1 ASP         0.2057
     14 O          32.0750    3.4860   11.0760 O.2       1 ASP        -0.3943
     15 CB         34.3910    2.6420   12.8240 C.3       1 ASP         0.0406
     16 CG         33.8590    1.3240   12.2790 C.2       1 ASP         0.0393
     17 OD1        34.5010    0.7590   11.3660 O.co2     1 ASP        -0.5688
     18 OD2        32.8080    0.8490   12.7670 O.co2     1 ASP        -0.5688
     19 N          32.7170    5.5380   11.7430 N.am      1 ASP        -0.2621
     20 CA         31.9750    6.2350   10.7000 C.3       1 ASP         0.1423
     21 C          32.9230    6.5900    9.5720 C.2       1 ASP         0.2056
     22 O          34.1440    6.4340    9.7080 O.2       1 ASP        -0.3943
     23 CB         31.3310    7.5040   11.2620 C.3       1 ASP         0.0406
     24 CG         30.0990    7.9350   10.4840 C.2       1 ASP         0.0393
     25 OD1        29.7890    7.3180    9.4380 O.co2     1 ASP        -0.5688
     26 OD2        29.4580    8.9210   10.9070 O.co2     1 ASP        -0.5688
     27 N          32.3490    7.0330    8.4560 N.am      1 VAL        -0.2634
     28 CA         33.1080    7.5810    7.3290 C.3       1 VAL         0.1334
     29 C          33.0630    9.1180    7.3130 C.2       1 VAL         0.2066
     30 O          32.1890    9.7280    7.9400 O.2       1 VAL        -0.3942
     31 CB         32.5620    7.0310    5.9810 C.3       1 VAL        -0.0062
     32 CG1        32.7290    5.5160    5.9140 C.3       1 VAL        -0.0584
     33 CG2        31.0990    7.4190    5.7890 C.3       1 VAL        -0.0584
     34 N          33.9750    9.7520    6.5580 N.am      1 PRO        -0.2498
     35 CA         33.9200   11.2100    6.3860 C.3       1 PRO         0.1338
     36 C          32.6480   11.7070    5.6880 C.2       1 PRO         0.2041
     37 O          32.0820   11.0060    4.8430 O.2       1 PRO        -0.3944
     38 CB         35.1540   11.5110    5.5270 C.3       1 PRO        -0.0104
     39 CG         36.0680   10.3150    5.7320 C.3       1 PRO        -0.0281
     40 CD         35.1390    9.1570    5.8740 C.3       1 PRO         0.0369
     41 N          32.2080   12.9120    6.0460 N.am      1 MET        -0.2637
     42 CA         31.0600   13.5320    5.3980 C.3       1 MET         0.1317
     43 C          31.3990   13.8850    3.9490 C.2       1 MET         0.2039
     44 O          32.4090   14.5280    3.6800 O.2       1 MET        -0.3944
     45 CB         30.6310   14.7950    6.1460 C.3       1 MET        -0.0034
     46 CG         29.5030   15.5600    5.4400 C.3       1 MET        -0.0024
     47 SD         28.7760   16.9050    6.3820 S.3       1 MET        -0.1639
     48 CE         30.1020   18.1000    6.4540 C.3       1 MET        -0.0181
     49 N          30.5260   13.4910    3.0270 N.am      1 VAL        -0.2635
     50 CA         30.6060   13.9290    1.6380 C.3       1 VAL         0.1332
     51 C          30.0620   15.3550    1.5100 C.2       1 VAL         0.2042
     52 O          29.0190   15.6870    2.0870 O.2       1 VAL        -0.3944
     53 CB         29.7800   12.9880    0.7280 C.3       1 VAL        -0.0063
     54 CG1        29.6670   13.5460   -0.6810 C.3       1 VAL        -0.0584
     55 CG2        30.4060   11.6130    0.7030 C.3       1 VAL        -0.0584
     56 N          30.7620   16.1890    0.7460 N.am      1 ILE        -0.2635
     57 CA         30.3120   17.5760    0.5030 C.3       1 ILE         0.1335
     58 C          29.4510   17.6320   -0.7670 C.2       1 ILE         0.2036
     59 O          29.8520   17.0960   -1.8010 O.2       1 ILE        -0.3944
     60 CB         31.5120   18.5290    0.3070 C.3       1 ILE        -0.0037
     61 CG1        32.5170   18.3510    1.4490 C.3       1 ILE        -0.0491
     62 CG2        31.0220   19.9800    0.1810 C.3       1 ILE        -0.0582
     63 CD1        31.8380   18.3500    2.8440 C.3       1 ILE        -0.0648
     64 N          28.2690   18.2290   -0.6480 N.am      1 ALA        -0.2697
     65 CA         27.2810   18.2540   -1.7150 C.3       1 ALA         0.0916
     66 C          27.6840   19.1970   -2.8350 C.2       1 ALA         0.0598
     67 O          28.4570   20.1320   -2.6210 O.co2     1 ALA        -0.5666
     68 CB         25.9270   18.6610   -1.1620 C.3       1 ALA        -0.0300
     69 OXT        27.1530   19.0970   -3.9490 O.co2     1 ALA        -0.5666
     70 H1         33.3658    5.9285   15.8634 H         1 SEP         0.2016
     71 H2         33.5801    5.0794   14.4696 H         1 SEP         0.2016
     72 H3         33.4585    4.2856   15.9065 H         1 SEP         0.2016
     73 H4         31.2052    4.9550   16.2037 H         1 SEP         0.1125
     74 H5         30.1707    5.9730   13.9818 H         1 SEP         0.0696
     75 H6         31.8487    6.5678   13.7429 H         1 SEP         0.0696
     76 H7         32.1910    2.0109   13.9802 H         1 ASP         0.1886
     77 H8         33.7021    4.4631   13.7459 H         1 ASP         0.0819
     78 H9         34.9575    2.4384   13.7447 H         1 ASP         0.0478
     79 H10        35.0596    3.0884   12.0732 H         1 ASP         0.0478
     80 H11        33.2744    6.0692   12.3811 H         1 ASP         0.1884
     81 H12        31.1850    5.5734   10.3150 H         1 ASP         0.0819
     82 H13        32.0703    8.3178   11.2278 H         1 ASP         0.0478
     83 H14        31.0394    7.3171   12.3060 H         1 ASP         0.0478
     84 H15        31.3526    6.9898    8.3832 H         1 VAL         0.1883
     85 H16        34.1564    7.2659    7.4364 H         1 VAL         0.0803
     86 H17        33.1468    7.4791    5.1642 H         1 VAL         0.0343
     87 H18        32.3377    5.1461    4.9548 H         1 VAL         0.0234
     88 H19        32.1740    5.0490    6.7410 H         1 VAL         0.0234
     89 H20        33.7956    5.2606    5.9978 H         1 VAL         0.0234
     90 H21        31.0001    8.5133    5.8406 H         1 VAL         0.0234
     91 H22        30.4904    6.9581    6.5810 H         1 VAL         0.0234
     92 H23        30.7517    7.0654    4.8070 H         1 VAL         0.0234
     93 H24        33.9984   11.7059    7.3647 H         1 PRO         0.0802
     94 H25        35.6446   12.4362    5.8636 H         1 PRO         0.0313
     95 H26        34.8747   11.6085    4.4675 H         1 PRO         0.0313
     96 H27        36.6750   10.4404    6.6407 H         1 PRO         0.0287
     97 H28        36.7304   10.1783    4.8645 H         1 PRO         0.0287
     98 H29        34.8566    8.7531    4.8906 H         1 PRO         0.0524
     99 H30        35.5906    8.3594    6.4821 H         1 PRO         0.0524
    100 H31        32.6780   13.4041    6.7788 H         1 MET         0.1883
    101 H32        30.2244   12.8166    5.4038 H         1 MET         0.0800
    102 H33        31.5019   15.4608    6.2367 H         1 MET         0.0320
    103 H34        30.2837   14.5067    7.1491 H         1 MET         0.0320
    104 H35        28.7041   14.8425    5.2014 H         1 MET         0.0378
    105 H36        29.9094   15.9796    4.5079 H         1 MET         0.0378
    106 H37        29.7686   18.9841    7.0172 H         1 MET         0.0340
    107 H38        30.3815   18.3995    5.4332 H         1 MET         0.0340
    108 H39        30.9723   17.6522    6.9561 H         1 MET         0.0340
    109 H40        29.7879   12.8720    3.2954 H         1 VAL         0.1883
    110 H41        31.6577   13.9112    1.3163 H         1 VAL         0.0802
    111 H42        28.7666   12.9025    1.1471 H         1 VAL         0.0343
    112 H43        29.0760   12.8567   -1.3020 H         1 VAL         0.0234
    113 H44        30.6725   13.6580   -1.1128 H         1 VAL         0.0234
    114 H45        29.1706   14.5271   -0.6482 H         1 VAL         0.0234
    115 H46        30.4799   11.2251    1.7297 H         1 VAL         0.0234
    116 H47        31.4116   11.6759    0.2616 H         1 VAL         0.0234
    117 H48        29.7823   10.9370    0.0997 H         1 VAL         0.0234
    118 H49        31.6120   15.8705    0.3264 H         1 ILE         0.1883
    119 H50        29.7180   17.9134    1.3652 H         1 ILE         0.0803
    120 H51        32.0170   18.2605   -0.6326 H         1 ILE         0.0345
    121 H52        33.2436   19.1760    1.4111 H         1 ILE         0.0267
    122 H53        33.0413   17.3939    1.3114 H         1 ILE         0.0267
    123 H54        30.3053   20.0541   -0.6501 H         1 ILE         0.0235
    124 H55        31.8793   20.6409   -0.0142 H         1 ILE         0.0235
    125 H56        30.5306   20.2837    1.1171 H         1 ILE         0.0235
    126 H57        32.6027   18.2195    3.6239 H         1 ILE         0.0230
    127 H58        31.1138   17.5238    2.8988 H         1 ILE         0.0230
    128 H59        31.3161   19.3059    2.9985 H         1 ILE         0.0230
    129 H60        28.0489   18.6822    0.2158 H         1 ALA         0.1875
    130 H61        27.1992   17.2392   -2.1315 H         1 ALA         0.0723
    131 H62        25.1879   18.6767   -1.9766 H         1 ALA         0.0270
    132 H63        26.0000   19.6629   -0.7139 H         1 ALA         0.0270
    133 H64        25.6119   17.9383   -0.3949 H         1 ALA         0.0270
@<TRIPOS>BOND
     1    1    2 1  
     2    2    3 1  
     3    2    5 1  
     4    3    4 1  
     5    4    7 1  
     6    5    6 2  
     7    5   11 am 
     8    7    8 ar 
     9    7    9 ar 
    10    7   10 ar 
    11   11   12 1  
    12   12   13 1  
    13   12   15 1  
    14   13   14 2  
    15   13   19 am 
    16   15   16 1  
    17   16   17 ar 
    18   16   18 ar 
    19   19   20 1  
    20   20   21 1  
    21   20   23 1  
    22   21   22 2  
    23   21   27 am 
    24   23   24 1  
    25   24   25 ar 
    26   24   26 ar 
    27   27   28 1  
    28   28   29 1  
    29   28   31 1  
    30   29   30 2  
    31   29   34 am 
    32   31   32 1  
    33   31   33 1  
    34   34   35 1  
    35   34   40 1  
    36   35   36 1  
    37   35   38 1  
    38   36   37 2  
    39   36   41 am 
    40   38   39 1  
    41   39   40 1  
    42   41   42 1  
    43   42   43 1  
    44   42   45 1  
    45   43   44 2  
    46   43   49 am 
    47   45   46 1  
    48   46   47 1  
    49   47   48 1  
    50   49   50 1  
    51   50   51 1  
    52   50   53 1  
    53   51   52 2  
    54   51   56 am 
    55   53   54 1  
    56   53   55 1  
    57   56   57 1  
    58   57   58 1  
    59   57   60 1  
    60   58   59 2  
    61   58   64 am 
    62   60   61 1  
    63   60   62 1  
    64   61   63 1  
    65   64   65 1  
    66   65   66 1  
    67   65   68 1  
    68   66   67 ar 
    69   66   69 ar 
    70    1   70 1  
    71    1   71 1  
    72    1   72 1  
    73    2   73 1  
    74    3   74 1  
    75    3   75 1  
    76   11   76 1  
    77   12   77 1  
    78   15   78 1  
    79   15   79 1  
    80   19   80 1  
    81   20   81 1  
    82   23   82 1  
    83   23   83 1  
    84   27   84 1  
    85   28   85 1  
    86   31   86 1  
    87   32   87 1  
    88   32   88 1  
    89   32   89 1  
    90   33   90 1  
    91   33   91 1  
    92   33   92 1  
    93   35   93 1  
    94   38   94 1  
    95   38   95 1  
    96   39   96 1  
    97   39   97 1  
    98   40   98 1  
    99   40   99 1  
   100   41  100 1  
   101   42  101 1  
   102   45  102 1  
   103   45  103 1  
   104   46  104 1  
   105   46  105 1  
   106   48  106 1  
   107   48  107 1  
   108   48  108 1  
   109   49  109 1  
   110   50  110 1  
   111   53  111 1  
   112   54  112 1  
   113   54  113 1  
   114   54  114 1  
   115   55  115 1  
   116   55  116 1  
   117   55  117 1  
   118   56  118 1  
   119   57  119 1  
   120   60  120 1  
   121   61  121 1  
   122   61  122 1  
   123   62  123 1  
   124   62  124 1  
   125   62  125 1  
   126   63  126 1  
   127   63  127 1  
   128   63  128 1  
   129   64  129 1  
   130   65  130 1  
   131   68  131 1  
   132   68  132 1  
   133   68  133 1  
@<TRIPOS>SUBSTRUCTURE
     1 SEP         1

