3g2t_ligand
  -I-interpret- 

138138  0  0  0  0  0  0  0  0999 V2000
   33.1350    5.0780   15.3740 N   0  3  0  0  0
   31.6540    4.9900   15.2000 C   0  0  0  0  0
   31.1120    6.2330   14.4880 C   0  0  0  0  0
   30.8670    7.2910   15.4020 O   0  0  0  0  0
   31.2310    3.7190   14.4620 C   0  0  0  0  0
   30.0370    3.4730   14.2830 O   0  0  0  0  0
   32.2330    7.9240   15.9940 P   0  0  0  0  0
   33.3920    7.9050   14.8700 O   0  0  0  0  0
   31.9480    9.4450   16.4510 O   0  0  0  0  0
   32.7160    7.0760   17.2770 O   0  0  0  0  0
   32.2010    3.0070   13.8930 N   0  0  0  0  0
   33.2770    3.6450   13.1460 C   0  0  0  0  0
   32.6730    4.2160   11.8690 C   0  0  0  0  0
   32.0750    3.4860   11.0760 O   0  0  0  0  0
   34.3910    2.6420   12.8240 C   0  0  0  0  0
   33.8590    1.3240   12.2790 C   0  0  0  0  0
   34.5010    0.7590   11.3660 O   0  0  0  0  0
   32.8080    0.8490   12.7670 O   0  0  0  0  0
   32.7170    5.5380   11.7430 N   0  0  0  0  0
   31.9750    6.2350   10.7000 C   0  0  0  0  0
   32.9230    6.5900    9.5720 C   0  0  0  0  0
   34.1440    6.4340    9.7080 O   0  0  0  0  0
   31.3310    7.5040   11.2620 C   0  0  0  0  0
   30.0990    7.9350   10.4840 C   0  0  0  0  0
   29.7890    7.3180    9.4380 O   0  0  0  0  0
   29.4580    8.9210   10.9070 O   0  0  0  0  0
   32.3490    7.0330    8.4560 N   0  0  0  0  0
   33.1080    7.5810    7.3290 C   0  0  0  0  0
   33.0630    9.1180    7.3130 C   0  0  0  0  0
   32.1890    9.7280    7.9400 O   0  0  0  0  0
   32.5620    7.0310    5.9810 C   0  0  0  0  0
   32.7290    5.5160    5.9140 C   0  0  0  0  0
   31.0990    7.4190    5.7890 C   0  0  0  0  0
   33.9750    9.7520    6.5580 N   0  0  0  0  0
   33.9200   11.2100    6.3860 C   0  0  0  0  0
   32.6480   11.7070    5.6880 C   0  0  0  0  0
   32.0820   11.0060    4.8430 O   0  0  0  0  0
   35.1540   11.5110    5.5270 C   0  0  0  0  0
   36.0680   10.3150    5.7320 C   0  0  0  0  0
   35.1390    9.1570    5.8740 C   0  0  0  0  0
   32.2080   12.9120    6.0460 N   0  0  0  0  0
   31.0600   13.5320    5.3980 C   0  0  0  0  0
   31.3990   13.8850    3.9490 C   0  0  0  0  0
   32.4090   14.5280    3.6800 O   0  0  0  0  0
   30.6310   14.7950    6.1460 C   0  0  0  0  0
   29.5030   15.5600    5.4400 C   0  0  0  0  0
   28.7760   16.9050    6.3820 S   0  0  0  0  0
   30.1020   18.1000    6.4540 C   0  0  0  0  0
   30.5260   13.4910    3.0270 N   0  0  0  0  0
   30.6060   13.9290    1.6380 C   0  0  0  0  0
   30.0620   15.3550    1.5100 C   0  0  0  0  0
   29.0190   15.6870    2.0870 O   0  0  0  0  0
   29.7800   12.9880    0.7280 C   0  0  0  0  0
   29.6670   13.5460   -0.6810 C   0  0  0  0  0
   30.4060   11.6130    0.7030 C   0  0  0  0  0
   30.7620   16.1890    0.7460 N   0  0  0  0  0
   30.3120   17.5760    0.5030 C   0  0  0  0  0
   29.4510   17.6320   -0.7670 C   0  0  0  0  0
   29.8520   17.0960   -1.8010 O   0  0  0  0  0
   31.5120   18.5290    0.3070 C   0  0  0  0  0
   32.5170   18.3510    1.4490 C   0  0  0  0  0
   31.0220   19.9800    0.1810 C   0  0  0  0  0
   31.8380   18.3500    2.8440 C   0  0  0  0  0
   28.2690   18.2290   -0.6480 N   0  0  0  0  0
   27.2810   18.2540   -1.7150 C   0  0  0  0  0
   27.6840   19.1970   -2.8350 C   0  0  0  0  0
   28.4570   20.1320   -2.6210 O   0  0  0  0  0
   25.9270   18.6610   -1.1620 C   0  0  0  0  0
   27.1530   19.0970   -3.9490 O   0  0  0  0  0
   33.3674    5.9389   15.8693 H   0  0  0  0  0
   33.4611    4.2757   15.9129 H   0  0  0  0  0
   33.5842    5.0793   14.4583 H   0  0  0  0  0
   31.2201    4.9426   16.1988 H   0  0  0  0  0
   30.1715    5.9707   14.0035 H   0  0  0  0  0
   31.8549    6.5675   13.7639 H   0  0  0  0  0
   33.1038    8.4101   14.1062 H   0  0  0  0  0
   31.6596    9.9573   15.6920 H   0  0  0  0  0
   32.1908    1.9909   13.9820 H   0  0  0  0  0
   33.7294    4.4397   13.7392 H   0  0  0  0  0
   34.9259    2.4288   13.7495 H   0  0  0  0  0
   35.0290    3.0859   12.0598 H   0  0  0  0  0
   32.4791    1.4379   13.4501 H   0  0  0  0  0
   33.2855    6.0798   12.3939 H   0  0  0  0  0
   31.1838    5.5860   10.3245 H   0  0  0  0  0
   32.0647    8.3074   11.1961 H   0  0  0  0  0
   31.0223    7.2955   12.2864 H   0  0  0  0  0
   30.4088    6.5987    9.2965 H   0  0  0  0  0
   31.3327    6.9889    8.3818 H   0  0  0  0  0
   34.1445    7.2675    7.4537 H   0  0  0  0  0
   33.1401    7.4777    5.1721 H   0  0  0  0  0
   33.7863    5.2643    5.9972 H   0  0  0  0  0
   32.1787    5.0545    6.7339 H   0  0  0  0  0
   32.3409    5.1507    4.9632 H   0  0  0  0  0
   30.5048    7.0055    6.6039 H   0  0  0  0  0
   31.0097    8.5053    5.7874 H   0  0  0  0  0
   30.7409    7.0224    4.8390 H   0  0  0  0  0
   33.9062   11.7170    7.3508 H   0  0  0  0  0
   35.6346   12.4447    5.8189 H   0  0  0  0  0
   34.8948   11.6494    4.4774 H   0  0  0  0  0
   36.7089   10.4349    6.6055 H   0  0  0  0  0
   36.7619   10.1834    4.9018 H   0  0  0  0  0
   34.8813    8.7008    4.9182 H   0  0  0  0  0
   35.5777    8.3273    6.4283 H   0  0  0  0  0
   32.6874   13.4139    6.7935 H   0  0  0  0  0
   30.2359   12.8188    5.4132 H   0  0  0  0  0
   31.4955   15.4566    6.2012 H   0  0  0  0  0
   30.2618   14.4903    7.1253 H   0  0  0  0  0
   28.7048   14.8401    5.2592 H   0  0  0  0  0
   29.9414   16.0068    4.5477 H   0  0  0  0  0
   30.9637   17.6551    6.9516 H   0  0  0  0  0
   30.3781   18.3959    5.4419 H   0  0  0  0  0
   29.7704   18.9755    7.0122 H   0  0  0  0  0
   29.7731   12.8597    3.3008 H   0  0  0  0  0
   31.6505   13.9037    1.3272 H   0  0  0  0  0
   28.7729   12.9129    1.1382 H   0  0  0  0  0
   29.1750   14.5181   -0.6471 H   0  0  0  0  0
   30.6639   13.6566   -1.1077 H   0  0  0  0  0
   29.0813   12.8622   -1.2953 H   0  0  0  0  0
   31.4227   11.6850    0.3168 H   0  0  0  0  0
   30.4280   11.2068    1.7142 H   0  0  0  0  0
   29.8172   10.9588    0.0600 H   0  0  0  0  0
   31.6290   15.8641    0.3181 H   0  0  0  0  0
   29.7377   17.8904    1.3745 H   0  0  0  0  0
   32.0278   18.2812   -0.6207 H   0  0  0  0  0
   33.2152   19.1873    1.4157 H   0  0  0  0  0
   33.0110   17.3887    1.3150 H   0  0  0  0  0
   30.3551   20.0637   -0.6771 H   0  0  0  0  0
   30.4865   20.2613    1.0877 H   0  0  0  0  0
   31.8780   20.6406    0.0433 H   0  0  0  0  0
   31.3212   19.2976    2.9958 H   0  0  0  0  0
   31.1207   17.5310    2.8969 H   0  0  0  0  0
   32.5967   18.2207    3.6159 H   0  0  0  0  0
   28.0445   18.6912    0.2331 H   0  0  0  0  0
   27.2201   17.2482   -2.1307 H   0  0  0  0  0
   25.6160   17.9442   -0.4021 H   0  0  0  0  0
   26.0007   19.6539   -0.7183 H   0  0  0  0  0
   25.1956   18.6762   -1.9700 H   0  0  0  0  0
   26.5822   18.3252   -3.9620 H   0  0  0  0  0
  1  2  1  0  0  0
  2  3  1  0  0  0
  2  5  1  0  0  0
  3  4  1  0  0  0
  4  7  1  0  0  0
  5  6  2  0  0  0
  5 11  1  0  0  0
  7  8  1  0  0  0
  7  9  1  0  0  0
  7 10  2  0  0  0
 11 12  1  0  0  0
 12 13  1  0  0  0
 12 15  1  0  0  0
 13 14  2  0  0  0
 13 19  1  0  0  0
 15 16  1  0  0  0
 16 17  2  0  0  0
 16 18  1  0  0  0
 19 20  1  0  0  0
 20 21  1  0  0  0
 20 23  1  0  0  0
 21 22  2  0  0  0
 21 27  1  0  0  0
 23 24  1  0  0  0
 24 25  1  0  0  0
 24 26  2  0  0  0
 27 28  1  0  0  0
 28 29  1  0  0  0
 28 31  1  0  0  0
 29 30  2  0  0  0
 29 34  1  0  0  0
 31 32  1  0  0  0
 31 33  1  0  0  0
 34 35  1  0  0  0
 34 40  1  0  0  0
 35 36  1  0  0  0
 35 38  1  0  0  0
 36 37  2  0  0  0
 36 41  1  0  0  0
 38 39  1  0  0  0
 39 40  1  0  0  0
 41 42  1  0  0  0
 42 43  1  0  0  0
 42 45  1  0  0  0
 43 44  2  0  0  0
 43 49  1  0  0  0
 45 46  1  0  0  0
 46 47  1  0  0  0
 47 48  1  0  0  0
 49 50  1  0  0  0
 50 51  1  0  0  0
 50 53  1  0  0  0
 51 52  2  0  0  0
 51 56  1  0  0  0
 53 54  1  0  0  0
 53 55  1  0  0  0
 56 57  1  0  0  0
 57 58  1  0  0  0
 57 60  1  0  0  0
 58 59  2  0  0  0
 58 64  1  0  0  0
 60 61  1  0  0  0
 60 62  1  0  0  0
 61 63  1  0  0  0
 64 65  1  0  0  0
 65 66  1  0  0  0
 65 68  1  0  0  0
 66 67  2  0  0  0
 66 69  1  0  0  0
  1 70  1  0  0  0
  1 71  1  0  0  0
  1 72  1  0  0  0
  2 73  1  0  0  0
  3 74  1  0  0  0
  3 75  1  0  0  0
  8 76  1  0  0  0
  9 77  1  0  0  0
 11 78  1  0  0  0
 12 79  1  0  0  0
 15 80  1  0  0  0
 15 81  1  0  0  0
 18 82  1  0  0  0
 19 83  1  0  0  0
 20 84  1  0  0  0
 23 85  1  0  0  0
 23 86  1  0  0  0
 25 87  1  0  0  0
 27 88  1  0  0  0
 28 89  1  0  0  0
 31 90  1  0  0  0
 32 91  1  0  0  0
 32 92  1  0  0  0
 32 93  1  0  0  0
 33 94  1  0  0  0
 33 95  1  0  0  0
 33 96  1  0  0  0
 35 97  1  0  0  0
 38 98  1  0  0  0
 38 99  1  0  0  0
 39100  1  0  0  0
 39101  1  0  0  0
 40102  1  0  0  0
 40103  1  0  0  0
 41104  1  0  0  0
 42105  1  0  0  0
 45106  1  0  0  0
 45107  1  0  0  0
 46108  1  0  0  0
 46109  1  0  0  0
 48110  1  0  0  0
 48111  1  0  0  0
 48112  1  0  0  0
 49113  1  0  0  0
 50114  1  0  0  0
 53115  1  0  0  0
 54116  1  0  0  0
 54117  1  0  0  0
 54118  1  0  0  0
 55119  1  0  0  0
 55120  1  0  0  0
 55121  1  0  0  0
 56122  1  0  0  0
 57123  1  0  0  0
 60124  1  0  0  0
 61125  1  0  0  0
 61126  1  0  0  0
 62127  1  0  0  0
 62128  1  0  0  0
 62129  1  0  0  0
 63130  1  0  0  0
 63131  1  0  0  0
 63132  1  0  0  0
 64133  1  0  0  0
 65134  1  0  0  0
 68135  1  0  0  0
 68136  1  0  0  0
 68137  1  0  0  0
 69138  1  0  0  0
M  END
$$$$
