### 
### Created by X-TOOL on Mon Sep 10 21:12:55 2018
### 

@<TRIPOS>MOLECULE
2hrm_ligand
   37    38     1     0     0
SMALL
GAST_HUCK


@<TRIPOS>ATOM
      1 O4         26.5010   20.9970    2.4950 O.2       1 UC5        -0.4124
      2 C4         25.6100   21.4820    3.2110 C.2       1 UC5         0.1822
      3 C5         25.7480   22.7390    3.8280 C.2       1 UC5         0.0062
      4 C6         24.7130   23.2360    4.6310 C.2       1 UC5         0.0590
      5 N3         24.4480   20.7790    3.4000 N.am      1 UC5        -0.1865
      6 C2         23.4040   21.2410    4.2320 C.2       1 UC5         0.3327
      7 O2         22.3830   20.5290    4.4210 O.2       1 UC5        -0.3815
      8 N1         23.5370   22.4810    4.8210 N.am      1 UC5        -0.1618
      9 C1'        22.5280   23.0630    5.7260 C.3       1 UC5         0.1800
     10 C2'        23.1430   23.1820    7.1450 C.3       1 UC5         0.0316
     11 C3'        23.2990   24.6540    7.4080 C.3       1 UC5         0.0890
     12 O3'        23.1650   25.0720    8.7730 O.3       1 UC5        -0.3889
     13 O4'        22.1580   24.3960    5.3420 O.3       1 UC5        -0.3386
     14 C4'        22.2970   25.2710    6.4520 C.3       1 UC5         0.1165
     15 C5'        22.8570   26.6350    6.0230 C.3       1 UC5         0.1107
     16 O5'        21.9230   27.2550    5.2220 O.3       1 UC5        -0.2760
     17 PA         22.2450   28.7830    4.7820 P.3       1 UC5         0.1366
     18 O1A        20.8970   29.3130    4.3430 O.co2     1 UC5        -0.6194
     19 O2A        22.9390   29.5700    5.8760 O.co2     1 UC5        -0.6194
     20 C3A        23.4270   28.5370    3.4200 C.3       1 UC5         0.1081
     21 PB         23.7150   29.8960    2.2740 P.3       1 UC5         0.0778
     22 O1B        23.8890   31.1550    3.0930 O.co2     1 UC5        -0.5611
     23 O2B        24.9100   29.7550    1.4310 O.co2     1 UC5        -0.5611
     24 O3B        22.4810   30.0340    1.2420 O.co2     1 UC5        -0.5611
     25 H1         26.6554   23.3231    3.6820 H         1 UC5         0.0258
     26 H2         24.8169   24.2085    5.1100 H         1 UC5         0.1178
     27 H3         24.3350   19.9037    2.9298 H         1 UC5         0.2259
     28 H4         21.6374   22.4176    5.7426 H         1 UC5         0.0970
     29 H5         24.1221   22.6818    7.1802 H         1 UC5         0.0345
     30 H6         22.4730   22.7296    7.8909 H         1 UC5         0.0345
     31 H7         24.3105   24.9547    7.0975 H         1 UC5         0.0622
     32 H8         23.2805   26.0133    8.8275 H         1 UC5         0.2099
     33 H9         21.3228   25.4046    6.9450 H         1 UC5         0.0650
     34 H10        23.7923   26.4930    5.4617 H         1 UC5         0.0650
     35 H11        23.0529   27.2526    6.9119 H         1 UC5         0.0650
     36 H12        23.0659   27.6837    2.8271 H         1 UC5         0.0676
     37 H13        24.3967   28.2842    3.8736 H         1 UC5         0.0676
@<TRIPOS>BOND
     1    1    2 2  
     2    2    3 1  
     3    2    5 am 
     4    3    4 2  
     5    4    8 1  
     6    5    6 am 
     7    6    7 2  
     8    6    8 am 
     9    8    9 1  
    10    9   10 1  
    11    9   13 1  
    12   10   11 1  
    13   11   12 1  
    14   11   14 1  
    15   13   14 1  
    16   14   15 1  
    17   15   16 1  
    18   16   17 1  
    19   17   18 ar 
    20   17   19 ar 
    21   17   20 1  
    22   20   21 1  
    23   21   22 ar 
    24   21   23 ar 
    25   21   24 ar 
    26    3   25 1  
    27    4   26 1  
    28    5   27 1  
    29    9   28 1  
    30   10   29 1  
    31   10   30 1  
    32   11   31 1  
    33   12   32 1  
    34   14   33 1  
    35   15   34 1  
    36   15   35 1  
    37   20   36 1  
    38   20   37 1  
@<TRIPOS>SUBSTRUCTURE
     1 UC5         1

