2hrm_ligand
  -I-interpret- 

 40 41  0  0  0  0  0  0  0  0999 V2000
   26.5010   20.9970    2.4950 O   0  0  0  0  0
   25.6100   21.4820    3.2110 C   0  0  0  0  0
   25.7480   22.7390    3.8280 C   0  0  0  0  0
   24.7130   23.2360    4.6310 C   0  0  0  0  0
   24.4480   20.7790    3.4000 N   0  0  0  0  0
   23.4040   21.2410    4.2320 C   0  0  0  0  0
   22.3830   20.5290    4.4210 O   0  0  0  0  0
   23.5370   22.4810    4.8210 N   0  0  0  0  0
   22.5280   23.0630    5.7260 C   0  0  0  0  0
   23.1430   23.1820    7.1450 C   0  0  0  0  0
   23.2990   24.6540    7.4080 C   0  0  0  0  0
   23.1650   25.0720    8.7730 O   0  0  0  0  0
   22.1580   24.3960    5.3420 O   0  0  0  0  0
   22.2970   25.2710    6.4520 C   0  0  0  0  0
   22.8570   26.6350    6.0230 C   0  0  0  0  0
   21.9230   27.2550    5.2220 O   0  0  0  0  0
   22.2450   28.7830    4.7820 P   0  0  0  0  0
   20.8970   29.3130    4.3430 O   0  0  0  0  0
   22.9390   29.5700    5.8760 O   0  0  0  0  0
   23.4270   28.5370    3.4200 C   0  0  0  0  0
   23.7150   29.8960    2.2740 P   0  0  0  0  0
   23.8890   31.1550    3.0930 O   0  0  0  0  0
   24.9100   29.7550    1.4310 O   0  0  0  0  0
   22.4810   30.0340    1.2420 O   0  0  0  0  0
   26.6563   23.3236    3.6819 H   0  0  0  0  0
   24.8170   24.2094    5.1104 H   0  0  0  0  0
   24.3327   19.8862    2.9204 H   0  0  0  0  0
   21.6532   22.4138    5.6900 H   0  0  0  0  0
   24.1019   22.6670    7.2037 H   0  0  0  0  0
   22.5032   22.7134    7.8927 H   0  0  0  0  0
   24.3216   24.9884    7.2334 H   0  0  0  0  0
   23.2817   26.0233    8.8281 H   0  0  0  0  0
   21.3167   25.4135    6.9068 H   0  0  0  0  0
   23.7890   26.5001    5.4741 H   0  0  0  0  0
   23.0614   27.2476    6.9011 H   0  0  0  0  0
   23.7803   29.1561    6.0819 H   0  0  0  0  0
   22.9996   27.7388    2.8131 H   0  0  0  0  0
   24.3880   28.3653    3.9049 H   0  0  0  0  0
   23.1219   31.2769    3.6572 H   0  0  0  0  0
   21.6626   30.1302    1.7345 H   0  0  0  0  0
  1  2  2  0  0  0
  2  3  1  0  0  0
  2  5  1  0  0  0
  3  4  2  0  0  0
  4  8  1  0  0  0
  5  6  1  0  0  0
  6  7  2  0  0  0
  6  8  1  0  0  0
  8  9  1  0  0  0
  9 10  1  0  0  0
  9 13  1  0  0  0
 10 11  1  0  0  0
 11 12  1  0  0  0
 11 14  1  0  0  0
 13 14  1  0  0  0
 14 15  1  0  0  0
 15 16  1  0  0  0
 16 17  1  0  0  0
 17 18  2  0  0  0
 17 19  1  0  0  0
 17 20  1  0  0  0
 20 21  1  0  0  0
 21 22  1  0  0  0
 21 23  2  0  0  0
 21 24  1  0  0  0
  3 25  1  0  0  0
  4 26  1  0  0  0
  5 27  1  0  0  0
  9 28  1  0  0  0
 10 29  1  0  0  0
 10 30  1  0  0  0
 11 31  1  0  0  0
 12 32  1  0  0  0
 14 33  1  0  0  0
 15 34  1  0  0  0
 15 35  1  0  0  0
 19 36  1  0  0  0
 20 37  1  0  0  0
 20 38  1  0  0  0
 22 39  1  0  0  0
 24 40  1  0  0  0
M  END
$$$$
