1sqb_ligand
  -I-interpret- 

 47 49  0  0  0  0  0  0  0  0999 V2000
   74.8120   52.9000  163.4520 N   0  0  0  0  0
   73.8690   53.1850  162.8790 C   0  0  0  0  0
   72.6690   53.5090  162.1730 C   0  0  0  0  0
   72.4060   52.9050  160.9360 C   0  0  0  0  0
   71.2270   53.2440  160.2390 C   0  0  0  0  0
   70.3050   54.1930  160.7460 C   0  0  0  0  0
   70.5200   54.8200  161.9850 C   0  0  0  0  0
   71.6880   54.5100  162.7270 C   0  0  0  0  0
   71.8990   55.0640  163.9710 O   0  0  0  0  0
   71.0620   54.7580  165.0250 C   0  0  0  0  0
   71.1060   55.5540  166.1720 C   0  0  0  0  0
   70.1860   55.2910  167.1960 C   0  0  0  0  0
   69.3380   54.2220  167.0750 N   0  0  0  0  0
   69.3440   53.4320  165.9780 C   0  0  0  0  0
   70.1890   53.7070  164.9650 N   0  0  0  0  0
   70.2280   56.0870  168.3290 O   0  0  0  0  0
   69.3540   55.9640  169.3850 C   0  0  0  0  0
   69.2500   54.7550  170.1220 C   0  0  0  0  0
   68.3500   54.6620  171.1940 C   0  0  0  0  0
   67.5910   55.7800  171.5900 C   0  0  0  0  0
   67.7000   57.0210  170.9300 C   0  0  0  0  0
   68.5330   57.1480  169.8060 C   0  0  0  0  0
   68.7050   58.4960  169.1480 C   0  0  0  0  0
   67.8550   58.9390  168.2230 C   0  0  0  0  0
   67.9810   60.0560  167.7100 O   0  0  0  0  0
   66.7570   58.0960  167.7990 O   0  0  0  0  0
   65.8970   58.5370  166.7520 C   0  0  0  0  0
   69.8280   59.3980  169.5880 C   0  0  0  0  0
   70.6100   58.8230  170.6030 O   0  0  0  0  0
   71.6040   59.7480  170.9650 C   0  0  0  0  0
   73.1048   52.1811  160.5168 H   0  0  0  0  0
   71.0196   52.7622  159.2835 H   0  0  0  0  0
   69.4157   54.4403  160.1663 H   0  0  0  0  0
   69.7963   55.5374  162.3719 H   0  0  0  0  0
   71.8360   56.3578  166.2680 H   0  0  0  0  0
   68.6697   52.5781  165.9133 H   0  0  0  0  0
   69.8696   53.8989  169.8548 H   0  0  0  0  0
   68.2373   53.7166  171.7247 H   0  0  0  0  0
   66.9013   55.6834  172.4285 H   0  0  0  0  0
   67.1379   57.8819  171.2919 H   0  0  0  0  0
   65.4203   59.4725  167.0449 H   0  0  0  0  0
   66.4813   58.6938  165.8453 H   0  0  0  0  0
   65.1338   57.7809  166.5677 H   0  0  0  0  0
   70.0130   60.3859  169.1661 H   0  0  0  0  0
   72.2222   59.9738  170.0961 H   0  0  0  0  0
   71.1334   60.6628  171.3253 H   0  0  0  0  0
   72.2248   59.3224  171.7534 H   0  0  0  0  0
  2  1  3  0  0  0
  3  2  1  0  0  0
  3  4  4  0  0  0
  8  3  4  0  0  0
  4  5  4  0  0  0
  6  5  4  0  0  0
  7  6  4  0  0  0
  8  7  4  0  0  0
  9  8  1  0  0  0
 10  9  1  0  0  0
 11 10  4  0  0  0
 10 15  4  0  0  0
 12 11  4  0  0  0
 12 13  4  0  0  0
 16 12  1  0  0  0
 13 14  4  0  0  0
 14 15  4  0  0  0
 17 16  1  0  0  0
 17 18  4  0  0  0
 22 17  4  0  0  0
 18 19  4  0  0  0
 20 19  4  0  0  0
 21 20  4  0  0  0
 22 21  4  0  0  0
 23 22  1  0  0  0
 23 24  1  0  0  0
 28 23  2  0  0  0
 24 25  2  0  0  0
 24 26  1  0  0  0
 26 27  1  0  0  0
 29 28  1  0  0  0
 30 29  1  0  0  0
  4 31  1  0  0  0
  5 32  1  0  0  0
  6 33  1  0  0  0
  7 34  1  0  0  0
 11 35  1  0  0  0
 14 36  1  0  0  0
 18 37  1  0  0  0
 19 38  1  0  0  0
 20 39  1  0  0  0
 21 40  1  0  0  0
 27 41  1  0  0  0
 27 42  1  0  0  0
 27 43  1  0  0  0
 28 44  1  0  0  0
 30 45  1  0  0  0
 30 46  1  0  0  0
 30 47  1  0  0  0
M  END
$$$$
