### 
### Created by X-TOOL on Mon Sep 10 21:12:57 2018
### 

@<TRIPOS>MOLECULE
2z50_ligand
   30    29     1     0     0
SMALL
GAST_HUCK


@<TRIPOS>ATOM
      1 CAA        27.3790   46.2490   12.9980 C.3       1 028        -0.0653
      2 CAI        28.0750   46.2160   11.6360 C.3       1 028        -0.0559
      3 CAJ        28.9700   47.4440   11.4680 C.3       1 028        -0.0533
      4 CAK        29.7290   47.3890   10.1420 C.3       1 028        -0.0529
      5 CAL        28.7400   47.2400    8.9880 C.3       1 028        -0.0477
      6 CAM        29.4360   47.2600    7.6250 C.3       1 028         0.0077
      7 CAN        28.4240   46.7520    6.5980 C.3       1 028         0.2047
      8 PAO        27.2760   48.0840    5.9670 P.3       1 028         0.1098
      9 OAE        27.6360   48.4230    4.4360 O.co2     1 028        -0.5594
     10 OAF        25.8550   47.3310    5.9390 O.co2     1 028        -0.5594
     11 OAB        27.2500   49.3010    6.8100 O.co2     1 028        -0.5594
     12 PAP        29.2710   45.8560    5.2070 P.3       1 028         0.1098
     13 OAG        30.7140   45.3590    5.7230 O.co2     1 028        -0.5594
     14 OAH        28.3230   44.5590    5.1110 O.co2     1 028        -0.5594
     15 OAC        29.3510   46.6300    3.9510 O.co2     1 028        -0.5594
     16 OAD        27.6480   45.7200    7.2150 O.3       1 028        -0.3594
     17 H1         26.7393   45.3605   13.1045 H         1 028         0.0230
     18 H2         26.7615   47.1563   13.0724 H         1 028         0.0230
     19 H3         28.1356   46.2539   13.7964 H         1 028         0.0230
     20 H4         27.3155   46.2089   10.8404 H         1 028         0.0263
     21 H5         28.6896   45.3065   11.5644 H         1 028         0.0263
     22 H6         29.6935   47.4782   12.2958 H         1 028         0.0265
     23 H7         28.3462   48.3498   11.4885 H         1 028         0.0265
     24 H8         30.4150   46.5291   10.1488 H         1 028         0.0265
     25 H9         30.3053   48.3168   10.0119 H         1 028         0.0265
     26 H10        28.0189   48.0696    9.0299 H         1 028         0.0267
     27 H11        28.2066   46.2845    9.0995 H         1 028         0.0267
     28 H12        30.3186   46.6037    7.6420 H         1 028         0.0322
     29 H13        29.7461   48.2852    7.3743 H         1 028         0.0322
     30 H14        27.0493   45.3509    6.5765 H         1 028         0.2133
@<TRIPOS>BOND
     1    1    2 1  
     2    2    3 1  
     3    3    4 1  
     4    4    5 1  
     5    5    6 1  
     6    6    7 1  
     7    7    8 1  
     8    7   12 1  
     9    7   16 1  
    10    8    9 ar 
    11    8   10 ar 
    12    8   11 ar 
    13   12   13 ar 
    14   12   14 ar 
    15   12   15 ar 
    16    1   17 1  
    17    1   18 1  
    18    1   19 1  
    19    2   20 1  
    20    2   21 1  
    21    3   22 1  
    22    3   23 1  
    23    4   24 1  
    24    4   25 1  
    25    5   26 1  
    26    5   27 1  
    27    6   28 1  
    28    6   29 1  
    29   16   30 1  
@<TRIPOS>SUBSTRUCTURE
     1 028         1

