### 
### Created by X-TOOL on Mon Sep 10 21:12:48 2018
### 

@<TRIPOS>MOLECULE
1hyz_ligand
   13    13     1     0     0
SMALL
GAST_HUCK


@<TRIPOS>ATOM
      1 AS          6.3320   46.1020  -10.6520 As        1 TTO         1.0000
      2 C1          5.4690   44.9790  -11.9230 C.ar      1 TTO        -0.0618
      3 C2          5.5250   43.5780  -11.7530 C.ar      1 TTO        -0.0618
      4 C3          4.8440   42.8550  -12.6990 C.ar      1 TTO        -0.0618
      5 C4          4.1860   43.3850  -13.7610 C.ar      1 TTO        -0.0618
      6 C5          4.1190   44.7760  -13.9620 C.ar      1 TTO        -0.0618
      7 C6          4.7860   45.6250  -12.9930 C.ar      1 TTO        -0.0618
      8 H1          5.9769   45.6007  -11.1946 H         1 TTO         0.0618
      9 H2          6.0647   43.1101  -10.9376 H         1 TTO         0.0618
     10 H3          4.8303   41.7766  -12.5899 H         1 TTO         0.0618
     11 H4          3.7018   42.7227  -14.4694 H         1 TTO         0.0618
     12 H5          3.5892   45.1972  -14.8087 H         1 TTO         0.0618
     13 H6          4.7654   46.7053  -13.0796 H         1 TTO         0.0618
@<TRIPOS>BOND
     1    1    2 1  
     2    2    3 ar 
     3    2    7 ar 
     4    3    4 ar 
     5    4    5 ar 
     6    5    6 ar 
     7    6    7 ar 
     8    2    8 1  
     9    3    9 1  
    10    4   10 1  
    11    5   11 1  
    12    6   12 1  
    13    7   13 1  
@<TRIPOS>SUBSTRUCTURE
     1 TTO         1

