2clo_ligand
  -I-interpret- 

 35 36  0  0  0  0  0  0  0  0999 V2000
   51.8040   24.8290   14.9930 C   0  0  0  0  0
   50.9820   25.8810   15.4060 C   0  0  0  0  0
   49.5570   25.6950   15.6140 C   0  0  0  0  0
   49.0650   24.3780   15.6290 C   0  0  0  0  0
   49.8620   23.2710   15.1660 C   0  0  0  0  0
   51.2900   23.4790   14.9390 C   0  0  0  0  0
   52.1590   22.3520   14.6760 C   0  0  0  0  0
   51.3630   21.0430   14.3010 C   0  0  0  0  0
   50.0890   20.7640   14.8830 C   0  0  0  0  0
   49.2780   21.9740   14.9090 C   0  0  0  0  0
   48.4710   27.1280   15.8450 S   0  0  0  0  0
   47.1070   26.6160   15.8310 O   0  0  0  0  0
   48.8360   27.7440   17.1040 O   0  0  0  0  0
   47.8530   28.5610   12.3680 C   0  0  0  0  0
   48.1510   28.2100   11.0300 O   0  0  0  0  0
   48.8440   27.8480   13.2690 C   0  0  0  0  0
   48.6980   28.3070   14.6480 N   0  0  0  0  0
   49.5860   30.1620   10.4770 O   0  0  0  0  0
   48.7570   28.7080    8.7170 O   0  0  0  0  0
   48.4010   29.3880    9.9410 P   0  0  0  0  0
   47.4070   30.3470    9.6480 O   0  0  0  0  0
   52.8378   25.0274   14.7102 H   0  0  0  0  0
   51.4208   26.8642   15.5760 H   0  0  0  0  0
   48.0572   24.1903   15.9995 H   0  0  0  0  0
   53.2464   22.4024   14.7311 H   0  0  0  0  0
   51.7919   20.3404   13.5865 H   0  0  0  0  0
   49.7704   19.7895   15.2531 H   0  0  0  0  0
   48.2053   21.8995   14.7304 H   0  0  0  0  0
   46.8343   28.2645   12.6181 H   0  0  0  0  0
   47.9302   29.6401   12.5013 H   0  0  0  0  0
   49.8558   28.0657   12.9271 H   0  0  0  0  0
   48.6530   26.7756   13.2291 H   0  0  0  0  0
   48.7314   29.2992   14.8819 H   0  0  0  0  0
   50.2945   29.5513   10.6929 H   0  0  0  0  0
   49.4331   28.0520    8.9017 H   0  0  0  0  0
  2  1  4  0  0  0
  1  6  4  0  0  0
  3  2  4  0  0  0
  3  4  4  0  0  0
 11  3  1  0  0  0
  4  5  4  0  0  0
  5  6  4  0  0  0
  5 10  4  0  0  0
  6  7  4  0  0  0
  7  8  4  0  0  0
  9  8  4  0  0  0
 10  9  4  0  0  0
 11 12  2  0  0  0
 11 13  2  0  0  0
 17 11  1  0  0  0
 14 15  1  0  0  0
 16 14  1  0  0  0
 15 20  1  0  0  0
 16 17  1  0  0  0
 20 18  1  0  0  0
 20 19  1  0  0  0
 20 21  2  0  0  0
  1 22  1  0  0  0
  2 23  1  0  0  0
  4 24  1  0  0  0
  7 25  1  0  0  0
  8 26  1  0  0  0
  9 27  1  0  0  0
 10 28  1  0  0  0
 14 29  1  0  0  0
 14 30  1  0  0  0
 16 31  1  0  0  0
 16 32  1  0  0  0
 17 33  1  0  0  0
 18 34  1  0  0  0
 19 35  1  0  0  0
M  END
$$$$
