### 
### Created by X-TOOL on Mon Sep 10 21:12:56 2018
### 

@<TRIPOS>MOLECULE
2clo_ligand
   33    34     1     0     0
SMALL
GAST_HUCK


@<TRIPOS>ATOM
      1 C1         51.8040   24.8290   14.9930 C.ar      1 F19        -0.0522
      2 C2         50.9820   25.8810   15.4060 C.ar      1 F19        -0.0345
      3 C3         49.5570   25.6950   15.6140 C.ar      1 F19         0.1087
      4 C4         49.0650   24.3780   15.6290 C.ar      1 F19        -0.0274
      5 C5         49.8620   23.2710   15.1660 C.ar      1 F19        -0.0160
      6 C6         51.2900   23.4790   14.9390 C.ar      1 F19        -0.0178
      7 C7         52.1590   22.3520   14.6760 C.ar      1 F19        -0.0540
      8 C8         51.3630   21.0430   14.3010 C.ar      1 F19        -0.0612
      9 C9         50.0890   20.7640   14.8830 C.ar      1 F19        -0.0612
     10 C10        49.2780   21.9740   14.9090 C.ar      1 F19        -0.0540
     11 S11        48.4710   27.1280   15.8450 S.o2      1 F19         0.0683
     12 O12        47.1070   26.6160   15.8310 O.2       1 F19        -0.1503
     13 O13        48.8360   27.7440   17.1040 O.2       1 F19        -0.1503
     14 C16        47.8530   28.5610   12.3680 C.3       1 F19         0.0951
     15 O17        48.1510   28.2100   11.0300 O.3       1 F19        -0.2745
     16 C18        48.8440   27.8480   13.2690 C.3       1 F19         0.0544
     17 N1         48.6980   28.3070   14.6480 N.am      1 F19        -0.2449
     18 O20        49.5860   30.1620   10.4770 O.co2     1 F19        -0.5537
     19 O21        48.7570   28.7080    8.7170 O.co2     1 F19        -0.5537
     20 P          48.4010   29.3880    9.9410 P.3       1 F19         0.2007
     21 O22        47.4070   30.3470    9.6480 O.co2     1 F19        -0.5537
     22 H1         52.8321   25.0263   14.7118 H         1 F19         0.0624
     23 H2         51.4184   26.8588   15.5750 H         1 F19         0.0637
     24 H3         48.0628   24.1913   15.9975 H         1 F19         0.0643
     25 H4         53.2405   22.4021   14.7308 H         1 F19         0.0624
     26 H5         51.7896   20.3443   13.5905 H         1 F19         0.0618
     27 H6         49.7722   19.7949   15.2511 H         1 F19         0.0618
     28 H7         48.2112   21.8999   14.7314 H         1 F19         0.0624
     29 H8         46.8286   28.2475   12.6174 H         1 F19         0.0628
     30 H9         47.9454   29.6493   12.4983 H         1 F19         0.0628
     31 H10        49.8664   28.0595   12.9227 H         1 F19         0.0501
     32 H11        48.6590   26.7645   13.2259 H         1 F19         0.0501
     33 H12        48.7307   29.2798   14.8774 H         1 F19         0.1673
@<TRIPOS>BOND
     1    2    1 ar 
     2    1    6 ar 
     3    3    2 ar 
     4    3    4 ar 
     5   11    3 1  
     6    4    5 ar 
     7    5    6 ar 
     8    5   10 ar 
     9    6    7 ar 
    10    7    8 ar 
    11    9    8 ar 
    12   10    9 ar 
    13   11   12 2  
    14   11   13 2  
    15   17   11 am 
    16   14   15 1  
    17   16   14 1  
    18   15   20 1  
    19   16   17 1  
    20   20   18 ar 
    21   20   19 ar 
    22   20   21 ar 
    23    1   22 1  
    24    2   23 1  
    25    4   24 1  
    26    7   25 1  
    27    8   26 1  
    28    9   27 1  
    29   10   28 1  
    30   14   29 1  
    31   14   30 1  
    32   16   31 1  
    33   16   32 1  
    34   17   33 1  
@<TRIPOS>SUBSTRUCTURE
     1 F19         1

