1qpe_ligand
  -I-interpret- 

 37 39  0  0  0  0  0  0  0  0999 V2000
   25.3570   37.1410   83.3590 C   0  0  0  0  0
   26.3410   36.6570   82.5560 N   0  0  0  0  0
   25.9990   35.6530   81.7810 C   0  0  0  0  0
   24.7390   35.1270   81.7880 N   0  0  0  0  0
   23.7410   35.5340   82.5440 C   0  0  0  0  0
   24.0410   36.6380   83.4210 C   0  0  0  0  0
   23.2900   37.3920   84.3180 C   0  0  0  0  0
   24.0960   38.3650   84.7990 N   0  0  0  0  0
   25.3550   38.2130   84.2400 N   0  0  0  0  0
   21.9410   37.1830   84.8550 C   0  0  0  0  0
   21.5890   35.9510   85.4520 C   0  0  0  0  0
   20.3660   35.7620   86.1120 C   0  0  0  0  0
   19.4670   36.8480   86.1570 C   0  0  0  0  0
   19.7750   38.0810   85.5950 C   0  0  0  0  0
   21.0480   38.2860   84.9010 C   0  0  0  0  0
   26.5070   39.1390   84.6030 C   0  0  0  0  0
   26.9570   39.8980   83.2930 C   0  0  0  0  0
   27.6460   38.5070   85.4450 C   0  0  0  0  0
   26.0500   40.2190   85.7040 C   0  0  0  0  0
   22.4580   35.0320   82.3980 N   0  0  0  0  0
   17.8600   36.6550   86.8930 Cl  0  0  0  0  0
   26.7451   35.2261   81.1108 H   0  0  0  0  0
   22.2919   35.1197   85.3976 H   0  0  0  0  0
   20.1183   34.8069   86.5751 H   0  0  0  0  0
   19.0629   38.9027   85.6714 H   0  0  0  0  0
   21.2987   39.2417   84.4407 H   0  0  0  0  0
   27.2786   39.1720   82.5463 H   0  0  0  0  0
   26.1187   40.4752   82.9029 H   0  0  0  0  0
   27.7832   40.5688   83.5289 H   0  0  0  0  0
   27.2396   38.1432   86.3887 H   0  0  0  0  0
   28.0861   37.6764   84.8932 H   0  0  0  0  0
   28.4100   39.2588   85.6428 H   0  0  0  0  0
   25.2306   40.8174   85.3058 H   0  0  0  0  0
   25.7192   39.7007   86.6040 H   0  0  0  0  0
   26.8917   40.8681   85.9456 H   0  0  0  0  0
   22.2645   34.3255   81.6882 H   0  0  0  0  0
   21.7069   35.3689   83.0003 H   0  0  0  0  0
  9  1  4  0  0  0
  1  6  4  0  0  0
  1  2  4  0  0  0
  2  3  4  0  0  0
  3  4  4  0  0  0
  4  5  4  0  0  0
  5 20  1  0  0  0
  6  5  4  0  0  0
  6  7  4  0  0  0
  7 10  1  0  0  0
  7  8  4  0  0  0
  8  9  4  0  0  0
  9 16  1  0  0  0
 16 19  1  0  0  0
 16 18  1  0  0  0
 16 17  1  0  0  0
 10 15  4  0  0  0
 10 11  4  0  0  0
 11 12  4  0  0  0
 12 13  4  0  0  0
 13 21  1  0  0  0
 13 14  4  0  0  0
 14 15  4  0  0  0
  3 22  1  0  0  0
 11 23  1  0  0  0
 12 24  1  0  0  0
 14 25  1  0  0  0
 15 26  1  0  0  0
 17 27  1  0  0  0
 17 28  1  0  0  0
 17 29  1  0  0  0
 18 30  1  0  0  0
 18 31  1  0  0  0
 18 32  1  0  0  0
 19 33  1  0  0  0
 19 34  1  0  0  0
 19 35  1  0  0  0
 20 36  1  0  0  0
 20 37  1  0  0  0
M  END
$$$$
