### 
### Created by X-TOOL on Mon Sep 10 21:13:25 2018
### 

@<TRIPOS>MOLECULE
4rhu_ligand
   45    46     1     0     0
SMALL
GAST_HUCK


@<TRIPOS>ATOM
      1 OAE        35.0750    7.7910   -9.1230 O.co2     1 3QE        -0.5622
      2 PBA        34.0620    7.1710   -8.1690 P.3       1 3QE         0.0600
      3 OAF        32.8980    8.1110   -7.8900 O.co2     1 3QE        -0.5622
      4 OAC        34.6850    6.5750   -6.9170 O.co2     1 3QE        -0.5622
      5 CAL        33.2880    5.6660   -9.1370 C.3       1 3QE         0.0430
      6 CAJ        31.9500    5.2230   -8.5690 C.3       1 3QE         0.0627
      7 OAS        32.0740    3.8070   -8.1810 O.3       1 3QE        -0.3757
      8 CAN        33.1230    3.5760   -7.2620 C.3       1 3QE         0.0765
      9 CAY        33.0750    2.0550   -6.7740 C.3       1 3QE         0.1091
     10 OAT        33.8930    1.3290   -7.6470 O.3       1 3QE        -0.3702
     11 CAK        33.3160    0.0190   -8.0000 C.3       1 3QE         0.0631
     12 CAM        34.3720   -1.0290   -7.7460 C.3       1 3QE         0.0430
     13 PBB        34.0530   -2.6630   -8.7410 P.3       1 3QE         0.0600
     14 OAG        32.7080   -3.1750   -8.2700 O.co2     1 3QE        -0.5622
     15 OAH        35.2260   -3.5700   -8.3850 O.co2     1 3QE        -0.5622
     16 OAD        34.0730   -2.2500  -10.2070 O.co2     1 3QE        -0.5622
     17 CAO        31.5530    1.4890   -6.9780 C.3       1 3QE         0.0881
     18 N9         30.8600    1.0470   -5.6700 N.pl3     1 3QE        -0.2235
     19 C4         30.4230    1.8120   -4.5970 C.2       1 3QE         0.1461
     20 N3         30.4550    3.1670   -4.3660 N.2       1 3QE        -0.2608
     21 C2         29.9060    3.5240   -3.1650 C.2       1 3QE         0.1558
     22 N2         29.9220    4.9120   -2.8950 N.pl3     1 3QE        -0.3110
     23 N1         29.3400    2.7220   -2.1860 N.am      1 3QE        -0.2439
     24 C6         29.3320    1.3940   -2.4600 C.2       1 3QE         0.1714
     25 O6         28.7880    0.5460   -1.5350 O.2       1 3QE        -0.3084
     26 C5         29.8590    0.8570   -3.6560 C.2       1 3QE         0.1034
     27 N7         29.9680   -0.4480   -4.1670 N.2       1 3QE        -0.3022
     28 C8         30.5830   -0.3050   -5.3970 C.2       1 3QE         0.1056
     29 H1         33.9882    4.8191   -9.0871 H         1 3QE         0.0000
     30 H2         33.1433    5.9609  -10.1868 H         1 3QE         0.0000
     31 H3         31.1642    5.3352   -9.3305 H         1 3QE         0.0000
     32 H4         31.6969    5.8318   -7.6885 H         1 3QE         0.0000
     33 H5         33.0056    4.2434   -6.3955 H         1 3QE         0.0000
     34 H6         34.0887    3.7747   -7.7497 H         1 3QE         0.0000
     35 H7         33.4035    1.9574   -5.7288 H         1 3QE         0.0000
     36 H8         33.0268    0.0103   -9.0613 H         1 3QE         0.0000
     37 H9         32.4316   -0.1813   -7.3773 H         1 3QE         0.0000
     38 H10        34.3819   -1.2665   -6.6720 H         1 3QE         0.0000
     39 H11        35.3506   -0.6222   -8.0407 H         1 3QE         0.0000
     40 H12        31.5950    0.6234   -7.6554 H         1 3QE         0.0000
     41 H13        30.9478    2.2847   -7.4369 H         1 3QE         0.0000
     42 H14        30.3279    5.5653   -3.5801 H         1 3QE         0.0000
     43 H15        29.5277    5.2697   -2.0132 H         1 3QE         0.0000
     44 H16        28.9644    3.0962   -1.3381 H         1 3QE         0.0000
     45 H17        30.8216   -1.1302   -6.0663 H         1 3QE         0.0000
@<TRIPOS>BOND
     1    1    2 ar 
     2    2    3 ar 
     3    2    4 ar 
     4    2    5 1  
     5    5    6 1  
     6    6    7 1  
     7    7    8 1  
     8    8    9 1  
     9    9   10 1  
    10    9   17 1  
    11   10   11 1  
    12   11   12 1  
    13   12   13 1  
    14   13   14 ar 
    15   13   15 ar 
    16   13   16 ar 
    17   17   18 1  
    18   18   19 1  
    19   18   28 1  
    20   19   20 1  
    21   19   26 2  
    22   20   21 2  
    23   21   22 1  
    24   21   23 am 
    25   23   24 am 
    26   24   25 2  
    27   24   26 1  
    28   26   27 1  
    29   27   28 2  
    30    5   29 1  
    31    5   30 1  
    32    6   31 1  
    33    6   32 1  
    34    8   33 1  
    35    8   34 1  
    36    9   35 1  
    37   11   36 1  
    38   11   37 1  
    39   12   38 1  
    40   12   39 1  
    41   17   40 1  
    42   17   41 1  
    43   22   42 1  
    44   22   43 1  
    45   23   44 1  
    46   28   45 1  
@<TRIPOS>SUBSTRUCTURE
     1 3QE         1

