4rhu_ligand
  -I-interpret- 

 49 50  0  0  0  0  0  0  0  0999 V2000
   35.0750    7.7910   -9.1230 O   0  0  0  0  0
   34.0620    7.1710   -8.1690 P   0  0  0  0  0
   32.8980    8.1110   -7.8900 O   0  0  0  0  0
   34.6850    6.5750   -6.9170 O   0  0  0  0  0
   33.2880    5.6660   -9.1370 C   0  0  0  0  0
   31.9500    5.2230   -8.5690 C   0  0  0  0  0
   32.0740    3.8070   -8.1810 O   0  0  0  0  0
   33.1230    3.5760   -7.2620 C   0  0  0  0  0
   33.0750    2.0550   -6.7740 C   0  0  0  0  0
   33.8930    1.3290   -7.6470 O   0  0  0  0  0
   33.3160    0.0190   -8.0000 C   0  0  0  0  0
   34.3720   -1.0290   -7.7460 C   0  0  0  0  0
   34.0530   -2.6630   -8.7410 P   0  0  0  0  0
   32.7080   -3.1750   -8.2700 O   0  0  0  0  0
   35.2260   -3.5700   -8.3850 O   0  0  0  0  0
   34.0730   -2.2500  -10.2070 O   0  0  0  0  0
   31.5530    1.4890   -6.9780 C   0  0  0  0  0
   30.8600    1.0470   -5.6700 N   0  0  0  0  0
   30.4230    1.8120   -4.5970 C   0  0  0  0  0
   30.4550    3.1670   -4.3660 N   0  0  0  0  0
   29.9060    3.5240   -3.1650 C   0  0  0  0  0
   29.9220    4.9120   -2.8950 N   0  0  0  0  0
   29.3400    2.7220   -2.1860 N   0  0  0  0  0
   29.3320    1.3940   -2.4600 C   0  0  0  0  0
   28.7880    0.5460   -1.5350 O   0  0  0  0  0
   29.8590    0.8570   -3.6560 C   0  0  0  0  0
   29.9680   -0.4480   -4.1670 N   0  0  0  0  0
   30.5830   -0.3050   -5.3970 C   0  0  0  0  0
   34.6166    8.1465   -9.8879 H   0  0  0  0  0
   32.5547    8.4487   -8.7205 H   0  0  0  0  0
   33.9788    4.8268   -9.0552 H   0  0  0  0  0
   33.1243    5.9816  -10.1674 H   0  0  0  0  0
   31.1632    5.3445   -9.3135 H   0  0  0  0  0
   31.6853    5.8312   -7.7041 H   0  0  0  0  0
   33.0075    4.2377   -6.4036 H   0  0  0  0  0
   34.0801    3.7736   -7.7447 H   0  0  0  0  0
   33.3866    1.9689   -5.7330 H   0  0  0  0  0
   33.0129    0.0070   -9.0469 H   0  0  0  0  0
   32.4299   -0.1807   -7.3975 H   0  0  0  0  0
   34.3541   -1.2735   -6.6839 H   0  0  0  0  0
   35.3318   -0.6231   -8.0655 H   0  0  0  0  0
   36.0402   -3.1823   -8.7142 H   0  0  0  0  0
   34.9506   -1.9371  -10.4382 H   0  0  0  0  0
   31.6204    0.6098   -7.6188 H   0  0  0  0  0
   30.9609    2.3031   -7.3960 H   0  0  0  0  0
   30.3229    5.5591   -3.5740 H   0  0  0  0  0
   29.5327    5.2661   -2.0213 H   0  0  0  0  0
   28.9569    3.1037   -1.3212 H   0  0  0  0  0
   30.8218   -1.1310   -6.0669 H   0  0  0  0  0
  1  2  1  0  0  0
  2  3  1  0  0  0
  2  4  2  0  0  0
  2  5  1  0  0  0
  5  6  1  0  0  0
  6  7  1  0  0  0
  7  8  1  0  0  0
  8  9  1  0  0  0
  9 10  1  0  0  0
  9 17  1  0  0  0
 10 11  1  0  0  0
 11 12  1  0  0  0
 12 13  1  0  0  0
 13 14  2  0  0  0
 13 15  1  0  0  0
 13 16  1  0  0  0
 17 18  1  0  0  0
 18 19  4  0  0  0
 18 28  4  0  0  0
 19 20  1  0  0  0
 19 26  4  0  0  0
 20 21  2  0  0  0
 21 22  1  0  0  0
 21 23  1  0  0  0
 23 24  1  0  0  0
 24 25  2  0  0  0
 24 26  1  0  0  0
 26 27  4  0  0  0
 27 28  4  0  0  0
  1 29  1  0  0  0
  3 30  1  0  0  0
  5 31  1  0  0  0
  5 32  1  0  0  0
  6 33  1  0  0  0
  6 34  1  0  0  0
  8 35  1  0  0  0
  8 36  1  0  0  0
  9 37  1  0  0  0
 11 38  1  0  0  0
 11 39  1  0  0  0
 12 40  1  0  0  0
 12 41  1  0  0  0
 15 42  1  0  0  0
 16 43  1  0  0  0
 17 44  1  0  0  0
 17 45  1  0  0  0
 22 46  1  0  0  0
 22 47  1  0  0  0
 23 48  1  0  0  0
 28 49  1  0  0  0
M  END
$$$$
