1x8s_ligand
  -I-interpret- 

140141  0  0  0  0  0  0  0  0999 V2000
  -10.5610   11.8060    2.4030 N   0  3  0  0  0
   -9.8460   13.0400    1.9580 C   0  0  0  0  0
  -10.4970   13.6230    0.7020 C   0  0  0  0  0
  -10.5680   12.9560   -0.3340 O   0  0  0  0  0
   -8.3690   12.7410    1.6610 C   0  0  0  0  0
   -7.6040   12.1960    2.8290 C   0  0  0  0  0
   -7.3580   12.9310    3.9690 N   0  0  0  0  0
   -7.0090   10.9950    3.0210 C   0  0  0  0  0
   -6.6540   12.2020    4.8170 C   0  0  0  0  0
   -6.4290   11.0220    4.2670 N   0  0  0  0  0
  -10.9710   14.8630    0.7990 N   0  0  0  0  0
  -11.5310   15.5680   -0.3600 C   0  0  0  0  0
  -10.4290   16.2750   -1.1320 C   0  0  0  0  0
   -9.4650   16.7500   -0.5370 O   0  0  0  0  0
  -12.5980   16.5800    0.0620 C   0  0  0  0  0
  -12.1300   17.6620    1.0290 C   0  0  0  0  0
  -13.2410   18.6570    1.3250 C   0  0  0  0  0
  -12.8930   20.0250    0.9360 N   0  0  0  0  0
  -12.9520   20.5240   -0.2990 C   0  0  0  0  0
  -13.3410   19.7810   -1.3350 N   0  0  0  0  0
  -12.6070   21.7920   -0.4950 N   0  0  0  0  0
  -10.5820   16.3510   -2.4510 N   0  0  0  0  0
   -9.5440   16.9160   -3.3100 C   0  0  0  0  0
  -10.0640   18.0260   -4.2070 C   0  0  0  0  0
  -11.2680   18.1690   -4.4160 O   0  0  0  0  0
   -8.8930   15.8260   -4.1680 C   0  0  0  0  0
   -9.7390   15.3440   -5.3420 C   0  0  0  0  0
   -9.2250   14.0450   -5.9380 C   0  0  0  0  0
   -7.9920   13.8510   -5.9810 O   0  0  0  0  0
  -10.0580   13.2200   -6.3690 O   0  0  0  0  0
   -9.1250   18.8030   -4.7360 N   0  0  0  0  0
   -9.4300   19.9050   -5.6340 C   0  0  0  0  0
   -8.3360   20.0610   -6.6800 C   0  0  0  0  0
   -7.1660   19.7770   -6.4230 O   0  0  0  0  0
   -9.6030   21.1980   -4.8450 C   0  0  0  0  0
  -10.9790   21.3370   -4.2260 C   0  0  0  0  0
  -11.3470   23.0360   -3.7690 S   0  0  0  0  0
  -13.1410   22.9930   -3.7810 C   0  0  0  0  0
   -8.7390   20.5220   -7.8590 N   0  0  0  0  0
   -7.8780   20.5290   -9.0350 C   0  0  0  0  0
   -7.2470   21.8920   -9.2630 C   0  0  0  0  0
   -7.9380   22.9150   -9.2700 O   0  0  0  0  0
   -8.6750   20.1160  -10.2680 C   0  0  0  0  0
   -5.9310   21.8890   -9.4580 N   0  0  0  0  0
   -5.2030   23.0850   -9.8490 C   0  0  0  0  0
   -4.9460   23.0320  -11.3560 C   0  0  0  0  0
   -4.1330   22.2340  -11.8240 O   0  0  0  0  0
   -3.8720   23.1990   -9.0900 C   0  0  0  0  0
   -3.1140   24.4530   -9.5240 C   0  0  0  0  0
   -4.1270   23.2040   -7.5870 C   0  0  0  0  0
   -5.6560   23.8760  -12.1030 N   0  0  0  0  0
   -5.5020   23.9720  -13.5540 C   0  0  0  0  0
   -5.4880   22.5940  -14.2160 C   0  0  0  0  0
   -4.4250   22.0320  -14.4930 O   0  0  0  0  0
   -4.2320   24.7580  -13.9080 C   0  0  0  0  0
   -4.1730   25.1630  -15.3770 C   0  0  0  0  0
   -5.1030   24.8310  -16.1440 O   0  0  0  0  0
   -3.1900   25.8240  -15.7710 O   0  0  0  0  0
   -6.6840   22.0600  -14.4570 N   0  0  0  0  0
   -6.8450   20.7640  -15.1140 C   0  0  0  0  0
   -7.8380   20.8770  -16.2750 C   0  0  0  0  0
   -8.8870   21.4990  -16.1260 O   0  0  0  0  0
   -7.3150   19.7150  -14.1020 C   0  0  0  0  0
   -6.1150   19.3870  -12.7660 S   0  0  0  0  0
   -7.5100   20.2740  -17.4350 N   0  0  0  0  0
   -8.3490   20.3810  -18.6330 C   0  0  0  0  0
   -9.5790   19.4670  -18.6060 C   0  0  0  0  0
   -9.9010   18.8570  -17.5840 O   0  0  0  0  0
   -7.3970   19.9520  -19.7510 C   0  0  0  0  0
   -6.5020   18.9640  -19.0990 C   0  0  0  0  0
   -6.3200   19.4380  -17.6800 C   0  0  0  0  0
  -10.2840   19.3130  -19.6080 O   0  0  0  0  0
  -11.5376   12.0304    2.5935 H   0  0  0  0  0
  -10.5101   11.1011    1.6675 H   0  0  0  0  0
  -10.1217   11.4470    3.2507 H   0  0  0  0  0
   -9.9112   13.7647    2.7696 H   0  0  0  0  0
   -7.9001   13.6847    1.3823 H   0  0  0  0  0
   -8.3460   11.9815    0.8796 H   0  0  0  0  0
   -6.9929   10.1618    2.3184 H   0  0  0  0  0
   -6.3161   12.5203    5.8032 H   0  0  0  0  0
  -10.9443   15.3356    1.7025 H   0  0  0  0  0
  -12.0022   14.8238   -1.0021 H   0  0  0  0  0
  -13.3739   16.0157    0.5794 H   0  0  0  0  0
  -12.9169   17.0918   -0.8460 H   0  0  0  0  0
  -11.2970   18.1975    0.5736 H   0  0  0  0  0
  -11.8320   17.1867    1.9635 H   0  0  0  0  0
  -13.4188   18.6499    2.4004 H   0  0  0  0  0
  -14.1187   18.3590    0.7514 H   0  0  0  0  0
  -12.5773   20.6522    1.6758 H   0  0  0  0  0
  -13.3723   20.1867   -2.2703 H   0  0  0  0  0
  -13.6074   18.8068   -1.1924 H   0  0  0  0  0
  -12.3037   22.3655    0.2921 H   0  0  0  0  0
  -11.4445   16.0067   -2.8729 H   0  0  0  0  0
   -8.7997   17.3513   -2.6432 H   0  0  0  0  0
   -8.7343   14.9652   -3.5184 H   0  0  0  0  0
   -7.9841   16.2559   -4.5889 H   0  0  0  0  0
   -9.7008   16.1077   -6.1188 H   0  0  0  0  0
  -10.7507   15.1681   -4.9765 H   0  0  0  0  0
  -10.9446   13.5646   -6.2394 H   0  0  0  0  0
   -8.1494   18.6187   -4.5023 H   0  0  0  0  0
  -10.3655   19.6839   -6.1478 H   0  0  0  0  0
   -9.4655   22.0291   -5.5368 H   0  0  0  0  0
   -8.8743   21.1914   -4.0344 H   0  0  0  0  0
  -11.0082   20.7281   -3.3224 H   0  0  0  0  0
  -11.7165   21.0156   -4.9614 H   0  0  0  0  0
  -13.4899   22.7194   -4.7767 H   0  0  0  0  0
  -13.4904   22.2568   -3.0571 H   0  0  0  0  0
  -13.5285   23.9768   -3.5164 H   0  0  0  0  0
   -9.6883   20.8853   -7.9446 H   0  0  0  0  0
   -7.0745   19.8134   -8.8604 H   0  0  0  0  0
   -9.0745   19.1125  -10.1215 H   0  0  0  0  0
   -9.4960   20.8167  -10.4199 H   0  0  0  0  0
   -8.0221   20.1246  -11.1408 H   0  0  0  0  0
   -5.4156   21.0184   -9.3288 H   0  0  0  0  0
   -5.8005   23.9620   -9.6002 H   0  0  0  0  0
   -3.2524   22.3349   -9.3297 H   0  0  0  0  0
   -2.9091   24.4003  -10.5933 H   0  0  0  0  0
   -3.7199   25.3339   -9.3118 H   0  0  0  0  0
   -2.1742   24.5160   -8.9754 H   0  0  0  0  0
   -4.7606   24.0529   -7.3301 H   0  0  0  0  0
   -4.6251   22.2775   -7.3012 H   0  0  0  0  0
   -3.1770   23.2851   -7.0589 H   0  0  0  0  0
   -6.3362   24.4812  -11.6432 H   0  0  0  0  0
   -6.3667   24.5099  -13.9426 H   0  0  0  0  0
   -3.3757   24.1145  -13.7060 H   0  0  0  0  0
   -4.2286   25.6702  -13.3114 H   0  0  0  0  0
   -5.7588   24.3311  -15.6523 H   0  0  0  0  0
   -7.5180   22.5739  -14.1729 H   0  0  0  0  0
   -5.8816   20.4501  -15.5157 H   0  0  0  0  0
   -7.4583   18.7812  -14.6457 H   0  0  0  0  0
   -8.2227   20.0980  -13.6358 H   0  0  0  0  0
   -6.6109   18.4677  -11.9427 H   0  0  0  0  0
   -8.7627   21.3835  -18.7425 H   0  0  0  0  0
   -6.8471   20.7938  -20.1718 H   0  0  0  0  0
   -7.9260   19.5302  -20.6056 H   0  0  0  0  0
   -5.5456   18.8964  -19.6175 H   0  0  0  0  0
   -6.9326   17.9631  -19.1279 H   0  0  0  0  0
   -6.2393   18.6123  -16.9730 H   0  0  0  0  0
   -5.3895   19.9886  -17.5418 H   0  0  0  0  0
   -9.9303   19.8371  -20.3304 H   0  0  0  0  0
  1  2  1  0  0  0
  2  3  1  0  0  0
  2  5  1  0  0  0
  3  4  2  0  0  0
  3 11  1  0  0  0
  5  6  1  0  0  0
  6  7  4  0  0  0
  6  8  4  0  0  0
  7  9  4  0  0  0
  8 10  4  0  0  0
  9 10  4  0  0  0
 11 12  1  0  0  0
 12 13  1  0  0  0
 12 15  1  0  0  0
 13 14  2  0  0  0
 13 22  1  0  0  0
 15 16  1  0  0  0
 16 17  1  0  0  0
 17 18  1  0  0  0
 18 19  1  0  0  0
 19 20  1  0  0  0
 19 21  2  0  0  0
 22 23  1  0  0  0
 23 24  1  0  0  0
 23 26  1  0  0  0
 24 25  2  0  0  0
 24 31  1  0  0  0
 26 27  1  0  0  0
 27 28  1  0  0  0
 28 29  2  0  0  0
 28 30  1  0  0  0
 31 32  1  0  0  0
 32 33  1  0  0  0
 32 35  1  0  0  0
 33 34  2  0  0  0
 33 39  1  0  0  0
 35 36  1  0  0  0
 36 37  1  0  0  0
 37 38  1  0  0  0
 39 40  1  0  0  0
 40 41  1  0  0  0
 40 43  1  0  0  0
 41 42  2  0  0  0
 41 44  1  0  0  0
 44 45  1  0  0  0
 45 46  1  0  0  0
 45 48  1  0  0  0
 46 47  2  0  0  0
 46 51  1  0  0  0
 48 49  1  0  0  0
 48 50  1  0  0  0
 51 52  1  0  0  0
 52 53  1  0  0  0
 52 55  1  0  0  0
 53 54  2  0  0  0
 53 59  1  0  0  0
 55 56  1  0  0  0
 56 57  1  0  0  0
 56 58  2  0  0  0
 59 60  1  0  0  0
 60 61  1  0  0  0
 60 63  1  0  0  0
 61 62  2  0  0  0
 61 65  1  0  0  0
 63 64  1  0  0  0
 65 66  1  0  0  0
 65 71  1  0  0  0
 66 67  1  0  0  0
 66 69  1  0  0  0
 67 68  2  0  0  0
 67 72  1  0  0  0
 69 70  1  0  0  0
 70 71  1  0  0  0
  1 73  1  0  0  0
  1 74  1  0  0  0
  1 75  1  0  0  0
  2 76  1  0  0  0
  5 77  1  0  0  0
  5 78  1  0  0  0
  8 79  1  0  0  0
  9 80  1  0  0  0
 11 81  1  0  0  0
 12 82  1  0  0  0
 15 83  1  0  0  0
 15 84  1  0  0  0
 16 85  1  0  0  0
 16 86  1  0  0  0
 17 87  1  0  0  0
 17 88  1  0  0  0
 18 89  1  0  0  0
 20 90  1  0  0  0
 20 91  1  0  0  0
 21 92  1  0  0  0
 22 93  1  0  0  0
 23 94  1  0  0  0
 26 95  1  0  0  0
 26 96  1  0  0  0
 27 97  1  0  0  0
 27 98  1  0  0  0
 30 99  1  0  0  0
 31100  1  0  0  0
 32101  1  0  0  0
 35102  1  0  0  0
 35103  1  0  0  0
 36104  1  0  0  0
 36105  1  0  0  0
 38106  1  0  0  0
 38107  1  0  0  0
 38108  1  0  0  0
 39109  1  0  0  0
 40110  1  0  0  0
 43111  1  0  0  0
 43112  1  0  0  0
 43113  1  0  0  0
 44114  1  0  0  0
 45115  1  0  0  0
 48116  1  0  0  0
 49117  1  0  0  0
 49118  1  0  0  0
 49119  1  0  0  0
 50120  1  0  0  0
 50121  1  0  0  0
 50122  1  0  0  0
 51123  1  0  0  0
 52124  1  0  0  0
 55125  1  0  0  0
 55126  1  0  0  0
 57127  1  0  0  0
 59128  1  0  0  0
 60129  1  0  0  0
 63130  1  0  0  0
 63131  1  0  0  0
 64132  1  0  0  0
 66133  1  0  0  0
 69134  1  0  0  0
 69135  1  0  0  0
 70136  1  0  0  0
 70137  1  0  0  0
 71138  1  0  0  0
 71139  1  0  0  0
 72140  1  0  0  0
M  END
$$$$
