### 
### Created by X-TOOL on Mon Sep 10 21:12:52 2018
### 

@<TRIPOS>MOLECULE
1x8s_ligand
  139   140     1     0     0
SMALL
GAST_HUCK


@<TRIPOS>ATOM
      1 N         -10.5610   11.8060    2.4030 N.4       1 HIS         0.2390
      2 CA         -9.8460   13.0400    1.9580 C.3       1 HIS         0.0708
      3 C         -10.4970   13.6230    0.7020 C.2       1 HIS         0.2282
      4 O         -10.5680   12.9560   -0.3340 O.2       1 HIS        -0.3906
      5 CB         -8.3690   12.7410    1.6610 C.3       1 HIS         0.0347
      6 CG         -7.6040   12.1960    2.8290 C.2       1 HIS         0.0005
      7 ND1        -7.3580   12.9310    3.9690 N.2       1 HIS        -0.3251
      8 CD2        -7.0090   10.9950    3.0210 C.2       1 HIS         0.0293
      9 CE1        -6.6540   12.2020    4.8170 C.2       1 HIS         0.0907
     10 NE2        -6.4290   11.0220    4.2670 N.pl3     1 HIS        -0.2752
     11 N         -10.9710   14.8630    0.7990 N.am      1 ARG        -0.2609
     12 CA        -11.5310   15.5680   -0.3600 C.3       1 ARG         0.1312
     13 C         -10.4290   16.2750   -1.1320 C.2       1 ARG         0.2039
     14 O          -9.4650   16.7500   -0.5370 O.2       1 ARG        -0.3944
     15 CB        -12.5980   16.5800    0.0620 C.3       1 ARG        -0.0092
     16 CG        -12.1300   17.6620    1.0290 C.3       1 ARG        -0.0156
     17 CD        -13.2410   18.6570    1.3250 C.3       1 ARG         0.0627
     18 NE        -12.8930   20.0250    0.9360 N.pl3     1 ARG        -0.2723
     19 CZ        -12.9520   20.5240   -0.2990 C.cat     1 ARG         0.2882
     20 NH1       -13.3410   19.7810   -1.3350 N.pl3     1 ARG        -0.2849
     21 NH2       -12.6070   21.7920   -0.4950 N.pl3     1 ARG        -0.2849
     22 N         -10.5820   16.3510   -2.4510 N.am      1 GLU        -0.2636
     23 CA         -9.5440   16.9160   -3.3100 C.3       1 GLU         0.1325
     24 C         -10.0640   18.0260   -4.2070 C.2       1 GLU         0.2040
     25 O         -11.2680   18.1690   -4.4160 O.2       1 GLU        -0.3944
     26 CB         -8.8930   15.8260   -4.1680 C.3       1 GLU        -0.0008
     27 CG         -9.7390   15.3440   -5.3420 C.3       1 GLU         0.0044
     28 CD         -9.2250   14.0450   -5.9380 C.2       1 GLU         0.0350
     29 OE1        -7.9920   13.8510   -5.9810 O.co2     1 GLU        -0.5690
     30 OE2       -10.0580   13.2200   -6.3690 O.co2     1 GLU        -0.5690
     31 N          -9.1250   18.8030   -4.7360 N.am      1 MET        -0.2637
     32 CA         -9.4300   19.9050   -5.6340 C.3       1 MET         0.1317
     33 C          -8.3360   20.0610   -6.6800 C.2       1 MET         0.2039
     34 O          -7.1660   19.7770   -6.4230 O.2       1 MET        -0.3944
     35 CB         -9.6030   21.1980   -4.8450 C.3       1 MET        -0.0034
     36 CG        -10.9790   21.3370   -4.2260 C.3       1 MET        -0.0024
     37 SD        -11.3470   23.0360   -3.7690 S.3       1 MET        -0.1639
     38 CE        -13.1410   22.9930   -3.7810 C.3       1 MET        -0.0181
     39 N          -8.7390   20.5220   -7.8590 N.am      1 ALA        -0.2640
     40 CA         -7.8780   20.5290   -9.0350 C.3       1 ALA         0.1282
     41 C          -7.2470   21.8920   -9.2630 C.2       1 ALA         0.2036
     42 O          -7.9380   22.9150   -9.2700 O.2       1 ALA        -0.3944
     43 CB         -8.6750   20.1160  -10.2680 C.3       1 ALA        -0.0244
     44 N          -5.9310   21.8890   -9.4580 N.am      1 VAL        -0.2635
     45 CA         -5.2030   23.0850   -9.8490 C.3       1 VAL         0.1333
     46 C          -4.9460   23.0320  -11.3560 C.2       1 VAL         0.2042
     47 O          -4.1330   22.2340  -11.8240 O.2       1 VAL        -0.3944
     48 CB         -3.8720   23.1990   -9.0900 C.3       1 VAL        -0.0063
     49 CG1        -3.1140   24.4530   -9.5240 C.3       1 VAL        -0.0584
     50 CG2        -4.1270   23.2040   -7.5870 C.3       1 VAL        -0.0584
     51 N          -5.6560   23.8760  -12.1030 N.am      1 ASP        -0.2622
     52 CA         -5.5020   23.9720  -13.5540 C.3       1 ASP         0.1423
     53 C          -5.4880   22.5940  -14.2160 C.2       1 ASP         0.2056
     54 O          -4.4250   22.0320  -14.4930 O.2       1 ASP        -0.3943
     55 CB         -4.2320   24.7580  -13.9080 C.3       1 ASP         0.0406
     56 CG         -4.1730   25.1630  -15.3770 C.2       1 ASP         0.0393
     57 OD1        -5.1030   24.8310  -16.1440 O.co2     1 ASP        -0.5688
     58 OD2        -3.1900   25.8240  -15.7710 O.co2     1 ASP        -0.5688
     59 N          -6.6840   22.0600  -14.4570 N.am      1 CYS        -0.2628
     60 CA         -6.8450   20.7640  -15.1140 C.3       1 CYS         0.1398
     61 C          -7.8380   20.8770  -16.2750 C.2       1 CYS         0.2067
     62 O          -8.8870   21.4990  -16.1260 O.2       1 CYS        -0.3942
     63 CB         -7.3150   19.7150  -14.1020 C.3       1 CYS         0.0311
     64 SG         -6.1150   19.3870  -12.7660 S.3       1 CYS        -0.1735
     65 N          -7.5100   20.2740  -17.4350 N.am      1 PRO        -0.2555
     66 CA         -8.3490   20.3810  -18.6330 C.3       1 PRO         0.0972
     67 C          -9.5790   19.4670  -18.6060 C.2       1 PRO         0.0603
     68 O          -9.9010   18.8570  -17.5840 O.co2     1 PRO        -0.5666
     69 CB         -7.3970   19.9520  -19.7510 C.3       1 PRO        -0.0159
     70 CG         -6.5020   18.9640  -19.0990 C.3       1 PRO        -0.0288
     71 CD         -6.3200   19.4380  -17.6800 C.3       1 PRO         0.0362
     72 OXT       -10.2840   19.3130  -19.6080 O.co2     1 PRO        -0.5666
     73 H1        -10.1161   11.4397    3.2300 H         1 HIS         0.2016
     74 H2        -10.5275   11.1153    1.6696 H         1 HIS         0.2016
     75 H3        -11.5217   12.0304    2.6097 H         1 HIS         0.2016
     76 H4         -9.9018   13.7849    2.7654 H         1 HIS         0.1116
     77 H5         -7.8862   13.6753    1.3385 H         1 HIS         0.0453
     78 H6         -8.3237   12.0044    0.8454 H         1 HIS         0.0453
     79 H7         -6.9929   10.1626    2.3190 H         1 HIS         0.0729
     80 H8         -6.3164   12.5200    5.8023 H         1 HIS         0.1199
     81 H9         -5.9048   10.2488    4.7009 H         1 HIS         0.2361
     82 H10       -10.9449   15.3264    1.6848 H         1 ARG         0.1885
     83 H11       -12.0007   14.8248   -1.0211 H         1 ARG         0.0800
     84 H12       -13.4182   16.0271    0.5432 H         1 ARG         0.0313
     85 H13       -12.9729   17.0757   -0.8456 H         1 ARG         0.0313
     86 H14       -11.2790   18.1975    0.5829 H         1 ARG         0.0301
     87 H15       -11.8129   17.1888    1.9700 H         1 ARG         0.0301
     88 H16       -13.4496   18.6406    2.4049 H         1 ARG         0.0689
     89 H17       -14.1423   18.3527    0.7727 H         1 ARG         0.0689
     90 H18       -12.5742   20.6584    1.6831 H         1 ARG         0.2642
     91 H19       -13.3774   20.1920   -2.2787 H         1 ARG         0.2615
     92 H20       -13.6052   18.7958   -1.1918 H         1 ARG         0.2615
     93 H21       -12.3053   22.3725    0.3005 H         1 ARG         0.2615
     94 H22       -12.6412   22.1945   -1.4425 H         1 ARG         0.2615
     95 H23       -11.4276   16.0134   -2.8646 H         1 GLU         0.1883
     96 H24        -8.7706   17.3461   -2.6567 H         1 GLU         0.0801
     97 H25        -8.6822   14.9618   -3.5209 H         1 GLU         0.0330
     98 H26        -7.9486   16.2239   -4.5677 H         1 GLU         0.0330
     99 H27        -9.7304   16.1179   -6.1237 H         1 GLU         0.0433
    100 H28       -10.7701   15.1874   -4.9924 H         1 GLU         0.0433
    101 H29        -8.1685   18.6223   -4.5069 H         1 MET         0.1883
    102 H30       -10.3755   19.6824   -6.1502 H         1 MET         0.0800
    103 H31        -9.4372   22.0473   -5.5240 H         1 MET         0.0320
    104 H32        -8.8533   21.2201   -4.0403 H         1 MET         0.0320
    105 H33       -11.0273   20.7089   -3.3243 H         1 MET         0.0378
    106 H34       -11.7308   20.9944   -4.9522 H         1 MET         0.0378
    107 H35       -13.5333   23.9854   -3.5141 H         1 MET         0.0340
    108 H36       -13.4949   22.2503   -3.0508 H         1 MET         0.0340
    109 H37       -13.4945   22.7170   -4.7854 H         1 MET         0.0340
    110 H38        -9.6696   20.8782   -7.9429 H         1 ALA         0.1883
    111 H39        -7.0719   19.7976   -8.8762 H         1 ALA         0.0797
    112 H40        -8.0171   20.1243  -11.1495 H         1 ALA         0.0277
    113 H41        -9.5039   20.8225  -10.4224 H         1 ALA         0.0277
    114 H42        -9.0788   19.1033  -10.1214 H         1 ALA         0.0277
    115 H43        -5.4257   21.0354   -9.3314 H         1 VAL         0.1883
    116 H44        -5.8167   23.9682   -9.6181 H         1 VAL         0.0802
    117 H45        -3.2551   22.3215   -9.3339 H         1 VAL         0.0343
    118 H46        -2.1653   24.5178   -8.9710 H         1 VAL         0.0234
    119 H47        -3.7244   25.3428   -9.3103 H         1 VAL         0.0234
    120 H48        -2.9066   24.4011  -10.6030 H         1 VAL         0.0234
    121 H49        -4.6728   22.2916   -7.3047 H         1 VAL         0.0234
    122 H50        -4.7259   24.0870   -7.3196 H         1 VAL         0.0234
    123 H51        -3.1663   23.2369   -7.0522 H         1 VAL         0.0234
    124 H52        -6.3229   24.4694  -11.6522 H         1 ASP         0.1884
    125 H53        -6.3666   24.5257  -13.9488 H         1 ASP         0.0819
    126 H54        -3.3570   24.1310  -13.6817 H         1 ASP         0.0478
    127 H55        -4.1999   25.6685  -13.2917 H         1 ASP         0.0478
    128 H56        -7.5016   22.5639  -14.1784 H         1 CYS         0.1884
    129 H57        -5.8705   20.4504  -15.5165 H         1 CYS         0.0808
    130 H58        -7.5005   18.7735  -14.6398 H         1 CYS         0.0422
    131 H59        -8.2521   20.0681  -13.6469 H         1 CYS         0.0422
    132 H60        -6.4908   18.6902  -12.1420 H         1 CYS         0.1019
    133 H61        -8.6812   21.4200  -18.7746 H         1 PRO         0.0728
    134 H62        -6.8228   20.8115  -20.1272 H         1 PRO         0.0306
    135 H63        -7.9513   19.4897  -20.5810 H         1 PRO         0.0306
    136 H64        -5.5321   18.9274  -19.6167 H         1 PRO         0.0286
    137 H65        -6.9623   17.9651  -19.1117 H         1 PRO         0.0286
    138 H66        -6.2881   18.5873  -16.9834 H         1 PRO         0.0524
    139 H67        -5.3979   20.0292  -17.5793 H         1 PRO         0.0524
@<TRIPOS>BOND
     1    1    2 1  
     2    2    3 1  
     3    2    5 1  
     4    3    4 2  
     5    3   11 am 
     6    5    6 1  
     7    6    7 1  
     8    6    8 2  
     9    7    9 2  
    10    8   10 1  
    11    9   10 1  
    12   11   12 1  
    13   12   13 1  
    14   12   15 1  
    15   13   14 2  
    16   13   22 am 
    17   15   16 1  
    18   16   17 1  
    19   17   18 1  
    20   18   19 ar 
    21   19   20 ar 
    22   19   21 ar 
    23   22   23 1  
    24   23   24 1  
    25   23   26 1  
    26   24   25 2  
    27   24   31 am 
    28   26   27 1  
    29   27   28 1  
    30   28   29 ar 
    31   28   30 ar 
    32   31   32 1  
    33   32   33 1  
    34   32   35 1  
    35   33   34 2  
    36   33   39 am 
    37   35   36 1  
    38   36   37 1  
    39   37   38 1  
    40   39   40 1  
    41   40   41 1  
    42   40   43 1  
    43   41   42 2  
    44   41   44 am 
    45   44   45 1  
    46   45   46 1  
    47   45   48 1  
    48   46   47 2  
    49   46   51 am 
    50   48   49 1  
    51   48   50 1  
    52   51   52 1  
    53   52   53 1  
    54   52   55 1  
    55   53   54 2  
    56   53   59 am 
    57   55   56 1  
    58   56   57 ar 
    59   56   58 ar 
    60   59   60 1  
    61   60   61 1  
    62   60   63 1  
    63   61   62 2  
    64   61   65 am 
    65   63   64 1  
    66   65   66 1  
    67   65   71 1  
    68   66   67 1  
    69   66   69 1  
    70   67   68 ar 
    71   67   72 ar 
    72   69   70 1  
    73   70   71 1  
    74    1   73 1  
    75    1   74 1  
    76    1   75 1  
    77    2   76 1  
    78    5   77 1  
    79    5   78 1  
    80    8   79 1  
    81    9   80 1  
    82   10   81 1  
    83   11   82 1  
    84   12   83 1  
    85   15   84 1  
    86   15   85 1  
    87   16   86 1  
    88   16   87 1  
    89   17   88 1  
    90   17   89 1  
    91   18   90 1  
    92   20   91 1  
    93   20   92 1  
    94   21   93 1  
    95   21   94 1  
    96   22   95 1  
    97   23   96 1  
    98   26   97 1  
    99   26   98 1  
   100   27   99 1  
   101   27  100 1  
   102   31  101 1  
   103   32  102 1  
   104   35  103 1  
   105   35  104 1  
   106   36  105 1  
   107   36  106 1  
   108   38  107 1  
   109   38  108 1  
   110   38  109 1  
   111   39  110 1  
   112   40  111 1  
   113   43  112 1  
   114   43  113 1  
   115   43  114 1  
   116   44  115 1  
   117   45  116 1  
   118   48  117 1  
   119   49  118 1  
   120   49  119 1  
   121   49  120 1  
   122   50  121 1  
   123   50  122 1  
   124   50  123 1  
   125   51  124 1  
   126   52  125 1  
   127   55  126 1  
   128   55  127 1  
   129   59  128 1  
   130   60  129 1  
   131   63  130 1  
   132   63  131 1  
   133   64  132 1  
   134   66  133 1  
   135   69  134 1  
   136   69  135 1  
   137   70  136 1  
   138   70  137 1  
   139   71  138 1  
   140   71  139 1  
@<TRIPOS>SUBSTRUCTURE
     1 HIS         1

