### 
### Created by X-TOOL on Mon Sep 10 21:12:45 2018
### 

@<TRIPOS>MOLECULE
1lhf_ligand
   68    69     1     0     0
SMALL
GAST_HUCK


@<TRIPOS>ATOM
      1 B1         14.6550  -10.0450   18.7550 B         1 DI4         0.7163
      2 C          14.4440  -11.0370   19.9240 C.3       1 DI4         0.0532
      3 C2         13.3030  -10.4970   20.8200 C.3       1 DI4        -0.0388
      4 C3         12.2350  -11.5050   21.2300 C.3       1 DI4        -0.0520
      5 C4         12.3410  -12.0080   22.6520 C.3       1 DI4        -0.0482
      6 C5         11.1360  -11.6510   23.4080 C.3       1 DI4        -0.0126
      7 C6         10.6410  -12.3570   24.5400 C.3       1 DI4        -0.0354
      8 C7         17.6240  -12.8060   21.3610 C.3       1 DI4         0.1336
      9 C8         16.3620  -12.5120   20.4970 C.2       1 DI4         0.2010
     10 C9         18.9070  -12.7450   20.4950 C.3       1 DI4        -0.0104
     11 C10        19.3970  -14.1690   20.2580 C.3       1 DI4        -0.0281
     12 C11        18.6330  -15.0630   21.2110 C.3       1 DI4         0.0369
     13 C12        16.9010  -14.5890   22.9670 C.2       1 DI4         0.2085
     14 C13        17.4120  -15.9780   25.1380 C.3       1 DI4         0.0214
     15 C14        17.0000  -16.0110   23.6160 C.3       1 DI4         0.1406
     16 C15        15.6330  -17.9490   22.9330 C.2       1 DI4         0.1752
     17 C16        14.2660  -18.6080   22.8930 C.3       1 DI4         0.0258
     18 C17        21.2150  -15.3010   24.9640 C.ar      1 DI4        -0.0686
     19 C18        21.3540  -14.2650   25.8730 C.ar      1 DI4        -0.0687
     20 C19        20.2370  -13.7750   26.5520 C.ar      1 DI4        -0.0686
     21 C20        18.9770  -14.3250   26.3080 C.ar      1 DI4        -0.0601
     22 C21        18.8250  -15.3760   25.4060 C.ar      1 DI4        -0.0386
     23 C22        19.9550  -15.8530   24.7180 C.ar      1 DI4        -0.0601
     24 N          15.6600  -11.3750   20.7340 N.am      1 DI4        -0.2918
     25 N1         10.2990  -11.6700   25.7300 N.4       1 DI4         0.2185
     26 N2         17.6880  -14.1870   21.9360 N.am      1 DI4        -0.2497
     27 N3         15.6990  -16.6910   23.4190 N.am      1 DI4        -0.2640
     28 O          13.4340  -10.0080   17.9590 O.3       1 DI4        -0.4967
     29 O1         15.7240  -10.3260   17.8300 O.3       1 DI4        -0.4967
     30 O2         16.0480  -13.3280   19.6110 O.2       1 DI4        -0.3946
     31 O3         16.0840  -13.8150   23.4640 O.2       1 DI4        -0.3940
     32 O4         16.6510  -18.5460   22.5280 O.2       1 DI4        -0.3972
     33 H1         14.1007  -11.9824   19.4787 H         1 DI4         0.0431
     34 H2         12.8041   -9.6828   20.2739 H         1 DI4         0.0275
     35 H3         13.7578  -10.0977   21.7385 H         1 DI4         0.0275
     36 H4         12.3070  -12.3712   20.5558 H         1 DI4         0.0266
     37 H5         11.2514  -11.0275   21.1098 H         1 DI4         0.0266
     38 H6         13.2195  -11.5536   23.1334 H         1 DI4         0.0267
     39 H7         12.4529  -13.1022   22.6427 H         1 DI4         0.0267
     40 H8         10.3162  -11.6622   22.6746 H         1 DI4         0.0317
     41 H9         11.3030  -10.6208   23.7556 H         1 DI4         0.0317
     42 H10        11.4121  -13.0925   24.8129 H         1 DI4         0.0813
     43 H11         9.7332  -12.8829   24.2095 H         1 DI4         0.0813
     44 H12        17.6665  -12.0631   22.1711 H         1 DI4         0.0802
     45 H13        19.6824  -12.1681   21.0202 H         1 DI4         0.0313
     46 H14        18.6821  -12.2646   19.5314 H         1 DI4         0.0313
     47 H15        20.4762  -14.2360   20.4601 H         1 DI4         0.0287
     48 H16        19.1994  -14.4686   19.2182 H         1 DI4         0.0287
     49 H17        19.3244  -15.5447   21.9180 H         1 DI4         0.0524
     50 H18        18.0840  -15.8347   20.6516 H         1 DI4         0.0524
     51 H19        17.3982  -17.0089   25.5213 H         1 DI4         0.0474
     52 H20        16.6712  -15.3743   25.6827 H         1 DI4         0.0474
     53 H21        17.7742  -16.5783   23.0787 H         1 DI4         0.0823
     54 H22        14.3599  -19.6222   22.4775 H         1 DI4         0.0467
     55 H23        13.5907  -18.0136   22.2600 H         1 DI4         0.0467
     56 H24        13.8569  -18.6659   23.9124 H         1 DI4         0.0467
     57 H25        22.0849  -15.6841   24.4428 H         1 DI4         0.0599
     58 H26        22.3315  -13.8342   26.0573 H         1 DI4         0.0559
     59 H27        20.3477  -12.9685   27.2678 H         1 DI4         0.0599
     60 H28        18.1095  -13.9309   26.8249 H         1 DI4         0.0557
     61 H29        19.8481  -16.6524   23.9937 H         1 DI4         0.0557
     62 H30        15.9578  -10.7539   21.4589 H         1 DI4         0.1840
     63 H31         9.9698  -12.3306   26.4165 H         1 DI4         0.1994
     64 H32         9.5726  -10.9992   25.5338 H         1 DI4         0.1994
     65 H33        11.1111  -11.1912   26.0868 H         1 DI4         0.1994
     66 H34        14.8537  -16.2094   23.6503 H         1 DI4         0.1884
     67 H35        13.5069   -9.3268   17.3008 H         1 DI4         0.1667
     68 H36        16.5481  -10.3611   18.3013 H         1 DI4         0.1667
@<TRIPOS>BOND
     1    2    1 1  
     2    1   28 1  
     3    1   29 1  
     4    2    3 1  
     5   24    2 1  
     6    3    4 1  
     7    4    5 1  
     8    5    6 1  
     9    6    7 1  
    10    7   25 1  
    11    8    9 1  
    12    8   10 1  
    13   26    8 1  
    14    9   24 am 
    15    9   30 2  
    16   11   10 1  
    17   12   11 1  
    18   26   12 1  
    19   15   13 1  
    20   13   26 am 
    21   13   31 2  
    22   14   15 1  
    23   22   14 1  
    24   15   27 1  
    25   16   17 1  
    26   27   16 am 
    27   16   32 2  
    28   19   18 ar 
    29   18   23 ar 
    30   20   19 ar 
    31   21   20 ar 
    32   21   22 ar 
    33   22   23 ar 
    34    2   33 1  
    35    3   34 1  
    36    3   35 1  
    37    4   36 1  
    38    4   37 1  
    39    5   38 1  
    40    5   39 1  
    41    6   40 1  
    42    6   41 1  
    43    7   42 1  
    44    7   43 1  
    45    8   44 1  
    46   10   45 1  
    47   10   46 1  
    48   11   47 1  
    49   11   48 1  
    50   12   49 1  
    51   12   50 1  
    52   14   51 1  
    53   14   52 1  
    54   15   53 1  
    55   17   54 1  
    56   17   55 1  
    57   17   56 1  
    58   18   57 1  
    59   19   58 1  
    60   20   59 1  
    61   21   60 1  
    62   23   61 1  
    63   24   62 1  
    64   25   63 1  
    65   25   64 1  
    66   25   65 1  
    67   27   66 1  
    68   28   67 1  
    69   29   68 1  
@<TRIPOS>SUBSTRUCTURE
     1 DI4         1

