1lhf_ligand
  -I-interpret- 

 68 69  0  0  0  0  0  0  0  0999 V2000
   14.6550  -10.0450   18.7550 B   0  0  0  0  0
   14.4440  -11.0370   19.9240 C   0  0  0  0  0
   13.3030  -10.4970   20.8200 C   0  0  0  0  0
   12.2350  -11.5050   21.2300 C   0  0  0  0  0
   12.3410  -12.0080   22.6520 C   0  0  0  0  0
   11.1360  -11.6510   23.4080 C   0  0  0  0  0
   10.6410  -12.3570   24.5400 C   0  0  0  0  0
   17.6240  -12.8060   21.3610 C   0  0  0  0  0
   16.3620  -12.5120   20.4970 C   0  0  0  0  0
   18.9070  -12.7450   20.4950 C   0  0  0  0  0
   19.3970  -14.1690   20.2580 C   0  0  0  0  0
   18.6330  -15.0630   21.2110 C   0  0  0  0  0
   16.9010  -14.5890   22.9670 C   0  0  0  0  0
   17.4120  -15.9780   25.1380 C   0  0  0  0  0
   17.0000  -16.0110   23.6160 C   0  0  0  0  0
   15.6330  -17.9490   22.9330 C   0  0  0  0  0
   14.2660  -18.6080   22.8930 C   0  0  0  0  0
   21.2150  -15.3010   24.9640 C   0  0  0  0  0
   21.3540  -14.2650   25.8730 C   0  0  0  0  0
   20.2370  -13.7750   26.5520 C   0  0  0  0  0
   18.9770  -14.3250   26.3080 C   0  0  0  0  0
   18.8250  -15.3760   25.4060 C   0  0  0  0  0
   19.9550  -15.8530   24.7180 C   0  0  0  0  0
   15.6600  -11.3750   20.7340 N   0  0  0  0  0
   10.2990  -11.6700   25.7300 N   0  3  0  0  0
   17.6880  -14.1870   21.9360 N   0  0  0  0  0
   15.6990  -16.6910   23.4190 N   0  0  0  0  0
   13.4340  -10.0080   17.9590 O   0  0  0  0  0
   15.7240  -10.3260   17.8300 O   0  0  0  0  0
   16.0480  -13.3280   19.6110 O   0  0  0  0  0
   16.0840  -13.8150   23.4640 O   0  0  0  0  0
   16.6510  -18.5460   22.5280 O   0  0  0  0  0
   14.1814  -11.9923   19.4696 H   0  0  0  0  0
   12.7917   -9.7329   20.2345 H   0  0  0  0  0
   13.7743  -10.1603   21.7433 H   0  0  0  0  0
   12.3555  -12.3719   20.5804 H   0  0  0  0  0
   11.2746  -10.9961   21.1476 H   0  0  0  0  0
   13.2086  -11.5510   23.1279 H   0  0  0  0  0
   12.4453  -13.0929   22.6393 H   0  0  0  0  0
   10.3465  -11.8087   22.6733 H   0  0  0  0  0
   11.4092  -10.6871   23.8375 H   0  0  0  0  0
   11.4688  -13.0024   24.8339 H   0  0  0  0  0
    9.6973  -12.7813   24.1972 H   0  0  0  0  0
   17.5585  -12.0561   22.1493 H   0  0  0  0  0
   19.6757  -12.1670   21.0080 H   0  0  0  0  0
   18.6907  -12.2619   19.5421 H   0  0  0  0  0
   20.4699  -14.2427   20.4357 H   0  0  0  0  0
   19.2246  -14.4696   19.2246 H   0  0  0  0  0
   19.3087  -15.5669   21.9020 H   0  0  0  0  0
   18.1038  -15.8486   20.6718 H   0  0  0  0  0
   17.4310  -17.0101   25.4880 H   0  0  0  0  0
   16.6899  -15.3440   25.6525 H   0  0  0  0  0
   17.8006  -16.5638   23.1245 H   0  0  0  0  0
   14.0162  -18.8614   21.8627 H   0  0  0  0  0
   14.2834  -19.5148   23.4975 H   0  0  0  0  0
   13.5203  -17.9193   23.2902 H   0  0  0  0  0
   22.0897  -15.6862   24.4399 H   0  0  0  0  0
   22.3369  -13.8318   26.0584 H   0  0  0  0  0
   20.3483  -12.9640   27.2718 H   0  0  0  0  0
   18.1047  -13.9287   26.8277 H   0  0  0  0  0
   19.8475  -16.6568   23.9897 H   0  0  0  0  0
   15.9637  -10.7414   21.4734 H   0  0  0  0  0
    9.9660  -12.3394   26.4239 H   0  0  0  0  0
   11.1215  -11.1859   26.0901 H   0  0  0  0  0
    9.5640  -10.9916   25.5302 H   0  0  0  0  0
   14.8368  -16.1998   23.6549 H   0  0  0  0  0
   12.6858   -9.8228   18.5313 H   0  0  0  0  0
   16.5568  -10.3614   18.3063 H   0  0  0  0  0
  2  1  1  0  0  0
  1 28  1  0  0  0
  1 29  1  0  0  0
  2  3  1  0  0  0
 24  2  1  0  0  0
  3  4  1  0  0  0
  4  5  1  0  0  0
  5  6  1  0  0  0
  6  7  1  0  0  0
  7 25  1  0  0  0
  8  9  1  0  0  0
  8 10  1  0  0  0
 26  8  1  0  0  0
  9 24  1  0  0  0
  9 30  2  0  0  0
 11 10  1  0  0  0
 12 11  1  0  0  0
 26 12  1  0  0  0
 15 13  1  0  0  0
 13 26  1  0  0  0
 13 31  2  0  0  0
 14 15  1  0  0  0
 22 14  1  0  0  0
 15 27  1  0  0  0
 16 17  1  0  0  0
 27 16  1  0  0  0
 16 32  2  0  0  0
 19 18  4  0  0  0
 18 23  4  0  0  0
 20 19  4  0  0  0
 21 20  4  0  0  0
 21 22  4  0  0  0
 22 23  4  0  0  0
  2 33  1  0  0  0
  3 34  1  0  0  0
  3 35  1  0  0  0
  4 36  1  0  0  0
  4 37  1  0  0  0
  5 38  1  0  0  0
  5 39  1  0  0  0
  6 40  1  0  0  0
  6 41  1  0  0  0
  7 42  1  0  0  0
  7 43  1  0  0  0
  8 44  1  0  0  0
 10 45  1  0  0  0
 10 46  1  0  0  0
 11 47  1  0  0  0
 11 48  1  0  0  0
 12 49  1  0  0  0
 12 50  1  0  0  0
 14 51  1  0  0  0
 14 52  1  0  0  0
 15 53  1  0  0  0
 17 54  1  0  0  0
 17 55  1  0  0  0
 17 56  1  0  0  0
 18 57  1  0  0  0
 19 58  1  0  0  0
 20 59  1  0  0  0
 21 60  1  0  0  0
 23 61  1  0  0  0
 24 62  1  0  0  0
 25 63  1  0  0  0
 25 64  1  0  0  0
 25 65  1  0  0  0
 27 66  1  0  0  0
 28 67  1  0  0  0
 29 68  1  0  0  0
M  END
$$$$
