6r7r_ligand
  -I-interpret- 

 17 16  0  0  0  0  0  0  0  0999 V2000
   75.9480   24.0380  348.5790 N   0  3  0  0  0
   76.3830   22.7320  348.0790 C   0  0  0  0  0
   77.0450   22.7440  346.6730 C   0  0  0  0  0
   76.3920   22.2960  345.7460 O   0  0  0  0  0
   77.2530   22.0370  349.1270 C   0  0  0  0  0
   78.0090   23.0170  349.9710 C   0  0  0  0  0
   79.2210   22.8060  350.2070 O   0  0  0  0  0
   77.3790   24.0040  350.3990 O   0  0  0  0  0
   78.1760   23.1790  346.3800 O   0  0  0  0  0
   75.3687   24.4947  347.8746 H   0  0  0  0  0
   75.4077   23.9104  349.4347 H   0  0  0  0  0
   76.7658   24.6154  348.7748 H   0  0  0  0  0
   75.4737   22.1523  347.9200 H   0  0  0  0  0
   77.9753   21.4081  348.6066 H   0  0  0  0  0
   76.6008   21.4575  349.7804 H   0  0  0  0  0
   79.4922   21.9912  349.7780 H   0  0  0  0  0
   78.6067   23.5071  347.1728 H   0  0  0  0  0
  1  2  1  0  0  0
  2  3  1  0  0  0
  2  5  1  0  0  0
  3  4  2  0  0  0
  3  9  1  0  0  0
  5  6  1  0  0  0
  6  7  1  0  0  0
  6  8  2  0  0  0
  1 10  1  0  0  0
  1 11  1  0  0  0
  1 12  1  0  0  0
  2 13  1  0  0  0
  5 14  1  0  0  0
  5 15  1  0  0  0
  7 16  1  0  0  0
  9 17  1  0  0  0
M  END
$$$$
