6eyz_ligand
  -I-interpret- 

 63 67  0  0  0  0  0  0  0  0999 V2000
   -8.2520  -31.3610   23.9570 C   0  0  0  0  0
   -6.9600  -31.5880   24.4290 C   0  0  0  0  0
   -6.3840  -32.9240   24.2220 C   0  0  0  0  0
   -6.0210  -34.9640   23.7950 C   0  0  0  0  0
   -3.5030  -35.0040   24.5020 C   0  0  0  0  0
   -1.1460  -35.0550   23.9940 C   0  0  0  0  0
   -0.1280  -35.1450   22.8690 C   0  0  0  0  0
   -0.2560  -34.0040   21.9420 N   0  3  0  0  0
  -10.9240  -30.7920   19.5430 O   0  0  0  0  0
    0.7980  -32.6720   20.1410 C   0  0  0  0  0
   -4.8400  -34.4500   24.1560 C   0  0  0  0  0
  -13.9300  -29.3140   21.9000 O   0  0  0  0  0
  -10.2480  -29.9590   23.5740 C   0  0  0  0  0
  -14.9050  -28.6130   22.6690 C   0  0  0  0  0
   -8.8870  -30.1210   24.1190 C   0  0  0  0  0
  -12.7350  -29.5700   22.4800 C   0  0  0  0  0
  -11.3330  -29.4970   24.2960 C   0  0  0  0  0
   -6.9360  -29.2860   25.2390 C   0  0  0  0  0
  -10.4530  -30.2420   22.2310 C   0  0  0  0  0
    2.0610  -34.5940   21.1270 C   0  0  0  0  0
    0.6760  -34.0360   20.7930 C   0  0  0  0  0
   -6.3060  -30.5280   25.0780 C   0  0  0  0  0
   -4.8680  -29.1730   26.1580 N   0  0  0  0  0
   -5.0320  -30.3900   25.6730 C   0  0  0  0  0
   -1.6360  -33.8850   21.4470 C   0  0  0  0  0
   -5.0510  -33.1080   24.4100 O   0  0  0  0  0
   -2.6170  -33.8100   22.5980 C   0  0  0  0  0
  -11.8350  -30.2970   20.2000 C   0  0  0  0  0
   -2.5030  -34.9970   23.4430 N   0  3  0  0  0
   -8.2280  -29.0670   24.7630 C   0  0  0  0  0
   -6.0220  -28.4960   25.8990 N   0  0  0  0  0
   -7.0060  -34.0000   23.8570 N   0  0  0  0  0
  -12.5490  -29.3060   23.7680 N   0  0  0  0  0
  -11.6960  -30.0530   21.6440 C   0  0  0  0  0
   -8.7818  -32.1672   23.4495 H   0  0  0  0  0
   -6.1825  -35.9991   23.4941 H   0  0  0  0  0
   -3.6666  -36.0513   24.7558 H   0  0  0  0  0
   -3.1083  -34.3677   25.2941 H   0  0  0  0  0
   -0.9574  -34.1525   24.5753 H   0  0  0  0  0
   -1.0555  -35.9361   24.6292 H   0  0  0  0  0
   -0.3034  -36.0663   22.3135 H   0  0  0  0  0
    0.8720  -35.1310   23.3024 H   0  0  0  0  0
   -0.0023  -33.1867   22.4970 H   0  0  0  0  0
   -0.1811  -32.3524   19.7841 H   0  0  0  0  0
    1.1723  -31.9540   20.8708 H   0  0  0  0  0
    1.4902  -32.7327   19.3012 H   0  0  0  0  0
  -15.1392  -29.1862   23.5660 H   0  0  0  0  0
  -14.5096  -27.6376   22.9525 H   0  0  0  0  0
  -15.8089  -28.4812   22.0742 H   0  0  0  0  0
  -11.1908  -29.2759   25.3538 H   0  0  0  0  0
   -9.6260  -30.6180   21.6288 H   0  0  0  0  0
    2.5231  -33.9781   21.8985 H   0  0  0  0  0
    1.9614  -35.6174   21.4886 H   0  0  0  0  0
    2.6816  -34.5826   20.2310 H   0  0  0  0  0
    0.2297  -34.7337   20.0844 H   0  0  0  0  0
   -4.2848  -31.1819   25.7247 H   0  0  0  0  0
   -1.8693  -34.7623   20.8436 H   0  0  0  0  0
   -1.7192  -32.9735   20.8550 H   0  0  0  0  0
   -3.6296  -33.7547   22.1983 H   0  0  0  0  0
   -2.3956  -32.9260   23.1960 H   0  0  0  0  0
  -12.7679  -30.0323   19.7023 H   0  0  0  0  0
   -2.6773  -35.8267   22.8759 H   0  0  0  0  0
   -8.7130  -28.0991   24.8892 H   0  0  0  0  0
  1  2  4  0  0  0
 15  1  4  0  0  0
  2  3  1  0  0  0
  2 22  4  0  0  0
  3 26  4  0  0  0
  3 32  4  0  0  0
  4 11  4  0  0  0
 32  4  4  0  0  0
 11  5  1  0  0  0
  5 29  1  0  0  0
  6  7  1  0  0  0
 29  6  1  0  0  0
  7  8  1  0  0  0
  8 21  1  0  0  0
 25  8  1  0  0  0
 28  9  2  0  0  0
 21 10  1  0  0  0
 26 11  4  0  0  0
 12 14  1  0  0  0
 16 12  1  0  0  0
 13 15  1  0  0  0
 13 17  4  0  0  0
 19 13  4  0  0  0
 15 30  4  0  0  0
 16 33  4  0  0  0
 34 16  4  0  0  0
 33 17  4  0  0  0
 18 22  4  0  0  0
 30 18  4  0  0  0
 18 31  4  0  0  0
 34 19  4  0  0  0
 21 20  1  0  0  0
 22 24  4  0  0  0
 23 24  4  0  0  0
 31 23  4  0  0  0
 27 25  1  0  0  0
 29 27  1  0  0  0
 28 34  1  0  0  0
  1 35  1  0  0  0
  4 36  1  0  0  0
  5 37  1  0  0  0
  5 38  1  0  0  0
  6 39  1  0  0  0
  6 40  1  0  0  0
  7 41  1  0  0  0
  7 42  1  0  0  0
  8 43  1  0  0  0
 10 44  1  0  0  0
 10 45  1  0  0  0
 10 46  1  0  0  0
 14 47  1  0  0  0
 14 48  1  0  0  0
 14 49  1  0  0  0
 17 50  1  0  0  0
 19 51  1  0  0  0
 20 52  1  0  0  0
 20 53  1  0  0  0
 20 54  1  0  0  0
 21 55  1  0  0  0
 24 56  1  0  0  0
 25 57  1  0  0  0
 25 58  1  0  0  0
 27 59  1  0  0  0
 27 60  1  0  0  0
 28 61  1  0  0  0
 29 62  1  0  0  0
 30 63  1  0  0  0
M  END
$$$$
