6saf_ligand
  -I-interpret- 

105110  0  0  0  0  0  0  0  0999 V2000
    9.8770   -2.9150   26.0090 C   0  0  0  0  0
    9.9510   -3.0900   24.4920 C   0  0  0  0  0
   11.2140   -3.8310   24.0500 C   0  0  0  0  0
   11.1360   -5.2410   24.5830 C   0  0  0  0  0
   11.1040   -5.1440   26.1810 C   0  0  0  0  0
    9.8370   -4.3110   26.6540 C   0  0  0  0  0
    9.6870   -4.2020   28.0600 C   0  0  0  0  0
   10.5310   -4.6890   28.8040 O   0  0  0  0  0
    8.5820   -3.5620   28.6190 C   0  0  0  0  0
    8.5450   -2.1080   28.0410 C   0  0  0  0  0
    8.6260   -2.1120   26.4850 C   0  0  0  0  0
    8.6140   -0.6210   25.9640 C   0  0  0  0  0
    9.6970   -0.0740   25.6850 O   0  0  0  0  0
    7.4020    0.0150   25.7950 N   0  0  0  0  0
    6.0840   -0.5420   26.1670 C   0  0  0  0  0
    5.0990   -0.3080   25.1820 C   0  0  0  0  0
    4.9250    1.1440   25.0400 C   0  0  0  0  0
    6.1700    1.7060   24.4280 C   0  0  0  0  0
    7.3940    1.4250   25.3260 C   0  0  0  0  0
    7.4800    2.3950   26.4120 C   0  0  0  0  0
    7.7840    3.5550   26.1350 O   0  0  0  0  0
    7.2430    1.9450   27.7170 O   0  0  0  0  0
    6.9960    2.9400   28.8020 C   0  0  0  0  0
    8.3560    3.1180   29.4490 C   0  0  0  0  0
    8.3170    4.3850   30.2800 C   0  0  0  0  0
    8.8620    5.5300   29.5790 C   0  0  0  0  0
   10.2190    5.6030   29.2510 C   0  0  0  0  0
    8.0430    6.6140   29.2550 C   0  0  0  0  0
    8.5430    7.7330   28.5970 C   0  0  0  0  0
    9.9050    7.8000   28.2570 C   0  0  0  0  0
   10.4560    8.8760   27.6130 O   0  0  0  0  0
    9.6730   10.0980   27.5460 C   0  0  0  0  0
   10.7480    6.7050   28.5890 C   0  0  0  0  0
   12.1060    6.6600   28.3210 O   0  0  0  0  0
   12.8270    7.5970   27.5040 C   0  0  0  0  0
    5.9220    2.4540   29.6100 C   0  0  0  0  0
    4.7170    3.1590   29.7140 C   0  0  0  0  0
    6.0150    1.2090   30.2330 C   0  0  0  0  0
    4.9710    0.6710   30.9740 C   0  0  0  0  0
    3.7880    1.3840   31.0860 C   0  0  0  0  0
    3.6540    2.6360   30.4550 C   0  0  0  0  0
    2.4410    3.2480   30.6270 O   0  0  0  0  0
    2.0280    4.5860   30.2650 C   0  0  0  0  0
    1.4060    5.0880   31.5650 C   0  0  0  0  0
    0.4430    6.1770   31.3130 N   0  3  0  0  0
   -1.0160    5.9590   31.2260 C   0  0  0  0  0
   -1.7320    5.4060   32.4530 C   0  0  0  0  0
   -1.3320    6.1470   33.6770 O   0  0  0  0  0
    0.0540    6.4330   33.8750 C   0  0  0  0  0
    0.5490    7.0710   32.5260 C   0  0  0  0  0
   10.7546   -2.3433   26.3109 H   0  0  0  0  0
    9.9663   -2.0987   24.0390 H   0  0  0  0  0
    9.0885   -3.6780   24.1784 H   0  0  0  0  0
   12.1007   -3.3296   24.4378 H   0  0  0  0  0
   11.2836   -3.8422   22.9623 H   0  0  0  0  0
   11.9953   -5.8240   24.2516 H   0  0  0  0  0
   10.2422   -5.7422   24.2115 H   0  0  0  0  0
   12.0090   -4.6444   26.5266 H   0  0  0  0  0
   11.0466   -6.1492   26.5986 H   0  0  0  0  0
    8.9633   -4.8707   26.3201 H   0  0  0  0  0
    8.6612   -3.5402   29.7059 H   0  0  0  0  0
    7.6645   -4.0959   28.3718 H   0  0  0  0  0
    9.4022   -1.5589   28.4307 H   0  0  0  0  0
    7.6054   -1.6417   28.3373 H   0  0  0  0  0
    7.7588   -2.6171   26.0597 H   0  0  0  0  0
    5.7612   -0.0550   27.0871 H   0  0  0  0  0
    6.1952   -1.6203   26.2812 H   0  0  0  0  0
    4.1572   -0.7704   25.4775 H   0  0  0  0  0
    5.4097   -0.7422   24.2317 H   0  0  0  0  0
    4.7489    1.5977   26.0153 H   0  0  0  0  0
    4.0654    1.3583   24.4050 H   0  0  0  0  0
    6.0532    2.7842   24.3186 H   0  0  0  0  0
    6.3292    1.2355   23.4578 H   0  0  0  0  0
    8.2989    1.5515   24.7316 H   0  0  0  0  0
    6.6499    3.9305   28.5067 H   0  0  0  0  0
    9.1298    3.1924   28.6849 H   0  0  0  0  0
    8.5878    2.2604   30.0805 H   0  0  0  0  0
    8.9217    4.2194   31.1716 H   0  0  0  0  0
    7.2743    4.6004   30.5133 H   0  0  0  0  0
   10.8772    4.7770   29.5205 H   0  0  0  0  0
    6.9872    6.5824   29.5241 H   0  0  0  0  0
    7.8777    8.5588   28.3448 H   0  0  0  0  0
    8.7370    9.9001   27.0236 H   0  0  0  0  0
    9.4599   10.4473   28.5563 H   0  0  0  0  0
   10.2367   10.8602   27.0080 H   0  0  0  0  0
   12.4152    7.5892   26.4948 H   0  0  0  0  0
   12.7316    8.5962   27.9290 H   0  0  0  0  0
   13.8790    7.3138   27.4708 H   0  0  0  0  0
    4.6074    4.1214   29.2141 H   0  0  0  0  0
    6.9389    0.6391   30.1347 H   0  0  0  0  0
    5.0805   -0.2982   31.4606 H   0  0  0  0  0
    2.9592    0.9749   31.6638 H   0  0  0  0  0
    1.3409    4.6120   29.4192 H   0  0  0  0  0
    2.8481    5.2098   29.9095 H   0  0  0  0  0
    2.2012    5.4693   32.2056 H   0  0  0  0  0
    0.8780    4.2607   32.0392 H   0  0  0  0  0
    0.7136    6.4777   30.3766 H   0  0  0  0  0
   -1.1498    5.2059   30.4495 H   0  0  0  0  0
   -1.4464    6.9467   31.0610 H   0  0  0  0  0
   -1.4623    4.3568   32.5738 H   0  0  0  0  0
   -2.8072    5.5161   32.3115 H   0  0  0  0  0
    0.6163    5.5321   34.1204 H   0  0  0  0  0
    0.2057    7.1098   34.7159 H   0  0  0  0  0
   -0.0898    7.9334   32.3353 H   0  0  0  0  0
    1.6075    7.2960   32.6567 H   0  0  0  0  0
  1  2  1  0  0  0
  1  6  1  0  0  0
  1 11  1  0  0  0
  2  3  1  0  0  0
  3  4  1  0  0  0
  4  5  1  0  0  0
  5  6  1  0  0  0
  6  7  1  0  0  0
  7  8  2  0  0  0
  7  9  1  0  0  0
  9 10  1  0  0  0
 10 11  1  0  0  0
 11 12  1  0  0  0
 12 13  2  0  0  0
 12 14  1  0  0  0
 14 15  1  0  0  0
 14 19  1  0  0  0
 15 16  1  0  0  0
 16 17  1  0  0  0
 17 18  1  0  0  0
 18 19  1  0  0  0
 19 20  1  0  0  0
 20 21  2  0  0  0
 20 22  1  0  0  0
 22 23  1  0  0  0
 23 24  1  0  0  0
 23 36  1  0  0  0
 24 25  1  0  0  0
 25 26  1  0  0  0
 26 27  4  0  0  0
 26 28  4  0  0  0
 27 33  4  0  0  0
 28 29  4  0  0  0
 29 30  4  0  0  0
 30 31  1  0  0  0
 30 33  4  0  0  0
 31 32  1  0  0  0
 33 34  1  0  0  0
 34 35  1  0  0  0
 36 37  4  0  0  0
 36 38  4  0  0  0
 37 41  4  0  0  0
 38 39  4  0  0  0
 39 40  4  0  0  0
 40 41  4  0  0  0
 41 42  1  0  0  0
 42 43  1  0  0  0
 43 44  1  0  0  0
 44 45  1  0  0  0
 45 46  1  0  0  0
 45 50  1  0  0  0
 46 47  1  0  0  0
 47 48  1  0  0  0
 48 49  1  0  0  0
 49 50  1  0  0  0
  1 51  1  0  0  0
  2 52  1  0  0  0
  2 53  1  0  0  0
  3 54  1  0  0  0
  3 55  1  0  0  0
  4 56  1  0  0  0
  4 57  1  0  0  0
  5 58  1  0  0  0
  5 59  1  0  0  0
  6 60  1  0  0  0
  9 61  1  0  0  0
  9 62  1  0  0  0
 10 63  1  0  0  0
 10 64  1  0  0  0
 11 65  1  0  0  0
 15 66  1  0  0  0
 15 67  1  0  0  0
 16 68  1  0  0  0
 16 69  1  0  0  0
 17 70  1  0  0  0
 17 71  1  0  0  0
 18 72  1  0  0  0
 18 73  1  0  0  0
 19 74  1  0  0  0
 23 75  1  0  0  0
 24 76  1  0  0  0
 24 77  1  0  0  0
 25 78  1  0  0  0
 25 79  1  0  0  0
 27 80  1  0  0  0
 28 81  1  0  0  0
 29 82  1  0  0  0
 32 83  1  0  0  0
 32 84  1  0  0  0
 32 85  1  0  0  0
 35 86  1  0  0  0
 35 87  1  0  0  0
 35 88  1  0  0  0
 37 89  1  0  0  0
 38 90  1  0  0  0
 39 91  1  0  0  0
 40 92  1  0  0  0
 43 93  1  0  0  0
 43 94  1  0  0  0
 44 95  1  0  0  0
 44 96  1  0  0  0
 45 97  1  0  0  0
 46 98  1  0  0  0
 46 99  1  0  0  0
 47100  1  0  0  0
 47101  1  0  0  0
 49102  1  0  0  0
 49103  1  0  0  0
 50104  1  0  0  0
 50105  1  0  0  0
M  END
$$$$
