1tnj_ligand
  -I-interpret- 

 21 21  0  0  0  0  0  0  0  0999 V2000
   29.4980   14.9640   16.4240 C   0  0  0  0  0
   28.8830   15.4530   17.5640 C   0  0  0  0  0
   28.6850   14.6200   18.6580 C   0  0  0  0  0
   29.1020   13.2960   18.6070 C   0  0  0  0  0
   29.7170   12.8040   17.4580 C   0  0  0  0  0
   29.9120   13.6370   16.3670 C   0  0  0  0  0
   29.7390   15.8900   15.2570 C   0  0  0  0  0
   29.0950   15.4330   13.9710 C   0  0  0  0  0
   29.9900   14.9120   12.9550 N   0  3  0  0  0
   28.5542   16.4915   17.6031 H   0  0  0  0  0
   28.2025   15.0053   19.5562 H   0  0  0  0  0
   28.9481   12.6424   19.4656 H   0  0  0  0  0
   30.0446   11.7652   17.4167 H   0  0  0  0  0
   30.3892   13.2526   15.4655 H   0  0  0  0  0
   30.8151   15.9237   15.0867 H   0  0  0  0  0
   29.3021   16.8552   15.5133 H   0  0  0  0  0
   28.6232   16.3147   13.5373 H   0  0  0  0  0
   28.4292   14.6127   14.2392 H   0  0  0  0  0
   29.4486   14.6359   12.1359 H   0  0  0  0  0
   30.6615   15.6336   12.6927 H   0  0  0  0  0
   30.4870   14.1015   13.3246 H   0  0  0  0  0
  1  2  4  0  0  0
  1  6  4  0  0  0
  1  7  1  0  0  0
  2  3  4  0  0  0
  3  4  4  0  0  0
  4  5  4  0  0  0
  6  5  4  0  0  0
  7  8  1  0  0  0
  8  9  1  0  0  0
  2 10  1  0  0  0
  3 11  1  0  0  0
  4 12  1  0  0  0
  5 13  1  0  0  0
  6 14  1  0  0  0
  7 15  1  0  0  0
  7 16  1  0  0  0
  8 17  1  0  0  0
  8 18  1  0  0  0
  9 19  1  0  0  0
  9 20  1  0  0  0
  9 21  1  0  0  0
M  END
$$$$
