5d3l_ligand
  -I-interpret- 

 58 59  0  0  0  0  0  0  0  0999 V2000
   15.7590  -10.2830   -5.0850 C   0  0  0  0  0
   16.4120  -10.0180   -6.4230 C   0  0  0  0  0
   15.3240   -9.6760   -7.4240 C   0  0  0  0  0
   14.4380  -10.5410   -8.0880 C   0  0  0  0  0
   13.5460   -9.7080   -8.9390 C   0  0  0  0  0
   19.1530   -2.4580   -4.3130 C   0  0  0  0  0
   14.9080   -8.3250   -7.8990 C   0  0  0  0  0
   15.5360   -7.0170   -7.5540 C   0  0  0  0  0
   16.9100   -5.7240   -6.0260 C   0  0  0  0  0
   17.2250   -4.6150   -6.8310 C   0  0  0  0  0
   17.9540   -3.5190   -6.3050 C   0  0  0  0  0
   18.3730   -3.5660   -4.9780 C   0  0  0  0  0
   18.0680   -4.6600   -4.1940 C   0  0  0  0  0
   17.3370   -5.7280   -4.7080 C   0  0  0  0  0
   14.3160  -12.0370   -8.0540 C   0  0  0  0  0
   12.4380  -10.1470   -9.8590 C   0  0  0  0  0
   15.5480  -12.8310   -7.7560 C   0  0  0  0  0
   20.5310   -0.3350   -8.7620 C   0  0  0  0  0
   21.7310   -3.7650   -8.1250 C   0  0  0  0  0
   20.6000   -1.0850   -7.4590 C   0  0  0  0  0
   20.2950   -3.4140   -8.4370 C   0  0  0  0  0
   13.9070   -8.4400   -8.7820 N   0  0  0  0  0
   16.1770   -6.8280   -6.3960 N   0  0  0  0  0
   19.7710   -2.2710   -7.6690 N   0  0  0  0  0
   13.2290  -12.5700   -8.3040 O   0  0  0  0  0
   15.4460   -6.1720   -8.4290 O   0  0  0  0  0
   17.9620   -1.0330   -6.5570 O   0  0  0  0  0
   17.6200   -2.3990   -8.4870 O   0  0  0  0  0
   17.0530   -6.7910   -3.9120 O   0  0  0  0  0
   18.2970   -2.2570   -7.2420 S   0  0  0  0  0
   15.2198   -9.3923   -4.7625 H   0  0  0  0  0
   15.0626  -11.1161   -5.1806 H   0  0  0  0  0
   16.5255  -10.5310   -4.3508 H   0  0  0  0  0
   16.9601  -10.9004   -6.7531 H   0  0  0  0  0
   17.1161   -9.1902   -6.3383 H   0  0  0  0  0
   20.0921   -2.3064   -4.8452 H   0  0  0  0  0
   18.5679   -1.5386   -4.3368 H   0  0  0  0  0
   19.3603   -2.7316   -3.2785 H   0  0  0  0  0
   16.9046   -4.5979   -7.8727 H   0  0  0  0  0
   18.4041   -4.6885   -3.1575 H   0  0  0  0  0
   12.8444  -10.8054  -10.6268 H   0  0  0  0  0
   11.6806  -10.6806   -9.2847 H   0  0  0  0  0
   11.9897   -9.2718  -10.3292 H   0  0  0  0  0
   15.3758  -13.4497   -6.8753 H   0  0  0  0  0
   15.7833  -13.4679   -8.6087 H   0  0  0  0  0
   16.3796  -12.1520   -7.5676 H   0  0  0  0  0
   20.9192   -0.9642   -9.5629 H   0  0  0  0  0
   19.4946   -0.0726   -8.9743 H   0  0  0  0  0
   21.1294    0.5731   -8.6892 H   0  0  0  0  0
   22.3693   -2.9100   -8.3479 H   0  0  0  0  0
   21.8200   -4.0210   -7.0692 H   0  0  0  0  0
   22.0361   -4.6163   -8.7336 H   0  0  0  0  0
   20.2435   -0.4824   -6.6236 H   0  0  0  0  0
   21.6245   -1.3466   -7.1942 H   0  0  0  0  0
   19.6884   -4.2813   -8.1763 H   0  0  0  0  0
   20.2532   -3.1391   -9.4909 H   0  0  0  0  0
   16.1161   -7.5835   -5.7135 H   0  0  0  0  0
   17.4156   -6.6394   -3.0361 H   0  0  0  0  0
  2  1  1  0  0  0
  3  2  1  0  0  0
  3  4  4  0  0  0
  7  3  4  0  0  0
  5  4  4  0  0  0
  4 15  1  0  0  0
  5 16  1  0  0  0
 22  5  4  0  0  0
 12  6  1  0  0  0
  8  7  1  0  0  0
  7 22  4  0  0  0
 23  8  1  0  0  0
  8 26  2  0  0  0
 10  9  4  0  0  0
  9 14  4  0  0  0
  9 23  1  0  0  0
 11 10  4  0  0  0
 11 12  4  0  0  0
 30 11  1  0  0  0
 12 13  4  0  0  0
 13 14  4  0  0  0
 14 29  1  0  0  0
 15 17  1  0  0  0
 15 25  2  0  0  0
 20 18  1  0  0  0
 21 19  1  0  0  0
 24 20  1  0  0  0
 24 21  1  0  0  0
 24 30  1  0  0  0
 30 27  2  0  0  0
 30 28  2  0  0  0
  1 31  1  0  0  0
  1 32  1  0  0  0
  1 33  1  0  0  0
  2 34  1  0  0  0
  2 35  1  0  0  0
  6 36  1  0  0  0
  6 37  1  0  0  0
  6 38  1  0  0  0
 10 39  1  0  0  0
 13 40  1  0  0  0
 16 41  1  0  0  0
 16 42  1  0  0  0
 16 43  1  0  0  0
 17 44  1  0  0  0
 17 45  1  0  0  0
 17 46  1  0  0  0
 18 47  1  0  0  0
 18 48  1  0  0  0
 18 49  1  0  0  0
 19 50  1  0  0  0
 19 51  1  0  0  0
 19 52  1  0  0  0
 20 53  1  0  0  0
 20 54  1  0  0  0
 21 55  1  0  0  0
 21 56  1  0  0  0
 23 57  1  0  0  0
 29 58  1  0  0  0
M  END
$$$$
