5v41_ligand
  -I-interpret- 

 52 55  0  0  0  0  0  0  0  0999 V2000
    6.3440   27.8240    6.6360 O   0  0  0  0  0
    5.6790   26.8310    6.3940 C   0  0  0  0  0
    6.0600   26.0200    5.3800 O   0  0  0  0  0
    7.2310   26.3900    4.6060 C   0  0  0  0  0
    7.7530   25.1600    3.8640 C   0  0  0  0  0
    4.4540   26.5040    7.1530 C   0  0  0  0  0
    3.3810   27.4260    7.6530 C   0  0  0  0  0
    3.1180   28.8110    7.6410 C   0  0  0  0  0
    1.9580   29.2970    8.2430 C   0  0  0  0  0
    1.6830   30.6300    8.2460 O   0  0  0  0  0
    1.0600   28.4450    8.8720 C   0  0  0  0  0
    1.3080   27.0930    8.8920 C   0  0  0  0  0
    2.4530   26.5780    8.2910 C   0  0  0  0  0
    2.8910   25.3130    8.1910 O   0  0  0  0  0
    4.0510   25.2210    7.5360 C   0  0  0  0  0
    4.7290   23.9180    7.3140 C   0  0  0  0  0
    6.1240   23.7890    7.3490 C   0  0  0  0  0
    6.7310   22.5650    7.1500 C   0  0  0  0  0
    5.9570   21.4370    6.9400 C   0  0  0  0  0
    4.5760   21.5450    6.9230 C   0  0  0  0  0
    3.9620   22.7690    7.1150 C   0  0  0  0  0
    4.0540   29.8090    6.9940 C   0  0  0  0  0
    5.1450   30.1720    7.9360 N   0  3  0  0  0
    4.6550   30.7980    9.1830 C   0  0  0  0  0
    5.7720   31.3400   10.0810 C   0  0  0  0  0
    6.6560   32.1820    9.3330 O   0  0  0  0  0
    7.2580   31.5180    8.2190 C   0  0  0  0  0
    6.1820   30.9770    7.2650 C   0  0  0  0  0
    8.0048   26.7703    5.2729 H   0  0  0  0  0
    6.9642   27.1647    3.8871 H   0  0  0  0  0
    8.0200   24.3880    4.5857 H   0  0  0  0  0
    6.9774   24.7832    3.1972 H   0  0  0  0  0
    8.6326   25.4347    3.2817 H   0  0  0  0  0
    0.8512   30.7830    8.7001 H   0  0  0  0  0
    0.1643   28.8455    9.3468 H   0  0  0  0  0
    0.6038   26.4202    9.3814 H   0  0  0  0  0
    6.7395   24.6689    7.5363 H   0  0  0  0  0
    7.8182   22.4872    7.1583 H   0  0  0  0  0
    6.4321   20.4677    6.7886 H   0  0  0  0  0
    3.9673   20.6562    6.7566 H   0  0  0  0  0
    2.8741   22.8368    7.1109 H   0  0  0  0  0
    3.4940   30.7068    6.7325 H   0  0  0  0  0
    4.4880   29.3637    6.0988 H   0  0  0  0  0
    5.5810   29.2986    8.2319 H   0  0  0  0  0
    4.1272   30.0295    9.7477 H   0  0  0  0  0
    4.0271   31.6424    8.8987 H   0  0  0  0  0
    6.3397   30.5012   10.4838 H   0  0  0  0  0
    5.3259   31.9233   10.8865 H   0  0  0  0  0
    7.8557   30.6838    8.5863 H   0  0  0  0  0
    7.8826   32.2298    7.6793 H   0  0  0  0  0
    5.6859   31.8358    6.8129 H   0  0  0  0  0
    6.6814   30.3295    6.5443 H   0  0  0  0  0
  1  2  2  0  0  0
  2  3  1  0  0  0
  2  6  1  0  0  0
  3  4  1  0  0  0
  4  5  1  0  0  0
  6  7  4  0  0  0
  6 15  4  0  0  0
  7  8  4  0  0  0
  7 13  4  0  0  0
  8  9  4  0  0  0
  8 22  1  0  0  0
  9 10  1  0  0  0
  9 11  4  0  0  0
 11 12  4  0  0  0
 12 13  4  0  0  0
 13 14  4  0  0  0
 14 15  4  0  0  0
 15 16  1  0  0  0
 16 17  4  0  0  0
 16 21  4  0  0  0
 17 18  4  0  0  0
 18 19  4  0  0  0
 19 20  4  0  0  0
 20 21  4  0  0  0
 22 23  1  0  0  0
 23 24  1  0  0  0
 23 28  1  0  0  0
 24 25  1  0  0  0
 25 26  1  0  0  0
 26 27  1  0  0  0
 27 28  1  0  0  0
  4 29  1  0  0  0
  4 30  1  0  0  0
  5 31  1  0  0  0
  5 32  1  0  0  0
  5 33  1  0  0  0
 10 34  1  0  0  0
 11 35  1  0  0  0
 12 36  1  0  0  0
 17 37  1  0  0  0
 18 38  1  0  0  0
 19 39  1  0  0  0
 20 40  1  0  0  0
 21 41  1  0  0  0
 22 42  1  0  0  0
 22 43  1  0  0  0
 23 44  1  0  0  0
 24 45  1  0  0  0
 24 46  1  0  0  0
 25 47  1  0  0  0
 25 48  1  0  0  0
 27 49  1  0  0  0
 27 50  1  0  0  0
 28 51  1  0  0  0
 28 52  1  0  0  0
M  END
$$$$
