5mja_ligand
  -I-interpret- 

 36 38  0  0  0  0  0  0  0  0999 V2000
    0.3120   47.8340  -11.2090 C   0  0  0  0  0
   -1.1010   47.8290  -11.3360 C   0  0  0  0  0
   -1.8200   48.9890  -10.9390 C   0  0  0  0  0
    1.9520   53.1790   -8.8970 C   0  0  0  0  0
   -3.7940   47.9500  -11.4280 C   0  0  0  0  0
   -1.9040   46.7260  -11.8090 C   0  0  0  0  0
   -1.7860   44.3260  -12.6430 C   0  0  0  0  0
   -1.7000   43.2030  -11.8190 C   0  0  0  0  0
   -2.1240   41.9580  -12.2760 C   0  0  0  0  0
   -2.6660   41.8230  -13.5490 C   0  0  0  0  0
   -2.7150   42.9150  -14.3940 C   0  0  0  0  0
   -2.2850   44.1570  -13.9430 C   0  0  0  0  0
   -2.3560   45.5100  -15.0260 Cl  0  0  0  0  0
   -2.0560   40.8910  -11.4290 O   0  0  0  0  0
   -1.2940   45.5840  -12.2280 N   0  0  0  0  0
   -3.2400   46.8070  -11.8630 N   0  0  0  0  0
   -3.1880   49.0550  -10.9870 N   0  0  0  0  0
   -1.1110   50.0930  -10.4070 C   0  0  0  0  0
    0.2700   50.0810  -10.3480 C   0  0  0  0  0
    0.9660   48.9320  -10.7360 C   0  0  0  0  0
    1.1060   51.1050   -9.8130 N   0  0  0  0  0
    0.8590   52.4300   -9.6370 C   0  0  0  0  0
   -0.1540   53.0220  -10.0260 O   0  0  0  0  0
    3.0300   52.1740   -7.9140 Cl  0  0  0  0  0
    0.8813   46.9490  -11.4932 H   0  0  0  0  0
    1.4515   53.8621   -8.2107 H   0  0  0  0  0
    2.5742   53.6522   -9.6566 H   0  0  0  0  0
   -4.8836   47.9798  -11.4359 H   0  0  0  0  0
   -1.2981   43.3012  -10.8106 H   0  0  0  0  0
   -3.0512   40.8584  -13.8796 H   0  0  0  0  0
   -3.0898   42.8026  -15.4113 H   0  0  0  0  0
   -2.3792   40.1064  -11.8779 H   0  0  0  0  0
   -0.2762   45.6492  -12.2462 H   0  0  0  0  0
   -1.6594   50.9607  -10.0404 H   0  0  0  0  0
    2.0531   48.9142  -10.6586 H   0  0  0  0  0
    2.0317   50.7955   -9.5169 H   0  0  0  0  0
  1  2  4  0  0  0
 20  1  4  0  0  0
  3  2  4  0  0  0
  2  6  4  0  0  0
  3 17  4  0  0  0
 18  3  4  0  0  0
 22  4  1  0  0  0
  4 24  1  0  0  0
  5 16  4  0  0  0
 17  5  4  0  0  0
  6 15  1  0  0  0
  6 16  4  0  0  0
  7  8  4  0  0  0
  7 12  4  0  0  0
 15  7  1  0  0  0
  8  9  4  0  0  0
  9 10  4  0  0  0
  9 14  1  0  0  0
 11 10  4  0  0  0
 12 11  4  0  0  0
 12 13  1  0  0  0
 19 18  4  0  0  0
 19 20  4  0  0  0
 21 19  1  0  0  0
 21 22  1  0  0  0
 22 23  2  0  0  0
  1 25  1  0  0  0
  4 26  1  0  0  0
  4 27  1  0  0  0
  5 28  1  0  0  0
  8 29  1  0  0  0
 10 30  1  0  0  0
 11 31  1  0  0  0
 14 32  1  0  0  0
 15 33  1  0  0  0
 18 34  1  0  0  0
 20 35  1  0  0  0
 21 36  1  0  0  0
M  END
$$$$
