4zsq_ligand
  -I-interpret- 

 44 47  0  0  0  0  0  0  0  0999 V2000
   18.9830  -10.7930   -9.7340 C   0  0  0  0  0
   19.5160  -11.4090   -8.4530 C   0  0  0  0  0
   21.0340  -11.3690   -8.4430 C   0  0  0  0  0
   21.6020   -9.9690   -8.6560 C   0  0  0  0  0
   21.0010   -9.3480   -6.3850 C   0  0  0  0  0
   12.9640  -11.3470   -9.9700 C   0  0  0  0  0
   14.2390  -11.4370  -10.4920 C   0  0  0  0  0
   12.6820  -10.4960   -8.9200 C   0  0  0  0  0
   14.9730   -9.7910   -8.9010 C   0  0  0  0  0
   15.2360  -10.6590   -9.9500 C   0  0  0  0  0
   13.6890   -9.7200   -8.3930 C   0  0  0  0  0
   16.5960  -10.7740  -10.5080 C   0  0  0  0  0
   19.5900   -9.4300  -10.0380 C   0  0  0  0  0
   21.1010   -9.4220   -9.9860 C   0  0  0  0  0
   23.1360  -11.9800   -7.3610 C   0  0  0  0  0
   23.1240  -10.0500   -8.7240 C   0  0  0  0  0
   21.6150  -11.9680   -7.1840 C   0  0  0  0  0
   21.2120   -8.9850   -7.6150 N   0  0  0  0  0
   20.6610   -8.4280   -5.4330 N   0  0  0  0  0
   17.5650  -10.6290   -9.5430 N   0  0  0  0  0
   16.7660  -10.9970  -11.6990 O   0  0  0  0  0
   23.6520  -10.6640   -7.5420 O   0  0  0  0  0
   21.0870  -10.9920   -5.7330 S   0  0  0  0  0
   13.3090   -8.6520   -7.0960 Cl  0  0  0  0  0
   19.2362  -11.4432  -10.5714 H   0  0  0  0  0
   19.1863  -12.4461   -8.3921 H   0  0  0  0  0
   19.1388  -10.8429   -7.6013 H   0  0  0  0  0
   21.3343  -11.9811   -9.2935 H   0  0  0  0  0
   12.1669  -11.9579  -10.3938 H   0  0  0  0  0
   14.4522  -12.1132  -11.3198 H   0  0  0  0  0
   11.6725  -10.4394   -8.5128 H   0  0  0  0  0
   15.7676   -9.1732   -8.4827 H   0  0  0  0  0
   19.2310   -8.7335   -9.2803 H   0  0  0  0  0
   19.2942   -9.1566  -11.0508 H   0  0  0  0  0
   21.4827  -10.0514  -10.7899 H   0  0  0  0  0
   21.4501   -8.3953  -10.0965 H   0  0  0  0  0
   23.3756  -12.5692   -8.2462 H   0  0  0  0  0
   23.5844  -12.4059   -6.4634 H   0  0  0  0  0
   23.5271   -9.0407   -8.8068 H   0  0  0  0  0
   23.4066  -10.6501   -9.5890 H   0  0  0  0  0
   21.2628  -12.9853   -7.0134 H   0  0  0  0  0
   21.1074   -8.0031   -7.8705 H   0  0  0  0  0
   20.5702   -7.4437   -5.6844 H   0  0  0  0  0
   17.2501  -10.3824   -8.6047 H   0  0  0  0  0
  1  2  1  0  0  0
  1 13  1  0  0  0
 20  1  1  0  0  0
  2  3  1  0  0  0
  3  4  1  0  0  0
  3 17  1  0  0  0
  4 14  1  0  0  0
  4 16  1  0  0  0
  4 18  1  0  0  0
 18  5  1  0  0  0
  5 19  2  0  0  0
  5 23  1  0  0  0
  7  6  4  0  0  0
  6  8  4  0  0  0
 10  7  4  0  0  0
 11  8  4  0  0  0
 10  9  4  0  0  0
  9 11  4  0  0  0
 12 10  1  0  0  0
 11 24  1  0  0  0
 12 20  1  0  0  0
 12 21  2  0  0  0
 13 14  1  0  0  0
 17 15  1  0  0  0
 15 22  1  0  0  0
 16 22  1  0  0  0
 17 23  1  0  0  0
  1 25  1  0  0  0
  2 26  1  0  0  0
  2 27  1  0  0  0
  3 28  1  0  0  0
  6 29  1  0  0  0
  7 30  1  0  0  0
  8 31  1  0  0  0
  9 32  1  0  0  0
 13 33  1  0  0  0
 13 34  1  0  0  0
 14 35  1  0  0  0
 14 36  1  0  0  0
 15 37  1  0  0  0
 15 38  1  0  0  0
 16 39  1  0  0  0
 16 40  1  0  0  0
 17 41  1  0  0  0
 18 42  1  0  0  0
 19 43  1  0  0  0
 20 44  1  0  0  0
M  END
$$$$
