3u6h_ligand
  -I-interpret- 

 65 69  0  0  0  0  0  0  0  0999 V2000
   23.4690    5.3680  -23.8500 N   0  0  0  0  0
   24.8570    0.7100  -12.1500 N   0  3  0  0  0
   20.0570    6.0750  -22.7430 C   0  0  0  0  0
   21.4070    5.7030  -22.7050 C   0  0  0  0  0
   22.1700    5.7340  -23.8730 C   0  0  0  0  0
   24.0650    4.9630  -22.7220 C   0  0  0  0  0
   23.3510    4.9180  -21.5210 C   0  0  0  0  0
   21.6760    4.6320  -19.2390 C   0  0  0  0  0
   22.0870    5.4280  -18.1770 C   0  0  0  0  0
   22.5960    3.4850  -16.8400 C   0  0  0  0  0
   21.7170    3.2360  -19.1050 C   0  0  0  0  0
   24.2570    0.3960  -13.3030 C   0  0  0  0  0
   24.3470    2.5760  -13.0460 C   0  0  0  0  0
   24.0060   -1.0200  -13.8340 C   0  0  0  0  0
   25.5010    2.5350  -10.9570 C   0  0  0  0  0
   27.6730    3.2190  -10.0790 C   0  0  0  0  0
   25.6540    3.5870   -8.8040 C   0  0  0  0  0
   20.4320    7.0050  -27.4480 C   0  0  0  0  0
   19.6150    6.9250  -26.2600 O   0  0  0  0  0
   20.2370    6.5170  -25.1090 C   0  0  0  0  0
   21.5820    6.1400  -25.0740 C   0  0  0  0  0
   19.4730    6.4810  -23.9470 C   0  0  0  0  0
   18.1610    6.8700  -24.0390 O   0  0  0  0  0
   17.3670    6.8220  -22.8260 C   0  0  0  0  0
   21.9960    5.2830  -21.5050 C   0  0  0  0  0
   21.2250    5.2650  -20.3720 O   0  0  0  0  0
   22.5560    4.8690  -16.9910 C   0  0  0  0  0
   22.0400    6.7580  -18.3060 F   0  0  0  0  0
   22.1870    2.6710  -17.9060 C   0  0  0  0  0
   23.0950    3.0270  -15.6790 N   0  0  0  0  0
   23.2090    1.7580  -15.2730 C   0  0  0  0  0
   22.8570    0.7750  -15.9190 O   0  0  0  0  0
   23.8940    1.5860  -13.9110 C   0  0  0  0  0
   24.2280    3.7940  -13.2070 O   0  0  0  0  0
   25.3870   -0.3120  -11.1710 C   0  0  0  0  0
   24.8900    1.9470  -11.9880 N   0  0  0  0  0
   26.8930    2.6440  -11.0770 C   0  0  0  0  0
   27.0410    3.6950   -8.9360 C   0  0  0  0  0
   24.8710    3.0090   -9.8080 C   0  0  0  0  0
   19.4600    6.0479  -21.8314 H   0  0  0  0  0
   25.1137    4.6664  -22.7400 H   0  0  0  0  0
   23.8440    4.6011  -20.6020 H   0  0  0  0  0
   21.3875    2.5951  -19.9228 H   0  0  0  0  0
   24.9588   -1.5355  -13.9550 H   0  0  0  0  0
   23.3829   -1.5669  -13.1264 H   0  0  0  0  0
   23.4985   -0.9609  -14.7969 H   0  0  0  0  0
   28.7546    3.2946  -10.1906 H   0  0  0  0  0
   25.1728    3.9608   -7.9002 H   0  0  0  0  0
   21.2429    7.7144  -27.2826 H   0  0  0  0  0
   20.8471    6.0216  -27.6688 H   0  0  0  0  0
   19.8205    7.3392  -28.2861 H   0  0  0  0  0
   22.1755    6.1627  -25.9880 H   0  0  0  0  0
   17.3417    5.7992  -22.4501 H   0  0  0  0  0
   17.8124    7.4753  -22.0757 H   0  0  0  0  0
   16.3524    7.1556  -23.0439 H   0  0  0  0  0
   22.8921    5.5151  -16.1801 H   0  0  0  0  0
   22.2339    1.5868  -17.8041 H   0  0  0  0  0
   23.4284    3.7361  -15.0260 H   0  0  0  0  0
   23.2134    1.7558  -14.7453 H   0  0  0  0  0
   24.5688   -0.9480  -10.8331 H   0  0  0  0  0
   26.1455   -0.9229  -11.6605 H   0  0  0  0  0
   25.8276    0.2004  -10.3158 H   0  0  0  0  0
   27.3781    2.2677  -11.9776 H   0  0  0  0  0
   27.6287    4.1536   -8.1408 H   0  0  0  0  0
   23.7898    2.9308   -9.6942 H   0  0  0  0  0
  5  1  4  0  0  0
  6  1  4  0  0  0
 12  2  2  0  0  0
  2 35  1  0  0  0
 36  2  1  0  0  0
  4  3  4  0  0  0
  3 22  4  0  0  0
  4  5  4  0  0  0
 25  4  4  0  0  0
  5 21  4  0  0  0
  7  6  4  0  0  0
 25  7  4  0  0  0
  9  8  4  0  0  0
 11  8  4  0  0  0
  8 26  1  0  0  0
 27  9  4  0  0  0
  9 28  1  0  0  0
 10 27  4  0  0  0
 10 29  4  0  0  0
 30 10  1  0  0  0
 29 11  4  0  0  0
 12 14  1  0  0  0
 33 12  1  0  0  0
 33 13  1  0  0  0
 13 34  2  0  0  0
 13 36  1  0  0  0
 36 15  1  0  0  0
 15 37  4  0  0  0
 15 39  4  0  0  0
 37 16  4  0  0  0
 16 38  4  0  0  0
 17 38  4  0  0  0
 39 17  4  0  0  0
 19 18  1  0  0  0
 20 19  1  0  0  0
 21 20  4  0  0  0
 22 20  4  0  0  0
 22 23  1  0  0  0
 23 24  1  0  0  0
 26 25  1  0  0  0
 31 30  1  0  0  0
 31 32  2  0  0  0
 31 33  1  0  0  0
  3 40  1  0  0  0
  6 41  1  0  0  0
  7 42  1  0  0  0
 11 43  1  0  0  0
 14 44  1  0  0  0
 14 45  1  0  0  0
 14 46  1  0  0  0
 16 47  1  0  0  0
 17 48  1  0  0  0
 18 49  1  0  0  0
 18 50  1  0  0  0
 18 51  1  0  0  0
 21 52  1  0  0  0
 24 53  1  0  0  0
 24 54  1  0  0  0
 24 55  1  0  0  0
 27 56  1  0  0  0
 29 57  1  0  0  0
 30 58  1  0  0  0
 33 59  1  0  0  0
 35 60  1  0  0  0
 35 61  1  0  0  0
 35 62  1  0  0  0
 37 63  1  0  0  0
 38 64  1  0  0  0
 39 65  1  0  0  0
M  END
$$$$
