6ncp_ligand
  -I-interpret- 

 84 88  0  0  0  0  0  0  0  0999 V2000
   79.1490   77.5050    0.2570 N   0  3  0  0  0
   79.3930   78.2570    1.4830 C   0  0  0  0  0
   78.9030   77.4870    2.7110 C   0  0  0  0  0
   78.0660   77.9780    3.4680 O   0  0  0  0  0
   78.7160   79.6290    1.4120 C   0  0  0  0  0
   77.2600   79.5720    1.0600 C   0  0  0  0  0
   76.3400   78.8610    1.8030 N   0  0  0  0  0
   76.5630   80.1450    0.0500 C   0  0  0  0  0
   75.1430   78.9920    1.2620 C   0  0  0  0  0
   75.2500   79.7670    0.1970 N   0  0  0  0  0
   79.4310   76.2820    2.9060 N   0  0  0  0  0
   78.9940   75.4380    4.0110 C   0  0  0  0  0
   79.4610   76.0120    5.3450 C   0  0  0  0  0
   80.6380   76.3480    5.5110 O   0  0  0  0  0
   79.5300   74.0190    3.8290 C   0  0  0  0  0
   79.1390   73.0760    4.9240 C   0  0  0  0  0
   77.8250   72.7980    5.2330 N   0  0  0  0  0
   79.8900   72.3450    5.7810 C   0  0  0  0  0
   77.7830   71.9380    6.2350 C   0  0  0  0  0
   79.0230   71.6480    6.5870 N   0  0  0  0  0
   78.5350   76.1220    6.2980 N   0  0  0  0  0
   78.8540   76.5860    7.6450 C   0  0  0  0  0
   79.3370   75.4060    8.4780 C   0  0  0  0  0
   78.6170   74.4110    8.6280 O   0  0  0  0  0
   77.6440   77.2360    8.3140 C   0  0  0  0  0
   76.6680   77.8380    7.3560 C   0  0  0  0  0
   76.9880   78.8950    6.5320 N   0  0  0  0  0
   75.3730   77.5380    7.0970 C   0  0  0  0  0
   75.9340   79.2160    5.8040 C   0  0  0  0  0
   74.9410   78.4080    6.1260 N   0  0  0  0  0
   80.5400   75.5240    9.0310 N   0  0  0  0  0
   81.1100   74.4340    9.8020 C   0  0  0  0  0
   80.3850   74.2890   11.1420 C   0  0  0  0  0
   79.5740   75.1330   11.5380 O   0  0  0  0  0
   82.6080   74.6560    9.9970 C   0  0  0  0  0
   83.4120   74.4370    8.7520 C   0  0  0  0  0
   84.7710   74.2100    8.7680 N   0  0  0  0  0
   83.0430   74.4080    7.4490 C   0  0  0  0  0
   85.2050   74.0510    7.5300 C   0  0  0  0  0
   84.1760   74.1660    6.7110 N   0  0  0  0  0
   80.6870   73.1870   11.8300 N   0  0  0  0  0
   80.0350   72.7750   13.0790 C   0  0  0  0  0
   79.7030   73.9240   14.0300 C   0  0  0  0  0
   78.5530   74.3570   14.1150 O   0  0  0  0  0
   80.9290   71.7640   13.8020 C   0  0  0  0  0
   80.2100   70.9030   14.7960 C   0  0  0  0  0
   78.8560   70.6520   14.7310 N   0  0  0  0  0
   80.6660   70.2210   15.8750 C   0  0  0  0  0
   78.5080   69.8600   15.7300 C   0  0  0  0  0
   79.5880   69.5830   16.4380 N   0  0  0  0  0
   80.5740   74.4480   14.7260 O   0  0  0  0  0
   79.6060   76.5954    0.3209 H   0  0  0  0  0
   78.1449   77.3745    0.1338 H   0  0  0  0  0
   79.5261   78.0212   -0.5378 H   0  0  0  0  0
   80.4693   78.3994    1.5805 H   0  0  0  0  0
   79.2166   80.1967    0.6277 H   0  0  0  0  0
   78.7923   80.0792    2.4018 H   0  0  0  0  0
   76.9678   80.7861   -0.7331 H   0  0  0  0  0
   74.2231   78.5382    1.6309 H   0  0  0  0  0
   80.1540   75.9428    2.2715 H   0  0  0  0  0
   77.9044   75.4078    4.0142 H   0  0  0  0  0
   80.6182   74.0817    3.8292 H   0  0  0  0  0
   79.1089   73.6305    2.9017 H   0  0  0  0  0
   80.9788   72.3151    5.8235 H   0  0  0  0  0
   76.8793   71.5362    6.6932 H   0  0  0  0  0
   77.5704   75.8734    6.0784 H   0  0  0  0  0
   79.6378   77.3402    7.5747 H   0  0  0  0  0
   78.0183   78.0434    8.9433 H   0  0  0  0  0
   77.1184   76.4532    8.8608 H   0  0  0  0  0
   74.7837   76.7528    7.5706 H   0  0  0  0  0
   75.8912   80.0136    5.0623 H   0  0  0  0  0
   81.0677   76.3888    8.9125 H   0  0  0  0  0
   80.9766   73.5019    9.2529 H   0  0  0  0  0
   82.9518   73.9361   10.7397 H   0  0  0  0  0
   82.7486   75.6937   10.2993 H   0  0  0  0  0
   82.0352   74.5502    7.0589 H   0  0  0  0  0
   86.2365   73.8579    7.2354 H   0  0  0  0  0
   81.4248   72.5868   11.4614 H   0  0  0  0  0
   79.0795   72.3363   12.7917 H   0  0  0  0  0
   81.6763   72.3344   14.3537 H   0  0  0  0  0
   81.3411   71.1000   13.0421 H   0  0  0  0  0
   81.6961   70.1856   16.2297 H   0  0  0  0  0
   77.5008   69.4970   15.9349 H   0  0  0  0  0
   81.4158   74.0167   14.5617 H   0  0  0  0  0
  1  2  1  0  0  0
  2  3  1  0  0  0
  2  5  1  0  0  0
  3  4  2  0  0  0
  3 11  1  0  0  0
  5  6  1  0  0  0
  6  7  4  0  0  0
  6  8  4  0  0  0
  7  9  4  0  0  0
  8 10  4  0  0  0
  9 10  4  0  0  0
 11 12  1  0  0  0
 12 13  1  0  0  0
 12 15  1  0  0  0
 13 14  2  0  0  0
 13 21  1  0  0  0
 15 16  1  0  0  0
 16 17  4  0  0  0
 16 18  4  0  0  0
 17 19  4  0  0  0
 18 20  4  0  0  0
 19 20  4  0  0  0
 21 22  1  0  0  0
 22 23  1  0  0  0
 22 25  1  0  0  0
 23 24  2  0  0  0
 23 31  1  0  0  0
 25 26  1  0  0  0
 26 27  4  0  0  0
 26 28  4  0  0  0
 27 29  4  0  0  0
 28 30  4  0  0  0
 29 30  4  0  0  0
 31 32  1  0  0  0
 32 33  1  0  0  0
 32 35  1  0  0  0
 33 34  2  0  0  0
 33 41  1  0  0  0
 35 36  1  0  0  0
 36 37  4  0  0  0
 36 38  4  0  0  0
 37 39  4  0  0  0
 38 40  4  0  0  0
 39 40  4  0  0  0
 41 42  1  0  0  0
 42 43  1  0  0  0
 42 45  1  0  0  0
 43 44  2  0  0  0
 43 51  1  0  0  0
 45 46  1  0  0  0
 46 47  4  0  0  0
 46 48  4  0  0  0
 47 49  4  0  0  0
 48 50  4  0  0  0
 49 50  4  0  0  0
  1 52  1  0  0  0
  1 53  1  0  0  0
  1 54  1  0  0  0
  2 55  1  0  0  0
  5 56  1  0  0  0
  5 57  1  0  0  0
  8 58  1  0  0  0
  9 59  1  0  0  0
 11 60  1  0  0  0
 12 61  1  0  0  0
 15 62  1  0  0  0
 15 63  1  0  0  0
 18 64  1  0  0  0
 19 65  1  0  0  0
 21 66  1  0  0  0
 22 67  1  0  0  0
 25 68  1  0  0  0
 25 69  1  0  0  0
 28 70  1  0  0  0
 29 71  1  0  0  0
 31 72  1  0  0  0
 32 73  1  0  0  0
 35 74  1  0  0  0
 35 75  1  0  0  0
 38 76  1  0  0  0
 39 77  1  0  0  0
 41 78  1  0  0  0
 42 79  1  0  0  0
 45 80  1  0  0  0
 45 81  1  0  0  0
 48 82  1  0  0  0
 49 83  1  0  0  0
 51 84  1  0  0  0
M  END
$$$$
