1o9d_ligand
  -I-interpret- 

 88 88  0  0  0  0  0  0  0  0999 V2000
   42.6670   52.3990   18.7130 N   0  3  0  0  0
   42.3850   52.2380   20.1780 C   0  0  0  0  0
   41.6340   53.4410   20.7690 C   0  0  0  0  0
   41.9900   54.5990   20.5720 O   0  0  0  0  0
   43.6830   51.9780   20.9540 C   0  0  0  0  0
   44.0490   50.4780   21.0650 C   0  0  0  0  0
   44.0420   49.7470   19.6860 C   0  0  0  0  0
   42.9770   49.5860   19.0530 O   0  0  0  0  0
   45.2350   49.3210   19.2180 N   0  0  0  0  0
   40.5650   53.1170   21.4770 N   0  0  0  0  0
   39.6770   54.0510   22.1080 C   0  0  0  0  0
   39.7010   53.7020   23.5850 C   0  0  0  0  0
   40.2050   52.6420   23.9750 O   0  0  0  0  0
   38.2660   53.8720   21.5370 C   0  0  0  0  0
   38.2760   53.9310   20.1070 O   0  0  0  0  0
   39.1790   54.5910   24.4190 N   0  0  0  0  0
   39.1710   54.3030   25.8440 C   0  0  0  0  0
   38.0600   53.3390   26.1670 C   0  0  0  0  0
   36.9490   53.4260   25.5950 O   0  0  0  0  0
   38.9320   55.5800   26.6560 C   0  0  0  0  0
   39.9690   56.6140   26.3860 C   0  0  0  0  0
   41.2040   56.5500   27.0160 C   0  0  0  0  0
   39.7640   57.5890   25.4170 C   0  0  0  0  0
   42.2200   57.4240   26.6910 C   0  0  0  0  0
   40.7900   58.4680   25.0670 C   0  0  0  0  0
   42.0130   58.3740   25.7100 C   0  0  0  0  0
   43.0620   59.1750   25.3290 O   0  0  0  0  0
   38.3750   52.4170   27.0700 N   0  0  0  0  0
   37.3710   51.4850   27.5990 C   0  0  0  0  0
   37.4850   50.0620   26.9410 C   0  0  0  0  0
   37.2130   50.1460   25.4340 C   0  0  0  0  0
   38.8010   49.5630   27.2530 O   0  0  0  0  0
   39.2920   48.0940   26.9360 P   0  0  0  0  0
   39.3670   47.9830   25.3450 O   0  0  0  0  0
   38.3110   47.0640   27.5230 O   0  0  0  0  0
   40.7410   47.9920   27.5400 O   0  0  0  0  0
   37.6790   51.4220   29.0860 C   0  0  0  0  0
   38.7290   51.9160   29.5110 O   0  0  0  0  0
   36.7880   50.8520   29.8720 N   0  0  0  0  0
   37.0160   50.6400   31.3000 C   0  0  0  0  0
   36.5540   49.2720   31.7310 C   0  0  0  0  0
   35.9690   48.5200   30.8860 O   0  0  0  0  0
   36.2920   51.6600   32.2150 C   0  0  0  0  0
   36.9540   53.0570   32.0280 C   0  0  0  0  0
   34.7730   51.6640   31.9200 C   0  0  0  0  0
   36.7840   48.9630   32.9360 O   0  0  0  0  0
   43.1648   51.5768   18.3714 H   0  0  0  0  0
   41.7867   52.4993   18.2076 H   0  0  0  0  0
   43.2405   53.2299   18.5677 H   0  0  0  0  0
   41.7306   51.3724   20.2812 H   0  0  0  0  0
   43.5395   52.3551   21.9666 H   0  0  0  0  0
   44.4908   52.4724   20.4145 H   0  0  0  0  0
   43.3027   49.9994   21.6991 H   0  0  0  0  0
   45.0579   50.4109   21.4721 H   0  0  0  0  0
   45.2895   48.8479   18.3160 H   0  0  0  0  0
   46.0815   49.4723   19.7665 H   0  0  0  0  0
   40.3551   52.1245   21.5829 H   0  0  0  0  0
   39.9738   55.0864   21.9411 H   0  0  0  0  0
   37.6331   54.6753   21.9143 H   0  0  0  0  0
   37.8878   52.8965   21.8427 H   0  0  0  0  0
   37.3819   53.8163   19.7769 H   0  0  0  0  0
   38.7886   55.4646   24.0657 H   0  0  0  0  0
   40.1403   53.8758   26.1012 H   0  0  0  0  0
   38.9732   55.3238   27.7147 H   0  0  0  0  0
   37.9617   55.9878   26.3727 H   0  0  0  0  0
   41.3742   55.7941   27.7827 H   0  0  0  0  0
   38.7939   57.6678   24.9263 H   0  0  0  0  0
   43.1796   57.3655   27.2047 H   0  0  0  0  0
   40.6303   59.2210   24.2952 H   0  0  0  0  0
   43.8269   58.9800   25.8753 H   0  0  0  0  0
   39.3369   52.3550   27.4038 H   0  0  0  0  0
   36.3542   51.8159   27.3874 H   0  0  0  0  0
   36.7385   49.3708   27.3324 H   0  0  0  0  0
   36.2082   50.5346   25.2686 H   0  0  0  0  0
   37.9420   50.8111   24.9710 H   0  0  0  0  0
   37.2962   49.1517   24.9951 H   0  0  0  0  0
   39.9850   48.6360   25.0086 H   0  0  0  0  0
   41.3026   48.6572   27.1355 H   0  0  0  0  0
   35.9031   50.5463   29.4673 H   0  0  0  0  0
   38.0930   50.7612   31.4165 H   0  0  0  0  0
   35.9115   48.9734   30.0418 H   0  0  0  0  0
   36.3959   51.3791   33.2630 H   0  0  0  0  0
   38.0078   52.9976   32.3002 H   0  0  0  0  0
   36.8633   53.3641   30.9861 H   0  0  0  0  0
   36.4527   53.7837   32.6673 H   0  0  0  0  0
   34.6072   51.9395   30.8785 H   0  0  0  0  0
   34.3660   50.6696   32.1033 H   0  0  0  0  0
   34.2796   52.3857   32.5711 H   0  0  0  0  0
  2  1  1  0  0  0
  2  5  1  0  0  0
  3  2  1  0  0  0
  3  4  2  0  0  0
  5  6  1  0  0  0
  6  7  1  0  0  0
  7  9  1  0  0  0
  7  8  2  0  0  0
 11 10  1  0  0  0
 11 14  1  0  0  0
 12 11  1  0  0  0
 12 13  2  0  0  0
 14 15  1  0  0  0
 10  3  1  0  0  0
 17 16  1  0  0  0
 17 20  1  0  0  0
 18 17  1  0  0  0
 18 19  2  0  0  0
 20 21  1  0  0  0
 21 22  4  0  0  0
 21 23  4  0  0  0
 23 25  4  0  0  0
 25 26  4  0  0  0
 26 27  1  0  0  0
 24 26  4  0  0  0
 22 24  4  0  0  0
 16 12  1  0  0  0
 39 40  1  0  0  0
 40 43  1  0  0  0
 40 41  1  0  0  0
 41 42  1  0  0  0
 41 46  2  0  0  0
 43 45  1  0  0  0
 43 44  1  0  0  0
 28 18  1  0  0  0
 29 28  1  0  0  0
 29 30  1  0  0  0
 37 29  1  0  0  0
 30 31  1  0  0  0
 30 32  1  0  0  0
 32 33  1  0  0  0
 33 34  1  0  0  0
 33 35  2  0  0  0
 33 36  1  0  0  0
 37 39  1  0  0  0
 37 38  2  0  0  0
  1 47  1  0  0  0
  1 48  1  0  0  0
  1 49  1  0  0  0
  2 50  1  0  0  0
  5 51  1  0  0  0
  5 52  1  0  0  0
  6 53  1  0  0  0
  6 54  1  0  0  0
  9 55  1  0  0  0
  9 56  1  0  0  0
 10 57  1  0  0  0
 11 58  1  0  0  0
 14 59  1  0  0  0
 14 60  1  0  0  0
 15 61  1  0  0  0
 16 62  1  0  0  0
 17 63  1  0  0  0
 20 64  1  0  0  0
 20 65  1  0  0  0
 22 66  1  0  0  0
 23 67  1  0  0  0
 24 68  1  0  0  0
 25 69  1  0  0  0
 27 70  1  0  0  0
 28 71  1  0  0  0
 29 72  1  0  0  0
 30 73  1  0  0  0
 31 74  1  0  0  0
 31 75  1  0  0  0
 31 76  1  0  0  0
 34 77  1  0  0  0
 36 78  1  0  0  0
 39 79  1  0  0  0
 40 80  1  0  0  0
 42 81  1  0  0  0
 43 82  1  0  0  0
 44 83  1  0  0  0
 44 84  1  0  0  0
 44 85  1  0  0  0
 45 86  1  0  0  0
 45 87  1  0  0  0
 45 88  1  0  0  0
M  END
$$$$
