### 
### Created by X-TOOL on Mon Sep 10 21:12:50 2018
### 

@<TRIPOS>MOLECULE
1o9d_ligand
   85    85     1     0     0
SMALL
GAST_HUCK


@<TRIPOS>ATOM
      1 N          42.6670   52.3990   18.7130 N.4       1 GLN         0.2380
      2 CA         42.3850   52.2380   20.1780 C.3       1 GLN         0.0671
      3 C          41.6340   53.4410   20.7690 C.2       1 GLN         0.2269
      4 O          41.9900   54.5990   20.5720 O.2       1 GLN        -0.3907
      5 CB         43.6830   51.9780   20.9540 C.3       1 GLN         0.0247
      6 CG         44.0490   50.4780   21.0650 C.3       1 GLN         0.0443
      7 CD         44.0420   49.7470   19.6860 C.2       1 GLN         0.1738
      8 OE1        42.9770   49.5860   19.0530 O.2       1 GLN        -0.3973
      9 NE2        45.2350   49.3210   19.2180 N.am      1 GLN        -0.3009
     10 N          40.5650   53.1170   21.4770 N.am      1 SER        -0.2588
     11 CA         39.6770   54.0510   22.1080 C.3       1 SER         0.1540
     12 C          39.7010   53.7020   23.5850 C.2       1 SER         0.2063
     13 O          40.2050   52.6420   23.9750 O.2       1 SER        -0.3943
     14 CB         38.2660   53.8720   21.5370 C.3       1 SER         0.0843
     15 OG         38.2760   53.9310   20.1070 O.3       1 SER        -0.3903
     16 N          39.1790   54.5910   24.4190 N.am      1 TYR        -0.2621
     17 CA         39.1710   54.3030   25.8440 C.3       1 TYR         0.1390
     18 C          38.0600   53.3390   26.1670 C.2       1 TYR         0.2058
     19 O          36.9490   53.4260   25.5950 O.2       1 TYR        -0.3942
     20 CB         38.9320   55.5800   26.6560 C.3       1 TYR         0.0163
     21 CG         39.9690   56.6140   26.3860 C.ar      1 TYR        -0.0493
     22 CD1        41.2040   56.5500   27.0160 C.ar      1 TYR        -0.0685
     23 CD2        39.7640   57.5890   25.4170 C.ar      1 TYR        -0.0685
     24 CE1        42.2200   57.4240   26.6910 C.ar      1 TYR        -0.0398
     25 CE2        40.7900   58.4680   25.0670 C.ar      1 TYR        -0.0398
     26 CZ         42.0130   58.3740   25.7100 C.ar      1 TYR         0.0805
     27 OH         43.0620   59.1750   25.3290 O.3       1 TYR        -0.3376
     28 N          38.3750   52.4170   27.0700 N.am      1 TPO        -0.2609
     29 CA         37.3710   51.4850   27.5990 C.3       1 TPO         0.1611
     30 CB         37.4850   50.0620   26.9410 C.3       1 TPO         0.1262
     31 CG2        37.2130   50.1460   25.4340 C.3       1 TPO        -0.0298
     32 OG1        38.8010   49.5630   27.2530 O.3       1 TPO        -0.2685
     33 P          39.2920   48.0940   26.9360 P.3       1 TPO         0.2014
     34 O1P        39.3670   47.9830   25.3450 O.co2     1 TPO        -0.5537
     35 O2P        38.3110   47.0640   27.5230 O.co2     1 TPO        -0.5537
     36 O3P        40.7410   47.9920   27.5400 O.co2     1 TPO        -0.5537
     37 C          37.6790   51.4220   29.0860 C.2       1 TPO         0.2063
     38 O          38.7290   51.9160   29.5110 O.2       1 TPO        -0.3943
     39 N          36.7880   50.8520   29.8720 N.am      1 VAL        -0.2691
     40 CA         37.0160   50.6400   31.3000 C.3       1 VAL         0.0967
     41 C          36.5540   49.2720   31.7310 C.2       1 VAL         0.0603
     42 O          35.9690   48.5200   30.8860 O.co2     1 VAL        -0.5666
     43 CB         36.2920   51.6600   32.2150 C.3       1 VAL        -0.0118
     44 CG1        36.9540   53.0570   32.0280 C.3       1 VAL        -0.0590
     45 CG2        34.7730   51.6640   31.9200 C.3       1 VAL        -0.0590
     46 OXT        36.7840   48.9630   32.9360 O.co2     1 VAL        -0.5666
     47 H1         43.1590   51.5870   18.3743 H         1 GLN         0.2015
     48 H2         43.2338   53.2199   18.5681 H         1 GLN         0.2015
     49 H3         41.7977   52.4982   18.2124 H         1 GLN         0.2015
     50 H4         41.7393   51.3552   20.2951 H         1 GLN         0.1100
     51 H5         43.5681   52.3839   21.9699 H         1 GLN         0.0370
     52 H6         44.5049   52.4994   20.4416 H         1 GLN         0.0370
     53 H7         43.3199   49.9869   21.7262 H         1 GLN         0.0506
     54 H8         45.0550   50.3936   21.5017 H         1 GLN         0.0506
     55 H9         45.2869   48.8467   18.3391 H         1 GLN         0.1814
     56 H10        46.0665   49.4798   19.7503 H         1 GLN         0.1814
     57 H11        40.3592   52.1439   21.5808 H         1 SER         0.1885
     58 H12        40.0172   55.0848   21.9485 H         1 SER         0.0823
     59 H13        37.6177   54.6716   21.9247 H         1 SER         0.0606
     60 H14        37.8721   52.8949   21.8532 H         1 SER         0.0606
     61 H15        38.8316   53.2397   19.7665 H         1 SER         0.2097
     62 H16        38.7962   55.4475   24.0726 H         1 TYR         0.1885
     63 H17        40.1383   53.8626   26.1276 H         1 TYR         0.0821
     64 H18        38.9510   55.3290   27.7268 H         1 TYR         0.0453
     65 H19        37.9454   55.9891   26.3927 H         1 TYR         0.0453
     66 H20        41.3733   55.7983   27.7785 H         1 TYR         0.0530
     67 H21        38.7992   57.6674   24.9290 H         1 TYR         0.0530
     68 H22        43.1743   57.3658   27.2018 H         1 TYR         0.0525
     69 H23        40.6312   59.2169   24.2995 H         1 TYR         0.0525
     70 H24        42.8183   60.0868   25.4373 H         1 TYR         0.2458
     71 H25        39.3180   52.3562   27.3972 H         1 TPO         0.1884
     72 H26        36.3574   51.8775   27.4301 H         1 TPO         0.0830
     73 H27        36.7358   49.3917   27.3875 H         1 TPO         0.0695
     74 H28        37.2967   49.1431   24.9899 H         1 TPO         0.0260
     75 H29        37.9481   50.8169   24.9655 H         1 TPO         0.0260
     76 H30        36.1991   50.5381   25.2657 H         1 TPO         0.0260
     77 H31        35.9204   50.5523   29.4752 H         1 VAL         0.1875
     78 H32        38.0985   50.7232   31.4770 H         1 VAL         0.0729
     79 H33        36.4303   51.3535   33.2623 H         1 VAL         0.0336
     80 H34        36.4489   53.7913   32.6727 H         1 VAL         0.0234
     81 H35        36.8631   53.3681   30.9769 H         1 VAL         0.0234
     82 H36        38.0176   52.9985   32.3024 H         1 VAL         0.0234
     83 H37        34.3678   50.6524   32.0698 H         1 VAL         0.0234
     84 H38        34.6024   51.9769   30.8794 H         1 VAL         0.0234
     85 H39        34.2690   52.3654   32.6012 H         1 VAL         0.0234
@<TRIPOS>BOND
     1    2    1 1  
     2    2    5 1  
     3    3    2 1  
     4    3    4 2  
     5    5    6 1  
     6    6    7 1  
     7    7    9 am 
     8    7    8 2  
     9   11   10 1  
    10   11   14 1  
    11   12   11 1  
    12   12   13 2  
    13   14   15 1  
    14   10    3 am 
    15   17   16 1  
    16   17   20 1  
    17   18   17 1  
    18   18   19 2  
    19   20   21 1  
    20   21   22 ar 
    21   21   23 ar 
    22   23   25 ar 
    23   25   26 ar 
    24   26   27 1  
    25   24   26 ar 
    26   22   24 ar 
    27   16   12 am 
    28   39   40 1  
    29   40   43 1  
    30   40   41 1  
    31   41   42 ar 
    32   41   46 ar 
    33   43   45 1  
    34   43   44 1  
    35   28   18 am 
    36   29   28 1  
    37   29   30 1  
    38   37   29 1  
    39   30   31 1  
    40   30   32 1  
    41   32   33 1  
    42   33   34 ar 
    43   33   35 ar 
    44   33   36 ar 
    45   37   39 am 
    46   37   38 2  
    47    1   47 1  
    48    1   48 1  
    49    1   49 1  
    50    2   50 1  
    51    5   51 1  
    52    5   52 1  
    53    6   53 1  
    54    6   54 1  
    55    9   55 1  
    56    9   56 1  
    57   10   57 1  
    58   11   58 1  
    59   14   59 1  
    60   14   60 1  
    61   15   61 1  
    62   16   62 1  
    63   17   63 1  
    64   20   64 1  
    65   20   65 1  
    66   22   66 1  
    67   23   67 1  
    68   24   68 1  
    69   25   69 1  
    70   27   70 1  
    71   28   71 1  
    72   29   72 1  
    73   30   73 1  
    74   31   74 1  
    75   31   75 1  
    76   31   76 1  
    77   39   77 1  
    78   40   78 1  
    79   43   79 1  
    80   44   80 1  
    81   44   81 1  
    82   44   82 1  
    83   45   83 1  
    84   45   84 1  
    85   45   85 1  
@<TRIPOS>SUBSTRUCTURE
     1 GLN         1

