5xvq_ligand
  -I-interpret- 

 19 19  0  0  0  0  0  0  0  0999 V2000
   23.6300   -0.7910   13.1500 C   0  0  0  0  0
   23.2070    0.2750   12.2290 C   0  0  0  0  0
   23.9640    0.5540   11.1140 C   0  0  0  0  0
   23.5550    1.5600   10.2620 C   0  0  0  0  0
   22.4060    2.2590   10.5400 C   0  0  0  0  0
   20.4970    2.6810   11.9200 C   0  0  0  0  0
   22.0600    0.9900   12.4850 C   0  0  0  0  0
   21.7070    1.9470   11.6290 N   0  0  0  0  0
   22.6210   -1.2810   13.9330 N   0  0  0  0  0
   24.7920   -1.1710   13.1610 O   0  0  0  0  0
   24.8729   -0.0110   10.9069 H   0  0  0  0  0
   24.1404    1.7982    9.3739 H   0  0  0  0  0
   22.0712    3.0579    9.8783 H   0  0  0  0  0
   20.7349    3.7378   12.0410 H   0  0  0  0  0
   19.7921    2.5577   11.0978 H   0  0  0  0  0
   20.0544    2.2993   12.8400 H   0  0  0  0  0
   21.4551    0.7784   13.3667 H   0  0  0  0  0
   22.8102   -2.0300   14.5990 H   0  0  0  0  0
   21.6795   -0.8973   13.8508 H   0  0  0  0  0
  1  2  1  0  0  0
  1  9  1  0  0  0
  1 10  2  0  0  0
  2  3  4  0  0  0
  2  7  4  0  0  0
  3  4  4  0  0  0
  4  5  4  0  0  0
  5  8  4  0  0  0
  8  6  1  0  0  0
  7  8  4  0  0  0
  3 11  1  0  0  0
  4 12  1  0  0  0
  5 13  1  0  0  0
  6 14  1  0  0  0
  6 15  1  0  0  0
  6 16  1  0  0  0
  7 17  1  0  0  0
  9 18  1  0  0  0
  9 19  1  0  0  0
M  END
$$$$
