2f1a_ligand
  -I-interpret- 

 40 41  0  0  0  0  0  0  0  0999 V2000
   29.0140   65.2650   12.1290 C   0  0  0  0  0
   29.8940   65.0670   10.9780 N   0  3  0  0  0
   29.8080   65.7580    9.7000 C   0  0  0  0  0
   30.9570   65.2300    8.8420 C   0  0  0  0  0
   30.7550   65.3650    7.4150 N   0  3  0  0  0
   31.3260   66.5690    6.8130 C   0  0  0  0  0
   32.6510   66.5270    7.5750 C   0  0  0  0  0
   33.6810   65.7670    6.9670 O   0  0  0  0  0
   32.2540   66.0200    8.9760 C   0  0  0  0  0
   33.2080   65.1240    9.5290 O   0  0  0  0  0
   27.3820   67.3270   11.6680 C   0  0  0  0  0
   27.0730   68.7150   11.8230 C   0  0  0  0  0
   27.9240   69.5600   12.5720 C   0  0  0  0  0
   29.0640   68.9690   13.1400 C   0  0  0  0  0
   29.4170   67.5960   13.0170 C   0  0  0  0  0
   28.5560   66.7360   12.2590 C   0  0  0  0  0
   27.8510   64.2850   12.0030 C   0  0  0  0  0
   28.3270   63.1030   11.3630 O   0  0  0  0  0
   29.5519   65.0602   13.0546 H   0  0  0  0  0
   29.6753   64.1071   10.7111 H   0  0  0  0  0
   30.7868   65.4045   11.3377 H   0  0  0  0  0
   29.8854   66.8369    9.8341 H   0  0  0  0  0
   28.8466   65.5732    9.2207 H   0  0  0  0  0
   31.0007   64.2025    9.2032 H   0  0  0  0  0
   29.7471   65.4146    7.2665 H   0  0  0  0  0
   31.2223   64.5707    6.9779 H   0  0  0  0  0
   30.7404   67.4833    6.9089 H   0  0  0  0  0
   31.3927   66.5821    5.7251 H   0  0  0  0  0
   33.1179   67.5117    7.5971 H   0  0  0  0  0
   33.8794   66.1333    6.1021 H   0  0  0  0  0
   32.1707   66.8934    9.6228 H   0  0  0  0  0
   32.9131   64.8403   10.3974 H   0  0  0  0  0
   26.7094   66.6975   11.0854 H   0  0  0  0  0
   26.1749   69.1243   11.3603 H   0  0  0  0  0
   27.7054   70.6199   12.7023 H   0  0  0  0  0
   29.7287   69.6103   13.7188 H   0  0  0  0  0
   30.3201   67.2075   13.4877 H   0  0  0  0  0
   27.0491   64.7310   11.4147 H   0  0  0  0  0
   27.4584   64.0426   12.9905 H   0  0  0  0  0
   27.6060   62.4751   11.2760 H   0  0  0  0  0
  1  2  1  0  0  0
 16  1  1  0  0  0
  1 17  1  0  0  0
  2  3  1  0  0  0
  3  4  1  0  0  0
  4  5  1  0  0  0
  4  9  1  0  0  0
  5  6  1  0  0  0
  7  6  1  0  0  0
  7  8  1  0  0  0
  9  7  1  0  0  0
  9 10  1  0  0  0
 11 12  4  0  0  0
 11 16  4  0  0  0
 12 13  4  0  0  0
 13 14  4  0  0  0
 14 15  4  0  0  0
 15 16  4  0  0  0
 17 18  1  0  0  0
  1 19  1  0  0  0
  2 20  1  0  0  0
  2 21  1  0  0  0
  3 22  1  0  0  0
  3 23  1  0  0  0
  4 24  1  0  0  0
  5 25  1  0  0  0
  5 26  1  0  0  0
  6 27  1  0  0  0
  6 28  1  0  0  0
  7 29  1  0  0  0
  8 30  1  0  0  0
  9 31  1  0  0  0
 10 32  1  0  0  0
 11 33  1  0  0  0
 12 34  1  0  0  0
 13 35  1  0  0  0
 14 36  1  0  0  0
 15 37  1  0  0  0
 17 38  1  0  0  0
 17 39  1  0  0  0
 18 40  1  0  0  0
M  END
$$$$
