2xxy_ligand
  -I-interpret- 

 33 33  0  0  0  0  0  0  0  0999 V2000
  -11.3230    1.2050  -23.4320 N   0  3  0  0  0
  -12.1350    1.5120  -24.6270 C   0  0  0  0  0
  -13.0610    1.3640  -27.2440 C   0  0  0  0  0
  -11.1090    2.6620  -28.1300 C   0  0  0  0  0
   -9.9250    1.4380  -23.7630 C   0  0  0  0  0
   -9.8270    1.4410  -25.2760 C   0  0  0  0  0
   -9.7360    0.0490  -25.8810 C   0  0  0  0  0
  -11.1600    2.0150  -25.6880 C   0  0  0  0  0
   -8.3770   -0.6010  -25.7820 C   0  0  0  0  0
  -11.5610    1.6200  -27.1120 C   0  0  0  0  0
   -9.5530    2.7700  -23.1780 C   0  0  0  0  0
  -10.1160    3.2090  -22.1730 O   0  0  0  0  0
   -8.3770   -1.8530  -25.7920 O   0  0  0  0  0
   -7.3250    0.0930  -25.7260 O   0  0  0  0  0
   -8.6720    3.4560  -23.6920 O   0  0  0  0  0
  -11.4610    0.2336  -23.1533 H   0  0  0  0  0
  -11.6040    1.8011  -22.6535 H   0  0  0  0  0
  -12.8937    2.2621  -24.4039 H   0  0  0  0  0
  -12.6718    0.6292  -24.9742 H   0  0  0  0  0
  -13.3502    0.5536  -26.5749 H   0  0  0  0  0
  -13.6075    2.2689  -26.9782 H   0  0  0  0  0
  -13.2919    1.0875  -28.2727 H   0  0  0  0  0
  -11.5698    3.6214  -27.8950 H   0  0  0  0  0
  -10.0240    2.7593  -28.0911 H   0  0  0  0  0
  -11.4113    2.3473  -29.1288 H   0  0  0  0  0
   -9.2503    0.6792  -23.3665 H   0  0  0  0  0
   -8.9373    1.9788  -25.6034 H   0  0  0  0  0
   -9.9595    0.1518  -26.9429 H   0  0  0  0  0
  -10.4285   -0.5824  -25.3243 H   0  0  0  0  0
  -11.1407    3.1040  -25.7311 H   0  0  0  0  0
  -11.0474    0.6826  -27.3254 H   0  0  0  0  0
  -10.7768    2.5788  -21.8767 H   0  0  0  0  0
   -7.5570    1.0245  -25.7297 H   0  0  0  0  0
  2  1  1  0  0  0
  5  1  1  0  0  0
  8  2  1  0  0  0
 10  3  1  0  0  0
 10  4  1  0  0  0
  6  5  1  0  0  0
  5 11  1  0  0  0
  6  7  1  0  0  0
  8  6  1  0  0  0
  7  9  1  0  0  0
  8 10  1  0  0  0
  9 13  2  0  0  0
  9 14  1  0  0  0
 11 12  1  0  0  0
 11 15  2  0  0  0
  1 16  1  0  0  0
  1 17  1  0  0  0
  2 18  1  0  0  0
  2 19  1  0  0  0
  3 20  1  0  0  0
  3 21  1  0  0  0
  3 22  1  0  0  0
  4 23  1  0  0  0
  4 24  1  0  0  0
  4 25  1  0  0  0
  5 26  1  0  0  0
  6 27  1  0  0  0
  7 28  1  0  0  0
  7 29  1  0  0  0
  8 30  1  0  0  0
 10 31  1  0  0  0
 12 32  1  0  0  0
 14 33  1  0  0  0
M  END
$$$$
