3sio_ligand
  -I-interpret- 

100107  0  0  0  0  0  0  0  0999 V2000
  -37.6130   -7.8750  -19.3830 O   0  0  0  0  0
  -38.4430   -8.3070  -20.1510 C   0  0  0  0  0
  -38.1660   -9.2050  -21.3480 C   0  0  0  0  0
  -39.5170   -9.2460  -22.0830 C   0  0  0  0  0
  -39.4040   -8.5660  -23.4510 C   0  0  0  0  0
  -40.4450   -8.4800  -21.1490 C   0  0  0  0  0
  -41.6320   -8.2880  -21.3310 O   0  0  0  0  0
  -39.7550   -8.0520  -20.0750 N   0  0  0  0  0
  -40.3650   -7.4150  -18.9800 C   0  0  0  0  0
  -41.0100   -8.1820  -18.0120 C   0  0  0  0  0
  -41.6260   -7.5840  -16.9220 C   0  0  0  0  0
  -41.6170   -6.2060  -16.7760 C   0  0  0  0  0
  -40.9840   -5.4270  -17.7230 C   0  0  0  0  0
  -40.3550   -6.0120  -18.8330 C   0  0  0  0  0
  -39.6840   -5.1300  -19.8150 C   0  0  0  0  0
  -39.2540   -5.5660  -20.8690 O   0  0  0  0  0
  -39.5180   -3.8270  -19.5160 O   0  0  0  0  0
  -38.5480   -3.0440  -20.2560 C   0  0  0  0  0
  -38.2760   -1.7610  -19.4760 C   0  0  0  0  0
  -39.5990   -1.2170  -18.9370 C   0  0  0  0  0
  -39.4780   -0.7410  -17.4850 C   0  0  0  0  0
  -38.1980    0.0380  -17.2370 C   0  0  0  0  0
  -38.3210    1.3090  -17.9020 O   0  0  0  0  0
  -39.0960    2.1820  -17.0660 C   0  0  0  0  0
  -36.9430   -0.7210  -17.6310 C   0  0  0  0  0
  -37.2900   -2.0650  -18.3140 C   0  0  0  0  0
  -36.0720   -0.0610  -18.7500 C   0  0  0  0  0
  -36.9670    0.3270  -19.8370 N   0  3  0  0  0
  -36.3100    1.1880  -20.8200 C   0  0  0  0  0
  -35.9200    2.5170  -20.1740 C   0  0  0  0  0
  -37.6980   -0.7520  -20.4760 C   0  0  0  0  0
  -36.0730   -0.8830  -16.3760 C   0  0  0  0  0
  -35.6300    0.4670  -15.7810 C   0  0  0  0  0
  -34.1190    0.3300  -15.4510 C   0  0  0  0  0
  -33.3620    0.8930  -16.6760 C   0  0  0  0  0
  -32.0750    1.4040  -16.3180 O   0  0  0  0  0
  -32.2880    2.7830  -16.0040 C   0  0  0  0  0
  -33.2940   -0.0280  -17.8890 C   0  0  0  0  0
  -34.7650   -1.6910  -16.5680 C   0  0  0  0  0
  -33.8810   -1.2010  -15.3680 C   0  0  0  0  0
  -32.4930   -1.5310  -15.4520 O   0  0  0  0  0
  -32.2750   -2.8430  -14.9260 C   0  0  0  0  0
  -34.0670   -1.3400  -17.8830 C   0  0  0  0  0
  -33.1390   -2.4070  -18.1880 O   0  0  0  0  0
  -35.0890   -1.2330  -19.0640 C   0  0  0  0  0
  -34.4070   -1.1090  -20.3270 O   0  0  0  0  0
  -36.0050   -2.4880  -19.0770 C   0  0  0  0  0
  -35.3980   -3.6330  -18.4990 O   0  0  0  0  0
  -36.1080   -4.8000  -18.9170 C   0  0  0  0  0
  -37.8177  -10.1958  -21.0564 H   0  0  0  0  0
  -37.3588   -8.8283  -21.9762 H   0  0  0  0  0
  -39.8724  -10.2558  -22.2882 H   0  0  0  0  0
  -40.3903   -8.5144  -23.9122 H   0  0  0  0  0
  -39.0082   -7.5585  -23.3229 H   0  0  0  0  0
  -38.7334   -9.1430  -24.0878 H   0  0  0  0  0
  -41.0310   -9.2672  -18.1124 H   0  0  0  0  0
  -42.1212   -8.2034  -16.1742 H   0  0  0  0  0
  -42.1060   -5.7411  -15.9200 H   0  0  0  0  0
  -40.9723   -4.3432  -17.6075 H   0  0  0  0  0
  -38.9361   -2.8054  -21.2462 H   0  0  0  0  0
  -37.6249   -3.6104  -20.3793 H   0  0  0  0  0
  -40.3358   -2.0195  -18.9714 H   0  0  0  0  0
  -39.8916   -0.3651  -19.5508 H   0  0  0  0  0
  -39.4682   -1.6204  -16.8411 H   0  0  0  0  0
  -40.3204   -0.0822  -17.2744 H   0  0  0  0  0
  -38.0747    0.1953  -16.1655 H   0  0  0  0  0
  -40.0823    1.7471  -16.9043 H   0  0  0  0  0
  -38.5915    2.3079  -16.1080 H   0  0  0  0  0
  -39.2004    3.1514  -17.5533 H   0  0  0  0  0
  -37.6693   -2.7851  -17.5889 H   0  0  0  0  0
  -35.5270    0.8540  -18.5180 H   0  0  0  0  0
  -37.6880    0.8698  -19.3617 H   0  0  0  0  0
  -36.9963    1.3784  -21.6451 H   0  0  0  0  0
  -35.4123    0.6914  -21.1882 H   0  0  0  0  0
  -36.8152    3.0152  -19.8019 H   0  0  0  0  0
  -35.2359    2.3302  -19.3462 H   0  0  0  0  0
  -35.4317    3.1501  -20.9148 H   0  0  0  0  0
  -38.5323   -0.3101  -21.0207 H   0  0  0  0  0
  -37.0018   -1.2871  -21.1219 H   0  0  0  0  0
  -36.7455   -1.4307  -15.7158 H   0  0  0  0  0
  -36.2044    0.7059  -14.8860 H   0  0  0  0  0
  -35.8028    1.2796  -16.4867 H   0  0  0  0  0
  -33.8033    0.8409  -14.5414 H   0  0  0  0  0
  -33.9812    1.7247  -17.0122 H   0  0  0  0  0
  -32.6923    3.2949  -16.8773 H   0  0  0  0  0
  -32.9932    2.8612  -15.1765 H   0  0  0  0  0
  -31.3402    3.2402  -15.7197 H   0  0  0  0  0
  -32.2472   -0.3254  -17.9506 H   0  0  0  0  0
  -33.7389    0.5500  -18.6989 H   0  0  0  0  0
  -34.9425   -2.7660  -16.5974 H   0  0  0  0  0
  -34.1541   -1.6772  -14.4263 H   0  0  0  0  0
  -32.5908   -2.8721  -13.8832 H   0  0  0  0  0
  -32.8535   -3.5649  -15.5024 H   0  0  0  0  0
  -31.2151   -3.0884  -14.9930 H   0  0  0  0  0
  -33.6065   -3.2455  -18.1894 H   0  0  0  0  0
  -33.8237   -1.8615  -20.4497 H   0  0  0  0  0
  -36.2193   -2.7962  -20.1003 H   0  0  0  0  0
  -37.1452   -4.7295  -18.5895 H   0  0  0  0  0
  -36.0732   -4.8751  -20.0039 H   0  0  0  0  0
  -35.6455   -5.6827  -18.4755 H   0  0  0  0  0
  1  2  2  0  0  0
  2  3  1  0  0  0
  2  8  1  0  0  0
  3  4  1  0  0  0
  4  5  1  0  0  0
  4  6  1  0  0  0
  6  7  2  0  0  0
  6  8  1  0  0  0
  8  9  1  0  0  0
  9 10  4  0  0  0
  9 14  4  0  0  0
 10 11  4  0  0  0
 11 12  4  0  0  0
 12 13  4  0  0  0
 13 14  4  0  0  0
 14 15  1  0  0  0
 15 16  2  0  0  0
 15 17  1  0  0  0
 17 18  1  0  0  0
 18 19  1  0  0  0
 19 20  1  0  0  0
 19 26  1  0  0  0
 19 31  1  0  0  0
 20 21  1  0  0  0
 21 22  1  0  0  0
 22 23  1  0  0  0
 22 25  1  0  0  0
 23 24  1  0  0  0
 25 26  1  0  0  0
 25 27  1  0  0  0
 25 32  1  0  0  0
 26 47  1  0  0  0
 27 28  1  0  0  0
 27 45  1  0  0  0
 28 29  1  0  0  0
 28 31  1  0  0  0
 29 30  1  0  0  0
 32 33  1  0  0  0
 32 39  1  0  0  0
 33 34  1  0  0  0
 34 35  1  0  0  0
 34 40  1  0  0  0
 35 36  1  0  0  0
 35 38  1  0  0  0
 36 37  1  0  0  0
 38 43  1  0  0  0
 39 40  1  0  0  0
 39 43  1  0  0  0
 40 41  1  0  0  0
 41 42  1  0  0  0
 43 44  1  0  0  0
 43 45  1  0  0  0
 45 46  1  0  0  0
 45 47  1  0  0  0
 47 48  1  0  0  0
 48 49  1  0  0  0
  3 50  1  0  0  0
  3 51  1  0  0  0
  4 52  1  0  0  0
  5 53  1  0  0  0
  5 54  1  0  0  0
  5 55  1  0  0  0
 10 56  1  0  0  0
 11 57  1  0  0  0
 12 58  1  0  0  0
 13 59  1  0  0  0
 18 60  1  0  0  0
 18 61  1  0  0  0
 20 62  1  0  0  0
 20 63  1  0  0  0
 21 64  1  0  0  0
 21 65  1  0  0  0
 22 66  1  0  0  0
 24 67  1  0  0  0
 24 68  1  0  0  0
 24 69  1  0  0  0
 26 70  1  0  0  0
 27 71  1  0  0  0
 28 72  1  0  0  0
 29 73  1  0  0  0
 29 74  1  0  0  0
 30 75  1  0  0  0
 30 76  1  0  0  0
 30 77  1  0  0  0
 31 78  1  0  0  0
 31 79  1  0  0  0
 32 80  1  0  0  0
 33 81  1  0  0  0
 33 82  1  0  0  0
 34 83  1  0  0  0
 35 84  1  0  0  0
 37 85  1  0  0  0
 37 86  1  0  0  0
 37 87  1  0  0  0
 38 88  1  0  0  0
 38 89  1  0  0  0
 39 90  1  0  0  0
 40 91  1  0  0  0
 42 92  1  0  0  0
 42 93  1  0  0  0
 42 94  1  0  0  0
 44 95  1  0  0  0
 46 96  1  0  0  0
 47 97  1  0  0  0
 49 98  1  0  0  0
 49 99  1  0  0  0
 49100  1  0  0  0
M  END
$$$$
