3r8z_ligand
  -I-interpret- 

 34 35  0  0  0  0  0  0  0  0999 V2000
  -64.7410  -46.5530  -49.0630 N   0  0  0  0  0
  -65.7440  -45.7430  -49.4020 C   0  0  0  0  0
  -66.1350  -45.6630  -50.6820 N   0  0  0  0  0
  -66.3060  -45.0190  -48.3400 C   0  0  0  0  0
  -67.3590  -44.1040  -48.4410 C   0  0  0  0  0
  -67.9510  -43.3370  -47.2960 C   0  0  0  0  0
  -67.1420  -42.5970  -46.3750 C   0  0  0  0  0
  -67.7650  -41.8900  -45.3130 C   0  0  0  0  0
  -69.1450  -41.9230  -45.1820 N   0  0  0  0  0
  -69.9570  -42.6260  -46.0530 C   0  0  0  0  0
  -69.3790  -43.3480  -47.1280 C   0  0  0  0  0
  -67.9310  -43.8540  -49.6470 O   0  0  0  0  0
  -65.5030  -45.4110  -46.8510 S   0  0  0  0  0
  -64.4830  -46.4940  -47.7480 C   0  0  0  0  0
  -63.4770  -47.2460  -47.2030 N   0  0  0  0  0
  -63.1360  -47.1160  -45.7990 C   0  0  0  0  0
  -61.8620  -46.3450  -45.6380 C   0  0  0  0  0
  -61.8490  -44.8820  -45.6440 C   0  0  0  0  0
  -65.6652  -46.2214  -51.3946 H   0  0  0  0  0
  -66.9023  -45.0437  -50.9431 H   0  0  0  0  0
  -66.6107  -44.5937  -47.8178 H   0  0  0  0  0
  -66.0581  -42.5767  -46.4882 H   0  0  0  0  0
  -67.1612  -41.3238  -44.6038 H   0  0  0  0  0
  -71.0381  -42.6252  -45.9137 H   0  0  0  0  0
  -70.0106  -43.9054  -47.8197 H   0  0  0  0  0
  -67.4967  -44.3815  -50.3214 H   0  0  0  0  0
  -62.9628  -47.9034  -47.7893 H   0  0  0  0  0
  -63.0044  -48.1106  -45.3729 H   0  0  0  0  0
  -63.9386  -46.5848  -45.2873 H   0  0  0  0  0
  -61.2811  -46.6144  -46.5201 H   0  0  0  0  0
  -61.5254  -46.6045  -44.6343 H   0  0  0  0  0
  -62.2412  -44.5203  -46.5945 H   0  0  0  0  0
  -62.4700  -44.5111  -44.8286 H   0  0  0  0  0
  -60.8262  -44.5285  -45.5134 H   0  0  0  0  0
  1  2  4  0  0  0
  1 14  4  0  0  0
  2  3  1  0  0  0
  2  4  4  0  0  0
  4  5  1  0  0  0
  4 13  4  0  0  0
  5  6  1  0  0  0
  5 12  1  0  0  0
  6  7  4  0  0  0
  6 11  4  0  0  0
  7  8  4  0  0  0
  8  9  4  0  0  0
  9 10  4  0  0  0
 10 11  4  0  0  0
 13 14  4  0  0  0
 14 15  1  0  0  0
 15 16  1  0  0  0
 16 17  1  0  0  0
 17 18  1  0  0  0
  3 19  1  0  0  0
  3 20  1  0  0  0
  5 21  1  0  0  0
  7 22  1  0  0  0
  8 23  1  0  0  0
 10 24  1  0  0  0
 11 25  1  0  0  0
 12 26  1  0  0  0
 15 27  1  0  0  0
 16 28  1  0  0  0
 16 29  1  0  0  0
 17 30  1  0  0  0
 17 31  1  0  0  0
 18 32  1  0  0  0
 18 33  1  0  0  0
 18 34  1  0  0  0
M  END
$$$$
