4qyh_ligand
  -I-interpret- 

 48 52  0  0  0  0  0  0  0  0999 V2000
    9.0010    5.8190   14.9130 N   0  0  0  0  0
    8.4420    6.4980   15.6680 C   0  0  0  0  0
    7.8520    7.2660   16.5130 C   0  0  0  0  0
    8.6010    8.2590   17.0470 N   0  0  0  0  0
    8.1030    9.1310   17.9350 C   0  0  0  0  0
    6.7780    9.0360   18.3240 C   0  0  0  0  0
    5.9990    9.7610   19.1760 N   0  0  0  0  0
    4.7550    9.2310   19.1900 C   0  0  0  0  0
    6.4990    7.1230   16.8650 C   0  0  0  0  0
    5.9780    8.0350   17.7930 C   0  0  0  0  0
    4.7130    8.1620   18.3340 C   0  0  0  0  0
    3.5190    7.4500   18.1700 C   0  0  0  0  0
    2.3970    7.8960   18.9030 C   0  0  0  0  0
    2.5250    8.9980   19.7590 C   0  0  0  0  0
    3.6870    9.6540   19.8960 N   0  0  0  0  0
    1.0570    7.2260   18.8110 C   0  0  0  0  0
    0.6910    6.5220   17.6610 C   0  0  0  0  0
   -0.5540    5.9020   17.5690 C   0  0  0  0  0
   -1.4820    5.9790   18.6190 C   0  0  0  0  0
   -1.1170    6.6870   19.7630 C   0  0  0  0  0
    0.1280    7.3070   19.8590 C   0  0  0  0  0
   -2.7020    5.3580   18.5660 N   0  0  0  0  0
   -2.9250    4.2980   17.5810 C   0  0  0  0  0
   -3.8110    3.2760   18.2750 C   0  0  0  0  0
   -5.0650    3.9020   18.7350 N   0  3  0  0  0
   -5.8790    2.8850   19.4360 C   0  0  0  0  0
   -4.7840    5.0520   19.6260 C   0  0  0  0  0
   -3.9120    6.0900   18.9250 C   0  0  0  0  0
    8.7396    9.9126   18.3496 H   0  0  0  0  0
    5.8805    6.3356   16.4342 H   0  0  0  0  0
    3.4577    6.5884   17.5052 H   0  0  0  0  0
    1.6574    9.3310   20.3286 H   0  0  0  0  0
    1.3878    6.4568   16.8253 H   0  0  0  0  0
   -0.8112    5.3480   16.6662 H   0  0  0  0  0
   -1.8164    6.7570   20.5961 H   0  0  0  0  0
    0.3832    7.8627   20.7613 H   0  0  0  0  0
   -1.9850    3.8538   17.2535 H   0  0  0  0  0
   -3.3957    4.6858   16.6776 H   0  0  0  0  0
   -3.2790    2.8760   19.1381 H   0  0  0  0  0
   -4.0517    2.4807   17.5695 H   0  0  0  0  0
   -5.5813    4.2561   17.9298 H   0  0  0  0  0
   -6.1042    2.0669   18.7518 H   0  0  0  0  0
   -5.3222    2.5022   20.2913 H   0  0  0  0  0
   -6.8084    3.3391   19.7797 H   0  0  0  0  0
   -4.2545    4.6894   20.5070 H   0  0  0  0  0
   -5.7296    5.5193   19.9011 H   0  0  0  0  0
   -4.4056    6.5208   18.0539 H   0  0  0  0  0
   -3.6996    6.9474   19.5637 H   0  0  0  0  0
  1  2  3  0  0  0
  2  3  1  0  0  0
  3  4  4  0  0  0
  3  9  4  0  0  0
  4  5  4  0  0  0
  5  6  4  0  0  0
  6  7  4  0  0  0
  6 10  4  0  0  0
  7  8  4  0  0  0
  8 11  4  0  0  0
  8 15  4  0  0  0
  9 10  4  0  0  0
 10 11  4  0  0  0
 11 12  4  0  0  0
 12 13  4  0  0  0
 13 14  4  0  0  0
 13 16  1  0  0  0
 14 15  4  0  0  0
 16 17  4  0  0  0
 16 21  4  0  0  0
 17 18  4  0  0  0
 18 19  4  0  0  0
 19 20  4  0  0  0
 19 22  1  0  0  0
 20 21  4  0  0  0
 22 23  1  0  0  0
 22 28  1  0  0  0
 23 24  1  0  0  0
 24 25  1  0  0  0
 25 26  1  0  0  0
 25 27  1  0  0  0
 27 28  1  0  0  0
  5 29  1  0  0  0
  9 30  1  0  0  0
 12 31  1  0  0  0
 14 32  1  0  0  0
 17 33  1  0  0  0
 18 34  1  0  0  0
 20 35  1  0  0  0
 21 36  1  0  0  0
 23 37  1  0  0  0
 23 38  1  0  0  0
 24 39  1  0  0  0
 24 40  1  0  0  0
 25 41  1  0  0  0
 26 42  1  0  0  0
 26 43  1  0  0  0
 26 44  1  0  0  0
 27 45  1  0  0  0
 27 46  1  0  0  0
 28 47  1  0  0  0
 28 48  1  0  0  0
M  END
$$$$
