4baq_ligand
  -I-interpret- 

 70 72  0  0  0  0  0  0  0  0999 V2000
   18.7700  -14.5310   24.2010 C   0  0  0  0  0
   18.8900  -15.8540   24.9790 C   0  0  0  0  0
   19.4250  -15.5690   26.3880 C   0  0  0  0  0
   20.8250  -14.9400   26.2940 C   0  0  0  0  0
   20.7250  -13.5770   25.5940 C   0  0  0  0  0
   20.1110  -13.7580   24.1860 C   0  0  0  0  0
   17.0040  -15.5640   22.7950 N   0  3  0  0  0
   18.2700  -14.7950   22.7660 C   0  0  0  0  0
   17.9940  -13.4660   22.1110 C   0  0  0  0  0
   16.9890  -12.8630   22.4510 O   0  0  0  0  0
   18.8060  -12.9080   21.1800 N   0  0  0  0  0
   18.6340  -11.7030   20.3590 C   0  0  0  0  0
   17.2390  -11.8210   19.7690 C   0  0  0  0  0
   16.8970  -12.8940   19.2870 O   0  0  0  0  0
   16.3370  -10.8280   19.9420 N   0  0  0  0  0
   14.9700  -11.0130   19.4510 C   0  0  0  0  0
   14.0140  -11.0280   20.6150 C   0  0  0  0  0
   13.4600   -9.8210   21.0260 C   0  0  0  0  0
   12.5830   -9.7860   22.0930 C   0  0  0  0  0
   12.2690  -10.9790   22.7660 C   0  0  0  0  0
   12.8180  -12.2040   22.3360 C   0  0  0  0  0
   13.7050  -12.2160   21.2610 C   0  0  0  0  0
   11.2680  -10.9270   23.8550 C   0  0  0  0  0
   10.5420  -11.9780   24.1770 N   0  0  0  0  0
   11.0360   -9.7280   24.4760 N   0  0  0  0  0
   19.7960  -12.1120   19.4430 C   0  0  0  0  0
   20.0340  -13.2570   20.4360 C   0  0  0  0  0
   16.3660  -15.8900   21.4900 C   0  0  0  0  0
   12.0350  -15.5660   19.4200 C   0  0  0  0  0
   14.8900  -16.2140   21.6700 C   0  0  0  0  0
   14.4460  -16.5720   22.7540 O   0  0  0  0  0
   12.6200  -16.3420   20.6020 C   0  0  0  0  0
   14.0720  -16.1010   20.5930 N   0  0  0  0  0
   18.0393  -13.9051   24.7133 H   0  0  0  0  0
   19.5752  -16.5223   24.4575 H   0  0  0  0  0
   17.9096  -16.3249   25.0501 H   0  0  0  0  0
   19.4854  -16.5028   26.9470 H   0  0  0  0  0
   18.7523  -14.8786   26.8969 H   0  0  0  0  0
   21.4813  -15.5959   25.7221 H   0  0  0  0  0
   21.2320  -14.8058   27.2962 H   0  0  0  0  0
   21.7212  -13.1446   25.5009 H   0  0  0  0  0
   20.0905  -12.9143   26.1824 H   0  0  0  0  0
   19.9157  -12.7653   23.7805 H   0  0  0  0  0
   20.8178  -14.3340   23.5887 H   0  0  0  0  0
   16.3348  -14.9717   23.2868 H   0  0  0  0  0
   17.2387  -16.4623   23.2173 H   0  0  0  0  0
   19.0255  -15.3603   22.2203 H   0  0  0  0  0
   18.6728  -10.6799   20.7330 H   0  0  0  0  0
   16.6056   -9.9616   20.4084 H   0  0  0  0  0
   14.9025  -11.9592   18.9141 H   0  0  0  0  0
   14.7117  -10.1937   18.7801 H   0  0  0  0  0
   13.7184   -8.8992   20.5047 H   0  0  0  0  0
   12.1390   -8.8422   22.4097 H   0  0  0  0  0
   12.5513  -13.1332   22.8395 H   0  0  0  0  0
   14.1530  -13.1529   20.9300 H   0  0  0  0  0
   10.6627  -12.8556   23.6713 H   0  0  0  0  0
   10.3047   -9.6530   25.1831 H   0  0  0  0  0
   11.5946   -8.9104   24.2313 H   0  0  0  0  0
   20.5843  -11.4164   19.1552 H   0  0  0  0  0
   19.6637  -12.2845   18.3749 H   0  0  0  0  0
   20.1597  -14.2723   20.0598 H   0  0  0  0  0
   20.9832  -13.3127   20.9689 H   0  0  0  0  0
   16.8656  -16.7603   21.0644 H   0  0  0  0  0
   16.4565  -15.0263   20.8312 H   0  0  0  0  0
   12.2522  -14.5047   19.5406 H   0  0  0  0  0
   12.4817  -15.9266   18.4934 H   0  0  0  0  0
   10.9559  -15.7159   19.3870 H   0  0  0  0  0
   12.4035  -17.4065   20.5117 H   0  0  0  0  0
   12.1779  -16.0088   21.5409 H   0  0  0  0  0
   14.4971  -15.8274   19.7071 H   0  0  0  0  0
  1  2  1  0  0  0
  1  6  1  0  0  0
  8  1  1  0  0  0
  2  3  1  0  0  0
  3  4  1  0  0  0
  5  4  1  0  0  0
  6  5  1  0  0  0
  7  8  1  0  0  0
 28  7  1  0  0  0
  8  9  1  0  0  0
  9 10  2  0  0  0
  9 11  1  0  0  0
 11 12  1  0  0  0
 11 27  1  0  0  0
 12 13  1  0  0  0
 12 26  1  0  0  0
 13 14  2  0  0  0
 13 15  1  0  0  0
 15 16  1  0  0  0
 16 17  1  0  0  0
 17 18  4  0  0  0
 17 22  4  0  0  0
 18 19  4  0  0  0
 19 20  4  0  0  0
 21 20  4  0  0  0
 20 23  1  0  0  0
 22 21  4  0  0  0
 23 24  2  0  0  0
 23 25  1  0  0  0
 27 26  1  0  0  0
 30 28  1  0  0  0
 32 29  1  0  0  0
 30 31  2  0  0  0
 33 30  1  0  0  0
 32 33  1  0  0  0
  1 34  1  0  0  0
  2 35  1  0  0  0
  2 36  1  0  0  0
  3 37  1  0  0  0
  3 38  1  0  0  0
  4 39  1  0  0  0
  4 40  1  0  0  0
  5 41  1  0  0  0
  5 42  1  0  0  0
  6 43  1  0  0  0
  6 44  1  0  0  0
  7 45  1  0  0  0
  7 46  1  0  0  0
  8 47  1  0  0  0
 12 48  1  0  0  0
 15 49  1  0  0  0
 16 50  1  0  0  0
 16 51  1  0  0  0
 18 52  1  0  0  0
 19 53  1  0  0  0
 21 54  1  0  0  0
 22 55  1  0  0  0
 24 56  1  0  0  0
 25 57  1  0  0  0
 25 58  1  0  0  0
 26 59  1  0  0  0
 26 60  1  0  0  0
 27 61  1  0  0  0
 27 62  1  0  0  0
 28 63  1  0  0  0
 28 64  1  0  0  0
 29 65  1  0  0  0
 29 66  1  0  0  0
 29 67  1  0  0  0
 32 68  1  0  0  0
 32 69  1  0  0  0
 33 70  1  0  0  0
M  END
$$$$
