5iz9_ligand
  -I-interpret- 

 91 90  0  0  0  0  0  0  0  0999 V2000
    5.6840   -3.7440  -13.8170 C   0  0  0  0  0
    4.5750   -3.5470  -14.2680 O   0  0  0  0  0
    6.9020   -3.6330  -14.7150 C   0  0  0  0  0
    5.9240   -4.1120  -12.5420 N   0  0  0  0  0
    5.0320   -4.7270  -11.5940 C   0  0  0  0  0
    4.7400   -3.3350  -11.2270 C   0  0  0  0  0
    3.5790   -2.9700  -10.9010 O   0  0  0  0  0
    5.7560   -2.4750  -11.0110 N   0  0  0  0  0
    5.5330   -1.0660  -10.6530 C   0  0  0  0  0
    5.6290   -0.9460   -9.1470 C   0  0  0  0  0
    6.2680   -1.7730   -8.4950 O   0  0  0  0  0
    4.9870    0.0810   -8.5960 N   0  0  0  0  0
    4.9080    0.2750   -7.1420 C   0  0  0  0  0
    3.5860    0.9050   -6.7250 C   0  0  0  0  0
    2.8200    1.3800   -7.5710 O   0  0  0  0  0
    6.0730    1.1340   -6.6480 C   0  0  0  0  0
    6.1120    2.5530   -7.2080 C   0  0  0  0  0
    7.1390    3.4260   -6.5110 C   0  0  0  0  0
    7.0300    4.6640   -6.6080 O   0  0  0  0  0
    8.0570    2.8840   -5.8570 O   0  0  0  0  0
    3.3370    0.9070   -5.4170 N   0  0  0  0  0
    2.0870    1.4180   -4.8600 C   0  0  0  0  0
    2.1480    1.5990   -3.3470 C   0  0  0  0  0
    2.9450    0.9660   -2.6600 O   0  0  0  0  0
    0.9310    0.4830   -5.2120 C   0  0  0  0  0
    1.2770    2.4730   -2.8490 N   0  0  0  0  0
    0.9820    2.5700   -1.4260 C   0  0  0  0  0
    0.2230    1.3200   -0.9940 C   0  0  0  0  0
   -0.3340    0.5970   -1.8280 O   0  0  0  0  0
    0.1210    3.8060   -1.1330 C   0  0  0  0  0
    0.7100    5.1920   -1.4060 C   0  0  0  0  0
   -0.3280    6.2690   -1.1460 C   0  0  0  0  0
    1.9300    5.4440   -0.5370 C   0  0  0  0  0
    0.1950    1.0880    0.3160 N   0  0  0  0  0
   -0.5230   -0.0420    0.8970 C   0  0  0  0  0
   -2.0170    0.0320    0.5850 C   0  0  0  0  0
   -2.5770    1.1240    0.4660 O   0  0  0  0  0
   -0.3070   -0.0790    2.4010 C   0  0  0  0  0
   -2.6450   -1.1340    0.4360 N   0  0  0  0  0
   -4.0940   -1.2310    0.2390 C   0  0  0  0  0
   -4.7690   -1.3320    1.5930 C   0  0  0  0  0
   -4.7560   -2.3810    2.2160 O   0  0  0  0  0
   -4.4450   -2.4510   -0.6100 C   0  0  0  0  0
   -3.8690   -2.3740   -2.0070 C   0  0  0  0  0
   -3.9260   -1.2860   -2.6250 O   0  0  0  0  0
   -3.3700   -3.4120   -2.4910 O   0  0  0  0  0
   -5.3940   -0.1690    2.1090 N   0  0  0  0  0
    6.8179   -4.3522  -15.5297 H   0  0  0  0  0
    6.9598   -2.6242  -15.1237 H   0  0  0  0  0
    7.8002   -3.8431  -14.1344 H   0  0  0  0  0
    6.8683   -3.9293  -12.2023 H   0  0  0  0  0
    5.3355   -5.4937  -10.8812 H   0  0  0  0  0
    4.2698   -5.4589  -11.8614 H   0  0  0  0  0
    6.7140   -2.8140  -11.0991 H   0  0  0  0  0
    4.5504   -0.7412  -10.9951 H   0  0  0  0  0
    6.2813   -0.4330  -11.1300 H   0  0  0  0  0
    4.5322    0.7597   -9.2067 H   0  0  0  0  0
    4.9697   -0.7114   -6.6824 H   0  0  0  0  0
    6.9882    0.6413   -6.9762 H   0  0  0  0  0
    5.9602    1.2254   -5.5677 H   0  0  0  0  0
    5.1305    3.0016   -7.0549 H   0  0  0  0  0
    6.3837    2.4909   -8.2618 H   0  0  0  0  0
    7.9636    1.9299   -5.9069 H   0  0  0  0  0
    4.0444    0.5385   -4.7812 H   0  0  0  0  0
    1.9249    2.4005   -5.3033 H   0  0  0  0  0
    0.8377    0.4148   -6.2959 H   0  0  0  0  0
    1.1276   -0.5068   -4.7999 H   0  0  0  0  0
    0.0060    0.8763   -4.7905 H   0  0  0  0  0
    0.7952    3.1020   -3.4914 H   0  0  0  0  0
    1.9188    2.6585   -0.8759 H   0  0  0  0  0
   -0.0563    3.7798   -0.0578 H   0  0  0  0  0
   -0.7327    3.7230   -1.8056 H   0  0  0  0  0
    1.0114    5.2264   -2.4529 H   0  0  0  0  0
   -1.1849    6.1116   -1.8010 H   0  0  0  0  0
   -0.6499    6.2181   -0.1058 H   0  0  0  0  0
    0.1082    7.2479   -1.3452 H   0  0  0  0  0
    1.6448    5.3847    0.5134 H   0  0  0  0  0
    2.6891    4.6918   -0.7517 H   0  0  0  0  0
    2.3285    6.4357   -0.7512 H   0  0  0  0  0
    0.6943    1.7241    0.9377 H   0  0  0  0  0
   -0.1293   -0.9565    0.4534 H   0  0  0  0  0
    0.7574   -0.1837    2.6114 H   0  0  0  0  0
   -0.6767    0.8464    2.8427 H   0  0  0  0  0
   -0.8473   -0.9261    2.8236 H   0  0  0  0  0
   -2.0954   -1.9929    0.4600 H   0  0  0  0  0
   -4.4431   -0.3416   -0.2856 H   0  0  0  0  0
   -5.5305   -2.4975   -0.6972 H   0  0  0  0  0
   -4.0250   -3.3307   -0.1224 H   0  0  0  0  0
   -4.3461   -0.6253   -2.0694 H   0  0  0  0  0
   -5.8475   -0.1963    3.0222 H   0  0  0  0  0
   -5.3902    0.6951    1.5671 H   0  0  0  0  0
  1  2  2  0  0  0
  1  3  1  0  0  0
  1  4  1  0  0  0
  4  5  1  0  0  0
  5  6  1  0  0  0
  6  7  2  0  0  0
  6  8  1  0  0  0
  8  9  1  0  0  0
  9 10  1  0  0  0
 10 11  2  0  0  0
 10 12  1  0  0  0
 12 13  1  0  0  0
 13 14  1  0  0  0
 13 16  1  0  0  0
 14 15  2  0  0  0
 14 21  1  0  0  0
 16 17  1  0  0  0
 17 18  1  0  0  0
 18 19  2  0  0  0
 18 20  1  0  0  0
 21 22  1  0  0  0
 22 23  1  0  0  0
 22 25  1  0  0  0
 23 24  2  0  0  0
 23 26  1  0  0  0
 26 27  1  0  0  0
 27 28  1  0  0  0
 27 30  1  0  0  0
 28 29  2  0  0  0
 28 34  1  0  0  0
 30 31  1  0  0  0
 31 32  1  0  0  0
 31 33  1  0  0  0
 34 35  1  0  0  0
 35 36  1  0  0  0
 35 38  1  0  0  0
 36 37  2  0  0  0
 36 39  1  0  0  0
 39 40  1  0  0  0
 40 41  1  0  0  0
 40 43  1  0  0  0
 41 42  2  0  0  0
 41 47  1  0  0  0
 43 44  1  0  0  0
 44 45  1  0  0  0
 44 46  2  0  0  0
  3 48  1  0  0  0
  3 49  1  0  0  0
  3 50  1  0  0  0
  4 51  1  0  0  0
  5 52  1  0  0  0
  5 53  1  0  0  0
  8 54  1  0  0  0
  9 55  1  0  0  0
  9 56  1  0  0  0
 12 57  1  0  0  0
 13 58  1  0  0  0
 16 59  1  0  0  0
 16 60  1  0  0  0
 17 61  1  0  0  0
 17 62  1  0  0  0
 20 63  1  0  0  0
 21 64  1  0  0  0
 22 65  1  0  0  0
 25 66  1  0  0  0
 25 67  1  0  0  0
 25 68  1  0  0  0
 26 69  1  0  0  0
 27 70  1  0  0  0
 30 71  1  0  0  0
 30 72  1  0  0  0
 31 73  1  0  0  0
 32 74  1  0  0  0
 32 75  1  0  0  0
 32 76  1  0  0  0
 33 77  1  0  0  0
 33 78  1  0  0  0
 33 79  1  0  0  0
 34 80  1  0  0  0
 35 81  1  0  0  0
 38 82  1  0  0  0
 38 83  1  0  0  0
 38 84  1  0  0  0
 39 85  1  0  0  0
 40 86  1  0  0  0
 43 87  1  0  0  0
 43 88  1  0  0  0
 45 89  1  0  0  0
 47 90  1  0  0  0
 47 91  1  0  0  0
M  END
$$$$
