### 
### Created by X-TOOL on Fri Nov  2 10:54:42 2018
### 

@<TRIPOS>MOLECULE
5iz9_ligand
   89    88     1     0     0
SMALL
GAST_HUCK


@<TRIPOS>ATOM
      1 C           5.6840   -3.7440  -13.8170 C.2       1 ACE         0.1749
      2 O           4.5750   -3.5470  -14.2680 O.2       1 ACE        -0.3972
      3 CH3         6.9020   -3.6330  -14.7150 C.3       1 ACE         0.0258
      4 N           5.9240   -4.1120  -12.5420 N.am      1 ACE        -0.2685
      5 CA          5.0320   -4.7270  -11.5940 C.3       1 ACE         0.1200
      6 C           4.7400   -3.3350  -11.2270 C.2       1 ACE         0.2005
      7 O           3.5790   -2.9700  -10.9010 O.2       1 ACE        -0.3947
      8 N           5.7560   -2.4750  -11.0110 N.am      1 ACE        -0.2666
      9 CA          5.5330   -1.0660  -10.6530 C.3       1 ACE         0.1201
     10 C           5.6290   -0.9460   -9.1470 C.2       1 ACE         0.2007
     11 O           6.2680   -1.7730   -8.4950 O.2       1 ACE        -0.3947
     12 N           4.9870    0.0810   -8.5960 N.am      1 ACE        -0.2639
     13 CA          4.9080    0.2750   -7.1420 C.3       1 ACE         0.1324
     14 C           3.5860    0.9050   -6.7250 C.2       1 ACE         0.2040
     15 O           2.8200    1.3800   -7.5710 O.2       1 ACE        -0.3944
     16 CB          6.0730    1.1340   -6.6480 C.3       1 ACE        -0.0008
     17 CG          6.1120    2.5530   -7.2080 C.3       1 ACE         0.0044
     18 CD          7.1390    3.4260   -6.5110 C.2       1 ACE         0.0350
     19 OE1         7.0300    4.6640   -6.6080 O.co2     1 ACE        -0.5690
     20 OE2         8.0570    2.8840   -5.8570 O.co2     1 ACE        -0.5690
     21 N           3.3370    0.9070   -5.4170 N.am      1 ACE        -0.2640
     22 CA          2.0870    1.4180   -4.8600 C.3       1 ACE         0.1282
     23 C           2.1480    1.5990   -3.3470 C.2       1 ACE         0.2036
     24 O           2.9450    0.9660   -2.6600 O.2       1 ACE        -0.3944
     25 CB          0.9310    0.4830   -5.2120 C.3       1 ACE        -0.0244
     26 N           1.2770    2.4730   -2.8490 N.am      1 ACE        -0.2637
     27 CA          0.9820    2.5700   -1.4260 C.3       1 ACE         0.1312
     28 C           0.2230    1.3200   -0.9940 C.2       1 ACE         0.2039
     29 O          -0.3340    0.5970   -1.8280 O.2       1 ACE        -0.3944
     30 CB          0.1210    3.8060   -1.1330 C.3       1 ACE        -0.0101
     31 CG          0.7100    5.1920   -1.4060 C.3       1 ACE        -0.0425
     32 CD1        -0.3280    6.2690   -1.1460 C.3       1 ACE        -0.0625
     33 CD2         1.9300    5.4440   -0.5370 C.3       1 ACE        -0.0625
     34 N           0.1950    1.0880    0.3160 N.am      1 ACE        -0.2640
     35 CA         -0.5230   -0.0420    0.8970 C.3       1 ACE         0.1282
     36 C          -2.0170    0.0320    0.5850 C.2       1 ACE         0.2037
     37 O          -2.5770    1.1240    0.4660 O.2       1 ACE        -0.3944
     38 CB         -0.3070   -0.0790    2.4010 C.3       1 ACE        -0.0244
     39 N          -2.6450   -1.1340    0.4360 N.am      1 ACE        -0.2622
     40 CA         -4.0940   -1.2310    0.2390 C.3       1 ACE         0.1420
     41 C          -4.7690   -1.3320    1.5930 C.2       1 ACE         0.2009
     42 O          -4.7560   -2.3810    2.2160 O.2       1 ACE        -0.3946
     43 CB         -4.4450   -2.4510   -0.6100 C.3       1 ACE         0.0406
     44 CG         -3.8690   -2.3740   -2.0070 C.2       1 ACE         0.0393
     45 OD1        -3.9260   -1.2860   -2.6250 O.co2     1 ACE        -0.5688
     46 OD2        -3.3700   -3.4120   -2.4910 O.co2     1 ACE        -0.5688
     47 N          -5.3940   -0.1690    2.1090 N.am      1 ACE        -0.2989
     48 H1          7.8092   -3.8449  -14.1302 H         1 ACE         0.0467
     49 H2          6.9615   -2.6153  -15.1281 H         1 ACE         0.0467
     50 H3          6.8184   -4.3584  -15.5377 H         1 ACE         0.0467
     51 H4          6.8497   -3.9329  -12.2089 H         1 ACE         0.1880
     52 H5          5.5141   -5.3327  -10.8125 H         1 ACE         0.0763
     53 H6          4.1923   -5.2895  -12.0282 H         1 ACE         0.0763
     54 H7          6.6952   -2.8074  -11.0974 H         1 ACE         0.1881
     55 H8          4.5352   -0.7484  -10.9900 H         1 ACE         0.0763
     56 H9          6.2985   -0.4345  -11.1274 H         1 ACE         0.0763
     57 H10         4.5411    0.7464   -9.1947 H         1 ACE         0.1883
     58 H11         4.9806   -0.7132   -6.6643 H         1 ACE         0.0801
     59 H12         7.0103    0.6310   -6.9280 H         1 ACE         0.0330
     60 H13         6.0062    1.2016   -5.5521 H         1 ACE         0.0330
     61 H14         5.1188    3.0088   -7.0829 H         1 ACE         0.0433
     62 H15         6.3603    2.5029   -8.2784 H         1 ACE         0.0433
     63 H16         4.0305    0.5458   -4.7936 H         1 ACE         0.1883
     64 H17         1.8921    2.4011   -5.3133 H         1 ACE         0.0797
     65 H18        -0.0032    0.8789   -4.7871 H         1 ACE         0.0277
     66 H19         1.1281   -0.5163   -4.7966 H         1 ACE         0.0277
     67 H20         0.8357    0.4133   -6.3056 H         1 ACE         0.0277
     68 H21         0.8047    3.0897   -3.4788 H         1 ACE         0.1883
     69 H22         1.9245    2.6429   -0.8635 H         1 ACE         0.0800
     70 H23        -0.1437    3.7709   -0.0659 H         1 ACE         0.0315
     71 H24        -0.7917    3.7165   -1.7404 H         1 ACE         0.0315
     72 H25         1.0137    5.2403   -2.4621 H         1 ACE         0.0298
     73 H26         0.1110    7.2574   -1.3467 H         1 ACE         0.0232
     74 H27        -0.6536    6.2187   -0.0965 H         1 ACE         0.0232
     75 H28        -1.1934    6.1113   -1.8064 H         1 ACE         0.0232
     76 H29         2.6819    4.6636   -0.7255 H         1 ACE         0.0232
     77 H30         1.6362    5.4217    0.5228 H         1 ACE         0.0232
     78 H31         2.3554    6.4291   -0.7790 H         1 ACE         0.0232
     79 H32         0.6845    1.7116    0.9255 H         1 ACE         0.1883
     80 H33        -0.1225   -0.9692    0.4612 H         1 ACE         0.0797
     81 H34        -0.8518   -0.9335    2.8287 H         1 ACE         0.0277
     82 H35        -0.6797    0.8544    2.8481 H         1 ACE         0.0277
     83 H36         0.7668   -0.1847    2.6147 H         1 ACE         0.0277
     84 H37        -2.1062   -1.9761    0.4596 H         1 ACE         0.1884
     85 H38        -4.4480   -0.3257   -0.2758 H         1 ACE         0.0819
     86 H39        -5.5400   -2.5252   -0.6842 H         1 ACE         0.0478
     87 H40        -4.0493   -3.3501   -0.1151 H         1 ACE         0.0478
     88 H41        -5.8489   -0.1989    2.9991 H         1 ACE         0.1815
     89 H42        -5.3800    0.6813    1.5830 H         1 ACE         0.1815
@<TRIPOS>BOND
     1    1    2 2  
     2    1    3 1  
     3    1    4 am 
     4    4    5 1  
     5    5    6 1  
     6    6    7 2  
     7    6    8 am 
     8    8    9 1  
     9    9   10 1  
    10   10   11 2  
    11   10   12 am 
    12   12   13 1  
    13   13   14 1  
    14   13   16 1  
    15   14   15 2  
    16   14   21 am 
    17   16   17 1  
    18   17   18 1  
    19   18   19 ar 
    20   18   20 ar 
    21   21   22 1  
    22   22   23 1  
    23   22   25 1  
    24   23   24 2  
    25   23   26 am 
    26   26   27 1  
    27   27   28 1  
    28   27   30 1  
    29   28   29 2  
    30   28   34 am 
    31   30   31 1  
    32   31   32 1  
    33   31   33 1  
    34   34   35 1  
    35   35   36 1  
    36   35   38 1  
    37   36   37 2  
    38   36   39 am 
    39   39   40 1  
    40   40   41 1  
    41   40   43 1  
    42   41   42 2  
    43   41   47 am 
    44   43   44 1  
    45   44   45 ar 
    46   44   46 ar 
    47    3   48 1  
    48    3   49 1  
    49    3   50 1  
    50    4   51 1  
    51    5   52 1  
    52    5   53 1  
    53    8   54 1  
    54    9   55 1  
    55    9   56 1  
    56   12   57 1  
    57   13   58 1  
    58   16   59 1  
    59   16   60 1  
    60   17   61 1  
    61   17   62 1  
    62   21   63 1  
    63   22   64 1  
    64   25   65 1  
    65   25   66 1  
    66   25   67 1  
    67   26   68 1  
    68   27   69 1  
    69   30   70 1  
    70   30   71 1  
    71   31   72 1  
    72   32   73 1  
    73   32   74 1  
    74   32   75 1  
    75   33   76 1  
    76   33   77 1  
    77   33   78 1  
    78   34   79 1  
    79   35   80 1  
    80   38   81 1  
    81   38   82 1  
    82   38   83 1  
    83   39   84 1  
    84   40   85 1  
    85   43   86 1  
    86   43   87 1  
    87   47   88 1  
    88   47   89 1  
@<TRIPOS>SUBSTRUCTURE
     1 ACE         1

