1w2x_ligand
  -I-interpret- 

 72 77  0  0  0  0  0  0  0  0999 V2000
   -5.2130   34.1310  -16.7800 C   0  0  0  0  0
   -5.2190   35.6620  -16.7380 C   0  0  0  0  0
   -4.2710   36.1310  -15.7640 O   0  0  0  0  0
   -2.9260   35.8120  -16.1540 C   0  0  0  0  0
   -2.7390   34.2930  -16.1230 C   0  0  0  0  0
   -3.8270   33.6090  -16.8610 N   0  0  0  0  0
   -3.5420   32.5310  -17.5870 C   0  0  0  0  0
   -2.4030   32.0640  -17.5410 O   0  0  0  0  0
   -4.5960   31.8710  -18.4800 C   0  0  0  0  0
   -3.9090   31.3610  -19.7490 C   0  0  0  0  0
   -5.2420   30.7040  -17.7270 C   0  0  0  0  0
   -6.0850   29.8080  -18.6400 C   0  0  0  0  0
   -5.3100   29.4240  -19.9030 C   0  0  0  0  0
   -4.8760   30.6460  -20.5970 N   0  3  0  0  0
   -4.2590   30.3420  -21.8990 C   0  0  0  0  0
   -3.9080   31.6340  -22.6430 C   0  0  0  0  0
   -3.1960   31.3300  -23.9640 C   0  0  0  0  0
   -5.1840   29.4890  -22.7730 C   0  0  0  0  0
   -4.5010   29.1270  -24.0950 C   0  0  0  0  0
   -3.9980   30.3590  -24.7460 N   0  0  0  0  0
   -4.2740   30.5770  -26.0310 C   0  0  0  0  0
   -4.7880   29.6770  -26.6940 O   0  0  0  0  0
   -3.9670   31.9270  -26.6890 C   0  0  0  0  0
   -2.8060   32.0900  -27.4410 C   0  0  0  0  0
   -1.8750   31.0580  -27.5480 C   0  0  0  0  0
   -0.7190   31.2230  -28.3050 C   0  0  0  0  0
   -0.4850   32.4260  -28.9630 C   0  0  0  0  0
   -1.4090   33.4610  -28.8590 C   0  0  0  0  0
   -2.5650   33.2950  -28.0990 C   0  0  0  0  0
   -3.4780   34.3400  -28.0010 C   0  0  0  0  0
   -4.6340   34.1820  -27.2420 C   0  0  0  0  0
   -4.8790   32.9760  -26.5840 C   0  0  0  0  0
   -6.0300   32.8450  -25.8130 C   0  0  0  0  0
   -6.9290   33.9020  -25.6960 C   0  0  0  0  0
   -6.6800   35.1020  -26.3550 C   0  0  0  0  0
   -5.5300   35.2390  -27.1290 C   0  0  0  0  0
   -5.7633   33.8024  -17.6616 H   0  0  0  0  0
   -5.6769   33.7536  -15.8687 H   0  0  0  0  0
   -6.2154   36.0093  -16.4648 H   0  0  0  0  0
   -4.9455   36.0487  -17.7197 H   0  0  0  0  0
   -2.2244   36.2808  -15.4640 H   0  0  0  0  0
   -2.7400   36.1827  -17.1620 H   0  0  0  0  0
   -2.7567   33.9595  -15.0854 H   0  0  0  0  0
   -1.7879   34.0480  -16.5957 H   0  0  0  0  0
   -5.3708   32.5900  -18.7461 H   0  0  0  0  0
   -3.1055   30.6791  -19.4707 H   0  0  0  0  0
   -3.5070   32.2093  -20.3030 H   0  0  0  0  0
   -5.9006   31.1203  -16.9647 H   0  0  0  0  0
   -4.4433   30.0948  -17.3039 H   0  0  0  0  0
   -6.9816   30.3540  -18.9333 H   0  0  0  0  0
   -6.3400   28.8980  -18.0969 H   0  0  0  0  0
   -5.9520   28.8388  -20.5614 H   0  0  0  0  0
   -4.4378   28.8302  -19.6296 H   0  0  0  0  0
   -5.6973   31.2258  -20.7694 H   0  0  0  0  0
   -3.3485   29.7762  -21.7016 H   0  0  0  0  0
   -3.2436   32.2290  -22.0164 H   0  0  0  0  0
   -4.8295   32.1748  -22.8587 H   0  0  0  0  0
   -2.2131   30.9065  -23.7577 H   0  0  0  0  0
   -3.0824   32.2511  -24.5357 H   0  0  0  0  0
   -6.0879   30.0587  -22.9887 H   0  0  0  0  0
   -5.4243   28.5701  -22.2382 H   0  0  0  0  0
   -5.2192   28.6367  -24.7521 H   0  0  0  0  0
   -3.6667   28.4532  -23.8998 H   0  0  0  0  0
   -2.0541   30.1135  -27.0342 H   0  0  0  0  0
    0.0028   30.4099  -28.3823 H   0  0  0  0  0
    0.4189   32.5573  -29.5579 H   0  0  0  0  0
   -1.2280   34.4046  -29.3737 H   0  0  0  0  0
   -3.2884   35.2809  -28.5177 H   0  0  0  0  0
   -6.2297   31.9065  -25.2959 H   0  0  0  0  0
   -7.8271   33.7895  -25.0886 H   0  0  0  0  0
   -7.3818   35.9312  -26.2659 H   0  0  0  0  0
   -5.3321   36.1772  -27.6473 H   0  0  0  0  0
  1  2  1  0  0  0
  1  6  1  0  0  0
  2  3  1  0  0  0
  3  4  1  0  0  0
  4  5  1  0  0  0
  5  6  1  0  0  0
  6  7  1  0  0  0
  7  8  2  0  0  0
  7  9  1  0  0  0
  9 10  1  0  0  0
  9 11  1  0  0  0
 10 14  1  0  0  0
 11 12  1  0  0  0
 12 13  1  0  0  0
 13 14  1  0  0  0
 14 15  1  0  0  0
 15 16  1  0  0  0
 15 18  1  0  0  0
 16 17  1  0  0  0
 17 20  1  0  0  0
 18 19  1  0  0  0
 19 20  1  0  0  0
 20 21  1  0  0  0
 21 22  2  0  0  0
 21 23  1  0  0  0
 23 24  4  0  0  0
 23 32  4  0  0  0
 24 25  4  0  0  0
 24 29  4  0  0  0
 25 26  4  0  0  0
 26 27  4  0  0  0
 27 28  4  0  0  0
 28 29  4  0  0  0
 29 30  4  0  0  0
 30 31  4  0  0  0
 31 32  4  0  0  0
 31 36  4  0  0  0
 32 33  4  0  0  0
 33 34  4  0  0  0
 34 35  4  0  0  0
 35 36  4  0  0  0
  1 37  1  0  0  0
  1 38  1  0  0  0
  2 39  1  0  0  0
  2 40  1  0  0  0
  4 41  1  0  0  0
  4 42  1  0  0  0
  5 43  1  0  0  0
  5 44  1  0  0  0
  9 45  1  0  0  0
 10 46  1  0  0  0
 10 47  1  0  0  0
 11 48  1  0  0  0
 11 49  1  0  0  0
 12 50  1  0  0  0
 12 51  1  0  0  0
 13 52  1  0  0  0
 13 53  1  0  0  0
 14 54  1  0  0  0
 15 55  1  0  0  0
 16 56  1  0  0  0
 16 57  1  0  0  0
 17 58  1  0  0  0
 17 59  1  0  0  0
 18 60  1  0  0  0
 18 61  1  0  0  0
 19 62  1  0  0  0
 19 63  1  0  0  0
 25 64  1  0  0  0
 26 65  1  0  0  0
 27 66  1  0  0  0
 28 67  1  0  0  0
 30 68  1  0  0  0
 33 69  1  0  0  0
 34 70  1  0  0  0
 35 71  1  0  0  0
 36 72  1  0  0  0
M  END
$$$$
