### 
### Created by X-TOOL on Wed Jan  1 15:39:36 2020
### 

@<TRIPOS>MOLECULE
6df2_ligand
   65    65     1     0     0
SMALL
GAST_HUCK


@<TRIPOS>ATOM
      1 N         -15.0420   65.8930   23.5880 N.4       1 LEU         0.2379
      2 CA        -16.4180   66.2860   23.7360 C.3       1 LEU         0.0652
      3 C         -17.3150   65.6390   22.7220 C.2       1 LEU         0.2269
      4 O         -17.1840   65.8990   21.5630 O.2       1 LEU        -0.3907
      5 CB        -16.5380   67.7800   23.5800 C.3       1 LEU         0.0102
      6 CG        -17.6580   68.3840   24.3660 C.3       1 LEU        -0.0394
      7 CD1       -17.2050   68.3610   25.7910 C.3       1 LEU        -0.0623
      8 CD2       -17.8840   69.7910   23.9100 C.3       1 LEU        -0.0623
      9 N         -18.2440   64.8170   23.1810 N.am      1 PTR        -0.2580
     10 CA        -19.1800   64.1450   22.3070 C.3       1 PTR         0.1469
     11 C         -20.4810   64.8770   22.3190 C.2       1 PTR         0.2069
     12 O         -21.0300   65.1730   21.3330 O.2       1 PTR        -0.3941
     13 CB        -19.3440   62.7080   22.7760 C.3       1 PTR         0.0400
     14 CG        -20.3220   62.0030   21.8950 C.ar      1 PTR        -0.0004
     15 CD1       -21.5190   61.5790   22.3870 C.ar      1 PTR        -0.0239
     16 CD2       -20.0210   61.7990   20.5930 C.ar      1 PTR        -0.0239
     17 CE1       -22.4120   60.9440   21.5800 C.ar      1 PTR         0.0115
     18 CE2       -20.8980   61.1700   19.7810 C.ar      1 PTR         0.0115
     19 CZ        -22.1040   60.7500   20.2710 C.ar      1 PTR         0.1728
     20 OH        -22.9280   60.1440   19.4400 O.3       1 PTR        -0.2040
     21 P         -24.4070   60.4050   19.7140 P.3       1 PTR         0.1348
     22 O1P       -25.1120   59.9670   18.5900 O.co2     1 PTR        -0.6653
     23 O2P       -24.8810   59.6390   20.9470 O.co2     1 PTR        -0.6653
     24 O3P       -24.8490   61.8490   19.7720 O.co2     1 PTR        -0.6653
     25 N         -20.9720   65.1920   23.4960 N.am      1 LEU        -0.2692
     26 CA        -22.2460   65.8830   23.6350 C.3       1 LEU         0.0946
     27 C         -22.1120   67.3780   23.4780 C.2       1 LEU         0.0601
     28 O         -23.0220   68.0380   22.9940 O.co2     1 LEU        -0.5666
     29 CB        -22.8810   65.6010   24.9950 C.3       1 LEU        -0.0156
     30 CG        -23.1880   64.1710   25.3810 C.3       1 LEU        -0.0431
     31 CD1       -23.7770   64.1430   26.7550 C.3       1 LEU        -0.0625
     32 CD2       -24.1550   63.5460   24.4180 C.3       1 LEU        -0.0625
     33 OXT       -21.0910   67.9530   23.8320 O.co2     1 LEU        -0.5666
     34 H1        -14.4838   66.3533   24.2899 H         1 LEU         0.2015
     35 H2        -14.7140   66.1563   22.6720 H         1 LEU         0.2015
     36 H3        -14.9641   64.8941   23.6985 H         1 LEU         0.2015
     37 H4        -16.7558   65.9968   24.7421 H         1 LEU         0.1098
     38 H5        -16.7013   68.0050   22.5157 H         1 LEU         0.0348
     39 H6        -15.5952   68.2396   23.9115 H         1 LEU         0.0348
     40 H7        -18.5816   67.7992   24.2438 H         1 LEU         0.0299
     41 H8        -17.9873   68.7945   26.4314 H         1 LEU         0.0232
     42 H9        -16.2811   68.9494   25.8916 H         1 LEU         0.0232
     43 H10       -17.0136   67.3223   26.0982 H         1 LEU         0.0232
     44 H11       -18.2162   69.7877   22.8614 H         1 LEU         0.0232
     45 H12       -16.9461   70.3594   23.9957 H         1 LEU         0.0232
     46 H13       -18.6559   70.2604   24.5376 H         1 LEU         0.0232
     47 H14       -18.3011   64.6546   24.1661 H         1 PTR         0.1887
     48 H15       -18.7837   64.1424   21.2809 H         1 PTR         0.0840
     49 H16       -19.7131   62.7008   23.8122 H         1 PTR         0.0584
     50 H17       -18.3725   62.1943   22.7292 H         1 PTR         0.0584
     51 H18       -21.7624   61.7487   23.4296 H         1 PTR         0.0703
     52 H19       -19.0712   62.1419   20.1988 H         1 PTR         0.0703
     53 H20       -23.3589   60.5967   21.9773 H         1 PTR         0.0736
     54 H21       -20.6461   60.9980   18.7408 H         1 PTR         0.0736
     55 H22       -20.4570   64.9507   24.3185 H         1 LEU         0.1875
     56 H23       -22.9186   65.5103   22.8485 H         1 LEU         0.0726
     57 H24       -23.8312   66.1542   25.0276 H         1 LEU         0.0308
     58 H25       -22.1975   66.0008   25.7585 H         1 LEU         0.0308
     59 H26       -22.2529   63.5917   25.3745 H         1 LEU         0.0297
     60 H27       -24.0007   63.1035   27.0369 H         1 LEU         0.0232
     61 H28       -24.7045   64.7342   26.7685 H         1 LEU         0.0232
     62 H29       -23.0591   64.5705   27.4705 H         1 LEU         0.0232
     63 H30       -23.7268   63.5638   23.4049 H         1 LEU         0.0232
     64 H31       -25.0986   64.1112   24.4271 H         1 LEU         0.0232
     65 H32       -24.3482   62.5050   24.7161 H         1 LEU         0.0232
@<TRIPOS>BOND
     1    1    2 1  
     2    2    3 1  
     3    2    5 1  
     4    3    4 2  
     5    3    9 am 
     6    5    6 1  
     7    6    7 1  
     8    6    8 1  
     9    9   10 1  
    10   10   11 1  
    11   10   13 1  
    12   11   12 2  
    13   11   25 am 
    14   13   14 1  
    15   14   15 ar 
    16   14   16 ar 
    17   15   17 ar 
    18   16   18 ar 
    19   17   19 ar 
    20   18   19 ar 
    21   19   20 1  
    22   20   21 1  
    23   21   22 ar 
    24   21   23 ar 
    25   21   24 ar 
    26   25   26 1  
    27   26   27 1  
    28   26   29 1  
    29   27   28 ar 
    30   27   33 ar 
    31   29   30 1  
    32   30   31 1  
    33   30   32 1  
    34    1   34 1  
    35    1   35 1  
    36    1   36 1  
    37    2   37 1  
    38    5   38 1  
    39    5   39 1  
    40    6   40 1  
    41    7   41 1  
    42    7   42 1  
    43    7   43 1  
    44    8   44 1  
    45    8   45 1  
    46    8   46 1  
    47    9   47 1  
    48   10   48 1  
    49   13   49 1  
    50   13   50 1  
    51   15   51 1  
    52   16   52 1  
    53   17   53 1  
    54   18   54 1  
    55   25   55 1  
    56   26   56 1  
    57   29   57 1  
    58   29   58 1  
    59   30   59 1  
    60   31   60 1  
    61   31   61 1  
    62   31   62 1  
    63   32   63 1  
    64   32   64 1  
    65   32   65 1  
@<TRIPOS>SUBSTRUCTURE
     1 LEU         1

