6df2_ligand
  -I-interpret- 

 68 68  0  0  0  0  0  0  0  0999 V2000
  -15.0420   65.8930   23.5880 N   0  3  0  0  0
  -16.4180   66.2860   23.7360 C   0  0  0  0  0
  -17.3150   65.6390   22.7220 C   0  0  0  0  0
  -17.1840   65.8990   21.5630 O   0  0  0  0  0
  -16.5380   67.7800   23.5800 C   0  0  0  0  0
  -17.6580   68.3840   24.3660 C   0  0  0  0  0
  -17.2050   68.3610   25.7910 C   0  0  0  0  0
  -17.8840   69.7910   23.9100 C   0  0  0  0  0
  -18.2440   64.8170   23.1810 N   0  0  0  0  0
  -19.1800   64.1450   22.3070 C   0  0  0  0  0
  -20.4810   64.8770   22.3190 C   0  0  0  0  0
  -21.0300   65.1730   21.3330 O   0  0  0  0  0
  -19.3440   62.7080   22.7760 C   0  0  0  0  0
  -20.3220   62.0030   21.8950 C   0  0  0  0  0
  -21.5190   61.5790   22.3870 C   0  0  0  0  0
  -20.0210   61.7990   20.5930 C   0  0  0  0  0
  -22.4120   60.9440   21.5800 C   0  0  0  0  0
  -20.8980   61.1700   19.7810 C   0  0  0  0  0
  -22.1040   60.7500   20.2710 C   0  0  0  0  0
  -22.9280   60.1440   19.4400 O   0  0  0  0  0
  -24.4070   60.4050   19.7140 P   0  0  0  0  0
  -25.1120   59.9670   18.5900 O   0  0  0  0  0
  -24.8810   59.6390   20.9470 O   0  0  0  0  0
  -24.8490   61.8490   19.7720 O   0  0  0  0  0
  -20.9720   65.1920   23.4960 N   0  0  0  0  0
  -22.2460   65.8830   23.6350 C   0  0  0  0  0
  -22.1120   67.3780   23.4780 C   0  0  0  0  0
  -23.0220   68.0380   22.9940 O   0  0  0  0  0
  -22.8810   65.6010   24.9950 C   0  0  0  0  0
  -23.1880   64.1710   25.3810 C   0  0  0  0  0
  -23.7770   64.1430   26.7550 C   0  0  0  0  0
  -24.1550   63.5460   24.4180 C   0  0  0  0  0
  -21.0910   67.9530   23.8320 O   0  0  0  0  0
  -14.9652   64.8815   23.6943 H   0  0  0  0  0
  -14.7096   66.1651   22.6629 H   0  0  0  0  0
  -14.4790   66.3548   24.3023 H   0  0  0  0  0
  -16.7319   65.9630   24.7286 H   0  0  0  0  0
  -16.7359   67.9809   22.5271 H   0  0  0  0  0
  -15.6106   68.2196   23.9472 H   0  0  0  0  0
  -18.5950   67.8419   24.2385 H   0  0  0  0  0
  -16.2725   68.9177   25.8835 H   0  0  0  0  0
  -17.9674   68.8196   26.4207 H   0  0  0  0  0
  -17.0461   67.3290   26.1038 H   0  0  0  0  0
  -18.6490   70.2549   24.5327 H   0  0  0  0  0
  -16.9540   70.3531   23.9954 H   0  0  0  0  0
  -18.2131   69.7864   22.8709 H   0  0  0  0  0
  -18.3023   64.6514   24.1858 H   0  0  0  0  0
  -18.8102   64.1340   21.2817 H   0  0  0  0  0
  -19.7104   62.7013   23.8025 H   0  0  0  0  0
  -18.3812   62.1992   22.7288 H   0  0  0  0  0
  -21.7637   61.7496   23.4354 H   0  0  0  0  0
  -19.0660   62.1438   20.1966 H   0  0  0  0  0
  -23.3641   60.5948   21.9795 H   0  0  0  0  0
  -20.6447   60.9970   18.7350 H   0  0  0  0  0
  -24.3948   59.9423   21.7172 H   0  0  0  0  0
  -24.4283   62.2815   20.5187 H   0  0  0  0  0
  -20.4467   64.9459   24.3350 H   0  0  0  0  0
  -22.8800   65.4996   22.8355 H   0  0  0  0  0
  -23.8515   66.0958   24.9589 H   0  0  0  0  0
  -22.1425   65.9353   25.7236 H   0  0  0  0  0
  -22.2581   63.6029   25.3563 H   0  0  0  0  0
  -23.0648   64.5669   27.4629 H   0  0  0  0  0
  -24.6959   64.7292   26.7670 H   0  0  0  0  0
  -23.9982   63.1126   27.0332 H   0  0  0  0  0
  -25.0849   64.1147   24.4183 H   0  0  0  0  0
  -23.7240   63.5523   23.4168 H   0  0  0  0  0
  -24.3558   62.5187   24.7221 H   0  0  0  0  0
  -20.4716   67.3123   24.1890 H   0  0  0  0  0
  1  2  1  0  0  0
  2  3  1  0  0  0
  2  5  1  0  0  0
  3  4  2  0  0  0
  3  9  1  0  0  0
  5  6  1  0  0  0
  6  7  1  0  0  0
  6  8  1  0  0  0
  9 10  1  0  0  0
 10 11  1  0  0  0
 10 13  1  0  0  0
 11 12  2  0  0  0
 11 25  1  0  0  0
 13 14  1  0  0  0
 14 15  4  0  0  0
 14 16  4  0  0  0
 15 17  4  0  0  0
 16 18  4  0  0  0
 17 19  4  0  0  0
 18 19  4  0  0  0
 19 20  1  0  0  0
 20 21  1  0  0  0
 21 22  2  0  0  0
 21 23  1  0  0  0
 21 24  1  0  0  0
 25 26  1  0  0  0
 26 27  1  0  0  0
 26 29  1  0  0  0
 27 28  2  0  0  0
 27 33  1  0  0  0
 29 30  1  0  0  0
 30 31  1  0  0  0
 30 32  1  0  0  0
  1 34  1  0  0  0
  1 35  1  0  0  0
  1 36  1  0  0  0
  2 37  1  0  0  0
  5 38  1  0  0  0
  5 39  1  0  0  0
  6 40  1  0  0  0
  7 41  1  0  0  0
  7 42  1  0  0  0
  7 43  1  0  0  0
  8 44  1  0  0  0
  8 45  1  0  0  0
  8 46  1  0  0  0
  9 47  1  0  0  0
 10 48  1  0  0  0
 13 49  1  0  0  0
 13 50  1  0  0  0
 15 51  1  0  0  0
 16 52  1  0  0  0
 17 53  1  0  0  0
 18 54  1  0  0  0
 23 55  1  0  0  0
 24 56  1  0  0  0
 25 57  1  0  0  0
 26 58  1  0  0  0
 29 59  1  0  0  0
 29 60  1  0  0  0
 30 61  1  0  0  0
 31 62  1  0  0  0
 31 63  1  0  0  0
 31 64  1  0  0  0
 32 65  1  0  0  0
 32 66  1  0  0  0
 32 67  1  0  0  0
 33 68  1  0  0  0
M  END
$$$$
