4ayy_ligand
  -I-interpret- 

 79 82  0  0  0  0  0  0  0  0999 V2000
   29.5640   17.7300   23.4910 C   0  0  0  0  0
   30.9530   18.3840   23.6240 C   0  0  0  0  0
   31.3890   18.3680   25.0910 C   0  0  0  0  0
   31.9960   17.6880   22.7530 C   0  0  0  0  0
   32.6740   18.9930   25.3520 N   0  0  0  0  0
   33.4130   18.0870   23.1160 C   0  0  0  0  0
   33.4670   19.2010   24.1530 C   0  0  0  0  0
   32.5850   20.0970   26.3130 C   0  0  0  0  0
   31.2670   20.3120   26.8370 N   0  0  0  0  0
   33.6300   20.8030   26.6660 N   0  0  0  0  0
   29.4700   13.4370   26.6140 N   0  0  0  0  0
   29.6730   13.3400   25.1930 C   0  0  0  0  0
   31.1430   13.7460   24.8330 C   0  0  0  0  0
   31.7370   14.6350   25.4800 O   0  0  0  0  0
   28.6260   14.0900   24.3030 C   0  0  0  0  0
   28.6610   15.6220   24.3470 C   0  0  0  0  0
   27.9170   16.2470   25.1430 O   0  0  0  0  0
   29.5030   16.2970   23.4930 N   0  0  0  0  0
   29.1590   12.2070   27.6450 S   0  0  0  0  0
   28.8270   12.7870   28.8980 O   0  0  0  0  0
   28.2170   11.3520   27.0330 O   0  0  0  0  0
   30.7720   10.0930   27.2600 C   0  0  0  0  0
   30.5840   11.3240   27.8610 C   0  0  0  0  0
   31.6070   11.8410   28.7060 C   0  0  0  0  0
   32.7700   11.1520   28.9240 C   0  0  0  0  0
   34.1730    9.1510   28.5150 C   0  0  0  0  0
   34.3360    7.9290   27.9000 C   0  0  0  0  0
   33.3310    7.3820   27.0600 C   0  0  0  0  0
   32.1680    8.0830   26.8470 C   0  0  0  0  0
   31.9650    9.3530   27.4650 C   0  0  0  0  0
   32.9790    9.8910   28.3080 C   0  0  0  0  0
   31.7810   13.0840   23.8000 N   0  0  0  0  0
   31.0250   12.4100   22.7610 C   0  0  0  0  0
   31.5490   10.9830   22.5040 C   0  0  0  0  0
   33.0650   10.9090   22.3340 C   0  0  0  0  0
   33.8230   11.7880   23.3200 C   0  0  0  0  0
   33.1940   13.1710   23.4970 C   0  0  0  0  0
   30.9370   13.2140   21.4660 C   0  0  0  0  0
   31.1350   12.4680   20.3380 O   0  0  0  0  0
   30.7180   14.4300   21.3340 O   0  0  0  0  0
   33.5290    9.4700   22.4580 C   0  0  0  0  0
   29.1872   18.0380   22.5157 H   0  0  0  0  0
   29.0047   18.0484   24.3707 H   0  0  0  0  0
   30.8759   19.4138   23.2752 H   0  0  0  0  0
   31.4813   17.3217   25.3821 H   0  0  0  0  0
   30.6429   18.9340   25.6488 H   0  0  0  0  0
   31.8188   17.9792   21.7177 H   0  0  0  0  0
   31.8992   16.6131   22.9055 H   0  0  0  0  0
   33.8990   18.4507   22.2107 H   0  0  0  0  0
   33.9070   17.2128   23.5401 H   0  0  0  0  0
   34.5049   19.2654   24.4796 H   0  0  0  0  0
   33.0628   20.0900   23.6689 H   0  0  0  0  0
   31.1051   21.0485   27.5239 H   0  0  0  0  0
   30.4917   19.7284   26.5227 H   0  0  0  0  0
   33.5311   21.5537   27.3494 H   0  0  0  0  0
   29.5260   14.3708   27.0207 H   0  0  0  0  0
   29.5061   12.2915   24.9464 H   0  0  0  0  0
   27.6459   13.8000   24.6817 H   0  0  0  0  0
   28.8522   13.8129   23.2734 H   0  0  0  0  0
   30.0938   15.7692   22.8505 H   0  0  0  0  0
   29.9911    9.6846   26.6185 H   0  0  0  0  0
   31.4610   12.8067   29.1900 H   0  0  0  0  0
   33.5377   11.5736   29.5728 H   0  0  0  0  0
   34.9580    9.5484   29.1583 H   0  0  0  0  0
   35.2574    7.3697   28.0621 H   0  0  0  0  0
   33.4807    6.4116   26.5866 H   0  0  0  0  0
   31.3953    7.6657   26.2014 H   0  0  0  0  0
   30.0064   12.3269   23.1399 H   0  0  0  0  0
   31.0987   10.6320   21.5755 H   0  0  0  0  0
   31.2878   10.3779   23.3722 H   0  0  0  0  0
   33.2890   11.2916   21.3382 H   0  0  0  0  0
   34.8310   11.9299   22.9303 H   0  0  0  0  0
   33.8057   11.2897   24.2893 H   0  0  0  0  0
   33.6925   13.6704   24.3278 H   0  0  0  0  0
   33.3111   13.7226   22.5642 H   0  0  0  0  0
   31.2920   11.5534   20.5840 H   0  0  0  0  0
   33.2577    9.0856   23.4412 H   0  0  0  0  0
   33.0503    8.8674   21.6861 H   0  0  0  0  0
   34.6112    9.4267   22.3355 H   0  0  0  0  0
  1  2  1  0  0  0
 18  1  1  0  0  0
  2  3  1  0  0  0
  2  4  1  0  0  0
  3  5  1  0  0  0
  4  6  1  0  0  0
  5  7  1  0  0  0
  5  8  1  0  0  0
  6  7  1  0  0  0
  8  9  1  0  0  0
  8 10  2  0  0  0
 11 12  1  0  0  0
 19 11  1  0  0  0
 12 13  1  0  0  0
 12 15  1  0  0  0
 13 14  2  0  0  0
 13 32  1  0  0  0
 15 16  1  0  0  0
 16 17  2  0  0  0
 16 18  1  0  0  0
 19 20  2  0  0  0
 19 21  2  0  0  0
 23 19  1  0  0  0
 23 22  4  0  0  0
 22 30  4  0  0  0
 24 23  4  0  0  0
 25 24  4  0  0  0
 31 25  4  0  0  0
 26 27  4  0  0  0
 26 31  4  0  0  0
 27 28  4  0  0  0
 28 29  4  0  0  0
 29 30  4  0  0  0
 30 31  4  0  0  0
 32 33  1  0  0  0
 32 37  1  0  0  0
 33 34  1  0  0  0
 33 38  1  0  0  0
 34 35  1  0  0  0
 35 36  1  0  0  0
 35 41  1  0  0  0
 36 37  1  0  0  0
 38 39  1  0  0  0
 38 40  2  0  0  0
  1 42  1  0  0  0
  1 43  1  0  0  0
  2 44  1  0  0  0
  3 45  1  0  0  0
  3 46  1  0  0  0
  4 47  1  0  0  0
  4 48  1  0  0  0
  6 49  1  0  0  0
  6 50  1  0  0  0
  7 51  1  0  0  0
  7 52  1  0  0  0
  9 53  1  0  0  0
  9 54  1  0  0  0
 10 55  1  0  0  0
 11 56  1  0  0  0
 12 57  1  0  0  0
 15 58  1  0  0  0
 15 59  1  0  0  0
 18 60  1  0  0  0
 22 61  1  0  0  0
 24 62  1  0  0  0
 25 63  1  0  0  0
 26 64  1  0  0  0
 27 65  1  0  0  0
 28 66  1  0  0  0
 29 67  1  0  0  0
 33 68  1  0  0  0
 34 69  1  0  0  0
 34 70  1  0  0  0
 35 71  1  0  0  0
 36 72  1  0  0  0
 36 73  1  0  0  0
 37 74  1  0  0  0
 37 75  1  0  0  0
 39 76  1  0  0  0
 41 77  1  0  0  0
 41 78  1  0  0  0
 41 79  1  0  0  0
M  END
$$$$
