1bnm_ligand
  -I-interpret- 

 43 45  0  0  0  0  0  0  0  0999 V2000
   -5.4000    1.9440   15.9240 C   0  0  0  0  0
   -2.4630    4.8670   13.9500 C   0  0  0  0  0
   -2.8930    3.4230   13.6810 C   0  0  0  0  0
   -1.7410    2.8760   12.0540 C   0  0  0  0  0
   -2.7850    9.0350   12.1510 C   0  0  0  0  0
   -2.0570    9.6170   13.1770 C   0  0  0  0  0
   -1.8380    8.8910   14.3630 C   0  0  0  0  0
   -2.3290    7.6200   14.5370 C   0  0  0  0  0
   -0.6130   10.6880   15.2670 C   0  0  0  0  0
   -5.5380   -0.6170   16.2430 N   0  0  0  0  0
   -5.9500    0.6570   16.8730 S   0  0  0  0  0
   -5.3910    0.7990   18.1650 O   0  0  0  0  0
   -7.3510    0.9550   16.9350 O   0  0  0  0  0
   -6.2800    3.4070   15.8760 S   0  0  0  0  0
   -5.0780    4.0110   14.8260 C   0  0  0  0  0
   -4.0830    3.0570   14.5530 C   0  0  0  0  0
   -4.2700    1.8750   15.1870 C   0  0  0  0  0
   -3.5320    5.8130   13.6450 N   0  0  0  0  0
   -4.9100    5.6420   14.3140 S   0  0  0  0  0
   -6.1270    6.0410   13.5250 O   0  0  0  0  0
   -4.9680    6.5100   15.5190 O   0  0  0  0  0
   -3.1500    3.2010   12.2660 N   0  3  0  0  0
   -3.0530    7.0560   13.5040 C   0  0  0  0  0
   -3.2870    7.7480   12.3110 C   0  0  0  0  0
   -1.1630    9.3500   15.3770 O   0  0  0  0  0
   -1.6090    5.0959   13.3126 H   0  0  0  0  0
   -2.2125    4.9601   15.0067 H   0  0  0  0  0
   -2.0726    2.7579   13.9505 H   0  0  0  0  0
   -1.1260    3.7309   12.3351 H   0  0  0  0  0
   -1.4716    2.0158   12.6669 H   0  0  0  0  0
   -1.5782    2.6397   11.0024 H   0  0  0  0  0
   -2.9628    9.5823   11.2253 H   0  0  0  0  0
   -1.6586   10.6256   13.0667 H   0  0  0  0  0
   -2.1527    7.0724   15.4628 H   0  0  0  0  0
    0.0737   10.7288   14.4215 H   0  0  0  0  0
   -1.4231   11.4010   15.1136 H   0  0  0  0  0
   -0.0778   10.9359   16.1836 H   0  0  0  0  0
   -4.9246   -1.2592   16.7448 H   0  0  0  0  0
   -5.8674   -0.8530   15.3069 H   0  0  0  0  0
   -3.6141    1.0074   15.1143 H   0  0  0  0  0
   -3.5914    3.9329   11.7093 H   0  0  0  0  0
   -3.8721    2.5403   11.9788 H   0  0  0  0  0
   -3.8602    7.2805   11.5104 H   0  0  0  0  0
  1 11  1  0  0  0
 14  1  4  0  0  0
 17  1  4  0  0  0
  2  3  1  0  0  0
 18  2  1  0  0  0
  3 16  1  0  0  0
  3 22  1  0  0  0
 22  4  1  0  0  0
  6  5  4  0  0  0
  5 24  4  0  0  0
  7  6  4  0  0  0
  8  7  4  0  0  0
  7 25  1  0  0  0
 23  8  4  0  0  0
 25  9  1  0  0  0
 11 10  1  0  0  0
 11 12  2  0  0  0
 11 13  2  0  0  0
 15 14  4  0  0  0
 15 16  4  0  0  0
 19 15  1  0  0  0
 16 17  4  0  0  0
 18 19  1  0  0  0
 18 23  1  0  0  0
 19 20  2  0  0  0
 19 21  2  0  0  0
 23 24  4  0  0  0
  2 26  1  0  0  0
  2 27  1  0  0  0
  3 28  1  0  0  0
  4 29  1  0  0  0
  4 30  1  0  0  0
  4 31  1  0  0  0
  5 32  1  0  0  0
  6 33  1  0  0  0
  8 34  1  0  0  0
  9 35  1  0  0  0
  9 36  1  0  0  0
  9 37  1  0  0  0
 10 38  1  0  0  0
 10 39  1  0  0  0
 17 40  1  0  0  0
 22 41  1  0  0  0
 22 42  1  0  0  0
 24 43  1  0  0  0
M  END
$$$$
