1lvu_ligand
  -I-interpret- 

 35 36  0  0  0  0  0  0  0  0999 V2000
   41.9590   61.6290  169.8140 N   0  0  0  0  0
   40.8240   61.2750  169.1000 C   0  0  0  0  0
   40.6190   62.1460  168.1210 N   0  0  0  0  0
   41.6380   63.0850  168.1910 C   0  0  0  0  0
   41.9380   64.2710  167.3770 C   0  0  0  0  0
   41.2860   64.6940  166.3950 N   0  0  0  0  0
   43.1150   64.9640  167.8140 N   0  0  0  0  0
   43.9180   64.5650  168.9100 C   0  0  0  0  0
   45.0170   65.3060  169.2260 N   0  0  0  0  0
   43.6340   63.4590  169.6650 N   0  0  0  0  0
   42.4900   62.7730  169.2530 C   0  0  0  0  0
   42.5020   60.9680  170.8980 C   0  0  0  0  0
   41.5010   60.6560  172.0270 C   0  0  0  0  0
   41.1270   61.9480  172.7460 C   0  0  0  0  0
   42.1240   59.7420  172.9700 O   0  0  0  0  0
   42.7310   57.3840  173.3300 P   0  0  0  0  0
   41.7990   58.3710  172.6320 C   0  0  0  0  0
   42.3210   55.9870  172.9760 O   0  0  0  0  0
   44.1440   57.6140  172.8910 O   0  0  0  0  0
   42.6390   57.5620  174.8100 O   0  0  0  0  0
   40.1947   60.4105  169.3117 H   0  0  0  0  0
   40.4493   64.1986  166.0867 H   0  0  0  0  0
   41.5916   65.5339  165.9035 H   0  0  0  0  0
   45.2497   66.1331  168.6763 H   0  0  0  0  0
   45.6070   65.0336  170.0122 H   0  0  0  0  0
   43.2639   61.6229  171.3207 H   0  0  0  0  0
   42.8768   60.0120  170.5323 H   0  0  0  0  0
   40.6024   60.2021  171.6091 H   0  0  0  0  0
   42.0242   62.3995  173.1694 H   0  0  0  0  0
   40.6715   62.6386  172.0362 H   0  0  0  0  0
   40.4189   61.7261  173.5444 H   0  0  0  0  0
   41.9098   58.2464  171.5548 H   0  0  0  0  0
   40.7782   58.1691  172.9565 H   0  0  0  0  0
   42.3789   55.8690  172.0250 H   0  0  0  0  0
   44.2049   57.5000  171.9397 H   0  0  0  0  0
  1  2  4  0  0  0
  1 11  4  0  0  0
 12  1  1  0  0  0
  2  3  4  0  0  0
  4  3  4  0  0  0
  4  5  4  0  0  0
 11  4  4  0  0  0
  5  6  1  0  0  0
  5  7  4  0  0  0
  8  7  4  0  0  0
  8  9  1  0  0  0
 10  8  4  0  0  0
 11 10  4  0  0  0
 13 12  1  0  0  0
 13 14  1  0  0  0
 15 13  1  0  0  0
 17 15  1  0  0  0
 16 20  2  0  0  0
 16 19  1  0  0  0
 16 18  1  0  0  0
 17 16  1  0  0  0
  2 21  1  0  0  0
  6 22  1  0  0  0
  6 23  1  0  0  0
  9 24  1  0  0  0
  9 25  1  0  0  0
 12 26  1  0  0  0
 12 27  1  0  0  0
 13 28  1  0  0  0
 14 29  1  0  0  0
 14 30  1  0  0  0
 14 31  1  0  0  0
 17 32  1  0  0  0
 17 33  1  0  0  0
 18 34  1  0  0  0
 19 35  1  0  0  0
M  END
$$$$
