### 
### Created by X-TOOL on Tue Oct 16 15:17:22 2018
### 

@<TRIPOS>MOLECULE
1t7r_ligand
  151   152     1     0     0
SMALL
GAST_HUCK


@<TRIPOS>ATOM
      1 N          -9.3160   30.2680   54.4180 N.4       1 SER         0.2396
      2 CA        -10.7110   30.7580   54.6110 C.3       1 SER         0.0885
      3 C         -11.7080   29.6310   54.3700 C.2       1 SER         0.2290
      4 O         -11.3150   28.4900   54.1590 O.2       1 SER        -0.3906
      5 CB        -10.9980   31.9210   53.6610 C.3       1 SER         0.1041
      6 OG        -10.0450   32.9550   53.8320 O.3       1 SER        -0.3870
      7 N         -12.9950   29.9610   54.3870 N.am      1 SER        -0.2588
      8 CA        -14.0550   28.9750   54.2030 C.3       1 SER         0.1540
      9 C         -13.8210   27.9310   53.1080 C.2       1 SER         0.2062
     10 O         -13.8030   26.7360   53.3900 O.2       1 SER        -0.3943
     11 CB        -15.3900   29.6800   53.9570 C.3       1 SER         0.0843
     12 OG        -16.4640   28.7590   54.0500 O.3       1 SER        -0.3903
     13 N         -13.6530   28.3690   51.8620 N.am      1 SER        -0.2637
     14 CA        -13.4360   27.4210   50.7680 C.3       1 SER         0.1311
     15 C         -12.1600   26.6060   50.9550 C.2       1 SER         0.2040
     16 O         -12.1640   25.3820   50.8000 O.2       1 SER        -0.3944
     17 CB        -13.3960   28.1510   49.4240 C.3       1 SER        -0.0092
     18 CG        -14.7300   28.7710   49.0400 C.3       1 SER        -0.0156
     19 CD        -14.6760   29.4400   47.6770 C.3       1 SER         0.0627
     20 NE        -15.9600   30.0390   47.3240 N.pl3     1 SER        -0.2723
     21 CZ        -16.5390   31.0230   48.0060 C.cat     1 SER         0.2882
     22 NH1       -15.9470   31.5260   49.0830 N.pl3     1 SER        -0.2849
     23 NH2       -17.7110   31.5020   47.6150 N.pl3     1 SER        -0.2849
     24 N         -11.0660   27.2790   51.2860 N.am      1 SER        -0.2619
     25 CA         -9.8140   26.5730   51.5010 C.3       1 SER         0.1404
     26 C          -9.9170   25.6720   52.7290 C.2       1 SER         0.2060
     27 O          -9.4280   24.5420   52.7250 O.2       1 SER        -0.3942
     28 CB         -8.6590   27.5530   51.7030 C.3       1 SER         0.0214
     29 CG         -7.3550   26.8730   51.9770 C.ar      1 SER        -0.0386
     30 CD1        -6.6330   26.2910   50.9430 C.ar      1 SER        -0.0601
     31 CD2        -6.8880   26.7420   53.2790 C.ar      1 SER        -0.0601
     32 CE1        -5.4660   25.5840   51.2020 C.ar      1 SER        -0.0686
     33 CE2        -5.7230   26.0350   53.5530 C.ar      1 SER        -0.0686
     34 CZ         -5.0120   25.4540   52.5110 C.ar      1 SER        -0.0687
     35 N         -10.5410   26.1820   53.7860 N.am      1 SER        -0.2635
     36 CA        -10.6990   25.4140   55.0160 C.3       1 SER         0.1325
     37 C         -11.4540   24.1150   54.7620 C.2       1 SER         0.2041
     38 O         -11.1140   23.0760   55.3210 O.2       1 SER        -0.3944
     39 CB        -11.4360   26.2390   56.0760 C.3       1 SER        -0.0008
     40 CG        -10.6200   27.3700   56.6820 C.3       1 SER         0.0044
     41 CD        -11.4170   28.1820   57.6850 C.2       1 SER         0.0350
     42 OE1       -12.4140   28.8190   57.2830 O.co2     1 SER        -0.5690
     43 OE2       -11.0510   28.1810   58.8790 O.co2     1 SER        -0.5690
     44 N         -12.4790   24.1810   53.9190 N.am      1 SER        -0.2616
     45 CA        -13.2700   23.0000   53.5930 C.3       1 SER         0.1539
     46 C         -12.4090   21.9980   52.8350 C.2       1 SER         0.2062
     47 O         -12.5070   20.7900   53.0550 O.2       1 SER        -0.3943
     48 CB        -14.4840   23.3900   52.7500 C.3       1 SER         0.0843
     49 OG        -15.3530   24.2360   53.4840 O.3       1 SER        -0.3903
     50 N         -11.5710   22.5050   51.9370 N.am      1 SER        -0.2636
     51 CA        -10.6740   21.6520   51.1650 C.3       1 SER         0.1312
     52 C          -9.7110   20.9890   52.1440 C.2       1 SER         0.2040
     53 O          -9.5360   19.7720   52.1400 O.2       1 SER        -0.3944
     54 CB         -9.8820   22.4900   50.1490 C.3       1 SER        -0.0101
     55 CG         -8.8210   21.8050   49.2720 C.3       1 SER        -0.0425
     56 CD1        -8.2400   22.8180   48.3030 C.3       1 SER        -0.0625
     57 CD2        -7.7070   21.2230   50.1220 C.3       1 SER        -0.0625
     58 N          -9.0830   21.8100   52.9790 N.am      1 SER        -0.2619
     59 CA         -8.1240   21.3310   53.9670 C.3       1 SER         0.1404
     60 C          -8.7310   20.2560   54.8650 C.2       1 SER         0.2059
     61 O          -8.0740   19.2730   55.2020 O.2       1 SER        -0.3942
     62 CB         -7.6400   22.5010   54.8300 C.3       1 SER         0.0214
     63 CG         -6.5290   22.1410   55.7730 C.ar      1 SER        -0.0386
     64 CD1        -5.2050   22.1520   55.3420 C.ar      1 SER        -0.0601
     65 CD2        -6.8040   21.7740   57.0850 C.ar      1 SER        -0.0601
     66 CE1        -4.1700   21.8040   56.2050 C.ar      1 SER        -0.0686
     67 CE2        -5.7750   21.4220   57.9600 C.ar      1 SER        -0.0686
     68 CZ         -4.4520   21.4380   57.5160 C.ar      1 SER        -0.0687
     69 N          -9.9870   20.4490   55.2500 N.am      1 SER        -0.2639
     70 CA        -10.6730   19.4980   56.1180 C.3       1 SER         0.1281
     71 C         -11.0100   18.1940   55.3970 C.2       1 SER         0.2029
     72 O         -11.3350   17.1910   56.0330 O.2       1 SER        -0.3944
     73 CB        -11.9430   20.1290   56.6790 C.3       1 SER        -0.0244
     74 N         -10.9310   18.2140   54.0700 N.am      1 SER        -0.2722
     75 CA        -11.2260   17.0240   53.2910 C.3       1 SER         0.0833
     76 C         -12.5520   17.1080   52.5580 C.2       1 SER         0.0570
     77 O         -13.2940   18.0890   52.7770 O.co2     1 SER        -0.5669
     78 OXT       -12.8530   16.1930   51.7620 O.co2     1 SER        -0.5669
     79 H1         -8.6690   31.0236   54.5806 H         1 SER         0.2016
     80 H2         -9.2064   29.9289   53.4751 H         1 SER         0.2016
     81 H3         -9.1295   29.5203   55.0678 H         1 SER         0.2016
     82 H4        -10.8206   31.1115   55.6469 H         1 SER         0.1122
     83 H5        -12.0025   32.3179   53.8694 H         1 SER         0.0640
     84 H6        -10.9550   31.5585   52.6233 H         1 SER         0.0640
     85 H7         -9.1762   32.6166   53.6499 H         1 SER         0.2099
     86 H8        -13.2459   30.9183   54.5309 H         1 SER         0.1885
     87 H9        -14.1358   28.4232   55.1511 H         1 SER         0.0823
     88 H10       -15.3831   30.1273   52.9521 H         1 SER         0.0606
     89 H11       -15.5255   30.4708   54.7095 H         1 SER         0.0606
     90 H12       -17.2837   29.2134   53.8947 H         1 SER         0.2097
     91 H13       -13.6752   29.3506   51.6725 H         1 SER         0.1883
     92 H14       -14.2853   26.7221   50.7553 H         1 SER         0.0800
     93 H15       -13.1072   27.4315   48.6437 H         1 SER         0.0313
     94 H16       -12.6428   28.9505   49.4825 H         1 SER         0.0313
     95 H17       -15.0019   29.5239   49.7945 H         1 SER         0.0301
     96 H18       -15.4953   27.9812   49.0177 H         1 SER         0.0301
     97 H19       -14.4124   28.6873   46.9195 H         1 SER         0.0689
     98 H20       -13.9075   30.2268   47.6951 H         1 SER         0.0689
     99 H21       -16.4488   29.6760   46.4932 H         1 SER         0.2642
    100 H22       -16.3973   32.2881   49.6096 H         1 SER         0.2615
    101 H23       -15.0375   31.1541   49.3918 H         1 SER         0.2615
    102 H24       -18.1732   31.1143   46.7801 H         1 SER         0.2615
    103 H25       -18.1598   32.2620   48.1460 H         1 SER         0.2615
    104 H26       -11.1027   28.2731   51.3877 H         1 SER         0.1885
    105 H27        -9.6045   25.9526   50.6171 H         1 SER         0.0823
    106 H28        -8.8990   28.2065   52.5546 H         1 SER         0.0474
    107 H29        -8.5524   28.1612   50.7927 H         1 SER         0.0474
    108 H30        -6.9844   26.3897   49.9223 H         1 SER         0.0557
    109 H31        -7.4402   27.1977   54.0929 H         1 SER         0.0557
    110 H32        -4.9104   25.1347   50.3868 H         1 SER         0.0599
    111 H33        -5.3715   25.9377   54.5738 H         1 SER         0.0599
    112 H34        -4.1037   24.8994   52.7173 H         1 SER         0.0559
    113 H35       -10.9094   27.1104   53.7370 H         1 SER         0.1883
    114 H36        -9.6980   25.1659   55.3986 H         1 SER         0.0801
    115 H37       -11.7385   25.5616   56.8881 H         1 SER         0.0330
    116 H38       -12.3317   26.6748   55.6093 H         1 SER         0.0330
    117 H39       -10.2848   28.0367   55.8738 H         1 SER         0.0433
    118 H40        -9.7440   26.9410   57.1906 H         1 SER         0.0433
    119 H41       -12.7127   25.0582   53.4996 H         1 SER         0.1884
    120 H42       -13.6201   22.5363   54.5270 H         1 SER         0.0823
    121 H43       -15.0281   22.4798   52.4577 H         1 SER         0.0606
    122 H44       -14.1424   23.9186   51.8479 H         1 SER         0.0606
    123 H45       -14.8872   25.0247   53.7358 H         1 SER         0.2097
    124 H46       -11.5549   23.4936   51.7870 H         1 SER         0.1883
    125 H47       -11.2553   20.8850   50.6323 H         1 SER         0.0800
    126 H48        -9.3680   23.2800   50.7161 H         1 SER         0.0315
    127 H49       -10.6156   22.9457   49.4678 H         1 SER         0.0315
    128 H50        -9.2978   20.9924   48.7042 H         1 SER         0.0298
    129 H51        -7.4805   22.3302   47.6743 H         1 SER         0.0232
    130 H52        -7.7759   23.6406   48.8669 H         1 SER         0.0232
    131 H53        -9.0423   23.2175   47.6653 H         1 SER         0.0232
    132 H54        -8.1275   20.4886   50.8247 H         1 SER         0.0232
    133 H55        -7.2159   22.0300   50.6855 H         1 SER         0.0232
    134 H56        -6.9701   20.7284   49.4721 H         1 SER         0.0232
    135 H57        -9.2748   22.7901   52.9279 H         1 SER         0.1885
    136 H58        -7.2628   20.8988   53.4363 H         1 SER         0.0823
    137 H59        -8.4906   22.8704   55.4216 H         1 SER         0.0474
    138 H60        -7.2831   23.2994   54.1628 H         1 SER         0.0474
    139 H61        -4.9774   22.4354   54.3208 H         1 SER         0.0557
    140 H62        -7.8305   21.7610   57.4331 H         1 SER         0.0557
    141 H63        -3.1442   21.8184   55.8549 H         1 SER         0.0599
    142 H64        -6.0027   21.1372   58.9808 H         1 SER         0.0599
    143 H65        -3.6480   21.1663   58.1904 H         1 SER         0.0559
    144 H66       -10.4738   21.2648   54.9379 H         1 SER         0.1883
    145 H67       -10.0031   19.2588   56.9571 H         1 SER         0.0797
    146 H68       -12.4540   19.4061   57.3319 H         1 SER         0.0277
    147 H69       -12.6098   20.4099   55.8505 H         1 SER         0.0277
    148 H70       -11.6813   21.0260   57.2593 H         1 SER         0.0277
    149 H71       -10.6656   19.0575   53.6031 H         1 SER         0.1873
    150 H72       -11.2552   16.1590   53.9699 H         1 SER         0.0689
    151 H73       -10.4248   16.8822   52.5507 H         1 SER         0.0689
@<TRIPOS>BOND
     1    1    2 1  
     2    2    3 1  
     3    2    5 1  
     4    3    4 2  
     5    3    7 am 
     6    5    6 1  
     7    7    8 1  
     8    8    9 1  
     9    8   11 1  
    10    9   10 2  
    11    9   13 am 
    12   11   12 1  
    13   13   14 1  
    14   14   15 1  
    15   14   17 1  
    16   15   16 2  
    17   15   24 am 
    18   17   18 1  
    19   18   19 1  
    20   19   20 1  
    21   20   21 ar 
    22   21   22 ar 
    23   21   23 ar 
    24   24   25 1  
    25   25   26 1  
    26   25   28 1  
    27   26   27 2  
    28   26   35 am 
    29   28   29 1  
    30   29   30 ar 
    31   29   31 ar 
    32   30   32 ar 
    33   31   33 ar 
    34   32   34 ar 
    35   33   34 ar 
    36   35   36 1  
    37   36   37 1  
    38   36   39 1  
    39   37   38 2  
    40   37   44 am 
    41   39   40 1  
    42   40   41 1  
    43   41   42 ar 
    44   41   43 ar 
    45   44   45 1  
    46   45   46 1  
    47   45   48 1  
    48   46   47 2  
    49   46   50 am 
    50   48   49 1  
    51   50   51 1  
    52   51   52 1  
    53   51   54 1  
    54   52   53 2  
    55   52   58 am 
    56   54   55 1  
    57   55   56 1  
    58   55   57 1  
    59   58   59 1  
    60   59   60 1  
    61   59   62 1  
    62   60   61 2  
    63   60   69 am 
    64   62   63 1  
    65   63   64 ar 
    66   63   65 ar 
    67   64   66 ar 
    68   65   67 ar 
    69   66   68 ar 
    70   67   68 ar 
    71   69   70 1  
    72   70   71 1  
    73   70   73 1  
    74   71   72 2  
    75   71   74 am 
    76   74   75 1  
    77   75   76 1  
    78   76   77 ar 
    79   76   78 ar 
    80    1   79 1  
    81    1   80 1  
    82    1   81 1  
    83    2   82 1  
    84    5   83 1  
    85    5   84 1  
    86    6   85 1  
    87    7   86 1  
    88    8   87 1  
    89   11   88 1  
    90   11   89 1  
    91   12   90 1  
    92   13   91 1  
    93   14   92 1  
    94   17   93 1  
    95   17   94 1  
    96   18   95 1  
    97   18   96 1  
    98   19   97 1  
    99   19   98 1  
   100   20   99 1  
   101   22  100 1  
   102   22  101 1  
   103   23  102 1  
   104   23  103 1  
   105   24  104 1  
   106   25  105 1  
   107   28  106 1  
   108   28  107 1  
   109   30  108 1  
   110   31  109 1  
   111   32  110 1  
   112   33  111 1  
   113   34  112 1  
   114   35  113 1  
   115   36  114 1  
   116   39  115 1  
   117   39  116 1  
   118   40  117 1  
   119   40  118 1  
   120   44  119 1  
   121   45  120 1  
   122   48  121 1  
   123   48  122 1  
   124   49  123 1  
   125   50  124 1  
   126   51  125 1  
   127   54  126 1  
   128   54  127 1  
   129   55  128 1  
   130   56  129 1  
   131   56  130 1  
   132   56  131 1  
   133   57  132 1  
   134   57  133 1  
   135   57  134 1  
   136   58  135 1  
   137   59  136 1  
   138   62  137 1  
   139   62  138 1  
   140   64  139 1  
   141   65  140 1  
   142   66  141 1  
   143   67  142 1  
   144   68  143 1  
   145   69  144 1  
   146   70  145 1  
   147   73  146 1  
   148   73  147 1  
   149   73  148 1  
   150   74  149 1  
   151   75  150 1  
   152   75  151 1  
@<TRIPOS>SUBSTRUCTURE
     1 SER         1

