1t7r_ligand
  -I-interpret- 

152153  0  0  0  0  0  0  0  0999 V2000
   -9.3160   30.2680   54.4180 N   0  3  0  0  0
  -10.7110   30.7580   54.6110 C   0  0  0  0  0
  -11.7080   29.6310   54.3700 C   0  0  0  0  0
  -11.3150   28.4900   54.1590 O   0  0  0  0  0
  -10.9980   31.9210   53.6610 C   0  0  0  0  0
  -10.0450   32.9550   53.8320 O   0  0  0  0  0
  -12.9950   29.9610   54.3870 N   0  0  0  0  0
  -14.0550   28.9750   54.2030 C   0  0  0  0  0
  -13.8210   27.9310   53.1080 C   0  0  0  0  0
  -13.8030   26.7360   53.3900 O   0  0  0  0  0
  -15.3900   29.6800   53.9570 C   0  0  0  0  0
  -16.4640   28.7590   54.0500 O   0  0  0  0  0
  -13.6530   28.3690   51.8620 N   0  0  0  0  0
  -13.4360   27.4210   50.7680 C   0  0  0  0  0
  -12.1600   26.6060   50.9550 C   0  0  0  0  0
  -12.1640   25.3820   50.8000 O   0  0  0  0  0
  -13.3960   28.1510   49.4240 C   0  0  0  0  0
  -14.7300   28.7710   49.0400 C   0  0  0  0  0
  -14.6760   29.4400   47.6770 C   0  0  0  0  0
  -15.9600   30.0390   47.3240 N   0  0  0  0  0
  -16.5390   31.0230   48.0060 C   0  0  0  0  0
  -15.9470   31.5260   49.0830 N   0  0  0  0  0
  -17.7110   31.5020   47.6150 N   0  0  0  0  0
  -11.0660   27.2790   51.2860 N   0  0  0  0  0
   -9.8140   26.5730   51.5010 C   0  0  0  0  0
   -9.9170   25.6720   52.7290 C   0  0  0  0  0
   -9.4280   24.5420   52.7250 O   0  0  0  0  0
   -8.6590   27.5530   51.7030 C   0  0  0  0  0
   -7.3550   26.8730   51.9770 C   0  0  0  0  0
   -6.6330   26.2910   50.9430 C   0  0  0  0  0
   -6.8880   26.7420   53.2790 C   0  0  0  0  0
   -5.4660   25.5840   51.2020 C   0  0  0  0  0
   -5.7230   26.0350   53.5530 C   0  0  0  0  0
   -5.0120   25.4540   52.5110 C   0  0  0  0  0
  -10.5410   26.1820   53.7860 N   0  0  0  0  0
  -10.6990   25.4140   55.0160 C   0  0  0  0  0
  -11.4540   24.1150   54.7620 C   0  0  0  0  0
  -11.1140   23.0760   55.3210 O   0  0  0  0  0
  -11.4360   26.2390   56.0760 C   0  0  0  0  0
  -10.6200   27.3700   56.6820 C   0  0  0  0  0
  -11.4170   28.1820   57.6850 C   0  0  0  0  0
  -12.4140   28.8190   57.2830 O   0  0  0  0  0
  -11.0510   28.1810   58.8790 O   0  0  0  0  0
  -12.4790   24.1810   53.9190 N   0  0  0  0  0
  -13.2700   23.0000   53.5930 C   0  0  0  0  0
  -12.4090   21.9980   52.8350 C   0  0  0  0  0
  -12.5070   20.7900   53.0550 O   0  0  0  0  0
  -14.4840   23.3900   52.7500 C   0  0  0  0  0
  -15.3530   24.2360   53.4840 O   0  0  0  0  0
  -11.5710   22.5050   51.9370 N   0  0  0  0  0
  -10.6740   21.6520   51.1650 C   0  0  0  0  0
   -9.7110   20.9890   52.1440 C   0  0  0  0  0
   -9.5360   19.7720   52.1400 O   0  0  0  0  0
   -9.8820   22.4900   50.1490 C   0  0  0  0  0
   -8.8210   21.8050   49.2720 C   0  0  0  0  0
   -8.2400   22.8180   48.3030 C   0  0  0  0  0
   -7.7070   21.2230   50.1220 C   0  0  0  0  0
   -9.0830   21.8100   52.9790 N   0  0  0  0  0
   -8.1240   21.3310   53.9670 C   0  0  0  0  0
   -8.7310   20.2560   54.8650 C   0  0  0  0  0
   -8.0740   19.2730   55.2020 O   0  0  0  0  0
   -7.6400   22.5010   54.8300 C   0  0  0  0  0
   -6.5290   22.1410   55.7730 C   0  0  0  0  0
   -5.2050   22.1520   55.3420 C   0  0  0  0  0
   -6.8040   21.7740   57.0850 C   0  0  0  0  0
   -4.1700   21.8040   56.2050 C   0  0  0  0  0
   -5.7750   21.4220   57.9600 C   0  0  0  0  0
   -4.4520   21.4380   57.5160 C   0  0  0  0  0
   -9.9870   20.4490   55.2500 N   0  0  0  0  0
  -10.6730   19.4980   56.1180 C   0  0  0  0  0
  -11.0100   18.1940   55.3970 C   0  0  0  0  0
  -11.3350   17.1910   56.0330 O   0  0  0  0  0
  -11.9430   20.1290   56.6790 C   0  0  0  0  0
  -10.9310   18.2140   54.0700 N   0  0  0  0  0
  -11.2260   17.0240   53.2910 C   0  0  0  0  0
  -12.5520   17.1080   52.5580 C   0  0  0  0  0
  -13.2940   18.0890   52.7770 O   0  0  0  0  0
  -12.8530   16.1930   51.7620 O   0  0  0  0  0
   -9.1376   29.4932   55.0569 H   0  0  0  0  0
   -9.1984   29.9508   53.4557 H   0  0  0  0  0
   -8.6610   31.0261   54.6098 H   0  0  0  0  0
  -10.8168   31.1056   55.6386 H   0  0  0  0  0
  -11.9900   32.3169   53.8787 H   0  0  0  0  0
  -10.9440   31.5586   52.6344 H   0  0  0  0  0
  -10.2428   33.6741   53.2275 H   0  0  0  0  0
  -13.2510   30.9374   54.5338 H   0  0  0  0  0
  -14.0630   28.4100   55.1351 H   0  0  0  0  0
  -15.3818   30.1139   52.9571 H   0  0  0  0  0
  -15.5239   30.4565   54.7101 H   0  0  0  0  0
  -17.2923   29.2182   53.8931 H   0  0  0  0  0
  -13.6756   29.3703   51.6688 H   0  0  0  0  0
  -14.2760   26.7265   50.7780 H   0  0  0  0  0
  -13.1388   27.4194   48.6580 H   0  0  0  0  0
  -12.6683   28.9582   49.5078 H   0  0  0  0  0
  -14.9793   29.5294   49.7821 H   0  0  0  0  0
  -15.4758   27.9771   49.0005 H   0  0  0  0  0
  -14.4306   28.6843   46.9308 H   0  0  0  0  0
  -13.9241   30.2285   47.7088 H   0  0  0  0  0
  -16.4441   29.6795   46.5013 H   0  0  0  0  0
  -16.3944   32.2786   49.6063 H   0  0  0  0  0
  -15.0448   31.1598   49.3870 H   0  0  0  0  0
  -18.1702   31.1160   46.7900 H   0  0  0  0  0
  -11.1034   28.2930   51.3897 H   0  0  0  0  0
   -9.6194   25.9695   50.6144 H   0  0  0  0  0
   -8.8976   28.1732   52.5670 H   0  0  0  0  0
   -8.5467   28.1273   50.7834 H   0  0  0  0  0
   -6.9863   26.3903   49.9166 H   0  0  0  0  0
   -7.4432   27.2003   54.0974 H   0  0  0  0  0
   -4.9073   25.1322   50.3823 H   0  0  0  0  0
   -5.3696   25.9372   54.5795 H   0  0  0  0  0
   -4.0987   24.8964   52.7184 H   0  0  0  0  0
  -10.9167   27.1290   53.7360 H   0  0  0  0  0
   -9.7015   25.1699   55.3814 H   0  0  0  0  0
  -11.6875   25.5583   56.8893 H   0  0  0  0  0
  -12.2937   26.6959   55.5824 H   0  0  0  0  0
  -10.3137   28.0358   55.8752 H   0  0  0  0  0
   -9.7686   26.9314   57.2024 H   0  0  0  0  0
  -12.5184   28.6848   56.3382 H   0  0  0  0  0
  -12.7174   25.0758   53.4913 H   0  0  0  0  0
  -13.6214   22.5437   54.5184 H   0  0  0  0  0
  -15.0249   22.4855   52.4717 H   0  0  0  0  0
  -14.1406   23.9221   51.8628 H   0  0  0  0  0
  -16.1075   24.4690   52.9380 H   0  0  0  0  0
  -11.5545   23.5133   51.7840 H   0  0  0  0  0
  -11.2463   20.9041   50.6162 H   0  0  0  0  0
   -9.3238   23.2051   50.7533 H   0  0  0  0  0
  -10.6306   22.8549   49.4458 H   0  0  0  0  0
   -9.2969   20.9920   48.7237 H   0  0  0  0  0
   -9.0360   23.2131   47.6718 H   0  0  0  0  0
   -7.7805   23.6325   48.8630 H   0  0  0  0  0
   -7.4876   22.3335   47.6807 H   0  0  0  0  0
   -7.2298   22.0218   50.6897 H   0  0  0  0  0
   -8.1230   20.4858   50.8088 H   0  0  0  0  0
   -6.9708   20.7448   49.4760 H   0  0  0  0  0
   -9.2786   22.8097   52.9269 H   0  0  0  0  0
   -7.2844   20.8906   53.4292 H   0  0  0  0  0
   -8.4852   22.8297   55.4347 H   0  0  0  0  0
   -7.2572   23.2660   54.1545 H   0  0  0  0  0
   -4.9761   22.4369   54.3151 H   0  0  0  0  0
   -7.8362   21.7609   57.4351 H   0  0  0  0  0
   -3.1385   21.8185   55.8529 H   0  0  0  0  0
   -6.0040   21.1356   58.9865 H   0  0  0  0  0
   -3.6436   21.1648   58.1941 H   0  0  0  0  0
  -10.4836   21.2811   54.9316 H   0  0  0  0  0
   -9.9930   19.2507   56.9332 H   0  0  0  0  0
  -11.6823   21.0177   57.2537 H   0  0  0  0  0
  -12.6028   20.4069   55.8571 H   0  0  0  0  0
  -12.4484   19.4118   57.3257 H   0  0  0  0  0
  -10.6603   19.0744   53.5937 H   0  0  0  0  0
  -11.2807   16.1813   53.9802 H   0  0  0  0  0
  -10.4402   16.9134   52.5437 H   0  0  0  0  0
  -12.1479   15.5418   51.7433 H   0  0  0  0  0
  1  2  1  0  0  0
  2  3  1  0  0  0
  2  5  1  0  0  0
  3  4  2  0  0  0
  3  7  1  0  0  0
  5  6  1  0  0  0
  7  8  1  0  0  0
  8  9  1  0  0  0
  8 11  1  0  0  0
  9 10  2  0  0  0
  9 13  1  0  0  0
 11 12  1  0  0  0
 13 14  1  0  0  0
 14 15  1  0  0  0
 14 17  1  0  0  0
 15 16  2  0  0  0
 15 24  1  0  0  0
 17 18  1  0  0  0
 18 19  1  0  0  0
 19 20  1  0  0  0
 20 21  1  0  0  0
 21 22  1  0  0  0
 21 23  2  0  0  0
 24 25  1  0  0  0
 25 26  1  0  0  0
 25 28  1  0  0  0
 26 27  2  0  0  0
 26 35  1  0  0  0
 28 29  1  0  0  0
 29 30  4  0  0  0
 29 31  4  0  0  0
 30 32  4  0  0  0
 31 33  4  0  0  0
 32 34  4  0  0  0
 33 34  4  0  0  0
 35 36  1  0  0  0
 36 37  1  0  0  0
 36 39  1  0  0  0
 37 38  2  0  0  0
 37 44  1  0  0  0
 39 40  1  0  0  0
 40 41  1  0  0  0
 41 42  1  0  0  0
 41 43  2  0  0  0
 44 45  1  0  0  0
 45 46  1  0  0  0
 45 48  1  0  0  0
 46 47  2  0  0  0
 46 50  1  0  0  0
 48 49  1  0  0  0
 50 51  1  0  0  0
 51 52  1  0  0  0
 51 54  1  0  0  0
 52 53  2  0  0  0
 52 58  1  0  0  0
 54 55  1  0  0  0
 55 56  1  0  0  0
 55 57  1  0  0  0
 58 59  1  0  0  0
 59 60  1  0  0  0
 59 62  1  0  0  0
 60 61  2  0  0  0
 60 69  1  0  0  0
 62 63  1  0  0  0
 63 64  4  0  0  0
 63 65  4  0  0  0
 64 66  4  0  0  0
 65 67  4  0  0  0
 66 68  4  0  0  0
 67 68  4  0  0  0
 69 70  1  0  0  0
 70 71  1  0  0  0
 70 73  1  0  0  0
 71 72  2  0  0  0
 71 74  1  0  0  0
 74 75  1  0  0  0
 75 76  1  0  0  0
 76 77  2  0  0  0
 76 78  1  0  0  0
  1 79  1  0  0  0
  1 80  1  0  0  0
  1 81  1  0  0  0
  2 82  1  0  0  0
  5 83  1  0  0  0
  5 84  1  0  0  0
  6 85  1  0  0  0
  7 86  1  0  0  0
  8 87  1  0  0  0
 11 88  1  0  0  0
 11 89  1  0  0  0
 12 90  1  0  0  0
 13 91  1  0  0  0
 14 92  1  0  0  0
 17 93  1  0  0  0
 17 94  1  0  0  0
 18 95  1  0  0  0
 18 96  1  0  0  0
 19 97  1  0  0  0
 19 98  1  0  0  0
 20 99  1  0  0  0
 22100  1  0  0  0
 22101  1  0  0  0
 23102  1  0  0  0
 24103  1  0  0  0
 25104  1  0  0  0
 28105  1  0  0  0
 28106  1  0  0  0
 30107  1  0  0  0
 31108  1  0  0  0
 32109  1  0  0  0
 33110  1  0  0  0
 34111  1  0  0  0
 35112  1  0  0  0
 36113  1  0  0  0
 39114  1  0  0  0
 39115  1  0  0  0
 40116  1  0  0  0
 40117  1  0  0  0
 42118  1  0  0  0
 44119  1  0  0  0
 45120  1  0  0  0
 48121  1  0  0  0
 48122  1  0  0  0
 49123  1  0  0  0
 50124  1  0  0  0
 51125  1  0  0  0
 54126  1  0  0  0
 54127  1  0  0  0
 55128  1  0  0  0
 56129  1  0  0  0
 56130  1  0  0  0
 56131  1  0  0  0
 57132  1  0  0  0
 57133  1  0  0  0
 57134  1  0  0  0
 58135  1  0  0  0
 59136  1  0  0  0
 62137  1  0  0  0
 62138  1  0  0  0
 64139  1  0  0  0
 65140  1  0  0  0
 66141  1  0  0  0
 67142  1  0  0  0
 68143  1  0  0  0
 69144  1  0  0  0
 70145  1  0  0  0
 73146  1  0  0  0
 73147  1  0  0  0
 73148  1  0  0  0
 74149  1  0  0  0
 75150  1  0  0  0
 75151  1  0  0  0
 78152  1  0  0  0
M  END
$$$$
