5gs9_ligand
  -I-interpret- 

 27 26  0  0  0  0  0  0  0  0999 V2000
  -24.8130   11.8860  -41.6370 N   0  3  0  0  0
  -23.7760   12.7080  -40.9380 C   0  0  0  0  0
  -22.4420   12.6170  -41.6800 C   0  0  0  0  0
  -22.3000   11.8300  -42.6180 O   0  0  0  0  0
  -23.6140   12.2780  -39.4670 C   0  0  0  0  0
  -24.8960   11.8760  -38.7400 C   0  0  0  0  0
  -25.7650   13.0650  -38.3600 C   0  0  0  0  0
  -27.1790   12.6970  -38.2790 N   0  0  0  0  0
  -27.7920   12.2090  -37.1990 C   0  0  0  0  0
  -27.1300   12.0080  -36.0630 N   0  0  0  0  0
  -29.0840   11.9130  -37.2590 N   0  0  0  0  0
  -21.4790   13.3230  -41.3770 O   0  0  0  0  0
  -24.8947   12.1957  -42.6054 H   0  0  0  0  0
  -24.5384   10.9039  -41.6149 H   0  0  0  0  0
  -25.7102   12.0001  -41.1654 H   0  0  0  0  0
  -24.1087   13.7460  -40.9406 H   0  0  0  0  0
  -23.1164   11.3429  -42.7520 H   0  0  0  0  0
  -23.2212   13.1455  -38.9366 H   0  0  0  0  0
  -22.9775   11.3932  -39.4757 H   0  0  0  0  0
  -24.6090   11.3681  -37.8193 H   0  0  0  0  0
  -25.4749   11.2450  -39.4143 H   0  0  0  0  0
  -25.6527   13.8317  -39.1266 H   0  0  0  0  0
  -25.4468   13.4245  -37.3814 H   0  0  0  0  0
  -27.7436   12.8243  -39.1189 H   0  0  0  0  0
  -27.6158   11.6300  -35.2497 H   0  0  0  0  0
  -26.1366   12.2319  -36.0052 H   0  0  0  0  0
  -29.6009   12.0589  -38.1261 H   0  0  0  0  0
  1  2  1  0  0  0
  2  3  1  0  0  0
  2  5  1  0  0  0
  3  4  1  0  0  0
  3 12  2  0  0  0
  5  6  1  0  0  0
  6  7  1  0  0  0
  7  8  1  0  0  0
  8  9  1  0  0  0
  9 10  1  0  0  0
  9 11  2  0  0  0
  1 13  1  0  0  0
  1 14  1  0  0  0
  1 15  1  0  0  0
  2 16  1  0  0  0
  4 17  1  0  0  0
  5 18  1  0  0  0
  5 19  1  0  0  0
  6 20  1  0  0  0
  6 21  1  0  0  0
  7 22  1  0  0  0
  7 23  1  0  0  0
  8 24  1  0  0  0
 10 25  1  0  0  0
 10 26  1  0  0  0
 11 27  1  0  0  0
M  END
$$$$
