### 
### Created by X-TOOL on Mon Sep 10 21:13:18 2018
### 

@<TRIPOS>MOLECULE
4u0c_ligand
  123   125     1     0     0
SMALL
GAST_HUCK


@<TRIPOS>ATOM
      1 N          -6.9180   64.3960    0.2880 N.4       1 SER         0.2396
      2 CA         -8.3890   64.6380    0.3410 C.3       1 SER         0.0886
      3 C          -8.7210   66.0700   -0.0910 C.2       1 SER         0.2315
      4 O          -7.9100   66.9800    0.1010 O.2       1 SER        -0.3904
      5 CB         -8.9180   64.3800    1.7550 C.3       1 SER         0.1041
      6 OG         -8.3720   65.3030    2.6820 O.3       1 SER        -0.3870
      7 N          -9.9190   66.2770   -0.6690 N.am      1 PRO        -0.2471
      8 CA        -10.3100   67.6270   -1.0920 C.3       1 PRO         0.1339
      9 C         -10.4810   68.5860    0.0880 C.2       1 PRO         0.2042
     10 O         -10.8160   68.1550    1.1920 O.2       1 PRO        -0.3944
     11 CB        -11.6420   67.4030   -1.8190 C.3       1 PRO        -0.0104
     12 CG        -12.1780   66.1220   -1.2790 C.3       1 PRO        -0.0281
     13 CD        -10.9830   65.2850   -0.9150 C.3       1 PRO         0.0371
     14 N         -10.2460   69.8730   -0.1530 N.am      1 SER        -0.2616
     15 CA        -10.2570   70.8850    0.9110 C.3       1 SER         0.1539
     16 C         -11.6490   71.3800    1.3350 C.2       1 SER         0.2060
     17 O         -11.7590   72.1200    2.3110 O.2       1 SER        -0.3943
     18 CB         -9.4160   72.0910    0.4830 C.3       1 SER         0.0843
     19 OG         -9.9730   72.7160   -0.6610 O.3       1 SER        -0.3903
     20 N         -12.6970   70.9940    0.6090 N.am      1 GLY        -0.2663
     21 CA        -14.0580   71.4540    0.9150 C.3       1 GLY         0.1201
     22 C         -14.4010   72.7370    0.1810 C.2       1 GLY         0.2008
     23 O         -13.5280   73.3800   -0.4000 O.2       1 GLY        -0.3947
     24 N         -15.6740   73.1220    0.2300 N.am      1 VAL        -0.2637
     25 CA        -16.1830   74.2310   -0.5840 C.3       1 VAL         0.1332
     26 C         -16.7000   75.4210    0.2400 C.2       1 VAL         0.2043
     27 O         -17.3350   76.3230   -0.3050 O.2       1 VAL        -0.3944
     28 CB        -17.2800   73.7390   -1.5650 C.3       1 VAL        -0.0063
     29 CG1       -16.7470   72.5910   -2.4120 C.3       1 VAL        -0.0584
     30 CG2       -18.5570   73.3330   -0.8270 C.3       1 VAL        -0.0584
     31 N         -16.4090   75.4350    1.5410 N.am      1 PHE        -0.2619
     32 CA        -16.8620   76.5180    2.4160 C.3       1 PHE         0.1404
     33 C         -15.8990   77.7020    2.3450 C.2       1 PHE         0.2060
     34 O         -15.0320   77.8740    3.2000 O.2       1 PHE        -0.3942
     35 CB        -17.0290   76.0250    3.8560 C.3       1 PHE         0.0214
     36 CG        -18.2200   75.1260    4.0480 C.ar      1 PHE        -0.0386
     37 CD1       -19.3970   75.6150    4.5980 C.ar      1 PHE        -0.0601
     38 CD2       -18.1680   73.7930    3.6690 C.ar      1 PHE        -0.0601
     39 CE1       -20.4980   74.7890    4.7710 C.ar      1 PHE        -0.0686
     40 CE2       -19.2650   72.9630    3.8360 C.ar      1 PHE        -0.0686
     41 CZ        -20.4320   73.4620    4.3900 C.ar      1 PHE        -0.0687
     42 N         -16.0760   78.5150    1.3090 N.am      1 THR        -0.2612
     43 CA        -15.2200   79.6750    1.0550 C.3       1 THR         0.1565
     44 C         -15.1350   80.6030    2.2610 C.2       1 THR         0.2066
     45 O         -14.0550   81.0950    2.5940 O.2       1 THR        -0.3943
     46 CB        -15.7340   80.4720   -0.1600 C.3       1 THR         0.0924
     47 OG1       -15.8850   79.5850   -1.2760 O.3       1 THR        -0.3874
     48 CG2       -14.7710   81.6110   -0.5260 C.3       1 THR        -0.0346
     49 N         -16.2780   80.8380    2.9020 N.am      1 PHE        -0.2619
     50 CA        -16.3620   81.7000    4.0720 C.3       1 PHE         0.1404
     51 C         -16.5180   80.8740    5.3460 C.2       1 PHE         0.2053
     52 O         -17.2340   79.8720    5.3620 O.2       1 PHE        -0.3942
     53 CB        -17.5370   82.6660    3.9220 C.3       1 PHE         0.0214
     54 CG        -17.4740   83.5060    2.6790 C.ar      1 PHE        -0.0386
     55 CD1       -16.8020   84.7190    2.6820 C.ar      1 PHE        -0.0601
     56 CD2       -18.0830   83.0820    1.5050 C.ar      1 PHE        -0.0601
     57 CE1       -16.7420   85.4960    1.5360 C.ar      1 PHE        -0.0686
     58 CE2       -18.0250   83.8510    0.3570 C.ar      1 PHE        -0.0686
     59 CZ        -17.3530   85.0590    0.3730 C.ar      1 PHE        -0.0687
     60 N         -15.8460   81.3020    6.4140 N.am      1 GLY        -0.2696
     61 CA        -15.9350   80.6300    7.7110 C.3       1 GLY         0.1116
     62 C         -15.0990   79.3670    7.7870 C.2       1 GLY         0.2118
     63 O         -14.1230   79.2140    7.0560 O.co2     1 GLY        -0.4123
     64 H          -6.7226   63.4499    0.5756 H         1 SER         0.2016
     65 H          -6.4492   65.0388    0.9069 H         1 SER         0.2016
     66 H          -6.5882   64.5357   -0.6542 H         1 SER         0.2016
     67 H          -8.8826   63.9405   -0.3517 H         1 SER         0.1122
     68 H          -8.6434   63.3596    2.0604 H         1 SER         0.0640
     69 H         -10.0135   64.4796    1.7522 H         1 SER         0.0640
     70 H          -8.7159   65.1207    3.5486 H         1 SER         0.2099
     71 H          -9.5594   68.0428   -1.7802 H         1 PRO         0.0802
     72 H         -11.4797   67.3250   -2.9041 H         1 PRO         0.0313
     73 H         -12.3376   68.2292   -1.6107 H         1 PRO         0.0313
     74 H         -12.7832   65.6105   -2.0420 H         1 PRO         0.0287
     75 H         -12.7951   66.3125   -0.3886 H         1 PRO         0.0287
     76 H         -11.1816   64.6912   -0.0106 H         1 PRO         0.0524
     77 H         -10.7088   64.6133   -1.7418 H         1 PRO         0.0524
     78 H         -10.0552   70.1613   -1.0913 H         1 SER         0.1884
     79 H          -9.7880   70.4299    1.7958 H         1 SER         0.0823
     80 H          -8.3958   71.7534    0.2480 H         1 SER         0.0606
     81 H          -9.3810   72.8169    1.3087 H         1 SER         0.0606
     82 H          -9.4356   73.4596   -0.9074 H         1 SER         0.2097
     83 H         -12.5536   70.3756   -0.1637 H         1 GLY         0.1881
     84 H         -14.1382   71.6316    1.9976 H         1 GLY         0.0763
     85 H         -14.7727   70.6725    0.6176 H         1 GLY         0.0763
     86 H         -16.3028   72.6405    0.8405 H         1 VAL         0.1883
     87 H         -15.3392   74.5990   -1.1861 H         1 VAL         0.0802
     88 H         -17.5317   74.5718   -2.2381 H         1 VAL         0.0343
     89 H         -17.5319   72.2502   -3.1032 H         1 VAL         0.0234
     90 H         -16.4492   71.7593   -1.7566 H         1 VAL         0.0234
     91 H         -15.8750   72.9343   -2.9880 H         1 VAL         0.0234
     92 H         -18.9177   74.1801   -0.2251 H         1 VAL         0.0234
     93 H         -18.3435   72.4791   -0.1673 H         1 VAL         0.0234
     94 H         -19.3281   73.0480   -1.5579 H         1 VAL         0.0234
     95 H         -15.8685   74.6881    1.9284 H         1 PHE         0.1885
     96 H         -17.8453   76.8572    2.0581 H         1 PHE         0.0823
     97 H         -17.1439   76.9001    4.5126 H         1 PHE         0.0474
     98 H         -16.1236   75.4691    4.1410 H         1 PHE         0.0474
     99 H         -19.4565   76.6555    4.8961 H         1 PHE         0.0557
    100 H         -17.2572   73.3951    3.2364 H         1 PHE         0.0557
    101 H         -21.4095   75.1840    5.2047 H         1 PHE         0.0599
    102 H         -19.2097   71.9236    3.5331 H         1 PHE         0.0599
    103 H         -21.2907   72.8142    4.5244 H         1 PHE         0.0559
    104 H         -16.8264   78.3263    0.6755 H         1 THR         0.1884
    105 H         -14.2078   79.3075    0.8306 H         1 THR         0.0826
    106 H         -16.7136   80.9058    0.0894 H         1 THR         0.0639
    107 H         -16.2018   80.0734   -2.0267 H         1 THR         0.2101
    108 H         -15.1649   82.1593   -1.3944 H         1 THR         0.0257
    109 H         -13.7846   81.1919   -0.7737 H         1 THR         0.0257
    110 H         -14.6738   82.2976    0.3278 H         1 THR         0.0257
    111 H         -17.1138   80.4042    2.5656 H         1 PHE         0.1885
    112 H         -15.4324   82.2834    4.1453 H         1 PHE         0.0823
    113 H         -17.5485   83.3366    4.7939 H         1 PHE         0.0474
    114 H         -18.4674   82.0798    3.8979 H         1 PHE         0.0474
    115 H         -16.3190   85.0628    3.5895 H         1 PHE         0.0557
    116 H         -18.6110   82.1354    1.4883 H         1 PHE         0.0557
    117 H         -16.2174   86.4445    1.5502 H         1 PHE         0.0599
    118 H         -18.5049   83.5077   -0.5523 H         1 PHE         0.0599
    119 H         -17.3044   85.6641   -0.5251 H         1 PHE         0.0559
    120 H         -15.2617   82.1088    6.3264 H         1 GLY         0.1874
    121 H         -16.9864   80.3651    7.8963 H         1 GLY         0.0714
    122 H         -15.5893   81.3256    8.4898 H         1 GLY         0.0714
    123 O1        -15.4087   78.4639    8.6093 O.co2     1 GLY        -0.4123
@<TRIPOS>BOND
     1    1    2 1  
     2    2    3 1  
     3    2    5 1  
     4    3    4 2  
     5    3    7 am 
     6    5    6 1  
     7    7    8 1  
     8    7   13 1  
     9    8    9 1  
    10    8   11 1  
    11    9   10 2  
    12    9   14 am 
    13   11   12 1  
    14   12   13 1  
    15   14   15 1  
    16   15   16 1  
    17   15   18 1  
    18   16   17 2  
    19   16   20 am 
    20   18   19 1  
    21   20   21 1  
    22   21   22 1  
    23   22   23 2  
    24   22   24 am 
    25   24   25 1  
    26   25   26 1  
    27   25   28 1  
    28   26   27 2  
    29   26   31 am 
    30   28   29 1  
    31   28   30 1  
    32   31   32 1  
    33   32   33 1  
    34   32   35 1  
    35   33   34 2  
    36   33   42 am 
    37   35   36 1  
    38   36   37 ar 
    39   36   38 ar 
    40   37   39 ar 
    41   38   40 ar 
    42   39   41 ar 
    43   40   41 ar 
    44   42   43 1  
    45   43   44 1  
    46   43   46 1  
    47   44   45 2  
    48   44   49 am 
    49   46   47 1  
    50   46   48 1  
    51   49   50 1  
    52   50   51 1  
    53   50   53 1  
    54   51   52 2  
    55   51   60 am 
    56   53   54 1  
    57   54   55 ar 
    58   54   56 ar 
    59   55   57 ar 
    60   56   58 ar 
    61   57   59 ar 
    62   58   59 ar 
    63   60   61 1  
    64   61   62 1  
    65   62   63 ar 
    66    1   64 1  
    67    1   65 1  
    68    1   66 1  
    69    2   67 1  
    70    5   68 1  
    71    5   69 1  
    72    6   70 1  
    73    8   71 1  
    74   11   72 1  
    75   11   73 1  
    76   12   74 1  
    77   12   75 1  
    78   13   76 1  
    79   13   77 1  
    80   14   78 1  
    81   15   79 1  
    82   18   80 1  
    83   18   81 1  
    84   19   82 1  
    85   20   83 1  
    86   21   84 1  
    87   21   85 1  
    88   24   86 1  
    89   25   87 1  
    90   28   88 1  
    91   29   89 1  
    92   29   90 1  
    93   29   91 1  
    94   30   92 1  
    95   30   93 1  
    96   30   94 1  
    97   31   95 1  
    98   32   96 1  
    99   35   97 1  
   100   35   98 1  
   101   37   99 1  
   102   38  100 1  
   103   39  101 1  
   104   40  102 1  
   105   41  103 1  
   106   42  104 1  
   107   43  105 1  
   108   46  106 1  
   109   47  107 1  
   110   48  108 1  
   111   48  109 1  
   112   48  110 1  
   113   49  111 1  
   114   50  112 1  
   115   53  113 1  
   116   53  114 1  
   117   55  115 1  
   118   56  116 1  
   119   57  117 1  
   120   58  118 1  
   121   59  119 1  
   122   60  120 1  
   123   61  121 1  
   124   61  122 1  
   125   62  123 ar 
@<TRIPOS>SUBSTRUCTURE
     1 SER         1

