4u0c_ligand
  -I-interpret- 

124126  0  0  0  0  0  0  0  0999 V2000
   -6.9180   64.3960    0.2880 N   0  3  0  0  0
   -8.3890   64.6380    0.3410 C   0  0  0  0  0
   -8.7210   66.0700   -0.0910 C   0  0  0  0  0
   -7.9100   66.9800    0.1010 O   0  0  0  0  0
   -8.9180   64.3800    1.7550 C   0  0  0  0  0
   -8.3720   65.3030    2.6820 O   0  0  0  0  0
   -9.9190   66.2770   -0.6690 N   0  0  0  0  0
  -10.3100   67.6270   -1.0920 C   0  0  0  0  0
  -10.4810   68.5860    0.0880 C   0  0  0  0  0
  -10.8160   68.1550    1.1920 O   0  0  0  0  0
  -11.6420   67.4030   -1.8190 C   0  0  0  0  0
  -12.1780   66.1220   -1.2790 C   0  0  0  0  0
  -10.9830   65.2850   -0.9150 C   0  0  0  0  0
  -10.2460   69.8730   -0.1530 N   0  0  0  0  0
  -10.2570   70.8850    0.9110 C   0  0  0  0  0
  -11.6490   71.3800    1.3350 C   0  0  0  0  0
  -11.7590   72.1200    2.3110 O   0  0  0  0  0
   -9.4160   72.0910    0.4830 C   0  0  0  0  0
   -9.9730   72.7160   -0.6610 O   0  0  0  0  0
  -12.6970   70.9940    0.6090 N   0  0  0  0  0
  -14.0580   71.4540    0.9150 C   0  0  0  0  0
  -14.4010   72.7370    0.1810 C   0  0  0  0  0
  -13.5280   73.3800   -0.4000 O   0  0  0  0  0
  -15.6740   73.1220    0.2300 N   0  0  0  0  0
  -16.1830   74.2310   -0.5840 C   0  0  0  0  0
  -16.7000   75.4210    0.2400 C   0  0  0  0  0
  -17.3350   76.3230   -0.3050 O   0  0  0  0  0
  -17.2800   73.7390   -1.5650 C   0  0  0  0  0
  -16.7470   72.5910   -2.4120 C   0  0  0  0  0
  -18.5570   73.3330   -0.8270 C   0  0  0  0  0
  -16.4090   75.4350    1.5410 N   0  0  0  0  0
  -16.8620   76.5180    2.4160 C   0  0  0  0  0
  -15.8990   77.7020    2.3450 C   0  0  0  0  0
  -15.0320   77.8740    3.2000 O   0  0  0  0  0
  -17.0290   76.0250    3.8560 C   0  0  0  0  0
  -18.2200   75.1260    4.0480 C   0  0  0  0  0
  -19.3970   75.6150    4.5980 C   0  0  0  0  0
  -18.1680   73.7930    3.6690 C   0  0  0  0  0
  -20.4980   74.7890    4.7710 C   0  0  0  0  0
  -19.2650   72.9630    3.8360 C   0  0  0  0  0
  -20.4320   73.4620    4.3900 C   0  0  0  0  0
  -16.0760   78.5150    1.3090 N   0  0  0  0  0
  -15.2200   79.6750    1.0550 C   0  0  0  0  0
  -15.1350   80.6030    2.2610 C   0  0  0  0  0
  -14.0550   81.0950    2.5940 O   0  0  0  0  0
  -15.7340   80.4720   -0.1600 C   0  0  0  0  0
  -15.8850   79.5850   -1.2760 O   0  0  0  0  0
  -14.7710   81.6110   -0.5260 C   0  0  0  0  0
  -16.2780   80.8380    2.9020 N   0  0  0  0  0
  -16.3620   81.7000    4.0720 C   0  0  0  0  0
  -16.5180   80.8740    5.3460 C   0  0  0  0  0
  -17.2340   79.8720    5.3620 O   0  0  0  0  0
  -17.5370   82.6660    3.9220 C   0  0  0  0  0
  -17.4740   83.5060    2.6790 C   0  0  0  0  0
  -16.8020   84.7190    2.6820 C   0  0  0  0  0
  -18.0830   83.0820    1.5050 C   0  0  0  0  0
  -16.7420   85.4960    1.5360 C   0  0  0  0  0
  -18.0250   83.8510    0.3570 C   0  0  0  0  0
  -17.3530   85.0590    0.3730 C   0  0  0  0  0
  -15.8460   81.3020    6.4140 N   0  0  0  0  0
  -15.9350   80.6300    7.7110 C   0  0  0  0  0
  -15.0990   79.3670    7.7870 C   0  0  0  0  0
  -14.1230   79.2140    7.0560 O   0  0  0  0  0
  -15.4087   78.4639    8.6093 O   0  0  0  0  0
   -6.5797   64.5713   -0.6581 H   0  0  0  0  0
   -6.4477   65.0235    0.9403 H   0  0  0  0  0
   -6.7243   63.4283    0.5457 H   0  0  0  0  0
   -8.8731   63.9485   -0.3506 H   0  0  0  0  0
   -8.6303   63.3727    2.0560 H   0  0  0  0  0
  -10.0020   64.4940    1.7475 H   0  0  0  0  0
   -8.7196   65.1188    3.5577 H   0  0  0  0  0
   -9.5489   68.0952   -1.7163 H   0  0  0  0  0
  -11.5049   67.3554   -2.8993 H   0  0  0  0  0
  -12.3334   68.2286   -1.6504 H   0  0  0  0  0
  -12.8014   65.6160   -2.0162 H   0  0  0  0  0
  -12.8130   66.2976   -0.4106 H   0  0  0  0  0
  -11.1688   64.6524   -0.0470 H   0  0  0  0  0
  -10.7171   64.5780   -1.7009 H   0  0  0  0  0
  -10.0514   70.1671   -1.1101 H   0  0  0  0  0
   -9.8392   70.3816    1.7829 H   0  0  0  0  0
   -8.4101   71.7484    0.2403 H   0  0  0  0  0
   -9.3950   72.8115    1.3006 H   0  0  0  0  0
   -9.4299   73.4675   -0.9100 H   0  0  0  0  0
  -12.5507   70.3632   -0.1791 H   0  0  0  0  0
  -14.1208   71.6461    1.9861 H   0  0  0  0  0
  -14.7588   70.6816    0.5982 H   0  0  0  0  0
  -16.3154   72.6308    0.8527 H   0  0  0  0  0
  -15.3262   74.5988   -1.1486 H   0  0  0  0  0
  -17.5420   74.5670   -2.2236 H   0  0  0  0  0
  -15.8831   72.9325   -2.9822 H   0  0  0  0  0
  -16.4522   71.7676   -1.7615 H   0  0  0  0  0
  -17.5256   72.2542   -3.0964 H   0  0  0  0  0
  -18.3314   72.5257   -0.1303 H   0  0  0  0  0
  -18.9460   74.1905   -0.2779 H   0  0  0  0  0
  -19.3003   72.9946   -1.5489 H   0  0  0  0  0
  -15.8577   74.6732    1.9361 H   0  0  0  0  0
  -17.8383   76.8550    2.0677 H   0  0  0  0  0
  -17.1747   76.9014    4.4876 H   0  0  0  0  0
  -16.1393   75.4490    4.1104 H   0  0  0  0  0
  -19.4569   76.6613    4.8977 H   0  0  0  0  0
  -17.2521   73.3929    3.2340 H   0  0  0  0  0
  -21.4146   75.1862    5.2071 H   0  0  0  0  0
  -19.2094   71.9179    3.5315 H   0  0  0  0  0
  -21.2954   72.8106    4.5251 H   0  0  0  0  0
  -16.8414   78.3225    0.6628 H   0  0  0  0  0
  -14.2214   79.2888    0.8506 H   0  0  0  0  0
  -16.6960   80.9154    0.0971 H   0  0  0  0  0
  -16.2051   80.0786   -2.0346 H   0  0  0  0  0
  -14.6755   82.2906    0.3208 H   0  0  0  0  0
  -13.7940   81.1944   -0.7711 H   0  0  0  0  0
  -15.1624   82.1535   -1.3866 H   0  0  0  0  0
  -17.1306   80.3955    2.5589 H   0  0  0  0  0
  -15.4364   82.2706    4.1485 H   0  0  0  0  0
  -17.5119   83.3442    4.7749 H   0  0  0  0  0
  -18.4458   82.0669    3.8644 H   0  0  0  0  0
  -16.3163   85.0647    3.5945 H   0  0  0  0  0
  -18.6139   82.1302    1.4882 H   0  0  0  0  0
  -16.2145   86.4498    1.5503 H   0  0  0  0  0
  -18.5075   83.5058   -0.5574 H   0  0  0  0  0
  -17.3042   85.6675   -0.5300 H   0  0  0  0  0
  -15.2500   82.1249    6.3247 H   0  0  0  0  0
  -16.9762   80.3472    7.8661 H   0  0  0  0  0
  -15.5610   81.3201    8.4673 H   0  0  0  0  0
  -16.1877   78.7339    9.1010 H   0  0  0  0  0
  1  2  1  0  0  0
  2  3  1  0  0  0
  2  5  1  0  0  0
  3  4  2  0  0  0
  3  7  1  0  0  0
  5  6  1  0  0  0
  7  8  1  0  0  0
  7 13  1  0  0  0
  8  9  1  0  0  0
  8 11  1  0  0  0
  9 10  2  0  0  0
  9 14  1  0  0  0
 11 12  1  0  0  0
 12 13  1  0  0  0
 14 15  1  0  0  0
 15 16  1  0  0  0
 15 18  1  0  0  0
 16 17  2  0  0  0
 16 20  1  0  0  0
 18 19  1  0  0  0
 20 21  1  0  0  0
 21 22  1  0  0  0
 22 23  2  0  0  0
 22 24  1  0  0  0
 24 25  1  0  0  0
 25 26  1  0  0  0
 25 28  1  0  0  0
 26 27  2  0  0  0
 26 31  1  0  0  0
 28 29  1  0  0  0
 28 30  1  0  0  0
 31 32  1  0  0  0
 32 33  1  0  0  0
 32 35  1  0  0  0
 33 34  2  0  0  0
 33 42  1  0  0  0
 35 36  1  0  0  0
 36 37  4  0  0  0
 36 38  4  0  0  0
 37 39  4  0  0  0
 38 40  4  0  0  0
 39 41  4  0  0  0
 40 41  4  0  0  0
 42 43  1  0  0  0
 43 44  1  0  0  0
 43 46  1  0  0  0
 44 45  2  0  0  0
 44 49  1  0  0  0
 46 47  1  0  0  0
 46 48  1  0  0  0
 49 50  1  0  0  0
 50 51  1  0  0  0
 50 53  1  0  0  0
 51 52  2  0  0  0
 51 60  1  0  0  0
 53 54  1  0  0  0
 54 55  4  0  0  0
 54 56  4  0  0  0
 55 57  4  0  0  0
 56 58  4  0  0  0
 57 59  4  0  0  0
 58 59  4  0  0  0
 60 61  1  0  0  0
 61 62  1  0  0  0
 62 63  2  0  0  0
 62 64  1  0  0  0
  1 65  1  0  0  0
  1 66  1  0  0  0
  1 67  1  0  0  0
  2 68  1  0  0  0
  5 69  1  0  0  0
  5 70  1  0  0  0
  6 71  1  0  0  0
  8 72  1  0  0  0
 11 73  1  0  0  0
 11 74  1  0  0  0
 12 75  1  0  0  0
 12 76  1  0  0  0
 13 77  1  0  0  0
 13 78  1  0  0  0
 14 79  1  0  0  0
 15 80  1  0  0  0
 18 81  1  0  0  0
 18 82  1  0  0  0
 19 83  1  0  0  0
 20 84  1  0  0  0
 21 85  1  0  0  0
 21 86  1  0  0  0
 24 87  1  0  0  0
 25 88  1  0  0  0
 28 89  1  0  0  0
 29 90  1  0  0  0
 29 91  1  0  0  0
 29 92  1  0  0  0
 30 93  1  0  0  0
 30 94  1  0  0  0
 30 95  1  0  0  0
 31 96  1  0  0  0
 32 97  1  0  0  0
 35 98  1  0  0  0
 35 99  1  0  0  0
 37100  1  0  0  0
 38101  1  0  0  0
 39102  1  0  0  0
 40103  1  0  0  0
 41104  1  0  0  0
 42105  1  0  0  0
 43106  1  0  0  0
 46107  1  0  0  0
 47108  1  0  0  0
 48109  1  0  0  0
 48110  1  0  0  0
 48111  1  0  0  0
 49112  1  0  0  0
 50113  1  0  0  0
 53114  1  0  0  0
 53115  1  0  0  0
 55116  1  0  0  0
 56117  1  0  0  0
 57118  1  0  0  0
 58119  1  0  0  0
 59120  1  0  0  0
 60121  1  0  0  0
 61122  1  0  0  0
 61123  1  0  0  0
 64124  1  0  0  0
M  END
$$$$
