6c7d_ligand
  -I-interpret- 

 60 66  0  0  0  0  0  0  0  0999 V2000
    9.0290    9.6640    0.6030 C   0  0  0  0  0
   10.1450    9.4720    1.6070 C   0  0  0  0  0
   12.1240   11.2150    0.4120 C   0  0  0  0  0
   10.9270   11.7780    1.1310 C   0  0  0  0  0
    9.7870   11.9620    0.1530 C   0  0  0  0  0
    7.9040    5.5010    5.8700 C   0  0  0  0  0
    7.9880    5.7210    3.4710 C   0  0  0  0  0
    9.4810    7.0030    4.8660 C   0  0  0  0  0
    5.8970    3.6980    5.6770 C   0  0  0  0  0
    9.5430    7.2400    2.4260 C   0  0  0  0  0
    5.9630    3.6740    2.0550 C   0  0  0  0  0
    5.1710    4.1080   -0.1690 C   0  0  0  0  0
    6.3610    3.6570   -0.6960 C   0  0  0  0  0
    4.9740    4.1070    1.1960 C   0  0  0  0  0
    8.9240    6.4250    5.9850 C   0  0  0  0  0
    7.3520    3.2070    0.1460 C   0  0  0  0  0
    9.0000    6.6330    3.6300 C   0  0  0  0  0
    7.4550    5.1630    4.6090 C   0  0  0  0  0
    7.1470    3.2200    1.5110 C   0  0  0  0  0
    5.7400    3.6280    3.4970 C   0  0  0  0  0
    6.4110    4.0900    6.9500 C   0  0  0  0  0
   10.6450   10.0660   -1.1770 C   0  0  0  0  0
   10.5030   10.8090    2.2090 C   0  0  0  0  0
   11.3540    8.9250    0.8980 C   0  0  0  0  0
   11.7790    9.8790   -0.1950 C   0  0  0  0  0
    9.4330   10.6350   -0.4780 C   0  0  0  0  0
    5.8060    3.4670    8.1710 C   0  0  0  0  0
    4.8370    2.8150    4.0180 N   0  0  0  0  0
    4.9250    2.8640    5.3880 N   0  0  0  0  0
    7.3720    4.9500    7.0460 N   0  0  0  0  0
    6.4260    4.2190    4.5270 N   0  0  0  0  0
    9.6710    8.5890    2.6380 N   0  0  0  0  0
    9.7480    6.6150    1.3950 O   0  0  0  0  0
    8.4640    2.6360    2.4880 Cl  0  0  0  0  0
    8.1573   10.0625    1.1221 H   0  0  0  0  0
    8.8049    8.7020    0.1421 H   0  0  0  0  0
   12.9411   11.0863    1.1219 H   0  0  0  0  0
   12.4230   11.9022   -0.3795 H   0  0  0  0  0
   11.1844   12.7407    1.5726 H   0  0  0  0  0
   10.0903   12.6615   -0.6260 H   0  0  0  0  0
    8.9178   12.3521    0.6826 H   0  0  0  0  0
    7.6207    5.4493    2.4814 H   0  0  0  0  0
   10.2831    7.7355    4.9565 H   0  0  0  0  0
    4.3835    4.4664   -0.8320 H   0  0  0  0  0
    6.5170    3.6566   -1.7748 H   0  0  0  0  0
    4.0235    4.4532    1.6019 H   0  0  0  0  0
    9.2926    6.7000    6.9732 H   0  0  0  0  0
    8.2942    2.8421   -0.2629 H   0  0  0  0  0
   10.3853    9.0992   -1.6083 H   0  0  0  0  0
   10.9617   10.7570   -1.9582 H   0  0  0  0  0
   11.3285   10.6731    2.9077 H   0  0  0  0  0
    9.6300   11.2110    2.7231 H   0  0  0  0  0
   11.1083    7.9583    0.4584 H   0  0  0  0  0
   12.1691    8.8075    1.6121 H   0  0  0  0  0
   12.6475    9.4689   -0.7103 H   0  0  0  0  0
    8.6199   10.7858   -1.1881 H   0  0  0  0  0
    4.7423    3.7019    8.2081 H   0  0  0  0  0
    5.9395    2.3860    8.1299 H   0  0  0  0  0
    6.2977    3.8615    9.0602 H   0  0  0  0  0
    9.4239    8.9752    3.5492 H   0  0  0  0  0
  2  1  1  0  0  0
  1 26  1  0  0  0
  2 23  1  0  0  0
  2 24  1  0  0  0
 32  2  1  0  0  0
  4  3  1  0  0  0
  3 25  1  0  0  0
  4  5  1  0  0  0
 23  4  1  0  0  0
 26  5  1  0  0  0
  6 15  4  0  0  0
 18  6  4  0  0  0
  6 30  4  0  0  0
  7 17  4  0  0  0
 18  7  4  0  0  0
 15  8  4  0  0  0
 17  8  4  0  0  0
  9 21  4  0  0  0
  9 29  4  0  0  0
 31  9  4  0  0  0
 17 10  1  0  0  0
 10 32  1  0  0  0
 10 33  2  0  0  0
 11 14  4  0  0  0
 11 19  4  0  0  0
 20 11  1  0  0  0
 12 13  4  0  0  0
 14 12  4  0  0  0
 16 13  4  0  0  0
 19 16  4  0  0  0
 31 18  4  0  0  0
 19 34  1  0  0  0
 20 28  4  0  0  0
 20 31  4  0  0  0
 21 27  1  0  0  0
 21 30  4  0  0  0
 25 22  1  0  0  0
 22 26  1  0  0  0
 24 25  1  0  0  0
 28 29  4  0  0  0
  1 35  1  0  0  0
  1 36  1  0  0  0
  3 37  1  0  0  0
  3 38  1  0  0  0
  4 39  1  0  0  0
  5 40  1  0  0  0
  5 41  1  0  0  0
  7 42  1  0  0  0
  8 43  1  0  0  0
 12 44  1  0  0  0
 13 45  1  0  0  0
 14 46  1  0  0  0
 15 47  1  0  0  0
 16 48  1  0  0  0
 22 49  1  0  0  0
 22 50  1  0  0  0
 23 51  1  0  0  0
 23 52  1  0  0  0
 24 53  1  0  0  0
 24 54  1  0  0  0
 25 55  1  0  0  0
 26 56  1  0  0  0
 27 57  1  0  0  0
 27 58  1  0  0  0
 27 59  1  0  0  0
 32 60  1  0  0  0
M  END
$$$$
