5tus_ligand
  -I-interpret- 

 37 39  0  0  0  0  0  0  0  0999 V2000
   14.4260  -16.6660  -24.6710 C   0  0  0  0  0
   15.3940  -18.8390  -24.2620 O   0  0  0  0  0
   13.1710  -16.0450  -24.8340 C   0  0  0  0  0
   11.7050  -18.9580  -25.4110 O   0  0  0  0  0
   13.0360  -14.7720  -25.3810 C   0  0  0  0  0
   14.1740  -14.0850  -25.8000 C   0  0  0  0  0
   15.4310  -14.6920  -25.6710 C   0  0  0  0  0
   14.4430  -18.0750  -24.1070 C   0  0  0  0  0
   15.5640  -15.9860  -25.1210 C   0  0  0  0  0
   16.8100  -16.5460  -25.0060 O   0  0  0  0  0
   13.3310  -18.5390  -23.5250 N   0  0  0  0  0
   13.3390  -19.8980  -23.0910 N   0  0  0  0  0
   12.9710  -20.9460  -23.7470 C   0  0  0  0  0
   12.6540  -21.1110  -25.2040 C   0  0  0  0  0
   12.1210  -20.1070  -26.0020 C   0  0  0  0  0
   11.9740  -20.2910  -27.4040 C   0  0  0  0  0
   12.3560  -21.4660  -28.0200 C   0  0  0  0  0
   12.8980  -22.4470  -27.2210 C   0  0  0  0  0
   13.0630  -22.3050  -25.8530 C   0  0  0  0  0
   13.2840  -23.6380  -27.7780 C   0  0  0  0  0
   13.8190  -24.7350  -27.0730 C   0  0  0  0  0
   14.0180  -24.6050  -25.7150 C   0  0  0  0  0
   13.6320  -23.3950  -25.1400 C   0  0  0  0  0
   12.2748  -16.5804  -24.5207 H   0  0  0  0  0
   11.3629  -18.3609  -26.0803 H   0  0  0  0  0
   12.0504  -14.3172  -25.4806 H   0  0  0  0  0
   14.0874  -13.0847  -26.2242 H   0  0  0  0  0
   16.3210  -14.1561  -26.0008 H   0  0  0  0  0
   17.4651  -15.9424  -25.3639 H   0  0  0  0  0
   12.5114  -17.9455  -23.3969 H   0  0  0  0  0
   12.8755  -21.8528  -23.1497 H   0  0  0  0  0
   11.5505  -19.4869  -28.0057 H   0  0  0  0  0
   12.2336  -21.6107  -29.0934 H   0  0  0  0  0
   13.1676  -23.7461  -28.8564 H   0  0  0  0  0
   14.0690  -25.6624  -27.5883 H   0  0  0  0  0
   14.4550  -25.4076  -25.1209 H   0  0  0  0  0
   13.7770  -23.2763  -24.0662 H   0  0  0  0  0
  1  3  4  0  0  0
  8  1  1  0  0  0
  1  9  4  0  0  0
  8  2  2  0  0  0
  3  5  4  0  0  0
 15  4  1  0  0  0
  5  6  4  0  0  0
  7  6  4  0  0  0
  9  7  4  0  0  0
 11  8  1  0  0  0
  9 10  1  0  0  0
 12 11  1  0  0  0
 13 12  2  0  0  0
 14 13  1  0  0  0
 14 15  4  0  0  0
 14 19  4  0  0  0
 15 16  4  0  0  0
 16 17  4  0  0  0
 17 18  4  0  0  0
 18 19  4  0  0  0
 18 20  4  0  0  0
 19 23  4  0  0  0
 20 21  4  0  0  0
 21 22  4  0  0  0
 22 23  4  0  0  0
  3 24  1  0  0  0
  4 25  1  0  0  0
  5 26  1  0  0  0
  6 27  1  0  0  0
  7 28  1  0  0  0
 10 29  1  0  0  0
 11 30  1  0  0  0
 13 31  1  0  0  0
 16 32  1  0  0  0
 17 33  1  0  0  0
 20 34  1  0  0  0
 21 35  1  0  0  0
 22 36  1  0  0  0
 23 37  1  0  0  0
M  END
$$$$
