3qx5_ligand
  -I-interpret- 

 55 57  0  0  0  0  0  0  0  0999 V2000
   16.4240  -15.5120   23.3060 N   0  3  0  0  0
   17.6850  -14.7880   23.3080 C   0  0  0  0  0
   17.4080  -13.4370   22.7140 C   0  0  0  0  0
   16.4780  -12.7610   23.1340 O   0  0  0  0  0
   18.1720  -14.6910   24.7490 C   0  0  0  0  0
   19.5740  -14.1400   24.8310 C   0  0  0  0  0
   19.7810  -12.9810   25.5680 C   0  0  0  0  0
   20.6460  -14.7660   24.1940 C   0  0  0  0  0
   21.0550  -12.4410   25.6690 C   0  0  0  0  0
   21.9240  -14.2220   24.2990 C   0  0  0  0  0
   22.1300  -13.0620   25.0390 C   0  0  0  0  0
   18.1760  -13.0170   21.7070 N   0  0  0  0  0
   17.8850  -11.7110   21.1120 C   0  0  0  0  0
   16.4510  -11.6410   20.6420 C   0  0  0  0  0
   15.9570  -12.5680   20.0060 O   0  0  0  0  0
   18.8570  -11.6130   19.9430 C   0  0  0  0  0
   19.9600  -12.6050   20.2520 C   0  0  0  0  0
   19.3160  -13.6980   21.0900 C   0  0  0  0  0
   12.2700   -7.5340   24.5420 Cl  0  0  0  0  0
   15.7480  -10.5500   20.9450 N   0  0  0  0  0
   14.3550  -10.3360   20.5670 C   0  0  0  0  0
   13.4280  -10.2790   21.7690 C   0  0  0  0  0
   12.7200  -11.3620   22.1460 N   0  0  0  0  0
   13.3000   -9.0870   22.4730 C   0  0  0  0  0
   12.4470   -9.0340   23.5760 C   0  0  0  0  0
   11.7230  -10.1610   23.9420 C   0  0  0  0  0
   11.8890  -11.3200   23.2010 C   0  0  0  0  0
   12.8480  -12.6260   21.4090 C   0  0  0  0  0
   16.0790  -15.5889   22.3492 H   0  0  0  0  0
   16.5683  -16.4448   23.6926 H   0  0  0  0  0
   15.7433  -15.0084   23.8748 H   0  0  0  0  0
   18.4625  -15.2823   22.7255 H   0  0  0  0  0
   18.1720  -15.6927   25.1787 H   0  0  0  0  0
   17.5073  -14.0180   25.2906 H   0  0  0  0  0
   18.9423  -12.4956   26.0671 H   0  0  0  0  0
   20.4841  -15.6764   23.6169 H   0  0  0  0  0
   21.2146  -11.5283   26.2430 H   0  0  0  0  0
   22.7640  -14.7059   23.8006 H   0  0  0  0  0
   23.1313  -12.6401   25.1254 H   0  0  0  0  0
   18.0033  -10.8896   21.8187 H   0  0  0  0  0
   19.2481  -10.6017   19.8315 H   0  0  0  0  0
   18.3679  -11.8406   18.9958 H   0  0  0  0  0
   20.7814  -12.1287   20.7873 H   0  0  0  0  0
   20.3937  -13.0112   19.3382 H   0  0  0  0  0
   19.0190  -14.5631   20.4971 H   0  0  0  0  0
   19.9999  -14.1235   21.8244 H   0  0  0  0  0
   16.2150   -9.8154   21.4767 H   0  0  0  0  0
   14.0439  -11.1730   19.9419 H   0  0  0  0  0
   14.2907   -9.3801   20.0472 H   0  0  0  0  0
   13.8599   -8.2034   22.1666 H   0  0  0  0  0
   11.0407  -10.1345   24.7916 H   0  0  0  0  0
   11.3342  -12.2159   23.4796 H   0  0  0  0  0
   12.5543  -12.4711   20.3708 H   0  0  0  0  0
   13.8833  -12.9648   21.4484 H   0  0  0  0  0
   12.2011  -13.3768   21.8628 H   0  0  0  0  0
  2  1  1  0  0  0
  3  2  1  0  0  0
  2  5  1  0  0  0
  3  4  2  0  0  0
 12  3  1  0  0  0
  5  6  1  0  0  0
  6  7  4  0  0  0
  6  8  4  0  0  0
  7  9  4  0  0  0
  8 10  4  0  0  0
  9 11  4  0  0  0
 10 11  4  0  0  0
 13 12  1  0  0  0
 12 18  1  0  0  0
 14 13  1  0  0  0
 13 16  1  0  0  0
 14 15  2  0  0  0
 20 14  1  0  0  0
 16 17  1  0  0  0
 17 18  1  0  0  0
 25 19  1  0  0  0
 21 20  1  0  0  0
 22 21  1  0  0  0
 22 23  4  0  0  0
 24 22  4  0  0  0
 23 27  4  0  0  0
 23 28  1  0  0  0
 24 25  4  0  0  0
 25 26  4  0  0  0
 26 27  4  0  0  0
  1 29  1  0  0  0
  1 30  1  0  0  0
  1 31  1  0  0  0
  2 32  1  0  0  0
  5 33  1  0  0  0
  5 34  1  0  0  0
  7 35  1  0  0  0
  8 36  1  0  0  0
  9 37  1  0  0  0
 10 38  1  0  0  0
 11 39  1  0  0  0
 13 40  1  0  0  0
 16 41  1  0  0  0
 16 42  1  0  0  0
 17 43  1  0  0  0
 17 44  1  0  0  0
 18 45  1  0  0  0
 18 46  1  0  0  0
 20 47  1  0  0  0
 21 48  1  0  0  0
 21 49  1  0  0  0
 24 50  1  0  0  0
 26 51  1  0  0  0
 27 52  1  0  0  0
 28 53  1  0  0  0
 28 54  1  0  0  0
 28 55  1  0  0  0
M  END
$$$$
