3obq_ligand
  -I-interpret- 

130133  0  0  0  0  0  0  0  0999 V2000
   -6.1050   -3.1100    3.8210 N   0  3  0  0  0
   -5.8500   -1.9030    3.0020 C   0  0  0  0  0
   -4.3940   -1.7900    2.5640 C   0  0  0  0  0
   -3.9180   -0.7000    2.2520 O   0  0  0  0  0
   -6.2650   -0.7130    3.8500 C   0  0  0  0  0
   -7.3780   -1.3250    4.6840 C   0  0  0  0  0
   -6.8610   -2.7400    5.0330 C   0  0  0  0  0
   -3.6980   -2.9230    2.5420 N   0  0  0  0  0
   -2.3020   -2.9560    2.1220 C   0  0  0  0  0
   -2.1910   -3.6680    0.7790 C   0  0  0  0  0
   -2.7610   -4.7440    0.5920 O   0  0  0  0  0
   -1.4120   -3.7030    3.1460 C   0  0  0  0  0
   -1.9200   -5.0290    3.3490 O   0  0  0  0  0
   -1.3800   -2.9620    4.4700 C   0  0  0  0  0
   -1.4650   -3.0680   -0.1760 N   0  0  0  0  0
   -1.2950   -3.6710   -1.4990 C   0  0  0  0  0
   -0.7360   -5.0840   -1.4000 C   0  0  0  0  0
    0.2190   -5.3350   -0.6620 O   0  0  0  0  0
   -0.3280   -2.7160   -2.1900 C   0  0  0  0  0
   -0.6860   -1.3980   -1.5830 C   0  0  0  0  0
   -0.8240   -1.7430   -0.1220 C   0  0  0  0  0
   -1.3360   -6.0060   -2.1440 N   0  0  0  0  0
   -0.8920   -7.3950   -2.1340 C   0  0  0  0  0
   -0.9870   -7.9950   -3.5280 C   0  0  0  0  0
   -1.7530   -7.5270   -4.3700 O   0  0  0  0  0
   -1.7360   -8.2120   -1.1520 C   0  0  0  0  0
   -3.1110   -8.1770   -1.4900 O   0  0  0  0  0
   -0.1970   -9.0350   -3.7610 N   0  0  0  0  0
   -0.1730   -9.7150   -5.0460 C   0  0  0  0  0
    0.0410  -11.2040   -4.8010 C   0  0  0  0  0
    0.6890  -11.5900   -3.8300 O   0  0  0  0  0
    0.9450   -9.1560   -5.9120 C   0  0  0  0  0
   -0.5010  -12.0600   -5.6810 N   0  0  0  0  0
   -0.3450  -13.5100   -5.5210 C   0  0  0  0  0
    1.0900  -13.9890   -5.7320 C   0  0  0  0  0
    1.8950  -13.3180   -6.3780 O   0  0  0  0  0
   -1.3030  -14.0700   -6.5650 C   0  0  0  0  0
   -1.2330  -13.0440   -7.6550 C   0  0  0  0  0
   -1.3020  -11.7460   -6.8790 C   0  0  0  0  0
    1.4030  -15.1530   -5.1720 N   0  0  0  0  0
    2.7310  -15.7320   -5.3050 C   0  0  0  0  0
    2.9060  -16.2840   -6.7180 C   0  0  0  0  0
    1.9410  -16.7240   -7.3430 O   0  0  0  0  0
    2.9450  -16.8780   -4.2970 C   0  0  0  0  0
    2.7950  -16.3590   -2.8770 C   0  0  0  0  0
    1.9470  -17.9960   -4.5610 C   0  0  0  0  0
    4.1390  -16.2560   -7.2130 N   0  0  0  0  0
    4.4410  -16.7540   -8.5590 C   0  0  0  0  0
    4.2680  -18.2660   -8.6560 C   0  0  0  0  0
    4.3420  -18.9620   -7.6430 O   0  0  0  0  0
    5.9130  -16.3800   -8.7430 C   0  0  0  0  0
    6.1010  -15.1840   -7.8800 C   0  0  0  0  0
    5.2110  -15.3930   -6.6870 C   0  0  0  0  0
    4.0410  -18.7640   -9.8670 N   0  0  0  0  0
    3.8590  -20.1930  -10.0870 C   0  0  0  0  0
    5.1990  -20.9200  -10.1200 C   0  0  0  0  0
    6.2310  -20.3270  -10.4340 O   0  0  0  0  0
    3.0930  -20.4430  -11.3880 C   0  0  0  0  0
    1.5820  -20.2050  -11.3410 C   0  0  0  0  0
    1.2740  -18.7170  -11.2730 C   0  0  0  0  0
    0.9000  -20.8440  -12.5410 C   0  0  0  0  0
    5.1810  -22.1390   -9.8490 O   0  0  0  0  0
   -5.2150   -3.5278    4.0927 H   0  0  0  0  0
   -6.6480   -3.7794    3.2757 H   0  0  0  0  0
   -6.4227   -1.9506    2.0758 H   0  0  0  0  0
   -6.5758    0.1554    3.2691 H   0  0  0  0  0
   -5.4536   -0.2884    4.4411 H   0  0  0  0  0
   -8.3249   -1.3557    4.1450 H   0  0  0  0  0
   -7.5939   -0.7359    5.5753 H   0  0  0  0  0
   -6.2548   -2.7625    5.9386 H   0  0  0  0  0
   -7.6612   -3.4416    5.2687 H   0  0  0  0  0
   -4.1522   -3.7910    2.8261 H   0  0  0  0  0
   -1.9572   -1.9247    2.0463 H   0  0  0  0  0
   -0.3972   -3.7546    2.7516 H   0  0  0  0  0
   -1.3661   -5.4889    3.9840 H   0  0  0  0  0
   -0.9763   -1.9614    4.3152 H   0  0  0  0  0
   -2.3918   -2.8892    4.8687 H   0  0  0  0  0
   -0.7490   -3.5050    5.1736 H   0  0  0  0  0
   -2.2315   -3.7878   -2.0444 H   0  0  0  0  0
   -0.4213   -2.7255   -3.2760 H   0  0  0  0  0
    0.7177   -2.9850   -2.0407 H   0  0  0  0  0
   -1.5903   -0.9621   -2.0077 H   0  0  0  0  0
    0.0570   -0.6232   -1.7720 H   0  0  0  0  0
    0.1267   -1.7461    0.4112 H   0  0  0  0  0
   -1.4001   -1.0088    0.4411 H   0  0  0  0  0
   -2.1232   -5.7372   -2.7343 H   0  0  0  0  0
    0.1496   -7.4226   -1.8139 H   0  0  0  0  0
   -1.6155   -7.7846   -0.1566 H   0  0  0  0  0
   -1.3992   -9.2480   -1.1882 H   0  0  0  0  0
   -3.6087   -8.6979   -0.8555 H   0  0  0  0  0
    0.4132   -9.3683   -3.0147 H   0  0  0  0  0
   -1.1171   -9.5593   -5.5680 H   0  0  0  0  0
    0.7799   -8.0907   -6.0733 H   0  0  0  0  0
    1.9009   -9.3049   -5.4098 H   0  0  0  0  0
    0.9528   -9.6731   -6.8715 H   0  0  0  0  0
   -0.5671  -13.8439   -4.5075 H   0  0  0  0  0
   -2.3128  -14.2171   -6.1819 H   0  0  0  0  0
   -1.0295  -15.0698   -6.9021 H   0  0  0  0  0
   -2.0289  -13.1461   -8.3927 H   0  0  0  0  0
   -0.3365  -13.1302   -8.2689 H   0  0  0  0  0
   -0.9247  -10.8893   -7.4374 H   0  0  0  0  0
   -2.3210  -11.4360   -6.6472 H   0  0  0  0  0
    0.6942  -15.6530   -4.6354 H   0  0  0  0  0
    3.4618  -14.9483   -5.1057 H   0  0  0  0  0
    3.9534  -17.2736   -4.4179 H   0  0  0  0  0
    3.5354  -15.5798   -2.6962 H   0  0  0  0  0
    1.7939  -15.9483   -2.7455 H   0  0  0  0  0
    2.9484  -17.1779   -2.1741 H   0  0  0  0  0
    0.9335  -17.6090   -4.4553 H   0  0  0  0  0
    2.0885  -18.3762   -5.5727 H   0  0  0  0  0
    2.1067  -18.8008   -3.8434 H   0  0  0  0  0
    3.7783  -16.3339   -9.3156 H   0  0  0  0  0
    6.1563  -16.1751   -9.7856 H   0  0  0  0  0
    6.5806  -17.1952   -8.4642 H   0  0  0  0  0
    5.8421  -14.2681   -8.4112 H   0  0  0  0  0
    7.1432  -15.0715   -7.5813 H   0  0  0  0  0
    5.7365  -15.8420   -5.8442 H   0  0  0  0  0
    4.8332  -14.4571   -6.2755 H   0  0  0  0  0
    3.9929  -18.1290  -10.6638 H   0  0  0  0  0
    3.2773  -20.5867   -9.2535 H   0  0  0  0  0
    3.2270  -21.4993  -11.6212 H   0  0  0  0  0
    3.4896  -19.7343  -12.1150 H   0  0  0  0  0
    1.1901  -20.6739  -10.4384 H   0  0  0  0  0
    1.7259  -18.2944  -10.3756 H   0  0  0  0  0
    1.6820  -18.2222  -12.1544 H   0  0  0  0  0
    0.1942  -18.5719  -11.2404 H   0  0  0  0  0
    1.2977  -20.4086  -13.4577 H   0  0  0  0  0
    1.0887  -21.9175  -12.5355 H   0  0  0  0  0
   -0.1734  -20.6622  -12.4867 H   0  0  0  0  0
    4.2844  -22.4040   -9.6312 H   0  0  0  0  0
  1  2  1  0  0  0
  1  7  1  0  0  0
  2  3  1  0  0  0
  2  5  1  0  0  0
  3  4  2  0  0  0
  3  8  1  0  0  0
  5  6  1  0  0  0
  6  7  1  0  0  0
  8  9  1  0  0  0
  9 10  1  0  0  0
  9 12  1  0  0  0
 10 11  2  0  0  0
 10 15  1  0  0  0
 12 13  1  0  0  0
 12 14  1  0  0  0
 15 16  1  0  0  0
 15 21  1  0  0  0
 16 17  1  0  0  0
 16 19  1  0  0  0
 17 18  2  0  0  0
 17 22  1  0  0  0
 19 20  1  0  0  0
 20 21  1  0  0  0
 22 23  1  0  0  0
 23 24  1  0  0  0
 23 26  1  0  0  0
 24 25  2  0  0  0
 24 28  1  0  0  0
 26 27  1  0  0  0
 28 29  1  0  0  0
 29 30  1  0  0  0
 29 32  1  0  0  0
 30 31  2  0  0  0
 30 33  1  0  0  0
 33 34  1  0  0  0
 33 39  1  0  0  0
 34 35  1  0  0  0
 34 37  1  0  0  0
 35 36  2  0  0  0
 35 40  1  0  0  0
 37 38  1  0  0  0
 38 39  1  0  0  0
 40 41  1  0  0  0
 41 42  1  0  0  0
 41 44  1  0  0  0
 42 43  2  0  0  0
 42 47  1  0  0  0
 44 45  1  0  0  0
 44 46  1  0  0  0
 47 48  1  0  0  0
 47 53  1  0  0  0
 48 49  1  0  0  0
 48 51  1  0  0  0
 49 50  2  0  0  0
 49 54  1  0  0  0
 51 52  1  0  0  0
 52 53  1  0  0  0
 54 55  1  0  0  0
 55 56  1  0  0  0
 55 58  1  0  0  0
 56 57  2  0  0  0
 56 62  1  0  0  0
 58 59  1  0  0  0
 59 60  1  0  0  0
 59 61  1  0  0  0
  1 63  1  0  0  0
  1 64  1  0  0  0
  2 65  1  0  0  0
  5 66  1  0  0  0
  5 67  1  0  0  0
  6 68  1  0  0  0
  6 69  1  0  0  0
  7 70  1  0  0  0
  7 71  1  0  0  0
  8 72  1  0  0  0
  9 73  1  0  0  0
 12 74  1  0  0  0
 13 75  1  0  0  0
 14 76  1  0  0  0
 14 77  1  0  0  0
 14 78  1  0  0  0
 16 79  1  0  0  0
 19 80  1  0  0  0
 19 81  1  0  0  0
 20 82  1  0  0  0
 20 83  1  0  0  0
 21 84  1  0  0  0
 21 85  1  0  0  0
 22 86  1  0  0  0
 23 87  1  0  0  0
 26 88  1  0  0  0
 26 89  1  0  0  0
 27 90  1  0  0  0
 28 91  1  0  0  0
 29 92  1  0  0  0
 32 93  1  0  0  0
 32 94  1  0  0  0
 32 95  1  0  0  0
 34 96  1  0  0  0
 37 97  1  0  0  0
 37 98  1  0  0  0
 38 99  1  0  0  0
 38100  1  0  0  0
 39101  1  0  0  0
 39102  1  0  0  0
 40103  1  0  0  0
 41104  1  0  0  0
 44105  1  0  0  0
 45106  1  0  0  0
 45107  1  0  0  0
 45108  1  0  0  0
 46109  1  0  0  0
 46110  1  0  0  0
 46111  1  0  0  0
 48112  1  0  0  0
 51113  1  0  0  0
 51114  1  0  0  0
 52115  1  0  0  0
 52116  1  0  0  0
 53117  1  0  0  0
 53118  1  0  0  0
 54119  1  0  0  0
 55120  1  0  0  0
 58121  1  0  0  0
 58122  1  0  0  0
 59123  1  0  0  0
 60124  1  0  0  0
 60125  1  0  0  0
 60126  1  0  0  0
 61127  1  0  0  0
 61128  1  0  0  0
 61129  1  0  0  0
 62130  1  0  0  0
M  END
$$$$
