4fl2_ligand
  -I-interpret- 

 48 50  0  0  0  0  0  0  0  0999 V2000
  -33.4840   -9.4850   -6.1450 P   0  0  0  0  0
  -34.4030   -8.7140   -5.1250 O   0  0  0  0  0
  -32.5110   -8.5120   -6.8710 O   0  0  0  0  0
  -34.4000  -10.2010   -7.1930 O   0  0  0  0  0
  -30.9870  -10.5120   -5.1120 P   0  0  0  0  0
  -30.6780   -9.1670   -4.3930 O   0  0  0  0  0
  -30.4980  -11.6940   -4.2790 O   0  0  0  0  0
  -32.6410  -10.7180   -5.3230 N   0  0  0  0  0
  -29.0170   -9.5660   -7.1500 P   0  0  0  0  0
  -29.1090   -9.4860   -8.6960 O   0  0  0  0  0
  -29.0000   -8.1690   -6.5000 O   0  0  0  0  0
  -30.2120  -10.4620   -6.5250 O   0  0  0  0  0
  -27.6120  -10.2570   -6.8360 O   0  0  0  0  0
  -27.4340  -11.6640   -6.8960 C   0  0  0  0  0
  -26.0510  -11.9900   -6.3870 C   0  0  0  0  0
  -25.0710  -11.2060   -7.0940 O   0  0  0  0  0
  -25.8990  -11.6020   -4.9050 C   0  0  0  0  0
  -26.4400  -12.6040   -4.0480 O   0  0  0  0  0
  -24.3750  -11.5370   -4.7970 C   0  0  0  0  0
  -23.7870  -12.8500   -4.6990 O   0  0  0  0  0
  -24.0030  -10.9050   -6.1620 C   0  0  0  0  0
  -23.7700   -9.4520   -6.0660 N   0  0  0  0  0
  -24.6640   -8.4250   -6.2940 C   0  0  0  0  0
  -24.0660   -7.2810   -6.1400 N   0  0  0  0  0
  -22.7690   -7.4960   -5.7930 C   0  0  0  0  0
  -21.6560   -6.6890   -5.4540 C   0  0  0  0  0
  -21.6910   -5.2950   -5.4870 N   0  0  0  0  0
  -20.5250   -7.3020   -5.0970 N   0  0  0  0  0
  -20.3840   -8.6060   -5.0770 C   0  0  0  0  0
  -21.3890   -9.3890   -5.3800 N   0  0  0  0  0
  -22.5790   -8.8910   -5.7280 C   0  0  0  0  0
  -34.9918   -9.3368   -4.6924 H   0  0  0  0  0
  -34.9973  -10.7994   -6.7383 H   0  0  0  0  0
  -30.9927   -8.4376   -4.9320 H   0  0  0  0  0
  -33.1214  -11.5472   -4.9735 H   0  0  0  0  0
  -29.1170  -10.3737   -9.0613 H   0  0  0  0  0
  -27.5453  -12.0111   -7.9233 H   0  0  0  0  0
  -28.1848  -12.1619   -6.2824 H   0  0  0  0  0
  -25.9058  -13.0609   -6.5294 H   0  0  0  0  0
  -26.4177  -10.6886   -4.6140 H   0  0  0  0  0
  -26.3306  -12.3342   -3.1332 H   0  0  0  0  0
  -24.0279  -10.9944   -3.9177 H   0  0  0  0  0
  -22.8328  -12.7680   -4.6331 H   0  0  0  0  0
  -23.0615  -11.3299   -6.5101 H   0  0  0  0  0
  -25.7125   -8.5538   -6.5625 H   0  0  0  0  0
  -22.5458   -4.8127   -5.7647 H   0  0  0  0  0
  -20.8618   -4.7579   -5.2334 H   0  0  0  0  0
  -19.4223   -9.0415   -4.8059 H   0  0  0  0  0
  1  2  1  0  0  0
  1  3  2  0  0  0
  1  4  1  0  0  0
  8  1  1  0  0  0
  5  6  1  0  0  0
  5  7  2  0  0  0
  5  8  1  0  0  0
 12  5  1  0  0  0
  9 10  1  0  0  0
  9 11  2  0  0  0
  9 12  1  0  0  0
  9 13  1  0  0  0
 13 14  1  0  0  0
 14 15  1  0  0  0
 15 16  1  0  0  0
 15 17  1  0  0  0
 16 21  1  0  0  0
 17 18  1  0  0  0
 17 19  1  0  0  0
 19 20  1  0  0  0
 19 21  1  0  0  0
 21 22  1  0  0  0
 22 23  4  0  0  0
 22 31  4  0  0  0
 23 24  4  0  0  0
 24 25  4  0  0  0
 25 26  4  0  0  0
 25 31  4  0  0  0
 26 27  1  0  0  0
 26 28  4  0  0  0
 28 29  4  0  0  0
 29 30  4  0  0  0
 30 31  4  0  0  0
  2 32  1  0  0  0
  4 33  1  0  0  0
  6 34  1  0  0  0
  8 35  1  0  0  0
 10 36  1  0  0  0
 14 37  1  0  0  0
 14 38  1  0  0  0
 15 39  1  0  0  0
 17 40  1  0  0  0
 18 41  1  0  0  0
 19 42  1  0  0  0
 20 43  1  0  0  0
 21 44  1  0  0  0
 23 45  1  0  0  0
 27 46  1  0  0  0
 27 47  1  0  0  0
 29 48  1  0  0  0
M  END
$$$$
