5fpu_ligand
  -I-interpret- 

 52 55  0  0  0  0  0  0  0  0999 V2000
   87.6070   64.8490   16.4590 O   0  0  0  0  0
   87.3300   64.5060   15.3290 C   0  0  0  0  0
   88.1860   63.9500   14.5160 O   0  0  0  0  0
   85.9630   64.6730   14.7330 C   0  0  0  0  0
   85.9870   65.0060   13.2560 C   0  0  0  0  0
   84.6550   64.8330   12.7000 N   0  0  0  0  0
   84.1950   63.6300   12.2630 C   0  0  0  0  0
   82.9380   63.5880   11.8090 N   0  0  0  0  0
   82.4930   62.3850   11.4170 C   0  0  0  0  0
   81.0960   62.3140   10.9080 C   0  0  0  0  0
   80.3940   63.4590   10.8930 N   0  0  0  0  0
   79.1340   63.4050   10.4320 C   0  0  0  0  0
   78.5330   62.2500    9.9810 C   0  0  0  0  0
   79.2650   61.0890   10.0050 C   0  0  0  0  0
   80.5640   61.1070   10.4730 C   0  0  0  0  0
   83.1930   61.2440   11.4430 N   0  0  0  0  0
   84.4490   61.3090   11.8980 C   0  0  0  0  0
   85.0140   62.5060   12.3270 C   0  0  0  0  0
   85.1540   60.1390   11.9300 N   0  0  0  0  0
   84.5240   58.8250   11.7840 C   0  0  0  0  0
   84.4790   58.4020   10.3180 C   0  0  0  0  0
   85.7290   58.5540    9.4840 C   0  0  0  0  0
   87.0050   58.8010   10.0120 C   0  0  0  0  0
   87.2680   58.9640   11.4880 C   0  0  0  0  0
   86.6040   60.1720   12.1350 C   0  0  0  0  0
   85.5840   58.4240    8.1060 C   0  0  0  0  0
   86.6730   58.5310    7.2610 C   0  0  0  0  0
   87.9200   58.7710    7.7780 C   0  0  0  0  0
   88.0880   58.9050    9.1440 C   0  0  0  0  0
   87.7551   63.7621   13.6790 H   0  0  0  0  0
   85.4789   65.5023   15.2488 H   0  0  0  0  0
   85.4368   63.7253   14.8475 H   0  0  0  0  0
   86.6838   64.3420   12.7446 H   0  0  0  0  0
   86.3062   66.0395   13.1211 H   0  0  0  0  0
   84.0416   65.6453   12.6351 H   0  0  0  0  0
   78.5535   64.3274   10.4135 H   0  0  0  0  0
   77.5060   62.2580    9.6157 H   0  0  0  0  0
   78.8224   60.1561    9.6558 H   0  0  0  0  0
   81.1588   60.1940   10.5004 H   0  0  0  0  0
   86.0395   62.5606   12.6924 H   0  0  0  0  0
   83.5039   58.8813   12.1639 H   0  0  0  0  0
   85.1073   58.0927   12.3422 H   0  0  0  0  0
   83.7455   59.0614    9.8540 H   0  0  0  0  0
   84.2782   57.3308   10.3370 H   0  0  0  0  0
   88.3436   59.0999   11.6012 H   0  0  0  0  0
   86.8578   58.0812   11.9785 H   0  0  0  0  0
   86.8085   60.1547   13.2055 H   0  0  0  0  0
   87.0032   61.0786   11.6802 H   0  0  0  0  0
   84.5960   58.2348    7.6862 H   0  0  0  0  0
   86.5403   58.4246    6.1844 H   0  0  0  0  0
   88.7789   58.8562    7.1123 H   0  0  0  0  0
   89.0829   59.0948    9.5468 H   0  0  0  0  0
  1  2  2  0  0  0
  2  3  1  0  0  0
  2  4  1  0  0  0
  4  5  1  0  0  0
  5  6  1  0  0  0
  6  7  1  0  0  0
  7  8  4  0  0  0
  7 18  4  0  0  0
  8  9  4  0  0  0
  9 10  1  0  0  0
  9 16  4  0  0  0
 10 11  4  0  0  0
 10 15  4  0  0  0
 11 12  4  0  0  0
 12 13  4  0  0  0
 13 14  4  0  0  0
 14 15  4  0  0  0
 16 17  4  0  0  0
 17 18  4  0  0  0
 17 19  1  0  0  0
 19 20  1  0  0  0
 19 25  1  0  0  0
 20 21  1  0  0  0
 21 22  1  0  0  0
 22 23  4  0  0  0
 22 26  4  0  0  0
 23 24  1  0  0  0
 23 29  4  0  0  0
 24 25  1  0  0  0
 26 27  4  0  0  0
 27 28  4  0  0  0
 28 29  4  0  0  0
  3 30  1  0  0  0
  4 31  1  0  0  0
  4 32  1  0  0  0
  5 33  1  0  0  0
  5 34  1  0  0  0
  6 35  1  0  0  0
 12 36  1  0  0  0
 13 37  1  0  0  0
 14 38  1  0  0  0
 15 39  1  0  0  0
 18 40  1  0  0  0
 20 41  1  0  0  0
 20 42  1  0  0  0
 21 43  1  0  0  0
 21 44  1  0  0  0
 24 45  1  0  0  0
 24 46  1  0  0  0
 25 47  1  0  0  0
 25 48  1  0  0  0
 26 49  1  0  0  0
 27 50  1  0  0  0
 28 51  1  0  0  0
 29 52  1  0  0  0
M  END
$$$$
