5alo_ligand
  -I-interpret- 

 43 46  0  0  0  0  0  0  0  0999 V2000
  -12.8740  -11.7920   26.0740 C   0  0  0  0  0
  -13.0510  -10.2900   26.2740 C   0  0  0  0  0
  -12.5970   -9.5270   25.0620 C   0  0  0  0  0
  -11.3230   -9.2760   24.5790 C   0  0  0  0  0
  -11.1800   -8.5260   23.4210 C   0  0  0  0  0
  -12.2970   -8.0630   22.7420 C   0  0  0  0  0
  -13.5720   -8.2950   23.2220 C   0  0  0  0  0
  -13.6780   -9.0260   24.3850 C   0  0  0  0  0
  -14.8480   -9.3800   25.0390 N   0  0  0  0  0
  -14.5420  -10.0490   26.2120 C   0  0  0  0  0
  -15.3430  -10.4080   27.0600 O   0  0  0  0  0
   -9.8640   -8.1960   22.9290 C   0  0  0  0  0
   -9.4170   -7.8930   21.6180 C   0  0  0  0  0
   -8.1070   -7.6220   21.5800 N   0  0  0  0  0
   -7.7280   -7.7510   22.8630 N   0  0  0  0  0
   -8.7390   -8.0860   23.7190 C   0  0  0  0  0
   -6.3440   -7.5290   23.2290 C   0  0  0  0  0
  -12.5520   -9.7540   27.6260 C   0  0  0  0  0
  -11.0790   -9.9000   27.8600 C   0  0  0  0  0
  -10.5380  -11.0830   28.3350 C   0  0  0  0  0
   -9.1780  -11.1960   28.5330 C   0  0  0  0  0
   -8.3620  -10.1200   28.2630 C   0  0  0  0  0
   -8.8820   -8.9280   27.8120 C   0  0  0  0  0
  -10.2410   -8.8270   27.6140 C   0  0  0  0  0
  -13.3981  -12.3270   26.8660 H   0  0  0  0  0
  -13.2849  -12.0793   25.1062 H   0  0  0  0  0
  -11.8129  -12.0392   26.1075 H   0  0  0  0  0
  -10.4471   -9.6617   25.1006 H   0  0  0  0  0
  -12.1671   -7.5065   21.8138 H   0  0  0  0  0
  -14.4535   -7.9169   22.7042 H   0  0  0  0  0
  -15.7910   -9.1783   24.7066 H   0  0  0  0  0
  -10.0656   -7.8821   20.7420 H   0  0  0  0  0
   -8.6708   -8.2346   24.7967 H   0  0  0  0  0
   -5.7098   -8.2337   22.6912 H   0  0  0  0  0
   -6.0595   -6.5097   22.9679 H   0  0  0  0  0
   -6.2251   -7.6771   24.3023 H   0  0  0  0  0
  -13.0529  -10.3360   28.3996 H   0  0  0  0  0
  -12.7688   -8.6859   27.6406 H   0  0  0  0  0
  -11.1901  -11.9287   28.5534 H   0  0  0  0  0
   -8.7522  -12.1297   28.9004 H   0  0  0  0  0
   -7.2859  -10.2139   28.4089 H   0  0  0  0  0
   -8.2288   -8.0780   27.6148 H   0  0  0  0  0
  -10.6630   -7.8872   27.2580 H   0  0  0  0  0
  1  2  1  0  0  0
  2  3  1  0  0  0
  2 10  1  0  0  0
  2 18  1  0  0  0
  3  4  4  0  0  0
  3  8  4  0  0  0
  4  5  4  0  0  0
  5  6  4  0  0  0
  5 12  1  0  0  0
  6  7  4  0  0  0
  7  8  4  0  0  0
  8  9  1  0  0  0
  9 10  1  0  0  0
 10 11  2  0  0  0
 12 13  4  0  0  0
 12 16  4  0  0  0
 13 14  4  0  0  0
 14 15  4  0  0  0
 15 16  4  0  0  0
 15 17  1  0  0  0
 18 19  1  0  0  0
 19 20  4  0  0  0
 19 24  4  0  0  0
 20 21  4  0  0  0
 21 22  4  0  0  0
 22 23  4  0  0  0
 23 24  4  0  0  0
  1 25  1  0  0  0
  1 26  1  0  0  0
  1 27  1  0  0  0
  4 28  1  0  0  0
  6 29  1  0  0  0
  7 30  1  0  0  0
  9 31  1  0  0  0
 13 32  1  0  0  0
 16 33  1  0  0  0
 17 34  1  0  0  0
 17 35  1  0  0  0
 17 36  1  0  0  0
 18 37  1  0  0  0
 18 38  1  0  0  0
 20 39  1  0  0  0
 21 40  1  0  0  0
 22 41  1  0  0  0
 23 42  1  0  0  0
 24 43  1  0  0  0
M  END
$$$$
