6jn3_ligand

Created by X-TOOL on Mon Aug  2 16:17:18 2021
 39 39  0  0  0  0  0  0  0  0999 V2000
  124.3670  -62.6810  121.8300  C 0  0  0  2  0  3
  125.6380  -62.9040  122.4320  C 0  0  0  1  0  3
  125.9720  -64.2500  122.5570  C 0  0  0  2  0  3
  125.1040  -65.2620  122.1190  C 0  0  0  2  0  3
  123.8790  -64.9900  121.5460  C 0  0  0  2  0  3
  123.5030  -63.6790  121.4080  C 0  0  0  2  0  3
  126.6760  -61.8280  122.9560  C 0  0  0  3  0  4
  126.5790  -61.4000  124.4800  C 0  0  0  3  0  5
  125.4710  -62.1110  125.0760  N 0  0  0  2  0  3
  125.6880  -63.3180  125.8490  C 0  0  0  1  0  3
  126.8080  -63.7160  125.9830  O 0  0  0  1  0  1
  124.4370  -64.0250  126.4240  C 0  0  0  2  0  4
  124.0390  -65.0380  125.3510  C 0  0  0  3  0  4
  122.5600  -66.0320  125.7030  S 0  0  0  2  0  2
  124.7230  -64.6240  127.8180  C 0  0  0  4  0  4
  126.2810  -59.8760  124.8820  B 0  0  0  1  0  3
  126.8270  -59.3440  126.0470  O 0  0  0  3  0  3
  125.0660  -59.3900  124.4820  O 0  0  0  3  0  3
  124.0515  -61.6532  121.6914  H 0  0  0  1  0  1
  126.9224  -64.5218  123.0019  H 0  0  0  1  0  1
  125.4075  -66.2961  122.2353  H 0  0  0  1  0  1
  123.2304  -65.7923  121.2134  H 0  0  0  1  0  1
  122.5422  -63.4262  120.9744  H 0  0  0  1  0  1
  126.5440  -60.9198  122.3495  H 0  0  0  1  0  1
  127.6845  -62.2353  122.7916  H 0  0  0  1  0  1
  126.4087  -60.3157  124.5527  H 0  0  0  1  0  1
  127.5124  -61.6603  125.0006  H 0  0  0  1  0  1
  124.5407  -61.7652  124.9534  H 0  0  0  1  0  1
  123.6226  -63.2947  126.5397  H 0  0  0  1  0  1
  124.8833  -65.7291  125.2110  H 0  0  0  1  0  1
  123.8586  -64.4855  124.4171  H 0  0  0  1  0  1
  122.3898  -66.6625  124.9352  H 0  0  0  1  0  1
  124.9991  -63.8180  128.5138  H 0  0  0  1  0  1
  125.5509  -65.3446  127.7447  H 0  0  0  1  0  1
  123.8229  -65.1361  128.1888  H 0  0  0  1  0  1
  127.6647  -59.7572  126.2202  H 0  0  0  1  0  1
  127.6647  -59.7572  126.2202  H 0  0  0  1  0  1
  124.4221  -59.5519  125.1615  H 0  0  0  1  0  1
  124.4222  -59.5519  125.1615  H 0  0  0  1  0  1
  1  2  4  0  0  1
  1  6  4  0  0  1
  2  3  4  0  0  1
  2  7  1  0  0  2
  3  4  4  0  0  1
  4  5  4  0  0  1
  5  6  4  0  0  1
  7  8  1  0  0  2
  8  9  1  0  0  2
  8 16  1  0  0  2
  9 10  1  0  0  2
 10 11  2  0  0  2
 10 12  1  0  0  2
 12 13  1  0  0  2
 12 15  1  0  0  2
 13 14  1  0  0  2
 16 17  1  0  0  2
 16 18  1  0  0  2
  1 19  1  0  0  2
  3 20  1  0  0  2
  4 21  1  0  0  2
  5 22  1  0  0  2
  6 23  1  0  0  2
  7 24  1  0  0  2
  7 25  1  0  0  2
  8 26  1  0  0  2
  8 27  1  0  0  2
  9 28  1  0  0  2
 12 29  1  0  0  2
 13 30  1  0  0  2
 13 31  1  0  0  2
 14 32  1  0  0  2
 15 33  1  0  0  2
 15 34  1  0  0  2
 15 35  1  0  0  2
 17 36  1  0  0  2
 17 37  1  0  0  2
 18 38  1  0  0  2
 18 39  1  0  0  2
M  END
> <MOLECULAR_FORMULA>
C12H21NO3SB

> <MOLECULAR_WEIGHT>
270.0

> <NUM_HB_ATOMS>
5  

> <NUM_ROTOR>
6  

> <XLOGP2>
0.95 

$$$$
