#	Name:			6jn3_ligand
#	Creating user name:	wangrx
#	Creation time:		Thu Aug  5 17:22:04 2021

#	Modifying user name:	wangrx
#	Modification time:	Thu Aug  5 17:22:44 2021

@<TRIPOS>MOLECULE
6jn3_ligand
   38    38     1     0     0
SMALL
GAST_HUCK


@<TRIPOS>ATOM
      1 C1        124.3670  -62.6810  121.8300 C.ar      1 BX6        -0.0627 
      2 C2        125.6380  -62.9040  122.4320 C.ar      1 BX6        -0.0709 
      3 C3        125.9720  -64.2500  122.5570 C.ar      1 BX6        -0.0627 
      4 C4        125.1040  -65.2620  122.1190 C.ar      1 BX6        -0.0686 
      5 C5        123.8790  -64.9900  121.5460 C.ar      1 BX6        -0.0687 
      6 C6        123.5030  -63.6790  121.4080 C.ar      1 BX6        -0.0686 
      7 C7        126.6760  -61.8280  122.9560 C.3       1 BX6        -0.1261 
      8 C8        126.5790  -61.4000  124.4800 C.3       1 BX6        -0.2146 
      9 N9        125.4710  -62.1110  125.0760 N.am      1 BX6        -0.4360 
     10 C10       125.6880  -63.3180  125.8490 C.2       1 BX6         0.1515 
     11 O11       126.8080  -63.7160  125.9830 O.2       1 BX6        -0.3993 
     12 C12       124.4370  -64.0250  126.4240 C.3       1 BX6         0.0521 
     13 C13       124.0390  -65.0380  125.3510 C.3       1 BX6         0.0100 
     14 S14       122.5600  -66.0320  125.7030 S.3       1 BX6        -0.1756 
     15 C15       124.7230  -64.6240  127.8180 C.3       1 BX6        -0.0447 
     16 B16       126.2810  -59.8760  124.8820 B         1 BX6         3.0000 
     17 O17       126.8270  -59.3440  126.0470 O.3       1 BX6        -0.4105 
     18 O18       125.0660  -59.3900  124.4820 O.3       1 BX6        -0.4105 
     19 H1        124.0515  -61.6532  121.6914 H         1 BX6         0.0556 
     20 H2        126.9224  -64.5218  123.0019 H         1 BX6         0.0556 
     21 H3        125.4075  -66.2961  122.2353 H         1 BX6         0.0599 
     22 H4        123.2304  -65.7923  121.2134 H         1 BX6         0.0559 
     23 H5        122.5422  -63.4262  120.9744 H         1 BX6         0.0599 
     24 H6        126.5440  -60.9198  122.3495 H         1 BX6         0.0094 
     25 H7        127.6845  -62.2353  122.7916 H         1 BX6         0.0094 
     26 H9        127.5124  -61.6603  125.0006 H         1 BX6        -0.1800 
     27 H10       124.5407  -61.7652  124.9534 H         1 BX6         0.1460 
     28 H11       123.6226  -63.2947  126.5397 H         1 BX6         0.0542 
     29 H12       124.8833  -65.7291  125.2110 H         1 BX6         0.0401 
     30 H13       123.8586  -64.4855  124.4171 H         1 BX6         0.0401 
     31 H14       122.3898  -66.6625  124.9352 H         1 BX6         0.1018 
     32 H15       124.9991  -63.8180  128.5138 H         1 BX6         0.0257 
     33 H16       125.5509  -65.3446  127.7447 H         1 BX6         0.0257 
     34 H17       123.8229  -65.1361  128.1888 H         1 BX6         0.0257 
     35 H18       127.6647  -59.7572  126.2202 H         1 BX6         0.2052 
     36 H19       127.6647  -59.7572  126.2202 H         1 BX6         0.2052 
     37 H20       124.4221  -59.5519  125.1615 H         1 BX6         0.2052 
     38 H21       124.4222  -59.5519  125.1615 H         1 BX6         0.2052 
@<TRIPOS>BOND
     1    1    2 ar   
     2    1    6 ar   
     3    2    3 ar   
     4    2    7 1    
     5    3    4 ar   
     6    4    5 ar   
     7    5    6 ar   
     8    7    8 1    
     9    8    9 1    
    10    8   16 1    
    11    9   10 am   
    12   10   11 2    
    13   10   12 1    
    14   12   13 1    
    15   12   15 1    
    16   13   14 1    
    17   16   17 1    
    18   16   18 1    
    19    1   19 1    
    20    3   20 1    
    21    4   21 1    
    22    5   22 1    
    23    6   23 1    
    24    7   24 1    
    25    7   25 1    
    26    8   26 1    
    27    9   27 1    
    28   12   28 1    
    29   13   29 1    
    30   13   30 1    
    31   14   31 1    
    32   15   32 1    
    33   15   33 1    
    34   15   34 1    
    35   17   35 1    
    36   17   36 1    
    37   18   37 1    
    38   18   38 1    
@<TRIPOS>SUBSTRUCTURE
     1 BX6         1 PERM              0 ****  ****    0 ROOT 
