1bgo_ligand
  -I-interpret- 

 65 67  0  0  0  0  0  0  0  0999 V2000
   36.5060   22.5160  -10.5830 C   0  0  0  0  0
   37.0090   21.2510  -10.4490 C   0  0  0  0  0
   37.2190   20.4360  -11.4710 C   0  0  0  0  0
   37.7290   19.0560  -11.2890 C   0  0  0  0  0
   37.3690   18.1980  -10.2310 C   0  0  0  0  0
   37.7750   16.8200  -10.1530 C   0  0  0  0  0
   38.5940   16.3020  -11.2070 C   0  0  0  0  0
   38.9660   17.1720  -12.2650 C   0  0  0  0  0
   38.5200   18.5260  -12.2730 C   0  0  0  0  0
   37.1260   15.9440   -9.0570 C   0  0  0  0  0
   35.7080   15.4250   -9.5760 C   0  0  0  0  0
   36.9270   16.7220   -7.6860 C   0  0  0  0  0
   36.1720   17.0100   -5.1920 C   0  0  0  0  0
   37.2120   14.9030   -5.8190 C   0  0  0  0  0
   35.6570   14.1210  -10.0380 N   0  0  0  0  0
   34.4460   13.4270  -10.5640 C   0  0  0  0  0
   34.0810   12.2580   -9.6300 C   0  0  0  0  0
   35.2640   11.3260   -9.3130 C   0  0  0  0  0
   36.9070   20.9290  -12.7030 C   0  0  0  0  0
   36.3960   22.2000  -12.8590 C   0  0  0  0  0
   36.1920   23.0060  -11.7910 C   0  0  0  0  0
   34.7530   16.1760   -9.5480 O   0  0  0  0  0
   36.3530   16.0500   -6.3880 C   0  0  0  0  0
   33.0630   11.4800  -10.1480 O   0  0  0  0  0
   34.9320   10.0410   -8.7200 N   0  0  0  0  0
   35.2530    8.5010   -9.5100 S   0  0  0  0  0
   35.0740    8.7640  -10.9330 O   0  0  0  0  0
   34.4110    7.5570   -8.8920 O   0  0  0  0  0
   36.8130    8.1330   -9.1710 C   0  0  0  0  0
   37.0730    7.3640   -8.1450 N   0  0  0  0  0
   38.3650    7.1210   -7.8180 C   0  0  0  0  0
   39.4280    7.6860   -8.5830 C   0  0  0  0  0
   39.0540    8.5170   -9.6910 C   0  0  0  0  0
   37.7030    8.7260   -9.9710 C   0  0  0  0  0
   36.3586   23.1333   -9.6968 H   0  0  0  0  0
   37.2498   20.8950   -9.4473 H   0  0  0  0  0
   36.7499   18.5997   -9.4288 H   0  0  0  0  0
   38.9243   15.2633  -11.1971 H   0  0  0  0  0
   39.5954   16.8032  -13.0749 H   0  0  0  0  0
   38.8224   19.1685  -13.1000 H   0  0  0  0  0
   37.8018   15.1113   -8.8621 H   0  0  0  0  0
   36.1692   17.4654   -7.9333 H   0  0  0  0  0
   37.9467   16.9788   -7.3992 H   0  0  0  0  0
   37.1367   17.4413   -4.9247 H   0  0  0  0  0
   35.4806   17.8061   -5.4682 H   0  0  0  0  0
   35.7714   16.4578   -4.3419 H   0  0  0  0  0
   37.3049   14.1151   -6.5664 H   0  0  0  0  0
   38.2015   15.2833   -5.5652 H   0  0  0  0  0
   36.7348   14.5026   -4.9245 H   0  0  0  0  0
   36.5256   13.5868  -10.0168 H   0  0  0  0  0
   34.6511   13.0441  -11.5637 H   0  0  0  0  0
   33.6143   14.1301  -10.6097 H   0  0  0  0  0
   33.7612   12.7447   -8.7086 H   0  0  0  0  0
   35.8745   11.8504   -8.5779 H   0  0  0  0  0
   35.7403   11.1051  -10.2682 H   0  0  0  0  0
   37.0648   20.3055  -13.5830 H   0  0  0  0  0
   36.1525   22.5614  -13.8581 H   0  0  0  0  0
   35.7891   24.0120  -11.9081 H   0  0  0  0  0
   35.3966   15.6870   -6.7643 H   0  0  0  0  0
   32.8661   10.7652   -9.5382 H   0  0  0  0  0
   34.4911   10.0312   -7.8003 H   0  0  0  0  0
   38.5946    6.4872   -6.9615 H   0  0  0  0  0
   40.4729    7.4958   -8.3379 H   0  0  0  0  0
   39.8206    8.9824  -10.3105 H   0  0  0  0  0
   37.3869    9.3479  -10.8085 H   0  0  0  0  0
  1  2  4  0  0  0
  1 21  4  0  0  0
  2  3  4  0  0  0
  3  4  1  0  0  0
  3 19  4  0  0  0
  4  5  4  0  0  0
  4  9  4  0  0  0
  5  6  4  0  0  0
  6  7  4  0  0  0
  6 10  1  0  0  0
  7  8  4  0  0  0
  8  9  4  0  0  0
 10 11  1  0  0  0
 10 12  1  0  0  0
 11 15  1  0  0  0
 11 22  2  0  0  0
 12 23  1  0  0  0
 23 13  1  0  0  0
 23 14  1  0  0  0
 15 16  1  0  0  0
 16 17  1  0  0  0
 17 18  1  0  0  0
 17 24  1  0  0  0
 18 25  1  0  0  0
 19 20  4  0  0  0
 20 21  4  0  0  0
 25 26  1  0  0  0
 26 27  2  0  0  0
 26 28  2  0  0  0
 26 29  1  0  0  0
 29 30  4  0  0  0
 29 34  4  0  0  0
 30 31  4  0  0  0
 31 32  4  0  0  0
 32 33  4  0  0  0
 33 34  4  0  0  0
  1 35  1  0  0  0
  2 36  1  0  0  0
  5 37  1  0  0  0
  7 38  1  0  0  0
  8 39  1  0  0  0
  9 40  1  0  0  0
 10 41  1  0  0  0
 12 42  1  0  0  0
 12 43  1  0  0  0
 13 44  1  0  0  0
 13 45  1  0  0  0
 13 46  1  0  0  0
 14 47  1  0  0  0
 14 48  1  0  0  0
 14 49  1  0  0  0
 15 50  1  0  0  0
 16 51  1  0  0  0
 16 52  1  0  0  0
 17 53  1  0  0  0
 18 54  1  0  0  0
 18 55  1  0  0  0
 19 56  1  0  0  0
 20 57  1  0  0  0
 21 58  1  0  0  0
 23 59  1  0  0  0
 24 60  1  0  0  0
 25 61  1  0  0  0
 31 62  1  0  0  0
 32 63  1  0  0  0
 33 64  1  0  0  0
 34 65  1  0  0  0
M  END
$$$$
