3soq_ligand
  -I-interpret- 

113112  0  0  0  0  0  0  0  0999 V2000
  -22.8760   18.9420   -6.9650 C   0  0  0  0  0
  -22.0440   18.7400   -6.0820 O   0  0  0  0  0
  -23.8490   20.1150   -6.8680 C   0  0  0  0  0
  -22.9870   18.1800   -8.0500 N   0  0  0  0  0
  -22.1550   16.9970   -8.2890 C   0  0  0  0  0
  -20.7250   17.0290   -7.7290 C   0  0  0  0  0
  -19.9670   17.9720   -7.9670 O   0  0  0  0  0
  -22.0980   16.6920   -9.7930 C   0  0  0  0  0
  -23.2940   15.8890  -10.2800 C   0  0  0  0  0
  -23.2970   15.5670  -11.5680 O   0  0  0  0  0
  -24.2030   15.5660   -9.5130 N   0  0  0  0  0
  -20.3690   15.9900   -6.9800 N   0  0  0  0  0
  -18.9760   15.7380   -6.6350 C   0  0  0  0  0
  -18.5130   14.5160   -7.4130 C   0  0  0  0  0
  -19.2640   13.5500   -7.5620 O   0  0  0  0  0
  -18.8070   15.4910   -5.1390 C   0  0  0  0  0
  -17.4820   15.0650   -4.8470 O   0  0  0  0  0
  -17.2790   14.5520   -7.9020 N   0  0  0  0  0
  -16.7800   13.4670   -8.7420 C   0  0  0  0  0
  -15.9030   12.4630   -8.0030 C   0  0  0  0  0
  -15.3940   11.5190   -8.6100 O   0  0  0  0  0
  -16.0260   14.0120   -9.9570 C   0  0  0  0  0
  -15.9400   13.0020  -11.0850 C   0  0  0  0  0
  -16.9140   12.3070  -11.3840 O   0  0  0  0  0
  -14.7710   12.9050  -11.7100 N   0  0  0  0  0
  -15.7310   12.6640   -6.6980 N   0  0  0  0  0
  -14.9120   11.7650   -5.8880 C   0  0  0  0  0
  -15.6450   10.4550   -5.6030 C   0  0  0  0  0
  -16.8570   10.4460   -5.3870 O   0  0  0  0  0
  -14.5030   12.4390   -4.5800 C   0  0  0  0  0
  -14.9070    9.3500   -5.5990 N   0  0  0  0  0
  -15.5110    8.0510   -5.3240 C   0  0  0  0  0
  -15.9140    7.8980   -3.8560 C   0  0  0  0  0
  -16.9490    7.3050   -3.5500 O   0  0  0  0  0
  -14.5830    6.8870   -5.7180 C   0  0  0  0  0
  -14.5590    6.7110   -7.2340 C   0  0  0  0  0
  -15.0580    5.5870   -5.0780 C   0  0  0  0  0
  -13.8260    5.4620   -7.6860 C   0  0  0  0  0
  -15.1040    8.4390   -2.9500 N   0  0  0  0  0
  -15.3450    8.2400   -1.5220 C   0  0  0  0  0
  -16.4420    9.1340   -0.9420 C   0  0  0  0  0
  -17.3280    8.6470   -0.2360 O   0  0  0  0  0
  -14.0460    8.3770   -0.7200 C   0  0  0  0  0
  -13.0630    7.2360   -0.9600 C   0  0  0  0  0
  -11.8780    7.2890   -0.0040 C   0  0  0  0  0
  -10.9360    6.1120   -0.2400 C   0  0  0  0  0
   -9.7480    6.1240    0.6680 N   0  3  0  0  0
  -16.3790   10.4290   -1.2410 N   0  0  0  0  0
  -17.3400   11.4050   -0.7180 C   0  0  0  0  0
  -17.0320   11.8330    0.7190 C   0  0  0  0  0
  -17.1360   11.0350    1.6530 O   0  0  0  0  0
  -18.7800   10.8810   -0.8160 C   0  0  0  0  0
  -19.2210   10.6400   -2.2490 C   0  0  0  0  0
  -19.0250   11.4870   -3.1220 O   0  0  0  0  0
  -19.8200    9.4790   -2.4980 N   0  0  0  0  0
  -16.6560   13.0970    0.8870 N   0  0  0  0  0
  -24.4522   20.0114   -5.9661 H   0  0  0  0  0
  -23.2877   21.0484   -6.8260 H   0  0  0  0  0
  -24.4991   20.1195   -7.7429 H   0  0  0  0  0
  -23.6852   18.4313   -8.7498 H   0  0  0  0  0
  -22.6556   16.2105   -7.7243 H   0  0  0  0  0
  -21.2018   16.1001   -9.9788 H   0  0  0  0  0
  -22.0965   17.6430  -10.3256 H   0  0  0  0  0
  -24.9979   15.0301   -9.8613 H   0  0  0  0  0
  -24.1604   15.8346   -8.5299 H   0  0  0  0  0
  -21.0890   15.3534   -6.6383 H   0  0  0  0  0
  -18.3788   16.6130   -6.8914 H   0  0  0  0  0
  -19.5040   14.7124   -4.8292 H   0  0  0  0  0
  -19.0048   16.4197   -4.6037 H   0  0  0  0  0
  -17.3960   14.9151   -3.9027 H   0  0  0  0  0
  -16.6740   15.3451   -7.6888 H   0  0  0  0  0
  -17.6693   12.9276   -9.0679 H   0  0  0  0  0
  -15.0107   14.2541   -9.6430 H   0  0  0  0  0
  -16.5661   14.8841  -10.3257 H   0  0  0  0  0
  -14.6532   12.2353  -12.4703 H   0  0  0  0  0
  -13.9917   13.5003  -11.4294 H   0  0  0  0  0
  -16.1814   13.4640   -6.2535 H   0  0  0  0  0
  -14.0120   11.5329   -6.4574 H   0  0  0  0  0
  -13.9277   13.3382   -4.8005 H   0  0  0  0  0
  -15.3964   12.7070   -4.0160 H   0  0  0  0  0
  -13.8940   11.7512   -3.9933 H   0  0  0  0  0
  -13.9070    9.4108   -5.7904 H   0  0  0  0  0
  -16.4101    8.0097   -5.9388 H   0  0  0  0  0
  -13.5799    7.1237   -5.3633 H   0  0  0  0  0
  -14.0353    7.5691   -7.6554 H   0  0  0  0  0
  -15.5922    6.6246   -7.5704 H   0  0  0  0  0
  -15.0524    5.6943   -3.9933 H   0  0  0  0  0
  -16.0698    5.3650   -5.4172 H   0  0  0  0  0
  -14.3902    4.7757   -5.3676 H   0  0  0  0  0
  -12.7916    5.5060   -7.3453 H   0  0  0  0  0
  -14.3124    4.5834   -7.2622 H   0  0  0  0  0
  -13.8492    5.4024   -8.7741 H   0  0  0  0  0
  -14.3071    8.9980   -3.2547 H   0  0  0  0  0
  -15.7167    7.2196   -1.4283 H   0  0  0  0  0
  -14.3100    8.3663    0.3375 H   0  0  0  0  0
  -13.5608    9.3006   -1.0356 H   0  0  0  0  0
  -12.6827    7.3236   -1.9777 H   0  0  0  0  0
  -13.5886    6.2950   -0.7978 H   0  0  0  0  0
  -12.2504    7.2406    1.0193 H   0  0  0  0  0
  -11.3307    8.2161   -0.1747 H   0  0  0  0  0
  -10.5714    6.1786   -1.2651 H   0  0  0  0  0
  -11.4937    5.1959   -0.0454 H   0  0  0  0  0
   -9.1578    5.3174    0.4644 H   0  0  0  0  0
   -9.2166    6.9818    0.5193 H   0  0  0  0  0
  -10.0621    6.0809    1.6375 H   0  0  0  0  0
  -15.6343   10.7549   -1.8571 H   0  0  0  0  0
  -17.2414   12.2891   -1.3479 H   0  0  0  0  0
  -19.4398   11.6342   -0.3854 H   0  0  0  0  0
  -18.8259    9.9288   -0.2876 H   0  0  0  0  0
  -20.1375    9.2612   -3.4425 H   0  0  0  0  0
  -19.9619    8.8064   -1.7444 H   0  0  0  0  0
  -16.4387   13.4446    1.8210 H   0  0  0  0  0
  -16.5848   13.7192    0.0819 H   0  0  0  0  0
  1  2  2  0  0  0
  1  3  1  0  0  0
  1  4  1  0  0  0
  4  5  1  0  0  0
  5  6  1  0  0  0
  5  8  1  0  0  0
  6  7  2  0  0  0
  6 12  1  0  0  0
  8  9  1  0  0  0
  9 10  2  0  0  0
  9 11  1  0  0  0
 12 13  1  0  0  0
 13 14  1  0  0  0
 13 16  1  0  0  0
 14 15  2  0  0  0
 14 18  1  0  0  0
 16 17  1  0  0  0
 18 19  1  0  0  0
 19 20  1  0  0  0
 19 22  1  0  0  0
 20 21  2  0  0  0
 20 26  1  0  0  0
 22 23  1  0  0  0
 23 24  2  0  0  0
 23 25  1  0  0  0
 26 27  1  0  0  0
 27 28  1  0  0  0
 27 30  1  0  0  0
 28 29  2  0  0  0
 28 31  1  0  0  0
 31 32  1  0  0  0
 32 33  1  0  0  0
 32 35  1  0  0  0
 33 34  2  0  0  0
 33 39  1  0  0  0
 35 36  1  0  0  0
 35 37  1  0  0  0
 36 38  1  0  0  0
 39 40  1  0  0  0
 40 41  1  0  0  0
 40 43  1  0  0  0
 41 42  2  0  0  0
 41 48  1  0  0  0
 43 44  1  0  0  0
 44 45  1  0  0  0
 45 46  1  0  0  0
 46 47  1  0  0  0
 48 49  1  0  0  0
 49 50  1  0  0  0
 49 52  1  0  0  0
 50 51  2  0  0  0
 50 56  1  0  0  0
 52 53  1  0  0  0
 53 54  2  0  0  0
 53 55  1  0  0  0
  3 57  1  0  0  0
  3 58  1  0  0  0
  3 59  1  0  0  0
  4 60  1  0  0  0
  5 61  1  0  0  0
  8 62  1  0  0  0
  8 63  1  0  0  0
 11 64  1  0  0  0
 11 65  1  0  0  0
 12 66  1  0  0  0
 13 67  1  0  0  0
 16 68  1  0  0  0
 16 69  1  0  0  0
 17 70  1  0  0  0
 18 71  1  0  0  0
 19 72  1  0  0  0
 22 73  1  0  0  0
 22 74  1  0  0  0
 25 75  1  0  0  0
 25 76  1  0  0  0
 26 77  1  0  0  0
 27 78  1  0  0  0
 30 79  1  0  0  0
 30 80  1  0  0  0
 30 81  1  0  0  0
 31 82  1  0  0  0
 32 83  1  0  0  0
 35 84  1  0  0  0
 36 85  1  0  0  0
 36 86  1  0  0  0
 37 87  1  0  0  0
 37 88  1  0  0  0
 37 89  1  0  0  0
 38 90  1  0  0  0
 38 91  1  0  0  0
 38 92  1  0  0  0
 39 93  1  0  0  0
 40 94  1  0  0  0
 43 95  1  0  0  0
 43 96  1  0  0  0
 44 97  1  0  0  0
 44 98  1  0  0  0
 45 99  1  0  0  0
 45100  1  0  0  0
 46101  1  0  0  0
 46102  1  0  0  0
 47103  1  0  0  0
 47104  1  0  0  0
 47105  1  0  0  0
 48106  1  0  0  0
 49107  1  0  0  0
 52108  1  0  0  0
 52109  1  0  0  0
 55110  1  0  0  0
 55111  1  0  0  0
 56112  1  0  0  0
 56113  1  0  0  0
M  END
$$$$
