### 
### Created by X-TOOL on Mon Sep 10 21:13:06 2018
### 

@<TRIPOS>MOLECULE
3soq_ligand
  113   112     1     0     0
SMALL
GAST_HUCK


@<TRIPOS>ATOM
      1 C         -22.8760   18.9420   -6.9650 C.2       1 ACE         0.1752
      2 O         -22.0440   18.7400   -6.0820 O.2       1 ACE        -0.3972
      3 CH3       -23.8490   20.1150   -6.8680 C.3       1 ACE         0.0258
      4 N         -22.9870   18.1800   -8.0500 N.am      1 ASN        -0.2637
      5 CA        -22.1550   16.9970   -8.2890 C.3       1 ASN         0.1475
      6 C         -20.7250   17.0290   -7.7290 C.2       1 ASN         0.2063
      7 O         -19.9670   17.9720   -7.9670 O.2       1 ASN        -0.3942
      8 CB        -22.0980   16.6920   -9.7930 C.3       1 ASN         0.0773
      9 CG        -23.2940   15.8890  -10.2800 C.2       1 ASN         0.1780
     10 OD1       -23.2970   15.5670  -11.5680 O.2       1 ASN        -0.3970
     11 ND2       -24.2030   15.5660   -9.5130 N.am      1 ASN        -0.3007
     12 N         -20.3690   15.9900   -6.9800 N.am      1 SER        -0.2614
     13 CA        -18.9760   15.7380   -6.6350 C.3       1 SER         0.1539
     14 C         -18.5130   14.5160   -7.4130 C.2       1 SER         0.2063
     15 O         -19.2640   13.5500   -7.5620 O.2       1 SER        -0.3943
     16 CB        -18.8070   15.4910   -5.1390 C.3       1 SER         0.0843
     17 OG        -17.4820   15.0650   -4.8470 O.3       1 SER        -0.3903
     18 N         -17.2790   14.5520   -7.9020 N.am      1 ASN        -0.2615
     19 CA        -16.7800   13.4670   -8.7420 C.3       1 ASN         0.1476
     20 C         -15.9030   12.4630   -8.0030 C.2       1 ASN         0.2062
     21 O         -15.3940   11.5190   -8.6100 O.2       1 ASN        -0.3942
     22 CB        -16.0260   14.0120   -9.9570 C.3       1 ASN         0.0773
     23 CG        -15.9400   13.0020  -11.0850 C.2       1 ASN         0.1780
     24 OD1       -16.9140   12.3070  -11.3840 O.2       1 ASN        -0.3970
     25 ND2       -14.7710   12.9050  -11.7100 N.am      1 ASN        -0.3007
     26 N         -15.7310   12.6640   -6.6980 N.am      1 ALA        -0.2639
     27 CA        -14.9120   11.7650   -5.8880 C.3       1 ALA         0.1282
     28 C         -15.6450   10.4550   -5.6030 C.2       1 ALA         0.2036
     29 O         -16.8570   10.4460   -5.3870 O.2       1 ALA        -0.3944
     30 CB        -14.5030   12.4390   -4.5800 C.3       1 ALA        -0.0244
     31 N         -14.9070    9.3500   -5.5990 N.am      1 ILE        -0.2635
     32 CA        -15.5110    8.0510   -5.3240 C.3       1 ILE         0.1335
     33 C         -15.9140    7.8980   -3.8560 C.2       1 ILE         0.2042
     34 O         -16.9490    7.3050   -3.5500 O.2       1 ILE        -0.3944
     35 CB        -14.5830    6.8870   -5.7180 C.3       1 ILE        -0.0037
     36 CG1       -14.5590    6.7110   -7.2340 C.3       1 ILE        -0.0491
     37 CG2       -15.0580    5.5870   -5.0780 C.3       1 ILE        -0.0582
     38 CD1       -13.8260    5.4620   -7.6860 C.3       1 ILE        -0.0648
     39 N         -15.1040    8.4390   -2.9500 N.am      1 LYS        -0.2637
     40 CA        -15.3450    8.2400   -1.5220 C.3       1 LYS         0.1310
     41 C         -16.4420    9.1340   -0.9420 C.2       1 LYS         0.2040
     42 O         -17.3280    8.6470   -0.2360 O.2       1 LYS        -0.3944
     43 CB        -14.0460    8.3770   -0.7200 C.3       1 LYS        -0.0122
     44 CG        -13.0630    7.2360   -0.9600 C.3       1 LYS        -0.0440
     45 CD        -11.8780    7.2890   -0.0040 C.3       1 LYS        -0.0124
     46 CE        -10.9360    6.1120   -0.2400 C.3       1 LYS        -0.0354
     47 NZ         -9.7480    6.1240    0.6680 N.4       1 LYS         0.2185
     48 N         -16.3790   10.4290   -1.2410 N.am      1 ASN        -0.2616
     49 CA        -17.3400   11.4050   -0.7180 C.3       1 ASN         0.1472
     50 C         -17.0320   11.8330    0.7190 C.2       1 ASN         0.2015
     51 O         -17.1360   11.0350    1.6530 O.2       1 ASN        -0.3946
     52 CB        -18.7800   10.8810   -0.8160 C.3       1 ASN         0.0773
     53 CG        -19.2210   10.6400   -2.2490 C.2       1 ASN         0.1780
     54 OD1       -19.0250   11.4870   -3.1220 O.2       1 ASN        -0.3970
     55 ND2       -19.8200    9.4790   -2.4980 N.am      1 ASN        -0.3007
     56 N         -16.6560   13.0970    0.8870 N.am      1 NH2        -0.2988
     57 H1        -24.5057   20.1206   -7.7505 H         1 ACE         0.0467
     58 H2        -23.2838   21.0577   -6.8256 H         1 ACE         0.0467
     59 H3        -24.4585   20.0116   -5.9581 H         1 ACE         0.0467
     60 H4        -23.6716   18.4264   -8.7361 H         1 ASN         0.1884
     61 H5        -22.6643   16.1569   -7.7942 H         1 ASN         0.0826
     62 H6        -21.1825   16.1186  -10.0004 H         1 ASN         0.0551
     63 H7        -22.0670   17.6440  -10.3432 H         1 ASN         0.0551
     64 H8        -24.9807   15.0378   -9.8537 H         1 ASN         0.1814
     65 H9        -24.1628   15.8322   -8.5499 H         1 ASN         0.1814
     66 H10       -21.0748   15.3658   -6.6450 H         1 SER         0.1884
     67 H11       -18.3688   16.6091   -6.9223 H         1 SER         0.0823
     68 H12       -19.5154   14.7126   -4.8191 H         1 SER         0.0606
     69 H13       -19.0152   16.4231   -4.5932 H         1 SER         0.0606
     70 H14       -16.8674   15.7363   -5.1195 H         1 SER         0.2097
     71 H15       -16.6859   15.3295   -7.6930 H         1 ASN         0.1885
     72 H16       -17.6594   12.9193   -9.1116 H         1 ASN         0.0826
     73 H17       -15.0060   14.2832   -9.6473 H         1 ASN         0.0551
     74 H18       -16.5482   14.9078  -10.3241 H         1 ASN         0.0551
     75 H19       -14.6582   12.2550  -12.4615 H         1 ASN         0.1814
     76 H20       -14.0042   13.4820  -11.4287 H         1 ASN         0.1814
     77 H21       -16.1725   13.4483   -6.2622 H         1 ALA         0.1883
     78 H22       -13.9991   11.5307   -6.4552 H         1 ALA         0.0797
     79 H23       -13.8883   11.7458   -3.9869 H         1 ALA         0.0277
     80 H24       -15.4038   12.7099   -4.0098 H         1 ALA         0.0277
     81 H25       -13.9222   13.3466   -4.8011 H         1 ALA         0.0277
     82 H26       -13.9266    9.4096   -5.7866 H         1 ILE         0.1883
     83 H27       -16.4233    7.9781   -5.9342 H         1 ILE         0.0803
     84 H28       -13.5653    7.1108   -5.3657 H         1 ILE         0.0345
     85 H29       -14.0626    7.5862   -7.6785 H         1 ILE         0.0267
     86 H30       -15.5967    6.6556   -7.5947 H         1 ILE         0.0267
     87 H31       -15.0790    5.7030   -3.9843 H         1 ILE         0.0235
     88 H32       -14.3692    4.7727   -5.3471 H         1 ILE         0.0235
     89 H33       -16.0685    5.3475   -5.4407 H         1 ILE         0.0235
     90 H34       -13.8488    5.4007   -8.7841 H         1 ILE         0.0230
     91 H35       -14.3160    4.5745   -7.2590 H         1 ILE         0.0230
     92 H36       -12.7818    5.5052   -7.3428 H         1 ILE         0.0230
     93 H37       -14.3227    8.9871   -3.2487 H         1 LYS         0.1883
     94 H38       -15.6913    7.2026   -1.4045 H         1 LYS         0.0800
     95 H39       -14.2979    8.4008    0.3505 H         1 LYS         0.0312
     96 H40       -13.5593    9.3219   -1.0033 H         1 LYS         0.0312
     97 H41       -12.6889    7.3015   -1.9923 H         1 LYS         0.0269
     98 H42       -13.5886    6.2799   -0.8204 H         1 LYS         0.0269
     99 H43       -12.2482    7.2522    1.0312 H         1 LYS         0.0317
    100 H44       -11.3280    8.2282   -0.1636 H         1 LYS         0.0317
    101 H45       -10.5821    6.1493   -1.2808 H         1 LYS         0.0813
    102 H46       -11.4936    5.1782   -0.0755 H         1 LYS         0.0813
    103 H47        -9.1640    5.3272    0.4677 H         1 LYS         0.1994
    104 H48       -10.0572    6.0814    1.6265 H         1 LYS         0.1994
    105 H49        -9.2220    6.9713    0.5219 H         1 LYS         0.1994
    106 H50       -15.6489   10.7485   -1.8450 H         1 ASN         0.1885
    107 H51       -17.2674   12.3020   -1.3505 H         1 ASN         0.0826
    108 H52       -19.4550   11.6201   -0.3599 H         1 ASN         0.0551
    109 H53       -18.8475    9.9325   -0.2631 H         1 ASN         0.0551
    110 H54       -20.1318    9.2657   -3.4239 H         1 ASN         0.1814
    111 H55       -19.9586    8.8193   -1.7593 H         1 ASN         0.1814
    112 H56       -16.4409   13.4372    1.8024 H         1 NH2         0.1815
    113 H57       -16.5883   13.7076    0.0980 H         1 NH2         0.1815
@<TRIPOS>BOND
     1    1    2 2  
     2    1    3 1  
     3    1    4 am 
     4    4    5 1  
     5    5    6 1  
     6    5    8 1  
     7    6    7 2  
     8    6   12 am 
     9    8    9 1  
    10    9   10 2  
    11    9   11 am 
    12   12   13 1  
    13   13   14 1  
    14   13   16 1  
    15   14   15 2  
    16   14   18 am 
    17   16   17 1  
    18   18   19 1  
    19   19   20 1  
    20   19   22 1  
    21   20   21 2  
    22   20   26 am 
    23   22   23 1  
    24   23   24 2  
    25   23   25 am 
    26   26   27 1  
    27   27   28 1  
    28   27   30 1  
    29   28   29 2  
    30   28   31 am 
    31   31   32 1  
    32   32   33 1  
    33   32   35 1  
    34   33   34 2  
    35   33   39 am 
    36   35   36 1  
    37   35   37 1  
    38   36   38 1  
    39   39   40 1  
    40   40   41 1  
    41   40   43 1  
    42   41   42 2  
    43   41   48 am 
    44   43   44 1  
    45   44   45 1  
    46   45   46 1  
    47   46   47 1  
    48   48   49 1  
    49   49   50 1  
    50   49   52 1  
    51   50   51 2  
    52   50   56 am 
    53   52   53 1  
    54   53   54 2  
    55   53   55 am 
    56    3   57 1  
    57    3   58 1  
    58    3   59 1  
    59    4   60 1  
    60    5   61 1  
    61    8   62 1  
    62    8   63 1  
    63   11   64 1  
    64   11   65 1  
    65   12   66 1  
    66   13   67 1  
    67   16   68 1  
    68   16   69 1  
    69   17   70 1  
    70   18   71 1  
    71   19   72 1  
    72   22   73 1  
    73   22   74 1  
    74   25   75 1  
    75   25   76 1  
    76   26   77 1  
    77   27   78 1  
    78   30   79 1  
    79   30   80 1  
    80   30   81 1  
    81   31   82 1  
    82   32   83 1  
    83   35   84 1  
    84   36   85 1  
    85   36   86 1  
    86   37   87 1  
    87   37   88 1  
    88   37   89 1  
    89   38   90 1  
    90   38   91 1  
    91   38   92 1  
    92   39   93 1  
    93   40   94 1  
    94   43   95 1  
    95   43   96 1  
    96   44   97 1  
    97   44   98 1  
    98   45   99 1  
    99   45  100 1  
   100   46  101 1  
   101   46  102 1  
   102   47  103 1  
   103   47  104 1  
   104   47  105 1  
   105   48  106 1  
   106   49  107 1  
   107   52  108 1  
   108   52  109 1  
   109   55  110 1  
   110   55  111 1  
   111   56  112 1  
   112   56  113 1  
@<TRIPOS>SUBSTRUCTURE
     1 ACE         1

