2obo_ligand
  -I-interpret- 

 80 82  0  0  0  0  0  0  0  0999 V2000
  192.0180  -10.4090   48.8310 C   0  0  0  0  0
  192.6240  -11.2850   49.4590 O   0  0  0  0  0
  190.6890  -10.1650   48.8440 O   0  0  0  0  0
  189.6980  -10.9280   49.6350 C   0  0  0  0  0
  188.3380  -10.2250   49.4430 C   0  0  0  0  0
  189.5220  -12.3650   49.0710 C   0  0  0  0  0
  190.0670  -10.9810   51.1480 C   0  0  0  0  0
  192.6230   -9.5400   48.0250 N   0  0  0  0  0
  194.0740   -9.4170   48.0010 C   0  0  0  0  0
  194.6730   -8.9350   46.7010 C   0  0  0  0  0
  196.1680   -8.9540   46.9100 C   0  0  0  0  0
  194.3430   -9.8870   45.5960 C   0  0  0  0  0
  194.2280   -7.4970   46.2960 C   0  0  0  0  0
  194.5810   -8.6080   49.1900 C   0  0  0  0  0
  194.4110   -7.3860   49.2440 O   0  0  0  0  0
  195.1720   -9.2900   50.1820 N   0  0  0  0  0
  195.4090  -10.7350   50.2670 C   0  0  0  0  0
  195.6930   -8.5870   51.3500 C   0  0  0  0  0
  196.5020   -9.6080   52.0990 C   0  0  0  0  0
  196.3200  -10.8920   51.4230 C   0  0  0  0  0
  195.7110  -10.7030   52.7850 C   0  0  0  0  0
  196.3470  -11.3320   53.9910 C   0  0  0  0  0
  194.2020  -10.7630   52.8680 C   0  0  0  0  0
  196.7300   -7.5950   50.8600 C   0  0  0  0  0
  197.5860   -7.9450   50.0460 O   0  0  0  0  0
  196.6070   -6.3490   51.3020 N   0  0  0  0  0
  197.5450   -5.2910   50.9250 C   0  0  0  0  0
  196.8210   -4.1310   50.2340 C   0  0  0  0  0
  196.0400   -4.6580   49.0490 C   0  0  0  0  0
  196.6690   -4.6550   47.6950 C   0  0  0  0  0
  195.5290   -3.7140   48.0210 C   0  0  0  0  0
  198.7390   -5.8960   52.9960 O   0  0  0  0  0
  198.2970   -4.7730   52.1700 C   0  0  0  0  0
  199.3180   -2.8540   51.2060 O   0  0  0  0  0
  200.6770   -4.5460   51.8230 N   0  0  0  0  0
  199.4850   -3.9770   51.6930 C   0  0  0  0  0
  187.5663  -10.7765   49.9801 H   0  0  0  0  0
  188.3976   -9.2086   49.8323 H   0  0  0  0  0
  188.0926  -10.1950   48.3814 H   0  0  0  0  0
  190.4538  -12.9177   49.1911 H   0  0  0  0  0
  188.7247  -12.8721   49.6144 H   0  0  0  0  0
  189.2645  -12.3098   48.0133 H   0  0  0  0  0
  189.2712  -11.4841   51.6973 H   0  0  0  0  0
  191.0003  -11.5297   51.2740 H   0  0  0  0  0
  190.1866   -9.9661   51.5273 H   0  0  0  0  0
  192.0602   -8.9493   47.4128 H   0  0  0  0  0
  194.4322  -10.4428   48.0875 H   0  0  0  0  0
  196.4265   -8.2919   47.7363 H   0  0  0  0  0
  196.4882   -9.9696   47.1427 H   0  0  0  0  0
  196.6650   -8.6142   46.0013 H   0  0  0  0  0
  194.7477  -10.8710   45.8329 H   0  0  0  0  0
  193.2605   -9.9545   45.4874 H   0  0  0  0  0
  194.7811   -9.5270   44.6651 H   0  0  0  0  0
  193.1443   -7.4721   46.1817 H   0  0  0  0  0
  194.5291   -6.7929   47.0717 H   0  0  0  0  0
  194.7005   -7.2241   45.3524 H   0  0  0  0  0
  195.8405  -11.1336   49.3488 H   0  0  0  0  0
  194.4827  -11.2946   50.3970 H   0  0  0  0  0
  194.8949   -8.1193   51.9265 H   0  0  0  0  0
  197.3171   -8.9743   52.4484 H   0  0  0  0  0
  196.9532  -11.6763   51.0082 H   0  0  0  0  0
  197.2970  -11.7835   53.7053 H   0  0  0  0  0
  196.5198  -10.5681   54.7491 H   0  0  0  0  0
  195.6843  -12.0994   54.3910 H   0  0  0  0  0
  193.8323   -9.8776   53.3851 H   0  0  0  0  0
  193.7851  -10.7980   51.8615 H   0  0  0  0  0
  193.9048  -11.6565   53.4170 H   0  0  0  0  0
  195.8324   -6.1216   51.9255 H   0  0  0  0  0
  198.2629   -5.7145   50.2226 H   0  0  0  0  0
  197.5522   -3.3991   49.8908 H   0  0  0  0  0
  196.1370   -3.6582   50.9388 H   0  0  0  0  0
  195.5813   -5.4196   49.6796 H   0  0  0  0  0
  196.9553   -5.3640   46.9182 H   0  0  0  0  0
  197.6628   -4.6214   47.2485 H   0  0  0  0  0
  195.2873   -2.6552   47.9277 H   0  0  0  0  0
  194.5751   -3.4029   47.5952 H   0  0  0  0  0
  199.2047   -5.5616   53.7660 H   0  0  0  0  0
  197.6415   -4.1478   52.7763 H   0  0  0  0  0
  201.5142   -4.0526   51.5130 H   0  0  0  0  0
  200.7559   -5.4767   52.2329 H   0  0  0  0  0
  1  2  2  0  0  0
  1  3  1  0  0  0
  1  8  1  0  0  0
  3  4  1  0  0  0
  4  5  1  0  0  0
  4  6  1  0  0  0
  4  7  1  0  0  0
  8  9  1  0  0  0
  9 10  1  0  0  0
  9 14  1  0  0  0
 10 11  1  0  0  0
 10 12  1  0  0  0
 10 13  1  0  0  0
 14 15  2  0  0  0
 14 16  1  0  0  0
 16 17  1  0  0  0
 16 18  1  0  0  0
 17 20  1  0  0  0
 18 19  1  0  0  0
 18 24  1  0  0  0
 19 20  1  0  0  0
 19 21  1  0  0  0
 20 21  1  0  0  0
 21 22  1  0  0  0
 21 23  1  0  0  0
 24 25  2  0  0  0
 24 26  1  0  0  0
 26 27  1  0  0  0
 27 28  1  0  0  0
 27 33  1  0  0  0
 28 29  1  0  0  0
 29 30  1  0  0  0
 29 31  1  0  0  0
 30 31  1  0  0  0
 33 32  1  0  0  0
 33 36  1  0  0  0
 36 34  2  0  0  0
 36 35  1  0  0  0
  5 37  1  0  0  0
  5 38  1  0  0  0
  5 39  1  0  0  0
  6 40  1  0  0  0
  6 41  1  0  0  0
  6 42  1  0  0  0
  7 43  1  0  0  0
  7 44  1  0  0  0
  7 45  1  0  0  0
  8 46  1  0  0  0
  9 47  1  0  0  0
 11 48  1  0  0  0
 11 49  1  0  0  0
 11 50  1  0  0  0
 12 51  1  0  0  0
 12 52  1  0  0  0
 12 53  1  0  0  0
 13 54  1  0  0  0
 13 55  1  0  0  0
 13 56  1  0  0  0
 17 57  1  0  0  0
 17 58  1  0  0  0
 18 59  1  0  0  0
 19 60  1  0  0  0
 20 61  1  0  0  0
 22 62  1  0  0  0
 22 63  1  0  0  0
 22 64  1  0  0  0
 23 65  1  0  0  0
 23 66  1  0  0  0
 23 67  1  0  0  0
 26 68  1  0  0  0
 27 69  1  0  0  0
 28 70  1  0  0  0
 28 71  1  0  0  0
 29 72  1  0  0  0
 30 73  1  0  0  0
 30 74  1  0  0  0
 31 75  1  0  0  0
 31 76  1  0  0  0
 32 77  1  0  0  0
 33 78  1  0  0  0
 35 79  1  0  0  0
 35 80  1  0  0  0
M  END
$$$$
