### 
### Created by X-TOOL on Mon Sep 10 21:13:28 2018
### 

@<TRIPOS>MOLECULE
5im3_ligand
   42    44     1     0     0
SMALL
GAST_HUCK


@<TRIPOS>ATOM
      1 PG         57.1920   28.9900    6.4070 P.3       1 DTP         0.1879
      2 O1G        57.6180   30.0140    5.4250 O.co2     1 DTP        -0.6091
      3 O2G        57.1360   27.5740    5.8050 O.co2     1 DTP        -0.6091
      4 O3G        58.0850   28.9440    7.6310 O.co2     1 DTP        -0.6091
      5 PB         54.4440   28.3300    6.6020 P.3       1 DTP         0.3553
      6 O1B        54.7370   26.9100    6.8900 O.co2     1 DTP        -0.5652
      7 O2B        53.1990   28.8100    7.3250 O.co2     1 DTP        -0.5652
      8 O3B        55.7080   29.2380    6.9260 O.3       1 DTP        -0.1546
      9 PA         54.8910   27.4840    3.9460 P.3       1 DTP         0.3266
     10 O1A        55.0920   28.1580    2.6500 O.co2     1 DTP        -0.5692
     11 O2A        56.1250   26.7490    4.4790 O.co2     1 DTP        -0.5692
     12 O3A        54.3340   28.5070    5.0280 O.3       1 DTP        -0.1171
     13 O5'        53.7060   26.4880    3.9130 O.3       1 DTP        -0.2441
     14 C5'        52.4780   27.0350    3.4240 C.3       1 DTP         0.1130
     15 C4'        51.3170   26.1260    3.7210 C.3       1 DTP         0.1164
     16 O4'        50.2940   26.8760    4.4030 O.3       1 DTP        -0.3389
     17 C3'        50.6330   25.6000    2.4680 C.3       1 DTP         0.0890
     18 O3'        49.9140   24.3930    2.7220 O.3       1 DTP        -0.3889
     19 C2'        49.6880   26.7410    2.1140 C.3       1 DTP         0.0315
     20 C1'        49.3880   27.4160    3.4480 C.3       1 DTP         0.1751
     21 N9         49.5400   28.8690    3.4290 N.pl3     1 DTP        -0.1945
     22 C8         50.6760   29.6140    3.6010 C.2       1 DTP         0.1122
     23 N7         50.5030   30.9030    3.4350 N.2       1 DTP        -0.2958
     24 C5         49.1540   31.0160    3.1370 C.ar      1 DTP         0.1045
     25 C6         48.3380   32.1250    2.8490 C.ar      1 DTP         0.1298
     26 N6         48.8080   33.3690    2.6950 N.pl3     1 DTP        -0.3152
     27 N1         47.0230   31.8950    2.6370 N.ar      1 DTP        -0.2698
     28 C2         46.5740   30.6370    2.6920 C.ar      1 DTP         0.0533
     29 N3         47.2560   29.5140    2.9180 N.ar      1 DTP        -0.2714
     30 C4         48.5460   29.7720    3.1400 C.ar      1 DTP         0.1612
     31 H1         52.5556   27.1727    2.3354 H         1 DTP         0.0648
     32 H2         52.3028   28.0085    3.9052 H         1 DTP         0.0648
     33 H3         51.6657   25.2864    4.3402 H         1 DTP         0.0650
     34 H4         51.3628   25.4251    1.6638 H         1 DTP         0.0622
     35 H5         50.5152   23.7276    3.0355 H         1 DTP         0.2099
     36 H6         48.7649   26.3540    1.6578 H         1 DTP         0.0345
     37 H7         50.1716   27.4459    1.4217 H         1 DTP         0.0345
     38 H8         48.3541   27.1787    3.7390 H         1 DTP         0.0969
     39 H9         51.6396   29.1740    3.8537 H         1 DTP         0.1349
     40 H10        48.1604   34.1418    2.4847 H         1 DTP         0.1820
     41 H11        49.8172   33.5533    2.7868 H         1 DTP         0.1820
     42 H12        45.5093   30.5130    2.5307 H         1 DTP         0.0996
@<TRIPOS>BOND
     1    1    2 ar 
     2    1    3 ar 
     3    1    4 ar 
     4    8    1 1  
     5    5    6 ar 
     6    5    7 ar 
     7    5    8 1  
     8   12    5 1  
     9    9   10 ar 
    10    9   11 ar 
    11    9   12 1  
    12    9   13 1  
    13   13   14 1  
    14   14   15 1  
    15   15   16 1  
    16   15   17 1  
    17   16   20 1  
    18   17   18 1  
    19   17   19 1  
    20   19   20 1  
    21   20   21 1  
    22   21   22 1  
    23   21   30 1  
    24   22   23 2  
    25   23   24 1  
    26   24   25 ar 
    27   24   30 ar 
    28   25   26 1  
    29   25   27 ar 
    30   27   28 ar 
    31   28   29 ar 
    32   29   30 ar 
    33   14   31 1  
    34   14   32 1  
    35   15   33 1  
    36   17   34 1  
    37   18   35 1  
    38   19   36 1  
    39   19   37 1  
    40   20   38 1  
    41   22   39 1  
    42   26   40 1  
    43   26   41 1  
    44   28   42 1  
@<TRIPOS>SUBSTRUCTURE
     1 DTP         1

