5im3_ligand
  -I-interpret- 

 46 48  0  0  0  0  0  0  0  0999 V2000
   57.1920   28.9900    6.4070 P   0  0  0  0  0
   57.6180   30.0140    5.4250 O   0  0  0  0  0
   57.1360   27.5740    5.8050 O   0  0  0  0  0
   58.0850   28.9440    7.6310 O   0  0  0  0  0
   54.4440   28.3300    6.6020 P   0  0  0  0  0
   54.7370   26.9100    6.8900 O   0  0  0  0  0
   53.1990   28.8100    7.3250 O   0  0  0  0  0
   55.7080   29.2380    6.9260 O   0  0  0  0  0
   54.8910   27.4840    3.9460 P   0  0  0  0  0
   55.0920   28.1580    2.6500 O   0  0  0  0  0
   56.1250   26.7490    4.4790 O   0  0  0  0  0
   54.3340   28.5070    5.0280 O   0  0  0  0  0
   53.7060   26.4880    3.9130 O   0  0  0  0  0
   52.4780   27.0350    3.4240 C   0  0  0  0  0
   51.3170   26.1260    3.7210 C   0  0  0  0  0
   50.2940   26.8760    4.4030 O   0  0  0  0  0
   50.6330   25.6000    2.4680 C   0  0  0  0  0
   49.9140   24.3930    2.7220 O   0  0  0  0  0
   49.6880   26.7410    2.1140 C   0  0  0  0  0
   49.3880   27.4160    3.4480 C   0  0  0  0  0
   49.5400   28.8690    3.4290 N   0  0  0  0  0
   50.6760   29.6140    3.6010 C   0  0  0  0  0
   50.5030   30.9030    3.4350 N   0  0  0  0  0
   49.1540   31.0160    3.1370 C   0  0  0  0  0
   48.3380   32.1250    2.8490 C   0  0  0  0  0
   48.8080   33.3690    2.6950 N   0  0  0  0  0
   47.0230   31.8950    2.6370 N   0  0  0  0  0
   46.5740   30.6370    2.6920 C   0  0  0  0  0
   47.2560   29.5140    2.9180 N   0  0  0  0  0
   48.5460   29.7720    3.1400 C   0  0  0  0  0
   56.8558   26.9514    6.4799 H   0  0  0  0  0
   57.7667   28.2671    8.2327 H   0  0  0  0  0
   53.0431   29.7332    7.1130 H   0  0  0  0  0
   55.9132   26.3394    5.3210 H   0  0  0  0  0
   52.5575   27.1539    2.3434 H   0  0  0  0  0
   52.3041   27.9916    3.9167 H   0  0  0  0  0
   51.7283   25.3000    4.3013 H   0  0  0  0  0
   51.3312   25.3418    1.6718 H   0  0  0  0  0
   49.4977   24.0931    1.9106 H   0  0  0  0  0
   48.7822   26.3842    1.6238 H   0  0  0  0  0
   50.1320   27.4318    1.3973 H   0  0  0  0  0
   48.3426   27.2239    3.6896 H   0  0  0  0  0
   51.6404   29.1736    3.8540 H   0  0  0  0  0
   49.8074   33.5515    2.7860 H   0  0  0  0  0
   48.1667   34.1343    2.4867 H   0  0  0  0  0
   45.5034   30.5124    2.5298 H   0  0  0  0  0
  1  2  2  0  0  0
  1  3  1  0  0  0
  1  4  1  0  0  0
  8  1  1  0  0  0
  5  6  2  0  0  0
  5  7  1  0  0  0
  5  8  1  0  0  0
 12  5  1  0  0  0
  9 10  2  0  0  0
  9 11  1  0  0  0
  9 12  1  0  0  0
  9 13  1  0  0  0
 13 14  1  0  0  0
 14 15  1  0  0  0
 15 16  1  0  0  0
 15 17  1  0  0  0
 16 20  1  0  0  0
 17 18  1  0  0  0
 17 19  1  0  0  0
 19 20  1  0  0  0
 20 21  1  0  0  0
 21 22  4  0  0  0
 21 30  4  0  0  0
 22 23  4  0  0  0
 23 24  4  0  0  0
 24 25  4  0  0  0
 24 30  4  0  0  0
 25 26  1  0  0  0
 25 27  4  0  0  0
 27 28  4  0  0  0
 28 29  4  0  0  0
 29 30  4  0  0  0
  3 31  1  0  0  0
  4 32  1  0  0  0
  7 33  1  0  0  0
 11 34  1  0  0  0
 14 35  1  0  0  0
 14 36  1  0  0  0
 15 37  1  0  0  0
 17 38  1  0  0  0
 18 39  1  0  0  0
 19 40  1  0  0  0
 19 41  1  0  0  0
 20 42  1  0  0  0
 22 43  1  0  0  0
 26 44  1  0  0  0
 26 45  1  0  0  0
 28 46  1  0  0  0
M  END
$$$$
