### 
### Created by X-TOOL on Mon Sep 10 21:13:01 2018
### 

@<TRIPOS>MOLECULE
3h23_ligand
   38    39     1     0     0
SMALL
GAST_HUCK


@<TRIPOS>ATOM
      1 O22       -78.7880   86.1580  101.2010 O.co2     1 B54        -0.5636
      2 C21       -77.8490   85.3570  101.0800 C.2       1 B54         0.0557
      3 O23       -77.4620   84.6210  102.0270 O.co2     1 B54        -0.5636
      4 C18       -77.1040   85.3590   99.7820 C.ar      1 B54        -0.0010
      5 C19       -75.9060   84.6230   99.6930 C.ar      1 B54        -0.0562
      6 C20       -75.1650   84.6380   98.5090 C.ar      1 B54        -0.0292
      7 C17       -77.5390   86.1620   98.7210 C.ar      1 B54        -0.0562
      8 C16       -76.7940   86.1590   97.5440 C.ar      1 B54        -0.0292
      9 C15       -75.5980   85.4180   97.4230 C.ar      1 B54         0.0944
     10 O14       -74.8800   85.4560   96.2350 O.3       1 B54        -0.3158
     11 C13       -73.5530   84.9670   96.0900 C.3       1 B54         0.0732
     12 C12       -73.3220   84.6750   94.6210 C.3       1 B54        -0.0028
     13 C11       -74.2340   83.5950   94.0230 C.3       1 B54         0.0418
     14 N10       -75.5400   84.1280   93.7050 N.pl3     1 B54        -0.2731
     15 C4        -76.2410   83.9210   92.5590 C.2       1 B54         0.1832
     16 C5        -77.4340   84.7430   92.2340 C.3       1 B54         0.2927
     17 N9        -77.9520   85.7360   93.0600 N.2       1 B54        -0.0059
     18 O24       -77.3740   86.2230   94.0150 O.2       1 B54        -0.1848
     19 C2        -78.1340   84.4720   90.9770 C.2       1 B54         0.2745
     20 O8        -79.1580   85.1450   90.7130 O.2       1 B54        -0.3735
     21 N2        -77.7030   83.4560   90.2030 N.am      1 B54        -0.1961
     22 C1        -76.6070   82.7520   90.5190 C.2       1 B54         0.1503
     23 N1        -75.9290   82.9750   91.6600 N.2       1 B54        -0.2505
     24 N7        -76.1430   81.8010   89.7050 N.2       1 B54        -0.4049
     25 H1        -75.5596   84.0456  100.5425 H         1 B54         0.0623
     26 H2        -74.2583   84.0495   98.4280 H         1 B54         0.0551
     27 H3        -78.4318   86.7699   98.8129 H         1 B54         0.0623
     28 H4        -77.1417   86.7411   96.6982 H         1 B54         0.0551
     29 H5        -73.4277   84.0460   96.6783 H         1 B54         0.0616
     30 H6        -72.8354   85.7247   96.4377 H         1 B54         0.0616
     31 H7        -72.2792   84.3473   94.4981 H         1 B54         0.0312
     32 H8        -73.4823   85.6066   94.0586 H         1 B54         0.0312
     33 H9        -74.3478   82.7785   94.7512 H         1 B54         0.0545
     34 H10       -73.7726   83.2049   93.1038 H         1 B54         0.0545
     35 H11       -75.9835   84.7242   94.4183 H         1 B54         0.2007
     36 H12       -76.7878   85.4863   91.7441 H         1 B54         0.1239
     37 H13       -78.2122   83.2223   89.3747 H         1 B54         0.2418
     38 H14       -75.3175   81.2805   89.9571 H         1 B54         0.0450
@<TRIPOS>BOND
     1    1    2 ar 
     2    2    3 ar 
     3    2    4 1  
     4    4    5 ar 
     5    4    7 ar 
     6    5    6 ar 
     7    6    9 ar 
     8    7    8 ar 
     9    8    9 ar 
    10    9   10 1  
    11   10   11 1  
    12   11   12 1  
    13   12   13 1  
    14   13   14 1  
    15   14   15 1  
    16   15   16 1  
    17   15   23 2  
    18   16   17 1  
    19   16   19 1  
    20   17   18 2  
    21   19   20 2  
    22   19   21 am 
    23   21   22 1  
    24   22   23 1  
    25   22   24 2  
    26    5   25 1  
    27    6   26 1  
    28    7   27 1  
    29    8   28 1  
    30   11   29 1  
    31   11   30 1  
    32   12   31 1  
    33   12   32 1  
    34   13   33 1  
    35   13   34 1  
    36   14   35 1  
    37   16   36 1  
    38   21   37 1  
    39   24   38 1  
@<TRIPOS>SUBSTRUCTURE
     1 B54         1

