3h23_ligand
  -I-interpret- 

 39 40  0  0  0  0  0  0  0  0999 V2000
  -78.7880   86.1580  101.2010 O   0  0  0  0  0
  -77.8490   85.3570  101.0800 C   0  0  0  0  0
  -77.4620   84.6210  102.0270 O   0  0  0  0  0
  -77.1040   85.3590   99.7820 C   0  0  0  0  0
  -75.9060   84.6230   99.6930 C   0  0  0  0  0
  -75.1650   84.6380   98.5090 C   0  0  0  0  0
  -77.5390   86.1620   98.7210 C   0  0  0  0  0
  -76.7940   86.1590   97.5440 C   0  0  0  0  0
  -75.5980   85.4180   97.4230 C   0  0  0  0  0
  -74.8800   85.4560   96.2350 O   0  0  0  0  0
  -73.5530   84.9670   96.0900 C   0  0  0  0  0
  -73.3220   84.6750   94.6210 C   0  0  0  0  0
  -74.2340   83.5950   94.0230 C   0  0  0  0  0
  -75.5400   84.1280   93.7050 N   0  0  0  0  0
  -76.2410   83.9210   92.5590 C   0  0  0  0  0
  -77.4340   84.7430   92.2340 C   0  0  0  0  0
  -77.9520   85.7360   93.0600 N   0  0  0  0  0
  -77.3740   86.2230   94.0150 O   0  0  0  0  0
  -78.1340   84.4720   90.9770 C   0  0  0  0  0
  -79.1580   85.1450   90.7130 O   0  0  0  0  0
  -77.7030   83.4560   90.2030 N   0  0  0  0  0
  -76.6070   82.7520   90.5190 C   0  0  0  0  0
  -75.9290   82.9750   91.6600 N   0  0  0  0  0
  -76.1430   81.8010   89.7050 N   0  0  0  0  0
  -76.7284   84.0779  101.7295 H   0  0  0  0  0
  -75.5577   84.0424  100.5472 H   0  0  0  0  0
  -74.2532   84.0463   98.4275 H   0  0  0  0  0
  -78.4367   86.7733   98.8134 H   0  0  0  0  0
  -77.1436   86.7443   96.6935 H   0  0  0  0  0
  -73.4180   84.0610   96.6807 H   0  0  0  0  0
  -72.8368   85.7081   96.4447 H   0  0  0  0  0
  -72.2993   84.3090   94.5300 H   0  0  0  0  0
  -73.5308   85.5980   94.0801 H   0  0  0  0  0
  -74.3537   82.7970   94.7558 H   0  0  0  0  0
  -73.7775   83.2242   93.1053 H   0  0  0  0  0
  -75.9792   84.7184   94.4114 H   0  0  0  0  0
  -76.7086   85.1327   92.9482 H   0  0  0  0  0
  -78.2224   83.2176   89.3581 H   0  0  0  0  0
  -76.6239   81.6012   88.8279 H   0  0  0  0  0
  1  2  2  0  0  0
  2  3  1  0  0  0
  2  4  1  0  0  0
  4  5  4  0  0  0
  4  7  4  0  0  0
  5  6  4  0  0  0
  6  9  4  0  0  0
  7  8  4  0  0  0
  8  9  4  0  0  0
  9 10  1  0  0  0
 10 11  1  0  0  0
 11 12  1  0  0  0
 12 13  1  0  0  0
 13 14  1  0  0  0
 14 15  1  0  0  0
 15 16  1  0  0  0
 15 23  2  0  0  0
 16 17  1  0  0  0
 16 19  1  0  0  0
 17 18  2  0  0  0
 19 20  2  0  0  0
 19 21  1  0  0  0
 21 22  1  0  0  0
 22 23  1  0  0  0
 22 24  2  0  0  0
  3 25  1  0  0  0
  5 26  1  0  0  0
  6 27  1  0  0  0
  7 28  1  0  0  0
  8 29  1  0  0  0
 11 30  1  0  0  0
 11 31  1  0  0  0
 12 32  1  0  0  0
 12 33  1  0  0  0
 13 34  1  0  0  0
 13 35  1  0  0  0
 14 36  1  0  0  0
 16 37  1  0  0  0
 21 38  1  0  0  0
 24 39  1  0  0  0
M  END
$$$$
