2pbw_ligand
  -I-interpret- 

 44 44  0  0  0  0  0  0  0  0999 V2000
   -6.1740  -31.0290   81.8850 O   0  0  0  0  0
   -5.6640  -32.0940   82.2960 C   0  0  0  0  0
   -5.0050  -32.2330   83.3500 O   0  0  0  0  0
   -5.8400  -33.3360   81.4200 C   0  0  0  0  0
   -6.9150  -34.2480   82.0140 C   0  0  0  0  0
   -4.5030  -34.0760   81.3500 C   0  0  0  0  0
   -3.8360  -34.1580   80.1350 C   0  0  0  0  0
   -2.6110  -34.8100   80.0470 C   0  0  0  0  0
   -1.9500  -34.8900   78.8260 C   0  0  0  0  0
   -0.5810  -35.5670   78.7530 C   0  0  0  0  0
   -2.5670  -34.2740   77.5680 C   0  0  0  0  0
   -1.5600  -34.1610   76.4250 C   0  0  0  0  0
   -2.4070  -34.0110   75.2300 N   0  3  0  0  0
   -3.7380  -34.5460   75.5630 C   0  0  0  0  0
   -4.7620  -33.4080   75.5990 C   0  0  0  0  0
   -4.4040  -32.3070   75.1300 O   0  0  0  0  0
   -5.8850  -33.6650   76.0810 O   0  0  0  0  0
   -3.6030  -35.2050   76.9370 C   0  0  0  0  0
   -3.0160  -36.6140   76.8170 C   0  0  0  0  0
   -4.0540  -37.6130   76.3010 C   0  0  0  0  0
   -5.2580  -37.3140   76.4550 O   0  0  0  0  0
   -3.6200  -38.6610   75.7740 O   0  0  0  0  0
   -4.7265  -33.1479   83.4336 H   0  0  0  0  0
   -6.1535  -33.0424   80.4182 H   0  0  0  0  0
   -7.0271  -35.1320   81.3863 H   0  0  0  0  0
   -6.6192  -34.5495   83.0188 H   0  0  0  0  0
   -7.8619  -33.7100   82.0586 H   0  0  0  0  0
   -4.0788  -34.5337   82.2437 H   0  0  0  0  0
   -4.2754  -33.7084   79.2445 H   0  0  0  0  0
   -2.1682  -35.2590   80.9361 H   0  0  0  0  0
    0.1181  -35.0411   79.4032 H   0  0  0  0  0
   -0.6719  -36.6035   79.0779 H   0  0  0  0  0
   -0.2167  -35.5374   77.7261 H   0  0  0  0  0
   -2.9596  -33.3178   77.9139 H   0  0  0  0  0
   -0.9015  -35.0274   76.3628 H   0  0  0  0  0
   -0.8729  -33.3251   76.5562 H   0  0  0  0  0
   -2.0052  -34.5179   74.4413 H   0  0  0  0  0
   -2.4737  -33.0296   74.9602 H   0  0  0  0  0
   -4.0828  -35.2665   74.8213 H   0  0  0  0  0
   -3.4962  -32.3706   74.8243 H   0  0  0  0  0
   -4.5407  -35.3201   77.4806 H   0  0  0  0  0
   -2.6884  -36.9365   77.8053 H   0  0  0  0  0
   -2.1863  -36.5830   76.1108 H   0  0  0  0  0
   -2.6601  -38.6462   75.7782 H   0  0  0  0  0
  1  2  2  0  0  0
  2  3  1  0  0  0
  2  4  1  0  0  0
  4  5  1  0  0  0
  4  6  1  0  0  0
  6  7  2  0  0  0
  7  8  1  0  0  0
  8  9  2  0  0  0
  9 10  1  0  0  0
  9 11  1  0  0  0
 11 12  1  0  0  0
 11 18  1  0  0  0
 12 13  1  0  0  0
 13 14  1  0  0  0
 14 15  1  0  0  0
 14 18  1  0  0  0
 15 16  1  0  0  0
 15 17  2  0  0  0
 18 19  1  0  0  0
 19 20  1  0  0  0
 20 21  2  0  0  0
 20 22  1  0  0  0
  3 23  1  0  0  0
  4 24  1  0  0  0
  5 25  1  0  0  0
  5 26  1  0  0  0
  5 27  1  0  0  0
  6 28  1  0  0  0
  7 29  1  0  0  0
  8 30  1  0  0  0
 10 31  1  0  0  0
 10 32  1  0  0  0
 10 33  1  0  0  0
 11 34  1  0  0  0
 12 35  1  0  0  0
 12 36  1  0  0  0
 13 37  1  0  0  0
 13 38  1  0  0  0
 14 39  1  0  0  0
 16 40  1  0  0  0
 18 41  1  0  0  0
 19 42  1  0  0  0
 19 43  1  0  0  0
 22 44  1  0  0  0
M  END
$$$$
