5mi7_ligand
  -I-interpret- 

 44 45  0  0  0  0  0  0  0  0999 V2000
   33.7970    6.7520   14.0370 C   0  0  0  0  0
   32.7540    6.4270   13.0030 C   0  0  0  0  0
   32.2350    5.3220   12.8980 O   0  0  0  0  0
   32.4020    7.4880   12.1590 N   0  0  0  0  0
   31.3900    7.2740   11.1300 C   0  0  0  0  0
   30.0200    6.9590   11.7680 C   0  0  0  0  0
   29.3830    8.1910   11.8560 O   0  0  0  0  0
   29.2600    5.9890   10.8250 C   0  0  0  0  0
   27.9810    5.8620   11.3640 O   0  0  0  0  0
   30.0120    4.6310   10.8800 C   0  0  0  0  0
   29.3520    3.6560    9.8820 C   0  0  0  0  0
   29.5310    4.1730    8.6010 O   0  0  0  0  0
   31.3430    4.8240   10.4600 O   0  0  0  0  0
   31.7430    6.1080   10.2260 C   0  0  0  0  0
   32.6610    6.3550    9.3370 N   0  0  0  0  0
   33.0770    5.3000    8.6620 O   0  0  0  0  0
   33.2950    5.6820    7.3670 C   0  0  0  0  0
   32.5550    5.3110    6.4480 O   0  0  0  0  0
   34.4050    6.4890    7.2910 N   0  0  0  0  0
   34.7030    7.0760    6.0510 C   0  0  0  0  0
   34.5130    6.3290    4.8760 C   0  0  0  0  0
   34.8280    6.9190    3.6700 C   0  0  0  0  0
   35.3310    8.2150    3.6360 C   0  0  0  0  0
   35.5260    8.9260    4.8110 C   0  0  0  0  0
   35.2110    8.3640    6.0350 C   0  0  0  0  0
   33.3812    6.5955   15.0323 H   0  0  0  0  0
   34.6609    6.1024   13.8965 H   0  0  0  0  0
   34.1021    7.7928   13.9288 H   0  0  0  0  0
   32.8479    8.3995   12.2625 H   0  0  0  0  0
   31.3467    8.1944   10.5476 H   0  0  0  0  0
   30.0820    6.4833   12.7468 H   0  0  0  0  0
   29.8782    8.7646   12.4453 H   0  0  0  0  0
   29.2036    6.3305    9.7914 H   0  0  0  0  0
   27.5316    6.7093   11.3218 H   0  0  0  0  0
   29.9779    4.2376   11.8959 H   0  0  0  0  0
   28.2898    3.5499   10.1025 H   0  0  0  0  0
   29.8080    2.6690    9.9591 H   0  0  0  0  0
   29.1281    3.5830    7.9598 H   0  0  0  0  0
   34.9925    6.6558    8.1080 H   0  0  0  0  0
   34.1270    5.3105    4.9167 H   0  0  0  0  0
   34.6823    6.3680    2.7409 H   0  0  0  0  0
   35.5739    8.6758    2.6785 H   0  0  0  0  0
   35.9312    9.9370    4.7694 H   0  0  0  0  0
   35.3586    8.9195    6.9611 H   0  0  0  0  0
  1  2  1  0  0  0
  2  3  2  0  0  0
  2  4  1  0  0  0
  4  5  1  0  0  0
  5  6  1  0  0  0
  5 14  1  0  0  0
  6  7  1  0  0  0
  6  8  1  0  0  0
  8  9  1  0  0  0
  8 10  1  0  0  0
 10 11  1  0  0  0
 10 13  1  0  0  0
 11 12  1  0  0  0
 13 14  1  0  0  0
 14 15  2  0  0  0
 15 16  1  0  0  0
 16 17  1  0  0  0
 17 18  2  0  0  0
 17 19  1  0  0  0
 19 20  1  0  0  0
 20 21  4  0  0  0
 20 25  4  0  0  0
 21 22  4  0  0  0
 22 23  4  0  0  0
 23 24  4  0  0  0
 24 25  4  0  0  0
  1 26  1  0  0  0
  1 27  1  0  0  0
  1 28  1  0  0  0
  4 29  1  0  0  0
  5 30  1  0  0  0
  6 31  1  0  0  0
  7 32  1  0  0  0
  8 33  1  0  0  0
  9 34  1  0  0  0
 10 35  1  0  0  0
 11 36  1  0  0  0
 11 37  1  0  0  0
 12 38  1  0  0  0
 19 39  1  0  0  0
 21 40  1  0  0  0
 22 41  1  0  0  0
 23 42  1  0  0  0
 24 43  1  0  0  0
 25 44  1  0  0  0
M  END
$$$$
