1pq3_ligand
  -I-interpret- 

 27 26  0  0  0  0  0  0  0  0999 V2000
   67.5410   54.4530   -7.9130 O   0  0  0  0  0
   69.9570   56.7220   -7.0040 N   0  3  0  0  0
   69.3600   55.4110   -6.7190 C   0  0  0  0  0
   67.8640   55.4270   -7.0490 C   0  0  0  0  0
   67.0580   56.1990   -6.5860 O   0  0  0  0  0
   69.6200   55.1600   -5.2610 C   0  0  0  0  0
   69.8800   53.4270   -4.9500 S   0  0  0  0  0
   69.6590   53.5510   -3.1860 C   0  0  0  0  0
   69.8640   52.1930   -2.5440 C   0  0  0  0  0
   70.5950   52.2460   -1.1890 B   0  0  0  0  0
   71.4540   53.4070   -1.0910 O   0  0  0  0  0
   69.6810   52.2770   -0.0610 O   0  0  0  0  0
   71.4190   51.0770   -1.0380 O   0  0  0  0  0
   68.3311   53.9618   -8.1497 H   0  0  0  0  0
   69.8135   56.9531   -7.9870 H   0  0  0  0  0
   69.5142   57.4304   -6.4188 H   0  0  0  0  0
   70.9566   56.6899   -6.8035 H   0  0  0  0  0
   69.7895   54.6143   -7.3263 H   0  0  0  0  0
   68.7539   55.4923   -4.6886 H   0  0  0  0  0
   70.5155   55.7069   -4.9658 H   0  0  0  0  0
   68.6485   53.9003   -2.9738 H   0  0  0  0  0
   70.3869   54.2539   -2.7809 H   0  0  0  0  0
   70.4815   51.6041   -3.2222 H   0  0  0  0  0
   68.8767   51.7681   -2.3629 H   0  0  0  0  0
   71.8923   53.4082   -0.2369 H   0  0  0  0  0
   70.1839   52.3095    0.7561 H   0  0  0  0  0
   71.8727   51.1137   -0.1928 H   0  0  0  0  0
  4  1  1  0  0  0
  3  2  1  0  0  0
  3  4  1  0  0  0
  3  6  1  0  0  0
  4  5  2  0  0  0
  6  7  1  0  0  0
  7  8  1  0  0  0
  8  9  1  0  0  0
  9 10  1  0  0  0
 10 11  1  0  0  0
 10 13  1  0  0  0
 10 12  1  0  0  0
  1 14  1  0  0  0
  2 15  1  0  0  0
  2 16  1  0  0  0
  2 17  1  0  0  0
  3 18  1  0  0  0
  6 19  1  0  0  0
  6 20  1  0  0  0
  8 21  1  0  0  0
  8 22  1  0  0  0
  9 23  1  0  0  0
  9 24  1  0  0  0
 11 25  1  0  0  0
 12 26  1  0  0  0
 13 27  1  0  0  0
M  END
$$$$
