### 
### Created by X-TOOL on Mon Sep 10 21:12:50 2018
### 

@<TRIPOS>MOLECULE
1pq3_ligand
   26    25     1     0     0
SMALL
GAST_HUCK


@<TRIPOS>ATOM
      1 OXT        67.5410   54.4530   -7.9130 O.co2     1 S2C        -0.5642
      2 N          69.9570   56.7220   -7.0040 N.4       1 S2C         0.2333
      3 CA         69.3600   55.4110   -6.7190 C.3       1 S2C         0.0375
      4 C          67.8640   55.4270   -7.0490 C.2       1 S2C         0.0852
      5 O          67.0580   56.1990   -6.5860 O.co2     1 S2C        -0.5642
      6 CB         69.6200   55.1600   -5.2610 C.3       1 S2C         0.0487
      7 SG         69.8800   53.4270   -4.9500 S.3       1 S2C        -0.1518
      8 CD         69.6590   53.5510   -3.1860 C.3       1 S2C         0.0139
      9 CE         69.8640   52.1930   -2.5440 C.3       1 S2C         0.0857
     10 B          70.5950   52.2460   -1.1890 B         1 S2C         1.0137
     11 O1         71.4540   53.4070   -1.0910 O.3       1 S2C        -0.3003
     12 O2         69.6810   52.2770   -0.0610 O.3       1 S2C        -0.3003
     13 O3         71.4190   51.0770   -1.0380 O.3       1 S2C        -0.3003
     14 H1         70.9402   56.6986   -6.7830 H         1 S2C         0.2010
     15 H2         69.5034   57.4267   -6.4439 H         1 S2C         0.2010
     16 H3         69.8372   56.9406   -7.9807 H         1 S2C         0.2010
     17 H4         69.8484   54.6322   -7.3231 H         1 S2C         0.1033
     18 H5         68.7543   55.5046   -4.6764 H         1 S2C         0.0451
     19 H6         70.5160   55.7192   -4.9537 H         1 S2C         0.0451
     20 H7         68.6407   53.9066   -2.9700 H         1 S2C         0.0392
     21 H8         70.3907   54.2626   -2.7758 H         1 S2C         0.0392
     22 H9         70.4549   51.5705   -3.2319 H         1 S2C         0.0511
     23 H10        68.8778   51.7317   -2.3874 H         1 S2C         0.0511
     24 H11        70.9320   54.1948   -1.1878 H         1 S2C         0.2287
     25 H12        69.1652   53.0741   -0.0946 H         1 S2C         0.2287
     26 H13        71.8477   51.1004   -0.1905 H         1 S2C         0.2287
@<TRIPOS>BOND
     1    4    1 ar 
     2    3    2 1  
     3    3    4 1  
     4    3    6 1  
     5    4    5 ar 
     6    6    7 1  
     7    7    8 1  
     8    8    9 1  
     9    9   10 1  
    10   10   11 1  
    11   10   13 1  
    12   10   12 1  
    13    2   14 1  
    14    2   15 1  
    15    2   16 1  
    16    3   17 1  
    17    6   18 1  
    18    6   19 1  
    19    8   20 1  
    20    8   21 1  
    21    9   22 1  
    22    9   23 1  
    23   11   24 1  
    24   12   25 1  
    25   13   26 1  
@<TRIPOS>SUBSTRUCTURE
     1 S2C         1

