4uib_ligand
  -I-interpret- 

 81 83  0  0  0  0  0  0  0  0999 V2000
   65.9280   38.4330   43.5540 C   0  0  0  0  0
   64.9340   38.3820   44.6290 N   0  0  0  0  0
   65.4780   39.2590   42.3220 C   0  0  0  0  0
   63.6680   37.8260   44.4880 C   0  0  0  0  0
   62.9210   37.8660   45.6860 N   0  0  0  0  0
   63.2270   37.3600   43.4180 O   0  0  0  0  0
   65.9450   39.0270   41.2080 O   0  0  0  0  0
   64.5460   40.2780   42.5500 N   0  0  0  0  0
   67.3170   38.8890   44.0920 C   0  0  0  0  0
   67.5930   40.3740   44.3280 C   0  0  0  0  0
   69.0890   40.6440   44.4740 C   0  0  0  0  0
   69.4110   42.1140   44.7470 C   0  0  0  0  0
   68.6650   42.6310   45.9690 C   0  0  0  0  0
   67.1680   42.3850   45.8370 C   0  0  0  0  0
   66.8630   40.9110   45.5610 C   0  0  0  0  0
   61.5760   37.3080   45.8090 C   0  0  0  0  0
   60.6660   38.0520   44.8180 C   0  0  0  0  0
   60.7120   39.2300   44.5300 O   0  0  0  0  0
   59.7780   37.2470   44.2100 O   0  0  0  0  0
   61.0910   37.6150   47.2470 C   0  0  0  0  0
   59.7380   36.9970   47.5370 C   0  0  0  0  0
   59.2320   37.2480   48.9360 C   0  0  0  0  0
   57.7240   37.1330   49.0500 C   0  0  0  0  0
   57.1250   36.0680   48.2460 N   0  3  0  0  0
   64.0380   41.1640   41.4810 C   0  0  0  0  0
   62.5580   41.6790   41.7240 C   0  0  0  0  0
   64.8280   42.5300   41.2790 C   0  0  0  0  0
   62.6910   43.2080   41.5570 C   0  0  0  0  0
   63.7810   43.3480   40.4580 C   0  0  0  0  0
   63.3860   43.7570   42.8180 C   0  0  0  0  0
   64.8490   43.3060   42.6240 C   0  0  0  0  0
   64.1860   44.8070   40.1470 C   0  0  0  0  0
   63.3900   42.7310   39.0960 C   0  0  0  0  0
   66.2420   42.3670   40.6920 C   0  0  0  0  0
   66.0277   37.4116   43.1868 H   0  0  0  0  0
   65.1860   38.7780   45.5346 H   0  0  0  0  0
   63.3407   38.3057   46.5051 H   0  0  0  0  0
   64.2005   40.4160   43.4997 H   0  0  0  0  0
   68.0205   38.6011   43.3108 H   0  0  0  0  0
   67.3886   38.4372   45.0814 H   0  0  0  0  0
   67.2142   40.8959   43.4492 H   0  0  0  0  0
   69.5678   40.3696   43.5340 H   0  0  0  0  0
   69.4484   40.0634   45.3236 H   0  0  0  0  0
   69.1043   42.7011   43.8814 H   0  0  0  0  0
   70.4814   42.2043   44.9322 H   0  0  0  0  0
   68.8373   43.7037   46.0566 H   0  0  0  0  0
   69.0300   42.1046   46.8509 H   0  0  0  0  0
   66.7935   42.9769   45.0019 H   0  0  0  0  0
   66.6882   42.6669   46.7743 H   0  0  0  0  0
   67.1968   40.3343   46.4236 H   0  0  0  0  0
   65.7919   40.8204   45.3801 H   0  0  0  0  0
   61.5606   36.2369   45.6077 H   0  0  0  0  0
   59.8723   36.3541   44.5497 H   0  0  0  0  0
   61.0001   38.6962   47.3514 H   0  0  0  0  0
   61.8136   37.1944   47.9464 H   0  0  0  0  0
   59.8453   35.9184   47.4220 H   0  0  0  0  0
   59.0232   37.4498   46.8499 H   0  0  0  0  0
   59.5093   38.2654   49.2120 H   0  0  0  0  0
   59.6729   36.4946   49.5888 H   0  0  0  0  0
   57.3076   38.0733   48.6886 H   0  0  0  0  0
   57.5030   36.9037   50.0924 H   0  0  0  0  0
   56.1145   36.0661   48.3850 H   0  0  0  0  0
   57.3336   36.2292   47.2607 H   0  0  0  0  0
   57.5107   35.1686   48.5336 H   0  0  0  0  0
   64.1443   40.4970   40.6254 H   0  0  0  0  0
   62.1660   41.3930   42.7000 H   0  0  0  0  0
   61.8388   41.2394   41.0329 H   0  0  0  0  0
   61.7360   43.6953   41.3605 H   0  0  0  0  0
   62.9454   43.3836   43.7425 H   0  0  0  0  0
   63.2848   44.8372   42.9226 H   0  0  0  0  0
   65.5415   44.1475   42.6046 H   0  0  0  0  0
   65.2046   42.6906   43.4504 H   0  0  0  0  0
   64.3403   45.3469   41.0812 H   0  0  0  0  0
   65.1089   44.8108   39.5670 H   0  0  0  0  0
   63.3934   45.2885   39.5743 H   0  0  0  0  0
   64.2780   42.6432   38.4700 H   0  0  0  0  0
   62.9580   41.7432   39.2566 H   0  0  0  0  0
   62.6592   43.3730   38.6042 H   0  0  0  0  0
   66.8419   41.7480   41.3592 H   0  0  0  0  0
   66.1753   41.8903   39.7141 H   0  0  0  0  0
   66.7064   43.3477   40.5886 H   0  0  0  0  0
  1  2  1  0  0  0
  1  3  1  0  0  0
  1  9  1  0  0  0
  2  4  1  0  0  0
  3  7  2  0  0  0
  3  8  1  0  0  0
  4  5  1  0  0  0
  4  6  2  0  0  0
  5 16  1  0  0  0
  8 25  1  0  0  0
  9 10  1  0  0  0
 10 11  1  0  0  0
 10 15  1  0  0  0
 11 12  1  0  0  0
 12 13  1  0  0  0
 13 14  1  0  0  0
 14 15  1  0  0  0
 16 17  1  0  0  0
 16 20  1  0  0  0
 17 18  2  0  0  0
 17 19  1  0  0  0
 20 21  1  0  0  0
 21 22  1  0  0  0
 22 23  1  0  0  0
 23 24  1  0  0  0
 25 26  1  0  0  0
 25 27  1  0  0  0
 26 28  1  0  0  0
 27 29  1  0  0  0
 27 31  1  0  0  0
 27 34  1  0  0  0
 28 29  1  0  0  0
 28 30  1  0  0  0
 29 32  1  0  0  0
 29 33  1  0  0  0
 30 31  1  0  0  0
  1 35  1  0  0  0
  2 36  1  0  0  0
  5 37  1  0  0  0
  8 38  1  0  0  0
  9 39  1  0  0  0
  9 40  1  0  0  0
 10 41  1  0  0  0
 11 42  1  0  0  0
 11 43  1  0  0  0
 12 44  1  0  0  0
 12 45  1  0  0  0
 13 46  1  0  0  0
 13 47  1  0  0  0
 14 48  1  0  0  0
 14 49  1  0  0  0
 15 50  1  0  0  0
 15 51  1  0  0  0
 16 52  1  0  0  0
 19 53  1  0  0  0
 20 54  1  0  0  0
 20 55  1  0  0  0
 21 56  1  0  0  0
 21 57  1  0  0  0
 22 58  1  0  0  0
 22 59  1  0  0  0
 23 60  1  0  0  0
 23 61  1  0  0  0
 24 62  1  0  0  0
 24 63  1  0  0  0
 24 64  1  0  0  0
 25 65  1  0  0  0
 26 66  1  0  0  0
 26 67  1  0  0  0
 28 68  1  0  0  0
 30 69  1  0  0  0
 30 70  1  0  0  0
 31 71  1  0  0  0
 31 72  1  0  0  0
 32 73  1  0  0  0
 32 74  1  0  0  0
 32 75  1  0  0  0
 33 76  1  0  0  0
 33 77  1  0  0  0
 33 78  1  0  0  0
 34 79  1  0  0  0
 34 80  1  0  0  0
 34 81  1  0  0  0
M  END
$$$$
