4f39_ligand
  -I-interpret- 

 31 31  0  0  0  0  0  0  0  0999 V2000
    2.7220   23.7450   13.7900 N   0  3  0  0  0
    2.5790   22.4810   14.5790 C   0  0  0  0  0
    1.3770   20.9790   16.7820 C   0  0  0  0  0
    2.3790   22.3430   18.5290 C   0  0  0  0  0
    3.0850   24.8210   14.8010 C   0  0  0  0  0
    2.4100   24.2500   16.0940 C   0  0  0  0  0
    0.8840   24.4420   16.2600 C   0  0  0  0  0
    2.8590   22.7980   16.0220 C   0  0  0  0  0
    0.3130   25.8270   16.5500 C   0  0  0  0  0
    2.1640   22.0400   17.0960 C   0  0  0  0  0
    4.5990   25.0510   14.8960 C   0  0  0  0  0
    5.3380   24.6940   14.0130 O   0  0  0  0  0
   -0.9040   26.0590   16.5820 O   0  0  0  0  0
    1.2240   26.6640   17.1590 O   0  0  0  0  0
    4.9800   25.9430   15.8690 O   0  0  0  0  0
    1.8601   23.9746   13.2952 H   0  0  0  0  0
    3.4378   23.6549   13.0689 H   0  0  0  0  0
    3.2804   21.7298   14.2161 H   0  0  0  0  0
    1.5705   22.0820   14.4705 H   0  0  0  0  0
    1.2536   20.6812   15.7407 H   0  0  0  0  0
    0.8686   20.4250   17.5712 H   0  0  0  0  0
    1.4196   22.5497   19.0033 H   0  0  0  0  0
    2.8483   21.4869   19.0136 H   0  0  0  0  0
    3.0268   23.2147   18.6215 H   0  0  0  0  0
    2.7395   25.8260   14.5586 H   0  0  0  0  0
    2.7142   24.7940   16.9882 H   0  0  0  0  0
    0.6310   23.8540   17.1423 H   0  0  0  0  0
    0.4697   24.1759   15.2876 H   0  0  0  0  0
    3.8979   22.5421   16.2301 H   0  0  0  0  0
    2.1107   26.3207   17.0265 H   0  0  0  0  0
    4.2469   26.0907   16.4709 H   0  0  0  0  0
  2  1  1  0  0  0
  5  1  1  0  0  0
  8  2  1  0  0  0
 10  3  2  0  0  0
 10  4  1  0  0  0
  6  5  1  0  0  0
  5 11  1  0  0  0
  6  7  1  0  0  0
  8  6  1  0  0  0
  7  9  1  0  0  0
  8 10  1  0  0  0
  9 13  2  0  0  0
  9 14  1  0  0  0
 11 12  2  0  0  0
 11 15  1  0  0  0
  1 16  1  0  0  0
  1 17  1  0  0  0
  2 18  1  0  0  0
  2 19  1  0  0  0
  3 20  1  0  0  0
  3 21  1  0  0  0
  4 22  1  0  0  0
  4 23  1  0  0  0
  4 24  1  0  0  0
  5 25  1  0  0  0
  6 26  1  0  0  0
  7 27  1  0  0  0
  7 28  1  0  0  0
  8 29  1  0  0  0
 14 30  1  0  0  0
 15 31  1  0  0  0
M  END
$$$$
