3pb3_ligand
  -I-interpret- 

 47 49  0  0  0  0  0  0  0  0999 V2000
    8.7710   10.0240   20.9790 N   0  3  0  0  0
    9.5830   11.1810   21.4540 C   0  0  0  0  0
   10.8240   10.6930   22.2110 C   0  0  0  0  0
   11.2600   11.7080   23.2710 C   0  0  0  0  0
   12.6930   11.1910   24.1790 S   0  0  0  0  0
    9.9860   12.0330   20.2810 C   0  0  0  0  0
   10.2430   13.2140   20.4890 O   0  0  0  0  0
   10.0690   11.6090   19.1210 O   0  0  0  0  0
   12.2260    9.6800   24.9600 C   0  0  0  0  0
   10.9330    9.7880   25.7730 C   0  0  0  0  0
   10.5740    8.4710   26.2040 O   0  0  0  0  0
   11.0220   10.6590   27.0280 C   0  0  0  0  0
   10.0010   11.6650   26.9920 O   0  0  0  0  0
   10.7660    9.6930   28.1780 C   0  0  0  0  0
   10.0220   10.2530   29.2760 O   0  0  0  0  0
   10.0320    8.5390   27.5170 C   0  0  0  0  0
   10.2510    7.2780   28.2680 N   0  0  0  0  0
   11.4320    6.8120   28.7280 C   0  0  0  0  0
   11.2650    5.6380   29.3870 N   0  0  0  0  0
    9.9510    5.3460   29.3600 C   0  0  0  0  0
    9.0900    4.2530   29.8620 C   0  0  0  0  0
    9.6180    3.2130   30.5510 N   0  0  0  0  0
    7.7600    4.3290   29.6080 N   0  0  0  0  0
    7.2170    5.3550   28.9210 C   0  0  0  0  0
    7.9410    6.3780   28.4320 N   0  0  0  0  0
    9.2860    6.4320   28.6190 C   0  0  0  0  0
    8.5003    9.4496   21.7772 H   0  0  0  0  0
    7.9348   10.3680   20.5069 H   0  0  0  0  0
    9.3245    9.4658   20.3290 H   0  0  0  0  0
    8.9803   11.7785   22.1380 H   0  0  0  0  0
   11.6380   10.5630   21.4979 H   0  0  0  0  0
   10.5817    9.7534   22.7076 H   0  0  0  0  0
   10.4401   11.8196   23.9805 H   0  0  0  0  0
   11.5096   12.6368   22.7581 H   0  0  0  0  0
    9.8420   10.6763   19.1054 H   0  0  0  0  0
   13.0249    9.4065   25.6493 H   0  0  0  0  0
   12.0590    8.9429   24.1746 H   0  0  0  0  0
   10.2044   10.2590   25.1132 H   0  0  0  0  0
   11.9798   11.1710   27.1203 H   0  0  0  0  0
   10.0610   12.2086   27.7810 H   0  0  0  0  0
   11.6993    9.3976   28.6574 H   0  0  0  0  0
    9.9039    9.5847   29.9549 H   0  0  0  0  0
    8.9521    8.6861   27.4978 H   0  0  0  0  0
   12.3905    7.3119   28.5886 H   0  0  0  0  0
   10.6216    3.1766   30.7297 H   0  0  0  0  0
    9.0120    2.4664   30.8911 H   0  0  0  0  0
    6.1399    5.3552   28.7540 H   0  0  0  0  0
  1  2  1  0  0  0
  2  3  1  0  0  0
  2  6  1  0  0  0
  3  4  1  0  0  0
  4  5  1  0  0  0
  5  9  1  0  0  0
  6  7  2  0  0  0
  6  8  1  0  0  0
  9 10  1  0  0  0
 10 11  1  0  0  0
 10 12  1  0  0  0
 11 16  1  0  0  0
 12 13  1  0  0  0
 12 14  1  0  0  0
 14 15  1  0  0  0
 14 16  1  0  0  0
 16 17  1  0  0  0
 17 18  4  0  0  0
 17 26  4  0  0  0
 18 19  4  0  0  0
 19 20  4  0  0  0
 20 21  4  0  0  0
 20 26  4  0  0  0
 21 22  1  0  0  0
 21 23  4  0  0  0
 23 24  4  0  0  0
 24 25  4  0  0  0
 25 26  4  0  0  0
  1 27  1  0  0  0
  1 28  1  0  0  0
  1 29  1  0  0  0
  2 30  1  0  0  0
  3 31  1  0  0  0
  3 32  1  0  0  0
  4 33  1  0  0  0
  4 34  1  0  0  0
  8 35  1  0  0  0
  9 36  1  0  0  0
  9 37  1  0  0  0
 10 38  1  0  0  0
 12 39  1  0  0  0
 13 40  1  0  0  0
 14 41  1  0  0  0
 15 42  1  0  0  0
 16 43  1  0  0  0
 18 44  1  0  0  0
 22 45  1  0  0  0
 22 46  1  0  0  0
 24 47  1  0  0  0
M  END
$$$$
