4cwp_ligand
  -I-interpret- 

 37 41  0  0  0  0  0  0  0  0999 V2000
   -2.2510   11.9550   24.0980 N   0  0  0  0  0
   -1.1400   11.3320   24.5700 C   0  0  0  0  0
    0.0450   11.3620   23.9020 N   0  0  0  0  0
    0.7880   10.5620   24.7690 N   0  0  0  0  0
    0.0810   10.1420   25.8270 C   0  0  0  0  0
   -1.1790   10.6280   25.7290 N   0  0  0  0  0
    2.0800   10.2090   24.6070 C   0  0  0  0  0
    2.6850    9.4310   25.5420 N   0  0  0  0  0
    1.9780    8.9850   26.6430 C   0  0  0  0  0
    2.5980    8.1890   27.6120 C   0  0  0  0  0
    1.8810    7.7360   28.7210 C   0  0  0  0  0
    0.5390    8.0840   28.8790 C   0  0  0  0  0
   -0.0860    8.9020   27.9290 C   0  0  0  0  0
    0.6360    9.3470   26.8210 C   0  0  0  0  0
    2.8820   10.6790   23.4230 C   0  0  0  0  0
    3.7840   11.8150   23.8490 C   0  0  0  0  0
    5.1870   11.6830   23.7580 C   0  0  0  0  0
    6.0330   12.7500   24.1320 C   0  0  0  0  0
    5.4150   13.9030   24.6130 C   0  0  0  0  0
    4.0560   13.9930   24.7220 C   0  0  0  0  0
    3.1890   12.9770   24.3440 C   0  0  0  0  0
    5.9840   15.0850   25.0610 O   0  0  0  0  0
    4.9220   15.9690   25.4710 C   0  0  0  0  0
    3.7240   15.2060   25.2200 O   0  0  0  0  0
   -2.2133   12.4662   23.2161 H   0  0  0  0  0
   -3.1230   11.9116   24.6254 H   0  0  0  0  0
    3.6485    7.9205   27.5004 H   0  0  0  0  0
    2.3710    7.1086   29.4656 H   0  0  0  0  0
   -0.0218    7.7201   29.7399 H   0  0  0  0  0
   -1.1300    9.1891   28.0546 H   0  0  0  0  0
    2.2074   11.0233   22.6391 H   0  0  0  0  0
    3.4870    9.8560   23.0424 H   0  0  0  0  0
    5.6202   10.7505   23.3963 H   0  0  0  0  0
    7.1172   12.6755   24.0485 H   0  0  0  0  0
    2.1072   13.0803   24.4287 H   0  0  0  0  0
    4.9345   16.9134   24.9269 H   0  0  0  0  0
    5.0117   16.2697   26.5148 H   0  0  0  0  0
  1  2  1  0  0  0
  2  3  4  0  0  0
  2  6  4  0  0  0
  3  4  4  0  0  0
  4  5  4  0  0  0
  4  7  4  0  0  0
  5  6  4  0  0  0
  5 14  4  0  0  0
  7  8  4  0  0  0
  7 15  1  0  0  0
  8  9  4  0  0  0
  9 10  4  0  0  0
  9 14  4  0  0  0
 10 11  4  0  0  0
 11 12  4  0  0  0
 12 13  4  0  0  0
 13 14  4  0  0  0
 15 16  1  0  0  0
 16 17  4  0  0  0
 16 21  4  0  0  0
 17 18  4  0  0  0
 18 19  4  0  0  0
 19 20  4  0  0  0
 19 22  1  0  0  0
 20 21  4  0  0  0
 20 24  1  0  0  0
 22 23  1  0  0  0
 23 24  1  0  0  0
  1 25  1  0  0  0
  1 26  1  0  0  0
 10 27  1  0  0  0
 11 28  1  0  0  0
 12 29  1  0  0  0
 13 30  1  0  0  0
 15 31  1  0  0  0
 15 32  1  0  0  0
 17 33  1  0  0  0
 18 34  1  0  0  0
 21 35  1  0  0  0
 23 36  1  0  0  0
 23 37  1  0  0  0
M  END
$$$$
