3pn4_ligand
  -I-interpret- 

 62 62  0  0  0  0  0  0  0  0999 V2000
    2.3850   16.7890   64.8010 C   0  0  0  0  0
    2.0600   16.6550   63.3460 C   0  0  0  0  0
    2.7830   17.1300   62.4710 O   0  0  0  0  0
    0.9110   16.0520   63.0730 N   0  0  0  0  0
    0.5820   15.9830   61.7500 O   0  0  0  0  0
    1.9650   18.1950   65.2730 C   0  0  0  0  0
    2.6800   18.5460   66.5810 C   0  0  0  0  0
    2.7860   17.7490   67.5370 O   0  0  0  0  0
    0.4250   18.2850   65.5240 C   0  0  0  0  0
    0.0180   19.7780   65.7070 C   0  0  0  0  0
   -1.4690   19.9300   66.0850 C   0  0  0  0  0
   -1.9350   21.4030   65.9100 C   0  0  0  0  0
   -1.5390   22.2130   67.1500 C   0  0  0  0  0
    3.1940   19.7800   66.5900 N   0  0  0  0  0
    3.8420   20.3250   67.7780 C   0  0  0  0  0
    5.3800   20.4780   67.6750 C   0  0  0  0  0
    6.0720   19.1300   67.4160 C   0  0  0  0  0
    5.7960   21.4590   66.5910 C   0  0  0  0  0
    3.0560   21.6300   68.0720 C   0  0  0  0  0
    2.6600   22.3360   67.1400 O   0  0  0  0  0
    2.7570   21.9720   69.3460 N   0  0  0  0  0
    1.9830   23.1760   69.7560 C   0  0  0  0  0
    3.1710   21.1460   70.5240 C   0  0  0  0  0
    2.5510   21.8270   71.7570 C   0  0  0  0  0
    1.5480   22.8660   71.2070 C   0  0  0  0  0
    2.8420   24.4630   69.7190 C   0  0  0  0  0
    2.0280   25.6170   69.9880 O   0  0  0  0  0
    3.4550   16.6504   64.9559 H   0  0  0  0  0
    1.8487   16.0310   65.3718 H   0  0  0  0  0
    0.3127   15.6654   63.8031 H   0  0  0  0  0
   -0.2602   15.5324   61.6539 H   0  0  0  0  0
    2.2396   18.8930   64.4822 H   0  0  0  0  0
    0.1690   17.7247   66.4232 H   0  0  0  0  0
   -0.1083   17.8637   64.6718 H   0  0  0  0  0
    0.1835   20.2944   64.7615 H   0  0  0  0  0
    0.6190   20.1984   66.5133 H   0  0  0  0  0
   -1.5978   19.6421   67.1284 H   0  0  0  0  0
   -2.0648   19.2927   65.4315 H   0  0  0  0  0
   -3.0178   21.4302   65.7880 H   0  0  0  0  0
   -1.4604   21.8326   65.0278 H   0  0  0  0  0
   -2.0148   21.7822   68.0310 H   0  0  0  0  0
   -0.4560   22.1850   67.2701 H   0  0  0  0  0
   -1.8656   23.2457   67.0274 H   0  0  0  0  0
    3.1318   20.3527   65.7483 H   0  0  0  0  0
    3.7907   19.6351   68.6203 H   0  0  0  0  0
    5.6988   20.8694   68.6410 H   0  0  0  0  0
    5.8497   18.4457   68.2348 H   0  0  0  0  0
    5.7060   18.7091   66.4795 H   0  0  0  0  0
    7.1493   19.2827   67.3507 H   0  0  0  0  0
    5.4274   21.1103   65.6263 H   0  0  0  0  0
    5.3744   22.4401   66.8094 H   0  0  0  0  0
    6.8835   21.5276   66.5627 H   0  0  0  0  0
    1.1467   23.3632   69.0824 H   0  0  0  0  0
    4.2565   21.0916   70.6066 H   0  0  0  0  0
    2.8260   20.1167   70.4258 H   0  0  0  0  0
    3.3148   22.3018   72.3728 H   0  0  0  0  0
    2.0555   21.1017   72.4024 H   0  0  0  0  0
    0.5304   22.4762   71.2332 H   0  0  0  0  0
    1.5514   23.7702   71.8157 H   0  0  0  0  0
    3.2861   24.5649   68.7288 H   0  0  0  0  0
    3.6200   24.3924   70.4792 H   0  0  0  0  0
    2.5744   26.4059   69.9615 H   0  0  0  0  0
  1  2  1  0  0  0
  1  6  1  0  0  0
  2  3  2  0  0  0
  2  4  1  0  0  0
  4  5  1  0  0  0
  6  7  1  0  0  0
  6  9  1  0  0  0
  7  8  2  0  0  0
  7 14  1  0  0  0
  9 10  1  0  0  0
 10 11  1  0  0  0
 11 12  1  0  0  0
 12 13  1  0  0  0
 14 15  1  0  0  0
 15 16  1  0  0  0
 15 19  1  0  0  0
 16 17  1  0  0  0
 16 18  1  0  0  0
 19 20  2  0  0  0
 19 21  1  0  0  0
 21 22  1  0  0  0
 21 23  1  0  0  0
 22 25  1  0  0  0
 22 26  1  0  0  0
 23 24  1  0  0  0
 24 25  1  0  0  0
 26 27  1  0  0  0
  1 28  1  0  0  0
  1 29  1  0  0  0
  4 30  1  0  0  0
  5 31  1  0  0  0
  6 32  1  0  0  0
  9 33  1  0  0  0
  9 34  1  0  0  0
 10 35  1  0  0  0
 10 36  1  0  0  0
 11 37  1  0  0  0
 11 38  1  0  0  0
 12 39  1  0  0  0
 12 40  1  0  0  0
 13 41  1  0  0  0
 13 42  1  0  0  0
 13 43  1  0  0  0
 14 44  1  0  0  0
 15 45  1  0  0  0
 16 46  1  0  0  0
 17 47  1  0  0  0
 17 48  1  0  0  0
 17 49  1  0  0  0
 18 50  1  0  0  0
 18 51  1  0  0  0
 18 52  1  0  0  0
 22 53  1  0  0  0
 23 54  1  0  0  0
 23 55  1  0  0  0
 24 56  1  0  0  0
 24 57  1  0  0  0
 25 58  1  0  0  0
 25 59  1  0  0  0
 26 60  1  0  0  0
 26 61  1  0  0  0
 27 62  1  0  0  0
M  END
$$$$
