5try_ligand
  -I-interpret- 

 82 85  0  0  0  0  0  0  0  0999 V2000
   77.2550  -27.5390  197.3590 C   0  0  0  0  0
   77.8320  -28.6010  197.4660 O   0  0  0  0  0
   78.1100  -26.2410  197.5590 C   0  0  0  0  0
   79.2010  -25.8880  196.4530 C   0  0  0  0  0
   80.4640  -25.1020  196.8760 C   0  0  0  0  0
   80.7290  -24.8300  198.2210 C   0  0  0  0  0
   81.8580  -24.1250  198.6510 C   0  0  0  0  0
   82.7940  -23.6500  197.7420 C   0  0  0  0  0
   82.5650  -23.9000  196.3900 C   0  0  0  0  0
   81.4300  -24.6090  195.9700 C   0  0  0  0  0
   74.9510  -28.7290  196.8430 C   0  0  0  0  0
   73.3820  -28.4370  196.9120 C   0  0  0  0  0
   72.7760  -27.6790  198.1530 C   0  0  0  0  0
   71.5140  -25.6930  199.1600 C   0  0  0  0  0
   70.0540  -25.2160  198.9700 C   0  0  0  0  0
   69.8740  -24.4000  197.7030 C   0  0  0  0  0
   70.3880  -25.2080  196.5190 C   0  0  0  0  0
   71.8340  -25.7160  196.7220 C   0  0  0  0  0
   75.5120  -28.8360  194.5120 O   0  0  0  0  0
   75.1590  -29.4570  195.4960 C   0  0  0  0  0
   72.0690  -26.4400  197.9860 N   0  0  0  0  0
   72.9100  -28.1430  199.2660 O   0  0  0  0  0
   75.8210  -27.5230  197.0450 N   0  0  0  0  0
   76.9260  -33.1210  194.0000 O   0  0  0  0  0
   74.9210  -30.8300  195.5260 N   0  0  0  0  0
   75.0520  -31.5790  194.2910 C   0  0  0  0  0
   73.6200  -31.9280  193.6870 C   0  0  0  0  0
   72.6650  -32.1220  194.4050 O   0  0  0  0  0
   75.7100  -32.9510  194.7080 C   0  0  0  0  0
   77.0230  -34.3100  193.2370 C   0  0  0  0  0
   70.0770  -29.0850  189.6400 C   0  0  0  0  0
   70.6830  -30.0710  188.9170 C   0  0  0  0  0
   70.1100  -29.0780  191.0620 C   0  0  0  0  0
   70.8010  -30.0810  193.1600 C   0  0  0  0  0
   70.7920  -30.1240  191.7390 C   0  0  0  0  0
   70.1900  -29.0900  193.8870 C   0  0  0  0  0
   73.4940  -31.9790  192.2770 N   0  0  0  0  0
   72.1670  -32.2890  191.6550 C   0  0  0  0  0
   71.4250  -31.1540  190.9620 C   0  0  0  0  0
   71.3720  -31.1230  189.5890 C   0  0  0  0  0
   69.5120  -28.0510  193.2030 C   0  0  0  0  0
   69.4850  -28.0570  191.8330 C   0  0  0  0  0
   78.6720  -26.4032  198.4788 H   0  0  0  0  0
   77.3963  -25.4175  197.5350 H   0  0  0  0  0
   78.6864  -25.2365  195.7467 H   0  0  0  0  0
   79.5719  -26.8519  196.1045 H   0  0  0  0  0
   80.0219  -25.1843  198.9710 H   0  0  0  0  0
   82.0053  -23.9457  199.7160 H   0  0  0  0  0
   83.6757  -23.1016  198.0736 H   0  0  0  0  0
   83.2781  -23.5394  195.6486 H   0  0  0  0  0
   81.2876  -24.7865  194.9040 H   0  0  0  0  0
   75.2737  -29.3497  197.6789 H   0  0  0  0  0
   72.9221  -29.4247  196.9446 H   0  0  0  0  0
   73.1906  -27.7745  196.0678 H   0  0  0  0  0
   71.5232  -26.3746  200.0105 H   0  0  0  0  0
   72.1292  -24.8038  199.2975 H   0  0  0  0  0
   69.7918  -24.5844  199.8188 H   0  0  0  0  0
   69.4173  -26.0977  198.8973 H   0  0  0  0  0
   70.4324  -23.4673  197.7829 H   0  0  0  0  0
   68.8185  -24.1683  197.5607 H   0  0  0  0  0
   70.3826  -24.5580  195.6440 H   0  0  0  0  0
   69.7419  -26.0782  196.4033 H   0  0  0  0  0
   72.4771  -24.8361  196.7391 H   0  0  0  0  0
   72.0368  -26.4192  195.9142 H   0  0  0  0  0
   75.3757  -26.6096  196.9561 H   0  0  0  0  0
   74.6611  -31.2965  196.3951 H   0  0  0  0  0
   75.6220  -31.0090  193.5573 H   0  0  0  0  0
   75.9086  -32.9498  195.7797 H   0  0  0  0  0
   75.0308  -33.7693  194.4688 H   0  0  0  0  0
   76.9260  -35.1724  193.8966 H   0  0  0  0  0
   76.2267  -34.3287  192.4929 H   0  0  0  0  0
   77.9907  -34.3409  192.7363 H   0  0  0  0  0
   69.5556  -28.2842  189.1157 H   0  0  0  0  0
   70.6404  -30.0544  187.8280 H   0  0  0  0  0
   71.3188  -30.8744  193.6989 H   0  0  0  0  0
   70.2260  -29.1022  194.9763 H   0  0  0  0  0
   74.3065  -31.8047  191.6855 H   0  0  0  0  0
   71.5239  -32.5961  192.4797 H   0  0  0  0  0
   72.3756  -33.0199  190.8737 H   0  0  0  0  0
   71.8597  -31.9074  189.0103 H   0  0  0  0  0
   69.0173  -27.2556  193.7604 H   0  0  0  0  0
   68.9661  -27.2508  191.3145 H   0  0  0  0  0
  1  2  2  0  0  0
  1  3  1  0  0  0
 23  1  1  0  0  0
  3  4  1  0  0  0
  4  5  1  0  0  0
  5  6  4  0  0  0
  5 10  4  0  0  0
  6  7  4  0  0  0
  7  8  4  0  0  0
  9  8  4  0  0  0
 10  9  4  0  0  0
 11 12  1  0  0  0
 20 11  1  0  0  0
 11 23  1  0  0  0
 12 13  1  0  0  0
 13 21  1  0  0  0
 13 22  2  0  0  0
 14 15  1  0  0  0
 21 14  1  0  0  0
 15 16  1  0  0  0
 17 16  1  0  0  0
 18 17  1  0  0  0
 21 18  1  0  0  0
 20 19  2  0  0  0
 25 20  1  0  0  0
 29 24  1  0  0  0
 24 30  1  0  0  0
 26 25  1  0  0  0
 27 26  1  0  0  0
 26 29  1  0  0  0
 27 28  2  0  0  0
 37 27  1  0  0  0
 31 32  4  0  0  0
 33 31  4  0  0  0
 32 40  4  0  0  0
 35 33  4  0  0  0
 33 42  4  0  0  0
 35 34  4  0  0  0
 34 36  4  0  0  0
 39 35  4  0  0  0
 36 41  4  0  0  0
 38 37  1  0  0  0
 38 39  1  0  0  0
 39 40  4  0  0  0
 41 42  4  0  0  0
  3 43  1  0  0  0
  3 44  1  0  0  0
  4 45  1  0  0  0
  4 46  1  0  0  0
  6 47  1  0  0  0
  7 48  1  0  0  0
  8 49  1  0  0  0
  9 50  1  0  0  0
 10 51  1  0  0  0
 11 52  1  0  0  0
 12 53  1  0  0  0
 12 54  1  0  0  0
 14 55  1  0  0  0
 14 56  1  0  0  0
 15 57  1  0  0  0
 15 58  1  0  0  0
 16 59  1  0  0  0
 16 60  1  0  0  0
 17 61  1  0  0  0
 17 62  1  0  0  0
 18 63  1  0  0  0
 18 64  1  0  0  0
 23 65  1  0  0  0
 25 66  1  0  0  0
 26 67  1  0  0  0
 29 68  1  0  0  0
 29 69  1  0  0  0
 30 70  1  0  0  0
 30 71  1  0  0  0
 30 72  1  0  0  0
 31 73  1  0  0  0
 32 74  1  0  0  0
 34 75  1  0  0  0
 36 76  1  0  0  0
 37 77  1  0  0  0
 38 78  1  0  0  0
 38 79  1  0  0  0
 40 80  1  0  0  0
 41 81  1  0  0  0
 42 82  1  0  0  0
M  END
$$$$
