4ycn_ligand
  -I-interpret- 

 71 71  0  0  0  0  0  0  0  0999 V2000
   32.4410  -15.7100   53.2880 C   0  0  0  0  0
   31.8900  -14.4210   52.7540 C   0  0  0  0  0
   30.6630  -14.0270   53.1140 C   0  0  0  0  0
   30.1770  -12.6070   53.0090 C   0  0  0  0  0
   29.5290  -11.8240   54.1430 C   0  0  0  0  0
   29.2520  -10.3950   53.7150 C   0  0  0  0  0
   29.0960  -12.2420   55.3550 C   0  0  0  0  0
   29.0670  -13.6120   55.9930 C   0  0  0  0  0
   30.4450  -14.0560   56.5380 C   0  0  0  0  0
   30.4810  -15.5050   56.9660 C   0  0  0  0  0
   31.0020  -15.9430   58.1230 C   0  0  0  0  0
   31.1070  -17.3840   58.4510 C   0  0  0  0  0
   31.6620  -17.8550   59.5740 C   0  0  0  0  0
   31.7540  -19.3310   59.8990 C   0  0  0  0  0
   31.4190  -19.6300   61.3820 C   0  0  0  0  0
   29.9770  -19.2560   61.6360 C   0  0  0  0  0
   29.4340  -18.4570   62.5710 C   0  0  0  0  0
   30.2040  -17.6680   63.6200 C   0  0  0  0  0
   27.9070  -18.3070   62.6460 C   0  0  0  0  0
   27.4630  -17.0000   61.9800 C   0  0  0  0  0
   27.2160  -16.9850   60.5110 C   0  0  0  0  0
   26.9070  -15.7870   60.0050 C   0  0  0  0  0
   26.6010  -15.5910   58.5550 C   0  0  0  0  0
   26.2870  -14.0960   58.2680 C   0  0  0  0  0
   26.9620  -13.7480   56.9840 C   0  0  0  0  0
   28.2720  -13.5750   57.1820 O   0  0  0  0  0
   26.3670  -13.5000   55.9520 O   0  0  0  0  0
   25.5220  -16.4960   58.2110 O   0  0  0  0  0
   27.4870  -18.0940   64.0040 O   0  0  0  0  0
   27.4230  -19.2960   64.7620 C   0  0  0  0  0
   31.6250  -21.1270   61.7120 C   0  0  0  0  0
   32.4832  -15.6625   54.3761 H   0  0  0  0  0
   31.7950  -16.5335   52.9838 H   0  0  0  0  0
   33.4438  -15.8673   52.8907 H   0  0  0  0  0
   32.4857  -13.8090   52.0767 H   0  0  0  0  0
   29.9764  -14.7776   53.5056 H   0  0  0  0  0
   29.3638  -12.6908   52.2880 H   0  0  0  0  0
   31.1019  -12.0549   52.8422 H   0  0  0  0  0
   28.1755  -10.2254   53.6946 H   0  0  0  0  0
   29.7160   -9.7085   54.4232 H   0  0  0  0  0
   29.6663  -10.2281   52.7207 H   0  0  0  0  0
   28.6960  -11.4474   55.9848 H   0  0  0  0  0
   28.7023  -14.2761   55.2094 H   0  0  0  0  0
   30.6631  -13.4480   57.4160 H   0  0  0  0  0
   31.1719  -13.9318   55.7353 H   0  0  0  0  0
   30.0547  -16.2451   56.2888 H   0  0  0  0  0
   31.3608  -15.2120   58.8475 H   0  0  0  0  0
   30.7086  -18.1031   57.7353 H   0  0  0  0  0
   32.0679  -17.1406   60.2902 H   0  0  0  0  0
   32.7779  -19.6547   59.7122 H   0  0  0  0  0
   31.0320  -19.8595   59.2765 H   0  0  0  0  0
   32.0865  -19.0479   62.0174 H   0  0  0  0  0
   29.2607  -19.7074   60.9495 H   0  0  0  0  0
   30.7757  -18.3559   64.2430 H   0  0  0  0  0
   30.8833  -16.9742   63.1248 H   0  0  0  0  0
   29.5026  -17.1108   64.2410 H   0  0  0  0  0
   27.4967  -19.2063   62.1866 H   0  0  0  0  0
   28.2941  -16.3113   62.1319 H   0  0  0  0  0
   26.4969  -16.7702   62.4293 H   0  0  0  0  0
   27.2822  -17.8823   59.8958 H   0  0  0  0  0
   26.8772  -14.9249   60.6714 H   0  0  0  0  0
   27.4564  -15.8291   57.9228 H   0  0  0  0  0
   26.6491  -13.4632   59.0782 H   0  0  0  0  0
   25.2115  -13.9347   58.1947 H   0  0  0  0  0
   25.3028  -16.3924   57.2821 H   0  0  0  0  0
   26.7112  -19.9790   64.2983 H   0  0  0  0  0
   28.4090  -19.7599   64.7890 H   0  0  0  0  0
   27.0999  -19.0669   65.7775 H   0  0  0  0  0
   30.9735  -21.7301   61.0796 H   0  0  0  0  0
   32.6646  -21.3985   61.5285 H   0  0  0  0  0
   31.3815  -21.3036   62.7597 H   0  0  0  0  0
  1  2  1  0  0  0
  2  3  2  0  0  0
  3  4  1  0  0  0
  4  5  1  0  0  0
  5  6  1  0  0  0
  5  7  2  0  0  0
  7  8  1  0  0  0
  8  9  1  0  0  0
  8 26  1  0  0  0
  9 10  1  0  0  0
 10 11  2  0  0  0
 11 12  1  0  0  0
 12 13  2  0  0  0
 13 14  1  0  0  0
 14 15  1  0  0  0
 15 16  1  0  0  0
 15 31  1  0  0  0
 16 17  2  0  0  0
 17 18  1  0  0  0
 17 19  1  0  0  0
 19 20  1  0  0  0
 19 29  1  0  0  0
 20 21  1  0  0  0
 21 22  2  0  0  0
 22 23  1  0  0  0
 23 24  1  0  0  0
 23 28  1  0  0  0
 24 25  1  0  0  0
 25 26  1  0  0  0
 25 27  2  0  0  0
 29 30  1  0  0  0
  1 32  1  0  0  0
  1 33  1  0  0  0
  1 34  1  0  0  0
  2 35  1  0  0  0
  3 36  1  0  0  0
  4 37  1  0  0  0
  4 38  1  0  0  0
  6 39  1  0  0  0
  6 40  1  0  0  0
  6 41  1  0  0  0
  7 42  1  0  0  0
  8 43  1  0  0  0
  9 44  1  0  0  0
  9 45  1  0  0  0
 10 46  1  0  0  0
 11 47  1  0  0  0
 12 48  1  0  0  0
 13 49  1  0  0  0
 14 50  1  0  0  0
 14 51  1  0  0  0
 15 52  1  0  0  0
 16 53  1  0  0  0
 18 54  1  0  0  0
 18 55  1  0  0  0
 18 56  1  0  0  0
 19 57  1  0  0  0
 20 58  1  0  0  0
 20 59  1  0  0  0
 21 60  1  0  0  0
 22 61  1  0  0  0
 23 62  1  0  0  0
 24 63  1  0  0  0
 24 64  1  0  0  0
 28 65  1  0  0  0
 30 66  1  0  0  0
 30 67  1  0  0  0
 30 68  1  0  0  0
 31 69  1  0  0  0
 31 70  1  0  0  0
 31 71  1  0  0  0
M  END
$$$$
