### 
### Created by X-TOOL on Wed Jan  1 15:39:37 2020
### 

@<TRIPOS>MOLECULE
6ezi_ligand
  136   135     1     0     0
SMALL
GAST_HUCK


@<TRIPOS>ATOM
      1 N          13.1870   32.9790   70.8220 N.4       1 LEU         0.2357
      2 CA         13.7400   31.7030   71.2610 C.3       1 LEU         0.0545
      3 C          13.1120   31.2580   72.5800 C.2       1 LEU         0.2236
      4 O          13.7430   31.3360   73.6350 O.2       1 LEU        -0.3910
      5 N          11.8680   30.7890   72.5140 N.am      1 GLU        -0.2613
      6 CA         11.1400   30.3450   73.6970 C.3       1 GLU         0.1308
      7 C          11.5030   28.8950   73.9970 C.2       1 GLU         0.2040
      8 O          11.3590   28.0200   73.1350 O.2       1 GLU        -0.3944
      9 CB          9.6320   30.4970   73.4950 C.3       1 GLU        -0.0152
     10 CG          8.8040   30.2490   74.7500 C.3       1 GLU        -0.0610
     11 N          11.9750   28.6430   75.2140 N.am      1 THR        -0.2613
     12 CA         12.4100   27.3180   75.6330 C.3       1 THR         0.1565
     13 C          11.4050   26.7360   76.6140 C.2       1 THR         0.2065
     14 O          11.0100   27.4070   77.5730 O.2       1 THR        -0.3943
     15 CB         13.7970   27.3690   76.2780 C.3       1 THR         0.0924
     16 OG1        14.7320   27.9480   75.3600 O.3       1 THR        -0.3874
     17 CG2        14.2660   25.9690   76.6530 C.3       1 THR        -0.0346
     18 N          10.9870   25.4980   76.3600 N.am      1 LYS        -0.2637
     19 CA         10.1970   24.7240   77.3050 C.3       1 LYS         0.1310
     20 C          11.1300   23.8430   78.1240 C.2       1 LYS         0.2039
     21 O          12.0780   23.2630   77.5900 O.2       1 LYS        -0.3944
     22 CB          9.1690   23.8520   76.5790 C.3       1 LYS        -0.0122
     23 CG          8.2850   24.5840   75.5820 C.3       1 LYS        -0.0440
     24 CD          7.4780   23.5920   74.7510 C.3       1 LYS        -0.0124
     25 CE          6.6390   24.2960   73.7090 C.3       1 LYS        -0.0354
     26 NZ          5.7560   23.3380   73.0030 N.4       1 LYS         0.2185
     27 N          10.8670   23.7570   79.4290 N.am      1 LYS        -0.2637
     28 CA         11.7040   22.9840   80.3360 C.3       1 LYS         0.1310
     29 C          10.8160   22.2220   81.3070 C.2       1 LYS         0.2040
     30 O           9.8300   22.7670   81.8110 O.2       1 LYS        -0.3944
     31 CB         12.6780   23.8900   81.1160 C.3       1 LYS        -0.0122
     32 CG         13.5520   24.7770   80.2300 C.3       1 LYS        -0.0440
     33 CD         14.5610   25.5940   81.0260 C.3       1 LYS        -0.0124
     34 CE         15.3580   26.5160   80.1060 C.3       1 LYS        -0.0354
     35 NZ         16.4000   27.3020   80.8240 N.4       1 LYS         0.2185
     36 N          11.1730   20.9650   81.5720 N.am      1 THR        -0.2613
     37 CA         10.4600   20.1410   82.5420 C.3       1 THR         0.1565
     38 C          11.4530   19.3020   83.3320 C.2       1 THR         0.2065
     39 O          12.2570   18.5730   82.7450 O.2       1 THR        -0.3943
     40 CB          9.4470   19.2210   81.8560 C.3       1 THR         0.0924
     41 OG1         8.5270   20.0050   81.0880 O.3       1 THR        -0.3874
     42 CG2         8.6880   18.4100   82.8960 C.3       1 THR        -0.0346
     43 N          11.4070   19.4130   84.6600 N.am      1 LYS        -0.2637
     44 CA         12.2160   18.5430   85.5040 C.3       1 LYS         0.1309
     45 C          11.6290   17.1360   85.5090 C.2       1 LYS         0.2033
     46 O          10.4260   16.9570   85.7250 O.2       1 LYS        -0.3944
     47 CB         12.2860   19.0980   86.9310 C.3       1 LYS        -0.0122
     48 CG         13.1520   18.2740   87.8710 C.3       1 LYS        -0.0440
     49 CD         13.0500   18.7720   89.3220 C.3       1 LYS        -0.0124
     50 CE         13.5410   20.2010   89.4720 C.3       1 LYS        -0.0354
     51 NZ         13.3990   20.6550   90.8920 N.4       1 LYS         0.2185
     52 N          12.4750   16.1380   85.2580 N.am      1 LEU        -0.2695
     53 CA         12.0320   14.7430   85.2020 C.3       1 LEU         0.0946
     54 C          12.7950   13.8380   86.1720 C.2       1 LEU         0.0601
     55 O          12.2980   12.7620   86.5190 O.co2     1 LEU        -0.5666
     56 CB         12.1760   14.1910   83.7830 C.3       1 LEU        -0.0156
     57 CG         11.2210   14.8090   82.7650 C.3       1 LEU        -0.0431
     58 CD1        11.5020   14.2960   81.3710 C.3       1 LEU        -0.0625
     59 CD2         9.7980   14.4960   83.1600 C.3       1 LEU        -0.0625
     60 OXT        13.9090   14.1360   86.6290 O.co2     1 LEU        -0.5666
     61 H1         13.6170   33.2498   69.9514 H         1 LEU         0.2012
     62 H2         13.3700   33.6826   71.5202 H         1 LEU         0.2012
     63 H3         12.1919   32.8866   70.6908 H         1 LEU         0.2012
     64 H4         14.8262   31.8099   71.3980 H         1 LEU         0.1061
     65 H5         13.5405   30.9413   70.4928 H         1 LEU         0.1061
     66 H6         11.4172   30.7394   71.6227 H         1 GLU         0.1884
     67 H7         11.4409   30.9685   74.5518 H         1 GLU         0.0800
     68 H8          9.3134   29.7795   72.7245 H         1 GLU         0.0310
     69 H9          9.4323   31.5213   73.1472 H         1 GLU         0.0310
     70 H10         7.7369   30.3785   74.5167 H         1 GLU         0.0232
     71 H11         9.0981   30.9657   75.5309 H         1 GLU         0.0232
     72 H12         8.9792   29.2239   75.1083 H         1 GLU         0.0232
     73 H13        12.0338   29.3956   75.8698 H         1 THR         0.1884
     74 H14        12.4595   26.6682   74.7468 H         1 THR         0.0826
     75 H15        13.7478   27.9877   77.1862 H         1 THR         0.0639
     76 H16        14.4531   28.8288   75.1391 H         1 THR         0.2101
     77 H17        15.2629   26.0276   77.1142 H         1 THR         0.0257
     78 H18        14.3165   25.3447   75.7488 H         1 THR         0.0257
     79 H19        13.5574   25.5238   77.3669 H         1 THR         0.0257
     80 H20        11.2262   25.0824   75.4824 H         1 LYS         0.1883
     81 H21         9.6660   25.4139   77.9773 H         1 LYS         0.0800
     82 H22         8.5178   23.3919   77.3368 H         1 LYS         0.0312
     83 H23         9.7134   23.0649   76.0367 H         1 LYS         0.0312
     84 H24         8.9168   25.1864   74.9127 H         1 LYS         0.0269
     85 H25         7.5948   25.2443   76.1275 H         1 LYS         0.0269
     86 H26         6.8148   23.0225   75.4187 H         1 LYS         0.0317
     87 H27         8.1703   22.9022   74.2461 H         1 LYS         0.0317
     88 H28         7.3039   24.7786   72.9776 H         1 LYS         0.0813
     89 H29         6.0198   25.0601   74.2017 H         1 LYS         0.0813
     90 H30         5.2081   23.8304   72.3150 H         1 LYS         0.1994
     91 H31         5.1413   22.8950   73.6677 H         1 LYS         0.1994
     92 H32         6.3180   22.6370   72.5460 H         1 LYS         0.1994
     93 H33        10.0707   24.2381   79.7957 H         1 LYS         0.1883
     94 H34        12.2913   22.2642   79.7469 H         1 LYS         0.0800
     95 H35        13.3371   23.2491   81.7200 H         1 LYS         0.0312
     96 H36        12.0887   24.5393   81.7802 H         1 LYS         0.0312
     97 H37        12.9015   25.4676   79.6733 H         1 LYS         0.0269
     98 H38        14.0985   24.1368   79.5218 H         1 LYS         0.0269
     99 H39        15.2533   24.9108   81.5397 H         1 LYS         0.0317
    100 H40        14.0259   26.2020   81.7704 H         1 LYS         0.0317
    101 H41        14.6608   27.2174   79.6243 H         1 LYS         0.0813
    102 H42        15.8505   25.9025   79.3372 H         1 LYS         0.0813
    103 H43        16.8902   27.8889   80.1672 H         1 LYS         0.1994
    104 H44        17.0526   26.6721   81.2637 H         1 LYS         0.1994
    105 H45        15.9624   27.8770   81.5268 H         1 LYS         0.1994
    106 H46        11.9564   20.5736   81.0892 H         1 THR         0.1884
    107 H47         9.9204   20.8032   83.2350 H         1 THR         0.0826
    108 H48         9.9827   18.5332   81.1852 H         1 THR         0.0639
    109 H49         9.0041   20.4961   80.4294 H         1 THR         0.2101
    110 H50         7.9638   17.7533   82.3918 H         1 THR         0.0257
    111 H51         8.1543   19.0917   83.5746 H         1 THR         0.0257
    112 H52         9.3972   17.7987   83.4734 H         1 THR         0.0257
    113 H53        10.8126   20.0987   85.0801 H         1 LYS         0.1883
    114 H54        13.2354   18.4996   85.0931 H         1 LYS         0.0800
    115 H55        11.2655   19.1312   87.3401 H         1 LYS         0.0312
    116 H56        12.6965   20.1175   86.8863 H         1 LYS         0.0312
    117 H57        14.1997   18.3434   87.5432 H         1 LYS         0.0269
    118 H58        12.8238   17.2249   87.8304 H         1 LYS         0.0269
    119 H59        13.6585   18.1188   89.9647 H         1 LYS         0.0317
    120 H60        11.9983   18.7232   89.6405 H         1 LYS         0.0317
    121 H61        12.9473   20.8587   88.8201 H         1 LYS         0.0813
    122 H62        14.6000   20.2531   89.1790 H         1 LYS         0.0813
    123 H63        13.7285   21.6039   90.9759 H         1 LYS         0.1994
    124 H64        13.9437   20.0559   91.4924 H         1 LYS         0.1994
    125 H65        12.4293   20.6108   91.1635 H         1 LYS         0.1994
    126 H66        13.4405   16.3473   85.1033 H         1 LEU         0.1875
    127 H67        10.9678   14.7180   85.4793 H         1 LEU         0.0726
    128 H68        11.9901   13.1073   83.8151 H         1 LEU         0.0308
    129 H69        13.2061   14.3765   83.4448 H         1 LEU         0.0308
    130 H70        11.3593   15.9002   82.7696 H         1 LEU         0.0297
    131 H71        10.7997   14.7582   80.6617 H         1 LEU         0.0232
    132 H72        11.3778   13.2032   81.3504 H         1 LEU         0.0232
    133 H73        12.5329   14.5533   81.0864 H         1 LEU         0.0232
    134 H74         9.6076   14.8744   84.1752 H         1 LEU         0.0232
    135 H75         9.6428   13.4072   83.1395 H         1 LEU         0.0232
    136 H76         9.1067   14.9783   82.4533 H         1 LEU         0.0232
@<TRIPOS>BOND
     1    1    2 1  
     2    2    3 1  
     3    3    4 2  
     4    3    5 am 
     5    5    6 1  
     6    6    7 1  
     7    6    9 1  
     8    7    8 2  
     9    7   11 am 
    10    9   10 1  
    11   11   12 1  
    12   12   13 1  
    13   12   15 1  
    14   13   14 2  
    15   13   18 am 
    16   15   16 1  
    17   15   17 1  
    18   18   19 1  
    19   19   20 1  
    20   19   22 1  
    21   20   21 2  
    22   20   27 am 
    23   22   23 1  
    24   23   24 1  
    25   24   25 1  
    26   25   26 1  
    27   27   28 1  
    28   28   29 1  
    29   28   31 1  
    30   29   30 2  
    31   29   36 am 
    32   31   32 1  
    33   32   33 1  
    34   33   34 1  
    35   34   35 1  
    36   36   37 1  
    37   37   38 1  
    38   37   40 1  
    39   38   39 2  
    40   38   43 am 
    41   40   41 1  
    42   40   42 1  
    43   43   44 1  
    44   44   45 1  
    45   44   47 1  
    46   45   46 2  
    47   45   52 am 
    48   47   48 1  
    49   48   49 1  
    50   49   50 1  
    51   50   51 1  
    52   52   53 1  
    53   53   54 1  
    54   53   56 1  
    55   54   55 ar 
    56   54   60 ar 
    57   56   57 1  
    58   57   58 1  
    59   57   59 1  
    60    1   61 1  
    61    1   62 1  
    62    1   63 1  
    63    2   64 1  
    64    2   65 1  
    65    5   66 1  
    66    6   67 1  
    67    9   68 1  
    68    9   69 1  
    69   10   70 1  
    70   10   71 1  
    71   10   72 1  
    72   11   73 1  
    73   12   74 1  
    74   15   75 1  
    75   16   76 1  
    76   17   77 1  
    77   17   78 1  
    78   17   79 1  
    79   18   80 1  
    80   19   81 1  
    81   22   82 1  
    82   22   83 1  
    83   23   84 1  
    84   23   85 1  
    85   24   86 1  
    86   24   87 1  
    87   25   88 1  
    88   25   89 1  
    89   26   90 1  
    90   26   91 1  
    91   26   92 1  
    92   27   93 1  
    93   28   94 1  
    94   31   95 1  
    95   31   96 1  
    96   32   97 1  
    97   32   98 1  
    98   33   99 1  
    99   33  100 1  
   100   34  101 1  
   101   34  102 1  
   102   35  103 1  
   103   35  104 1  
   104   35  105 1  
   105   36  106 1  
   106   37  107 1  
   107   40  108 1  
   108   41  109 1  
   109   42  110 1  
   110   42  111 1  
   111   42  112 1  
   112   43  113 1  
   113   44  114 1  
   114   47  115 1  
   115   47  116 1  
   116   48  117 1  
   117   48  118 1  
   118   49  119 1  
   119   49  120 1  
   120   50  121 1  
   121   50  122 1  
   122   51  123 1  
   123   51  124 1  
   124   51  125 1  
   125   52  126 1  
   126   53  127 1  
   127   56  128 1  
   128   56  129 1  
   129   57  130 1  
   130   58  131 1  
   131   58  132 1  
   132   58  133 1  
   133   59  134 1  
   134   59  135 1  
   135   59  136 1  
@<TRIPOS>SUBSTRUCTURE
     1 LEU         1

