6ezi_ligand
  -I-interpret- 

137136  0  0  0  0  0  0  0  0999 V2000
   13.1870   32.9790   70.8220 N   0  3  0  0  0
   13.7400   31.7030   71.2610 C   0  0  0  0  0
   13.1120   31.2580   72.5800 C   0  0  0  0  0
   13.7430   31.3360   73.6350 O   0  0  0  0  0
   11.8680   30.7890   72.5140 N   0  0  0  0  0
   11.1400   30.3450   73.6970 C   0  0  0  0  0
   11.5030   28.8950   73.9970 C   0  0  0  0  0
   11.3590   28.0200   73.1350 O   0  0  0  0  0
    9.6320   30.4970   73.4950 C   0  0  0  0  0
    8.8040   30.2490   74.7500 C   0  0  0  0  0
   11.9750   28.6430   75.2140 N   0  0  0  0  0
   12.4100   27.3180   75.6330 C   0  0  0  0  0
   11.4050   26.7360   76.6140 C   0  0  0  0  0
   11.0100   27.4070   77.5730 O   0  0  0  0  0
   13.7970   27.3690   76.2780 C   0  0  0  0  0
   14.7320   27.9480   75.3600 O   0  0  0  0  0
   14.2660   25.9690   76.6530 C   0  0  0  0  0
   10.9870   25.4980   76.3600 N   0  0  0  0  0
   10.1970   24.7240   77.3050 C   0  0  0  0  0
   11.1300   23.8430   78.1240 C   0  0  0  0  0
   12.0780   23.2630   77.5900 O   0  0  0  0  0
    9.1690   23.8520   76.5790 C   0  0  0  0  0
    8.2850   24.5840   75.5820 C   0  0  0  0  0
    7.4780   23.5920   74.7510 C   0  0  0  0  0
    6.6390   24.2960   73.7090 C   0  0  0  0  0
    5.7560   23.3380   73.0030 N   0  3  0  0  0
   10.8670   23.7570   79.4290 N   0  0  0  0  0
   11.7040   22.9840   80.3360 C   0  0  0  0  0
   10.8160   22.2220   81.3070 C   0  0  0  0  0
    9.8300   22.7670   81.8110 O   0  0  0  0  0
   12.6780   23.8900   81.1160 C   0  0  0  0  0
   13.5520   24.7770   80.2300 C   0  0  0  0  0
   14.5610   25.5940   81.0260 C   0  0  0  0  0
   15.3580   26.5160   80.1060 C   0  0  0  0  0
   16.4000   27.3020   80.8240 N   0  3  0  0  0
   11.1730   20.9650   81.5720 N   0  0  0  0  0
   10.4600   20.1410   82.5420 C   0  0  0  0  0
   11.4530   19.3020   83.3320 C   0  0  0  0  0
   12.2570   18.5730   82.7450 O   0  0  0  0  0
    9.4470   19.2210   81.8560 C   0  0  0  0  0
    8.5270   20.0050   81.0880 O   0  0  0  0  0
    8.6880   18.4100   82.8960 C   0  0  0  0  0
   11.4070   19.4130   84.6600 N   0  0  0  0  0
   12.2160   18.5430   85.5040 C   0  0  0  0  0
   11.6290   17.1360   85.5090 C   0  0  0  0  0
   10.4260   16.9570   85.7250 O   0  0  0  0  0
   12.2860   19.0980   86.9310 C   0  0  0  0  0
   13.1520   18.2740   87.8710 C   0  0  0  0  0
   13.0500   18.7720   89.3220 C   0  0  0  0  0
   13.5410   20.2010   89.4720 C   0  0  0  0  0
   13.3990   20.6550   90.8920 N   0  3  0  0  0
   12.4750   16.1380   85.2580 N   0  0  0  0  0
   12.0320   14.7430   85.2020 C   0  0  0  0  0
   12.7950   13.8380   86.1720 C   0  0  0  0  0
   12.2980   12.7620   86.5190 O   0  0  0  0  0
   12.1760   14.1910   83.7830 C   0  0  0  0  0
   11.2210   14.8090   82.7650 C   0  0  0  0  0
   11.5020   14.2960   81.3710 C   0  0  0  0  0
    9.7980   14.4960   83.1600 C   0  0  0  0  0
   13.9090   14.1360   86.6290 O   0  0  0  0  0
   13.6228   33.2520   69.9411 H   0  0  0  0  0
   12.1801   32.8843   70.6896 H   0  0  0  0  0
   13.3727   33.6901   71.5293 H   0  0  0  0  0
   14.8139   31.8194   71.4071 H   0  0  0  0  0
   13.5277   30.9505   70.5016 H   0  0  0  0  0
   11.4082   30.7384   71.6049 H   0  0  0  0  0
   11.4231   30.9673   74.5460 H   0  0  0  0  0
    9.3300   29.7521   72.7587 H   0  0  0  0  0
    9.4513   31.5276   73.1896 H   0  0  0  0  0
    8.9785   29.2330   75.1040 H   0  0  0  0  0
    9.0964   30.9597   75.5230 H   0  0  0  0  0
    7.7469   30.3776   74.5176 H   0  0  0  0  0
   12.0350   29.4107   75.8829 H   0  0  0  0  0
   12.4707   26.6824   74.7496 H   0  0  0  0  0
   13.7369   27.9759   77.1814 H   0  0  0  0  0
   15.6010   27.9788   75.7669 H   0  0  0  0  0
   13.5630   25.5290   77.3603 H   0  0  0  0  0
   14.3155   25.3514   75.7562 H   0  0  0  0  0
   15.2539   26.0283   77.1098 H   0  0  0  0  0
   11.2309   25.0741   75.4649 H   0  0  0  0  0
    9.6573   25.4104   77.9575 H   0  0  0  0  0
    8.5071   23.4468   77.3444 H   0  0  0  0  0
    9.7328   23.1116   76.0115 H   0  0  0  0  0
    8.9160   25.1720   74.9156 H   0  0  0  0  0
    7.5970   25.2298   76.1276 H   0  0  0  0  0
    6.8123   23.0440   75.4178 H   0  0  0  0  0
    8.1719   22.9234   74.2416 H   0  0  0  0  0
    7.3034   24.7614   72.9809 H   0  0  0  0  0
    6.0192   25.0429   74.2051 H   0  0  0  0  0
    5.2021   23.8373   72.3071 H   0  0  0  0  0
    6.3258   22.6292   72.5410 H   0  0  0  0  0
    5.1345   22.8903   73.6766 H   0  0  0  0  0
   10.0548   24.2477   79.8030 H   0  0  0  0  0
   12.2995   22.2867   79.7467 H   0  0  0  0  0
   13.3464   23.2368   81.6770 H   0  0  0  0  0
   12.0748   24.5510   81.7383 H   0  0  0  0  0
   12.8976   25.4735   79.7057 H   0  0  0  0  0
   14.1075   24.1284   79.5526 H   0  0  0  0  0
   15.2506   24.9125   81.5240 H   0  0  0  0  0
   14.0246   26.2021   81.7544 H   0  0  0  0  0
   14.6587   27.2235   79.6604 H   0  0  0  0  0
   15.8638   25.8916   79.3695 H   0  0  0  0  0
   16.8953   27.8954   80.1585 H   0  0  0  0  0
   15.9560   27.8833   81.5349 H   0  0  0  0  0
   17.0597   26.6635   81.2685 H   0  0  0  0  0
   11.9721   20.5658   81.0796 H   0  0  0  0  0
    9.9172   20.8060   83.2138 H   0  0  0  0  0
    9.9795   18.5374   81.1948 H   0  0  0  0  0
    7.8936   19.4246   80.6596 H   0  0  0  0  0
    9.3918   17.8048   83.4674 H   0  0  0  0  0
    8.1597   19.0866   83.5678 H   0  0  0  0  0
    7.9707   17.7598   82.3952 H   0  0  0  0  0
   10.8007   20.1124   85.0885 H   0  0  0  0  0
   13.2284   18.5020   85.1021 H   0  0  0  0  0
   11.2726   19.0890   87.3323 H   0  0  0  0  0
   12.7284   20.0923   86.8707 H   0  0  0  0  0
   14.1896   18.3639   87.5493 H   0  0  0  0  0
   12.8075   17.2404   87.8378 H   0  0  0  0  0
   13.6734   18.1313   89.9457 H   0  0  0  0  0
   12.0018   18.7399   89.6193 H   0  0  0  0  0
   12.9455   20.8504   88.8303 H   0  0  0  0  0
   14.5923   20.2470   89.1879 H   0  0  0  0  0
   13.7327   21.6152   90.9757 H   0  0  0  0  0
   12.4174   20.6098   91.1656 H   0  0  0  0  0
   13.9505   20.0481   91.4985 H   0  0  0  0  0
   13.4598   16.3515   85.1002 H   0  0  0  0  0
   10.9839   14.7429   85.5015 H   0  0  0  0  0
   11.9479   13.1262   83.8297 H   0  0  0  0  0
   13.1887   14.4211   83.4519 H   0  0  0  0  0
   11.3698   15.8888   82.7577 H   0  0  0  0  0
   12.5238   14.5516   81.0903 H   0  0  0  0  0
   11.3787   13.2132   81.3520 H   0  0  0  0  0
   10.8055   14.7547   80.6692 H   0  0  0  0  0
    9.6579   13.4153   83.1828 H   0  0  0  0  0
    9.5969   14.9106   84.1478 H   0  0  0  0  0
    9.1153   14.9369   82.4336 H   0  0  0  0  0
   14.1778   14.9900   86.2824 H   0  0  0  0  0
  1  2  1  0  0  0
  2  3  1  0  0  0
  3  4  2  0  0  0
  3  5  1  0  0  0
  5  6  1  0  0  0
  6  7  1  0  0  0
  6  9  1  0  0  0
  7  8  2  0  0  0
  7 11  1  0  0  0
  9 10  1  0  0  0
 11 12  1  0  0  0
 12 13  1  0  0  0
 12 15  1  0  0  0
 13 14  2  0  0  0
 13 18  1  0  0  0
 15 16  1  0  0  0
 15 17  1  0  0  0
 18 19  1  0  0  0
 19 20  1  0  0  0
 19 22  1  0  0  0
 20 21  2  0  0  0
 20 27  1  0  0  0
 22 23  1  0  0  0
 23 24  1  0  0  0
 24 25  1  0  0  0
 25 26  1  0  0  0
 27 28  1  0  0  0
 28 29  1  0  0  0
 28 31  1  0  0  0
 29 30  2  0  0  0
 29 36  1  0  0  0
 31 32  1  0  0  0
 32 33  1  0  0  0
 33 34  1  0  0  0
 34 35  1  0  0  0
 36 37  1  0  0  0
 37 38  1  0  0  0
 37 40  1  0  0  0
 38 39  2  0  0  0
 38 43  1  0  0  0
 40 41  1  0  0  0
 40 42  1  0  0  0
 43 44  1  0  0  0
 44 45  1  0  0  0
 44 47  1  0  0  0
 45 46  2  0  0  0
 45 52  1  0  0  0
 47 48  1  0  0  0
 48 49  1  0  0  0
 49 50  1  0  0  0
 50 51  1  0  0  0
 52 53  1  0  0  0
 53 54  1  0  0  0
 53 56  1  0  0  0
 54 55  2  0  0  0
 54 60  1  0  0  0
 56 57  1  0  0  0
 57 58  1  0  0  0
 57 59  1  0  0  0
  1 61  1  0  0  0
  1 62  1  0  0  0
  1 63  1  0  0  0
  2 64  1  0  0  0
  2 65  1  0  0  0
  5 66  1  0  0  0
  6 67  1  0  0  0
  9 68  1  0  0  0
  9 69  1  0  0  0
 10 70  1  0  0  0
 10 71  1  0  0  0
 10 72  1  0  0  0
 11 73  1  0  0  0
 12 74  1  0  0  0
 15 75  1  0  0  0
 16 76  1  0  0  0
 17 77  1  0  0  0
 17 78  1  0  0  0
 17 79  1  0  0  0
 18 80  1  0  0  0
 19 81  1  0  0  0
 22 82  1  0  0  0
 22 83  1  0  0  0
 23 84  1  0  0  0
 23 85  1  0  0  0
 24 86  1  0  0  0
 24 87  1  0  0  0
 25 88  1  0  0  0
 25 89  1  0  0  0
 26 90  1  0  0  0
 26 91  1  0  0  0
 26 92  1  0  0  0
 27 93  1  0  0  0
 28 94  1  0  0  0
 31 95  1  0  0  0
 31 96  1  0  0  0
 32 97  1  0  0  0
 32 98  1  0  0  0
 33 99  1  0  0  0
 33100  1  0  0  0
 34101  1  0  0  0
 34102  1  0  0  0
 35103  1  0  0  0
 35104  1  0  0  0
 35105  1  0  0  0
 36106  1  0  0  0
 37107  1  0  0  0
 40108  1  0  0  0
 41109  1  0  0  0
 42110  1  0  0  0
 42111  1  0  0  0
 42112  1  0  0  0
 43113  1  0  0  0
 44114  1  0  0  0
 47115  1  0  0  0
 47116  1  0  0  0
 48117  1  0  0  0
 48118  1  0  0  0
 49119  1  0  0  0
 49120  1  0  0  0
 50121  1  0  0  0
 50122  1  0  0  0
 51123  1  0  0  0
 51124  1  0  0  0
 51125  1  0  0  0
 52126  1  0  0  0
 53127  1  0  0  0
 56128  1  0  0  0
 56129  1  0  0  0
 57130  1  0  0  0
 58131  1  0  0  0
 58132  1  0  0  0
 58133  1  0  0  0
 59134  1  0  0  0
 59135  1  0  0  0
 59136  1  0  0  0
 60137  1  0  0  0
M  END
$$$$
