4r5n_ligand
  -I-interpret- 

 47 51  0  0  0  0  0  0  0  0999 V2000
   27.9230   14.6570    9.3270 C   0  0  0  0  0
   27.0990   15.7800    9.6160 C   0  0  0  0  0
   25.6990   15.6870    9.3920 C   0  0  0  0  0
   25.1090   14.4900    8.9140 C   0  0  0  0  0
   25.9360   13.3700    8.6350 C   0  0  0  0  0
   27.3370   13.4570    8.8440 C   0  0  0  0  0
   27.6460   17.0180   10.0540 C   0  0  0  0  0
   25.4060   12.1840    8.1680 O   0  0  0  0  0
   24.1330   12.2020    7.5060 C   0  0  0  0  0
   23.1380   12.9930    8.3920 C   0  0  0  0  0
   23.5930   14.4400    8.6780 C   0  0  0  0  0
   23.1780   15.4890    7.6180 C   0  0  0  0  0
   22.2940   16.3950    8.2940 O   0  0  0  0  0
   22.1490   15.9730    9.5770 C   0  0  0  0  0
   22.8280   14.8560    9.8340 N   0  0  0  0  0
   21.1990   16.5620   10.3070 N   0  0  0  0  0
   21.8090   12.9390    7.8610 O   0  0  0  0  0
   21.2450   11.6200    7.7820 C   0  0  0  0  0
   22.1530   10.6890    6.9240 C   0  0  0  0  0
   23.6410   10.7450    7.3740 C   0  0  0  0  0
   24.3100   12.8570    6.1130 C   0  0  0  0  0
   27.2210   17.7180   11.2140 C   0  0  0  0  0
   27.7220   18.9150   11.6010 N   0  0  0  0  0
   28.6860   19.4900   10.8490 C   0  0  0  0  0
   29.1770   18.8830    9.6650 C   0  0  0  0  0
   28.6420   17.6360    9.2510 C   0  0  0  0  0
   26.2810   17.1960   12.0080 F   0  0  0  0  0
   29.0011   14.7174    9.4759 H   0  0  0  0  0
   25.0668   16.5523    9.5914 H   0  0  0  0  0
   27.9691   12.5947    8.6318 H   0  0  0  0  0
   23.1265   12.4948    9.3614 H   0  0  0  0  0
   22.6895   15.0196    6.7641 H   0  0  0  0  0
   24.0458   16.0088    7.2120 H   0  0  0  0  0
   22.8110   14.3606   10.7255 H   0  0  0  0  0
   20.6205   17.2946    9.8958 H   0  0  0  0  0
   20.2615   11.6826    7.3163 H   0  0  0  0  0
   21.1654   11.2080    8.7880 H   0  0  0  0  0
   22.0987   11.0226    5.8877 H   0  0  0  0  0
   21.7999    9.6649    7.0447 H   0  0  0  0  0
   23.7277   10.2602    8.3464 H   0  0  0  0  0
   24.2495   10.2401    6.6237 H   0  0  0  0  0
   24.6796   13.8750    6.2359 H   0  0  0  0  0
   25.0248   12.2776    5.5287 H   0  0  0  0  0
   23.3496   12.8775    5.5979 H   0  0  0  0  0
   29.0987   20.4492   11.1617 H   0  0  0  0  0
   29.9571   19.3694    9.0794 H   0  0  0  0  0
   28.9888   17.1606    8.3335 H   0  0  0  0  0
  1  2  4  0  0  0
  1  6  4  0  0  0
  2  3  4  0  0  0
  2  7  1  0  0  0
  3  4  4  0  0  0
  4  5  4  0  0  0
  4 11  1  0  0  0
  5  6  4  0  0  0
  5  8  1  0  0  0
  7 22  4  0  0  0
  7 26  4  0  0  0
  8  9  1  0  0  0
  9 10  1  0  0  0
  9 20  1  0  0  0
  9 21  1  0  0  0
 10 11  1  0  0  0
 10 17  1  0  0  0
 11 12  1  0  0  0
 11 15  1  0  0  0
 12 13  1  0  0  0
 13 14  1  0  0  0
 14 15  1  0  0  0
 14 16  2  0  0  0
 17 18  1  0  0  0
 18 19  1  0  0  0
 19 20  1  0  0  0
 22 23  4  0  0  0
 22 27  1  0  0  0
 23 24  4  0  0  0
 24 25  4  0  0  0
 25 26  4  0  0  0
  1 28  1  0  0  0
  3 29  1  0  0  0
  6 30  1  0  0  0
 10 31  1  0  0  0
 12 32  1  0  0  0
 12 33  1  0  0  0
 15 34  1  0  0  0
 16 35  1  0  0  0
 18 36  1  0  0  0
 18 37  1  0  0  0
 19 38  1  0  0  0
 19 39  1  0  0  0
 20 40  1  0  0  0
 20 41  1  0  0  0
 21 42  1  0  0  0
 21 43  1  0  0  0
 21 44  1  0  0  0
 24 45  1  0  0  0
 25 46  1  0  0  0
 26 47  1  0  0  0
M  END
$$$$
