4j5p_ligand
  -I-interpret- 

 52 54  0  0  0  0  0  0  0  0999 V2000
   50.8450  -14.4360  -35.3000 C   0  0  0  0  0
   50.3670  -13.1140  -35.3780 C   0  0  0  0  0
   51.1890  -12.1180  -34.8390 C   0  0  0  0  0
   50.8780  -10.6710  -34.9210 C   0  0  0  0  0
   52.4290  -12.4410  -34.2130 C   0  0  0  0  0
   52.8790  -13.7010  -34.1430 N   0  0  0  0  0
   52.0800  -14.6840  -34.6580 C   0  0  0  0  0
   52.5930  -16.0140  -34.5780 C   0  0  0  0  0
   51.9340  -17.0900  -35.0280 O   0  0  0  0  0
   53.8500  -16.3450  -34.1270 C   0  0  0  0  0
   53.9510  -17.7100  -34.2650 N   0  0  0  0  0
   52.8050  -18.1340  -34.8070 C   0  0  0  0  0
   52.4560  -19.5640  -35.1400 C   0  0  0  0  0
   52.7370  -20.4150  -34.0260 O   0  0  0  0  0
   50.9280  -19.5740  -35.5090 C   0  0  0  0  0
   50.4190  -21.0080  -35.8660 C   0  0  0  0  0
   48.9230  -20.8690  -36.2230 C   0  0  0  0  0
   48.0940  -20.8860  -34.9470 C   0  0  0  0  0
   46.6450  -20.9880  -35.4310 C   0  0  0  0  0
   45.8550  -21.3790  -34.1740 C   0  0  0  0  0
   44.4500  -21.0940  -34.2200 C   0  0  0  0  0
   43.7170  -20.7470  -35.3680 C   0  0  0  0  0
   42.3510  -20.4460  -35.2720 C   0  0  0  0  0
   41.6820  -20.4760  -34.0450 C   0  0  0  0  0
   42.3980  -20.8290  -32.9000 C   0  0  0  0  0
   43.7570  -21.1450  -32.9950 C   0  0  0  0  0
   50.2707  -15.2572  -35.7288 H   0  0  0  0  0
   49.4058  -12.8784  -35.8349 H   0  0  0  0  0
   50.8123  -10.3735  -35.9676 H   0  0  0  0  0
   49.9264  -10.4766  -34.4262 H   0  0  0  0  0
   51.6674  -10.1026  -34.4293 H   0  0  0  0  0
   53.0276  -11.6400  -33.7792 H   0  0  0  0  0
   54.6094  -15.6656  -33.7400 H   0  0  0  0  0
   53.0489  -19.9409  -35.9734 H   0  0  0  0  0
   52.5107  -21.3203  -34.2513 H   0  0  0  0  0
   50.7844  -18.9354  -36.3806 H   0  0  0  0  0
   50.3670  -19.2195  -34.6443 H   0  0  0  0  0
   50.5573  -21.6902  -35.0272 H   0  0  0  0  0
   50.9817  -21.4240  -36.7018 H   0  0  0  0  0
   48.6232  -21.6992  -36.8625 H   0  0  0  0  0
   48.7607  -19.9285  -36.7495 H   0  0  0  0  0
   48.2600  -19.9956  -34.3406 H   0  0  0  0  0
   48.3658  -21.7160  -34.2948 H   0  0  0  0  0
   46.5295  -21.7172  -36.2329 H   0  0  0  0  0
   46.2899  -20.0538  -35.8661 H   0  0  0  0  0
   46.2658  -20.7926  -33.3521 H   0  0  0  0  0
   45.9511  -22.4596  -34.0685 H   0  0  0  0  0
   44.2131  -20.7117  -36.3379 H   0  0  0  0  0
   41.7985  -20.1828  -36.1740 H   0  0  0  0  0
   40.6222  -20.2286  -33.9836 H   0  0  0  0  0
   41.8980  -20.8584  -31.9319 H   0  0  0  0  0
   44.2958  -21.4395  -32.0944 H   0  0  0  0  0
  1  2  4  0  0  0
  1  7  4  0  0  0
  2  3  4  0  0  0
  3  4  1  0  0  0
  3  5  4  0  0  0
  5  6  4  0  0  0
  6  7  4  0  0  0
  7  8  1  0  0  0
  8  9  4  0  0  0
  8 10  4  0  0  0
  9 12  4  0  0  0
 10 11  4  0  0  0
 11 12  4  0  0  0
 12 13  1  0  0  0
 13 14  1  0  0  0
 13 15  1  0  0  0
 15 16  1  0  0  0
 16 17  1  0  0  0
 17 18  1  0  0  0
 18 19  1  0  0  0
 19 20  1  0  0  0
 20 21  1  0  0  0
 21 22  4  0  0  0
 21 26  4  0  0  0
 22 23  4  0  0  0
 23 24  4  0  0  0
 24 25  4  0  0  0
 25 26  4  0  0  0
  1 27  1  0  0  0
  2 28  1  0  0  0
  4 29  1  0  0  0
  4 30  1  0  0  0
  4 31  1  0  0  0
  5 32  1  0  0  0
 10 33  1  0  0  0
 13 34  1  0  0  0
 14 35  1  0  0  0
 15 36  1  0  0  0
 15 37  1  0  0  0
 16 38  1  0  0  0
 16 39  1  0  0  0
 17 40  1  0  0  0
 17 41  1  0  0  0
 18 42  1  0  0  0
 18 43  1  0  0  0
 19 44  1  0  0  0
 19 45  1  0  0  0
 20 46  1  0  0  0
 20 47  1  0  0  0
 22 48  1  0  0  0
 23 49  1  0  0  0
 24 50  1  0  0  0
 25 51  1  0  0  0
 26 52  1  0  0  0
M  END
$$$$
