6a1c_ligand
  -I-interpret- 

 40 42  0  0  0  0  0  0  0  0999 V2000
    0.4970    7.4930   22.1530 C   0  0  0  0  0
    0.5620    6.9860   23.4360 C   0  0  0  0  0
    0.2430    7.8730   24.4240 C   0  0  0  0  0
   -0.1580    9.2080   24.2230 C   0  0  0  0  0
   -0.2420    9.6520   22.9090 C   0  0  0  0  0
    0.0960    8.8050   21.8600 C   0  0  0  0  0
   -0.5550   10.5110   20.2180 C   0  0  0  0  0
   -0.5250   10.1810   25.2790 C   0  0  0  0  0
   -0.4280   12.1550   27.2960 C   0  0  0  0  0
    0.3690    7.1670   26.0890 Br  0  0  0  0  0
   -0.0030    9.2370   20.5540 O   0  0  0  0  0
    0.8370    6.6740   21.2380 O   0  0  0  0  0
   -0.5060   11.4200   25.0330 N   0  0  0  0  0
   -0.5980   12.3770   25.9760 N   0  0  0  0  0
   -0.8840   13.7160   25.7840 C   0  0  0  0  0
   -0.8600   14.2680   27.0570 N   0  0  0  0  0
   -0.5720   13.2750   28.0320 N   0  0  0  0  0
   -0.0580   10.6110   28.0400 S   0  0  0  0  0
   -0.4930   10.6850   29.7680 C   0  0  0  0  0
   -1.2150   14.5350   24.5470 C   0  0  0  0  0
   -1.5280   13.9600   23.2910 C   0  0  0  0  0
   -1.8580   14.7480   22.1570 C   0  0  0  0  0
   -1.8990   16.1300   22.3000 C   0  0  0  0  0
   -1.6180   16.7160   23.5360 C   0  0  0  0  0
   -1.2990   15.9320   24.6580 C   0  0  0  0  0
    0.8467    5.9547   23.6444 H   0  0  0  0  0
   -0.5744   10.6688   22.7000 H   0  0  0  0  0
    0.9820    9.1898   21.3551 H   0  0  0  0  0
   -1.5848   10.5640   20.5714 H   0  0  0  0  0
    0.0338   11.2969   20.6911 H   0  0  0  0  0
   -0.5337   10.6408   19.1360 H   0  0  0  0  0
   -0.8117    9.8271   26.2693 H   0  0  0  0  0
    0.0805   11.4754   30.2522 H   0  0  0  0  0
   -1.5580   10.8959   29.8645 H   0  0  0  0  0
   -0.2664    9.7288   30.2397 H   0  0  0  0  0
   -1.5151   12.8746   23.1915 H   0  0  0  0  0
   -2.0742   14.2801   21.1966 H   0  0  0  0  0
   -2.1511   16.7578   21.4454 H   0  0  0  0  0
   -1.6466   17.8014   23.6324 H   0  0  0  0  0
   -1.1158   16.4113   25.6197 H   0  0  0  0  0
  2  1  1  0  0  0
  6  1  1  0  0  0
  1 12  2  0  0  0
  3  2  2  0  0  0
  4  3  1  0  0  0
  3 10  1  0  0  0
  4  5  2  0  0  0
  8  4  1  0  0  0
  5  6  1  0  0  0
  6 11  1  0  0  0
 11  7  1  0  0  0
 13  8  2  0  0  0
 14  9  4  0  0  0
  9 17  4  0  0  0
  9 18  1  0  0  0
 13 14  1  0  0  0
 14 15  4  0  0  0
 15 16  4  0  0  0
 15 20  1  0  0  0
 16 17  4  0  0  0
 18 19  1  0  0  0
 20 21  4  0  0  0
 20 25  4  0  0  0
 21 22  4  0  0  0
 22 23  4  0  0  0
 23 24  4  0  0  0
 24 25  4  0  0  0
  2 26  1  0  0  0
  5 27  1  0  0  0
  6 28  1  0  0  0
  7 29  1  0  0  0
  7 30  1  0  0  0
  7 31  1  0  0  0
  8 32  1  0  0  0
 19 33  1  0  0  0
 19 34  1  0  0  0
 19 35  1  0  0  0
 21 36  1  0  0  0
 22 37  1  0  0  0
 23 38  1  0  0  0
 24 39  1  0  0  0
 25 40  1  0  0  0
M  END
$$$$
