4m3f_ligand
  -I-interpret- 

 41 42  0  0  0  0  0  0  0  0999 V2000
   13.5890   27.7130    0.6320 O   0  0  0  0  0
   13.6700   27.8210    2.0630 S   0  0  0  0  0
   14.3270   26.6130    2.4110 O   0  0  0  0  0
   14.2860   29.2480    2.5060 N   0  0  0  0  0
   15.4450   29.5030    3.3180 C   0  0  0  0  0
   16.6940   29.7100    2.4380 C   0  0  0  0  0
   16.6280   30.7760    1.3670 C   0  0  0  0  0
   17.8800   31.6200    1.4200 C   0  0  0  0  0
   16.7140   30.1260    0.0190 C   0  0  0  0  0
   12.1250   27.6730    2.6900 C   0  0  0  0  0
   11.8880   27.8210    4.0590 C   0  0  0  0  0
   10.6090   27.6420    4.6750 C   0  0  0  0  0
    9.5350   27.3150    3.8270 C   0  0  0  0  0
    9.7370   27.1880    2.4740 C   0  0  0  0  0
   11.0110   27.3470    1.8860 C   0  0  0  0  0
    8.2510   27.1010    4.3460 C   0  0  0  0  0
    7.2260   26.7800    3.5110 N   0  0  0  0  0
    6.0300   26.6310    4.1380 C   0  0  0  0  0
    4.6790   26.2850    3.5300 C   0  0  0  0  0
    6.2630   26.7960    5.8350 S   0  0  0  0  0
    7.8960   27.1640    5.7180 C   0  0  0  0  0
   13.7898   30.0720    2.1666 H   0  0  0  0  0
   15.6126   28.6464    3.9708 H   0  0  0  0  0
   15.2730   30.4066    3.9028 H   0  0  0  0  0
   16.8361   28.7693    1.9060 H   0  0  0  0  0
   17.4825   30.0288    3.1197 H   0  0  0  0  0
   15.7124   31.3470    1.5207 H   0  0  0  0  0
   18.7545   30.9771    1.3201 H   0  0  0  0  0
   17.8640   32.3431    0.6046 H   0  0  0  0  0
   17.9216   32.1465    2.3735 H   0  0  0  0  0
   16.7337   30.8950   -0.7532 H   0  0  0  0  0
   17.6242   29.5290   -0.0377 H   0  0  0  0  0
   15.8464   29.4829   -0.1289 H   0  0  0  0  0
   12.7297   28.0895    4.6974 H   0  0  0  0  0
   10.4731   27.7537    5.7507 H   0  0  0  0  0
    8.8859   26.9569    1.8334 H   0  0  0  0  0
   11.1345   27.2180    0.8107 H   0  0  0  0  0
    4.4035   27.0480    2.8020 H   0  0  0  0  0
    4.7420   25.3155    3.0359 H   0  0  0  0  0
    3.9270   26.2445    4.3180 H   0  0  0  0  0
    8.5625   27.4072    6.5455 H   0  0  0  0  0
  1  2  2  0  0  0
  2  3  2  0  0  0
  2  4  1  0  0  0
  2 10  1  0  0  0
  4  5  1  0  0  0
  5  6  1  0  0  0
  6  7  1  0  0  0
  7  8  1  0  0  0
  7  9  1  0  0  0
 10 11  4  0  0  0
 10 15  4  0  0  0
 11 12  4  0  0  0
 12 13  4  0  0  0
 13 14  4  0  0  0
 13 16  1  0  0  0
 14 15  4  0  0  0
 16 17  4  0  0  0
 16 21  4  0  0  0
 17 18  4  0  0  0
 18 19  1  0  0  0
 18 20  4  0  0  0
 20 21  4  0  0  0
  4 22  1  0  0  0
  5 23  1  0  0  0
  5 24  1  0  0  0
  6 25  1  0  0  0
  6 26  1  0  0  0
  7 27  1  0  0  0
  8 28  1  0  0  0
  8 29  1  0  0  0
  8 30  1  0  0  0
  9 31  1  0  0  0
  9 32  1  0  0  0
  9 33  1  0  0  0
 11 34  1  0  0  0
 12 35  1  0  0  0
 14 36  1  0  0  0
 15 37  1  0  0  0
 19 38  1  0  0  0
 19 39  1  0  0  0
 19 40  1  0  0  0
 21 41  1  0  0  0
M  END
$$$$
