6mmc_ligand
  -I-interpret- 

 42 44  0  0  0  0  0  0  0  0999 V2000
   16.7750   33.7410  -12.3800 P   0  0  0  0  0
   17.0420   32.7500  -13.4880 O   0  0  0  0  0
   17.8820   34.7250  -12.2000 O   0  0  0  0  0
   15.4220   34.4270  -12.4660 O   0  0  0  0  0
   16.1730   32.7960   -9.6180 P   0  0  0  0  0
   15.7290   31.4030   -9.3540 O   0  0  0  0  0
   17.0670   33.4740   -8.6200 O   0  0  0  0  0
   16.9070   32.8110  -11.0620 O   0  0  0  0  0
   14.8850   33.7280   -9.7940 O   0  0  0  0  0
   13.8010   33.2540  -10.5740 C   0  0  0  0  0
   12.7780   34.3570  -10.7060 C   0  0  0  0  0
   12.2280   34.6320   -9.3940 O   0  0  0  0  0
   13.3000   35.6750  -11.2600 C   0  0  0  0  0
   13.2910   35.6730  -12.6840 O   0  0  0  0  0
   12.3400   36.6720  -10.6550 C   0  0  0  0  0
   11.1150   36.6710  -11.3830 O   0  0  0  0  0
   12.0010   36.0430   -9.3000 C   0  0  0  0  0
   12.8240   36.5850   -8.2020 N   0  0  0  0  0
   14.0430   36.1840   -7.8030 C   0  0  0  0  0
   14.4700   36.9370   -6.7630 N   0  0  0  0  0
   13.4970   37.8260   -6.5020 C   0  0  0  0  0
   13.3050   38.8970   -5.5240 C   0  0  0  0  0
   14.2660   39.1760   -4.6070 N   0  0  0  0  0
   12.1550   39.5820   -5.5890 N   0  0  0  0  0
   11.1890   39.3190   -6.4870 C   0  0  0  0  0
   11.2970   38.3510   -7.4130 N   0  0  0  0  0
   12.4140   37.5960   -7.4500 C   0  0  0  0  0
   16.3009   32.1439  -13.5591 H   0  0  0  0  0
   14.7359   33.7655  -12.5812 H   0  0  0  0  0
   17.2684   34.3621   -8.9239 H   0  0  0  0  0
   13.3496   32.3872  -10.0913 H   0  0  0  0  0
   14.1570   32.9601  -11.5614 H   0  0  0  0  0
   12.0466   33.9856  -11.4238 H   0  0  0  0  0
   14.3386   35.8936  -11.0117 H   0  0  0  0  0
   13.6242   36.5137  -13.0062 H   0  0  0  0  0
   12.7583   37.6782  -10.6298 H   0  0  0  0  0
   10.5113   37.3068  -10.9921 H   0  0  0  0  0
   10.9603   36.2730   -9.0714 H   0  0  0  0  0
   14.6078   35.3677   -8.2534 H   0  0  0  0  0
   15.1318   38.6369   -4.5955 H   0  0  0  0  0
   14.1224   39.9248   -3.9294 H   0  0  0  0  0
   10.2783   39.9174   -6.4627 H   0  0  0  0  0
  1  2  1  0  0  0
  1  3  2  0  0  0
  1  4  1  0  0  0
  8  1  1  0  0  0
  5  6  2  0  0  0
  5  7  1  0  0  0
  5  8  1  0  0  0
  5  9  1  0  0  0
  9 10  1  0  0  0
 10 11  1  0  0  0
 11 12  1  0  0  0
 11 13  1  0  0  0
 12 17  1  0  0  0
 13 14  1  0  0  0
 13 15  1  0  0  0
 15 16  1  0  0  0
 15 17  1  0  0  0
 17 18  1  0  0  0
 18 19  4  0  0  0
 18 27  4  0  0  0
 19 20  4  0  0  0
 20 21  4  0  0  0
 21 22  4  0  0  0
 21 27  4  0  0  0
 22 23  1  0  0  0
 22 24  4  0  0  0
 24 25  4  0  0  0
 25 26  4  0  0  0
 26 27  4  0  0  0
  2 28  1  0  0  0
  4 29  1  0  0  0
  7 30  1  0  0  0
 10 31  1  0  0  0
 10 32  1  0  0  0
 11 33  1  0  0  0
 13 34  1  0  0  0
 14 35  1  0  0  0
 15 36  1  0  0  0
 16 37  1  0  0  0
 17 38  1  0  0  0
 19 39  1  0  0  0
 23 40  1  0  0  0
 23 41  1  0  0  0
 25 42  1  0  0  0
M  END
$$$$
