### 
### Created by X-TOOL on Mon Aug  2 16:14:57 2021
### 

@<TRIPOS>MOLECULE
6mmc_ligand
   39    41     1     0     0
SMALL
GAST_HUCK


@<TRIPOS>ATOM
      1 PB         16.7750   33.7410  -12.3800 P.3       1 ADP         0.2069
      2 O1B        17.0420   32.7500  -13.4880 O.co2     1 ADP        -0.5891
      3 O2B        17.8820   34.7250  -12.2000 O.co2     1 ADP        -0.5891
      4 O3B        15.4220   34.4270  -12.4660 O.co2     1 ADP        -0.5891
      5 PA         16.1730   32.7960   -9.6180 P.3       1 ADP         0.3276
      6 O1A        15.7290   31.4030   -9.3540 O.co2     1 ADP        -0.5556
      7 O2A        17.0670   33.4740   -8.6200 O.co2     1 ADP        -0.5556
      8 O3A        16.9070   32.8110  -11.0620 O.3       1 ADP        -0.1548
      9 O5'        14.8850   33.7280   -9.7940 O.3       1 ADP        -0.2436
     10 C5'        13.8010   33.2540  -10.5740 C.3       1 ADP         0.1132
     11 C4'        12.7780   34.3570  -10.7060 C.3       1 ADP         0.1189
     12 O4'        12.2280   34.6320   -9.3940 O.3       1 ADP        -0.3364
     13 C3'        13.3000   35.6750  -11.2600 C.3       1 ADP         0.1149
     14 O3'        13.2910   35.6730  -12.6840 O.3       1 ADP        -0.3864
     15 C2'        12.3400   36.6720  -10.6550 C.3       1 ADP         0.1385
     16 O2'        11.1150   36.6710  -11.3830 O.3       1 ADP        -0.3836
     17 C1'        12.0010   36.0430   -9.3000 C.3       1 ADP         0.2010
     18 N9         12.8240   36.5850   -8.2020 N.pl3     1 ADP        -0.1919
     19 C8         14.0430   36.1840   -7.8030 C.2       1 ADP         0.1123
     20 N7         14.4700   36.9370   -6.7630 N.2       1 ADP        -0.2958
     21 C5         13.4970   37.8260   -6.5020 C.ar      1 ADP         0.1045
     22 C6         13.3050   38.8970   -5.5240 C.ar      1 ADP         0.1298
     23 N6         14.2660   39.1760   -4.6070 N.pl3     1 ADP        -0.3152
     24 N1         12.1550   39.5820   -5.5890 N.ar      1 ADP        -0.2698
     25 C2         11.1890   39.3190   -6.4870 C.ar      1 ADP         0.0533
     26 N3         11.2970   38.3510   -7.4130 N.ar      1 ADP        -0.2714
     27 C4         12.4140   37.5960   -7.4500 C.ar      1 ADP         0.1613
     28 H1         13.3441   32.3830  -10.0815 H         1 ADP         0.0648
     29 H2         14.1623   32.9636  -11.5715 H         1 ADP         0.0648
     30 H3         11.9795   33.9986  -11.3722 H         1 ADP         0.0651
     31 H4         14.3258   35.8691  -10.9136 H         1 ADP         0.0648
     32 H5         13.8440   34.9691  -13.0021 H         1 ADP         0.2100
     33 H6         12.7734   37.6799  -10.5755 H         1 ADP         0.0676
     34 H7         10.5175   37.3002  -10.9962 H         1 ADP         0.2101
     35 H8         10.9413   36.2329   -9.0745 H         1 ADP         0.0996
     36 H9         14.6073   35.3685   -8.2530 H         1 ADP         0.1349
     37 H10        14.1210   39.9321   -3.9228 H         1 ADP         0.1820
     38 H11        15.1403   38.6316   -4.5954 H         1 ADP         0.1820
     39 H12        10.2833   39.9141   -6.4628 H         1 ADP         0.0996
@<TRIPOS>BOND
     1    1    2 ar 
     2    1    3 ar 
     3    1    4 ar 
     4    8    1 1  
     5    5    6 ar 
     6    5    7 ar 
     7    5    8 1  
     8    5    9 1  
     9    9   10 1  
    10   10   11 1  
    11   11   12 1  
    12   11   13 1  
    13   12   17 1  
    14   13   14 1  
    15   13   15 1  
    16   15   16 1  
    17   15   17 1  
    18   17   18 1  
    19   18   19 1  
    20   18   27 1  
    21   19   20 2  
    22   20   21 1  
    23   21   22 ar 
    24   21   27 ar 
    25   22   23 1  
    26   22   24 ar 
    27   24   25 ar 
    28   25   26 ar 
    29   26   27 ar 
    30   10   28 1  
    31   10   29 1  
    32   11   30 1  
    33   13   31 1  
    34   14   32 1  
    35   15   33 1  
    36   16   34 1  
    37   17   35 1  
    38   19   36 1  
    39   23   37 1  
    40   23   38 1  
    41   25   39 1  
@<TRIPOS>SUBSTRUCTURE
     1 ADP         1

