### 
### Created by X-TOOL on Mon Sep 10 21:13:14 2018
### 

@<TRIPOS>MOLECULE
4gzf_ligand
  129   129     1     0     0
SMALL
GAST_HUCK


@<TRIPOS>ATOM
      1 N          -4.1960   17.3050   -4.7760 N.4       1 ILO         0.2379
      2 CA         -5.1840   17.5310   -5.8100 C.3       1 ILO         0.0651
      3 CB         -5.1250   16.5710   -6.9860 C.3       1 ILO         0.0118
      4 CG         -3.7600   15.9580   -7.3780 C.3       1 ILO        -0.0041
      5 CD         -3.3560   16.3040   -8.8270 C.3       1 ILO         0.0870
      6 NE         -1.8950   16.2970   -9.0130 N.pl3     1 ILO        -0.2637
      7 CZ         -1.1450   15.2650   -9.5000 C.cat     1 ILO         0.2031
      8 CH1         0.3660   15.3140   -9.4420 C.3       1 ILO         0.0072
      9 NH2        -1.6260   14.2170  -10.0190 N.pl3     1 ILO        -0.2763
     10 C          -6.5220   17.5040   -5.1060 C.2       1 ILO         0.2267
     11 OA1        -7.2390   18.4880   -5.1870 O.2       1 ILO        -0.3907
     12 N          -6.9030   16.4350   -4.4190 N.am      1 VAL        -0.2608
     13 CA         -8.2320   16.2870   -3.8680 C.3       1 VAL         0.1332
     14 C          -8.1660   15.9890   -2.3490 C.2       1 VAL         0.2023
     15 O          -8.1440   14.8360   -1.9160 O.2       1 VAL        -0.3945
     16 CB         -9.0310   15.2740   -4.7180 C.3       1 VAL        -0.0063
     17 CG1       -10.4770   15.0140   -4.2170 C.3       1 VAL        -0.0584
     18 CG2        -9.0980   15.6690   -6.2010 C.3       1 VAL        -0.0584
     19 N          -8.1620   17.0490   -1.5230 N.am      1 DC0        -0.2769
     20 C1         -7.9220   17.0350   -0.0790 C.3       1 DC0         0.0820
     21 C2         -9.1890   17.2630    0.7190 C.3       1 DC0        -0.0079
     22 C3         -7.0490   18.2040    0.2780 C.3       1 DC0        -0.0226
     23 C4         -5.7730   18.1470   -0.5370 C.3       1 DC0        -0.0445
     24 C5         -4.9180   19.3880   -0.2940 C.3       1 DC0        -0.0626
     25 C6         -4.9460   16.8970   -0.2900 C.3       1 DC0        -0.0626
     26 N2        -10.1510   16.2130    0.4390 N.4       1 DC0         0.2492
     27 C7        -11.1210   15.8600    1.4490 C.3       1 DC0         0.0763
     28 C         -10.4740   15.1410    2.6160 C.2       1 DC0         0.2289
     29 O          -9.4380   14.5450    2.4870 O.2       1 DC0        -0.3905
     30 C9        -12.2480   15.1360    0.7250 C.3       1 DC0         0.0416
     31 C10       -12.7470   13.8920    1.4010 C.ar      1 DC0        -0.0353
     32 C11       -12.1280   12.6700    1.2060 C.ar      1 DC0        -0.0600
     33 C12       -13.8840   13.9710    2.2270 C.ar      1 DC0        -0.0600
     34 C13       -12.6140   11.5180    1.8520 C.ar      1 DC0        -0.0686
     35 C14       -14.3400   12.8110    2.8930 C.ar      1 DC0        -0.0686
     36 C15       -13.7290   11.5730    2.7060 C.ar      1 DC0        -0.0687
     37 N         -11.0900   15.1170    3.8180 N.am      1 GLU        -0.2608
     38 CA        -10.4720   14.5750    5.0380 C.3       1 GLU         0.1326
     39 C         -11.5550   14.4440    6.0680 C.2       1 GLU         0.2040
     40 O         -12.3490   15.3410    6.2570 O.2       1 GLU        -0.3944
     41 CB         -9.4400   15.6080    5.4910 C.3       1 GLU        -0.0008
     42 CG         -8.6900   15.3110    6.7800 C.3       1 GLU         0.0044
     43 CD         -9.6250   15.6050    7.9480 C.2       1 GLU         0.0350
     44 OE1       -10.4300   16.6800    7.9070 O.co2     1 GLU        -0.5690
     45 OE2        -9.6930   14.8490    8.9300 O.co2     1 GLU        -0.5690
     46 N         -11.6030   13.3200    6.7670 N.am      1 ALA        -0.2640
     47 CA        -12.6300   13.0300    7.7250 C.3       1 ALA         0.1282
     48 C         -12.1960   11.8170    8.5230 C.2       1 ALA         0.2031
     49 O         -11.1810   11.1770    8.2000 O.2       1 ALA        -0.3944
     50 CB        -13.8920   12.7040    6.9190 C.3       1 ALA        -0.0244
     51 N         -13.0060   11.4690    9.5590 N.am      1 NLE        -0.2695
     52 CA        -12.7380   10.3980   10.4950 C.3       1 NLE         0.0944
     53 C         -11.4230   10.7220   11.1380 C.2       1 NLE         0.0601
     54 O         -10.3000   10.3930   10.5060 O.co2     1 NLE        -0.5666
     55 OXT       -11.3550   11.3270   12.2160 O.co2     1 NLE        -0.5666
     56 CB        -12.7960    9.0230    9.8110 C.3       1 NLE        -0.0179
     57 CG        -13.9820    8.1930   10.3130 C.3       1 NLE        -0.0497
     58 CD        -13.8680    6.7050    9.9560 C.3       1 NLE        -0.0557
     59 CE        -13.1330    5.9330   11.0390 C.3       1 NLE        -0.0653
     60 H1         -3.2745   17.3115   -5.1846 H         1 ILO         0.2015
     61 H2         -4.3640   16.4117   -4.3402 H         1 ILO         0.2015
     62 H3         -4.2616   18.0344   -4.0834 H         1 ILO         0.2015
     63 H4         -5.0237   18.5397   -6.2183 H         1 ILO         0.1098
     64 H5         -5.5006   17.1138   -7.8660 H         1 ILO         0.0347
     65 H6         -5.8010   15.7345   -6.7551 H         1 ILO         0.0347
     66 H7         -3.8224   14.8642   -7.2800 H         1 ILO         0.0311
     67 H8         -2.9896   16.3441   -6.6944 H         1 ILO         0.0311
     68 H9         -3.7397   17.3053   -9.0725 H         1 ILO         0.0797
     69 H10        -3.8032   15.5633   -9.5061 H         1 ILO         0.0797
     70 H11        -1.3893   17.1548   -8.7499 H         1 ILO         0.3202
     71 H12         0.7798   14.3945   -9.8817 H         1 ILO         0.0245
     72 H13         0.6902   15.3975   -8.3942 H         1 ILO         0.0245
     73 H14         0.7266   16.1855  -10.0080 H         1 ILO         0.0245
     74 H15        -0.9971   13.4786  -10.3656 H         1 ILO         0.3177
     75 H16        -2.6467   14.1018  -10.0951 H         1 ILO         0.3177
     76 H17        -6.2418   15.6986   -4.2757 H         1 VAL         0.1885
     77 H18        -8.7439   17.2552   -3.9709 H         1 VAL         0.0802
     78 H19        -8.4881   14.3195   -4.6533 H         1 VAL         0.0343
     79 H20       -10.9683   14.2846   -4.8777 H         1 VAL         0.0234
     80 H21       -11.0434   15.9569   -4.2263 H         1 VAL         0.0234
     81 H22       -10.4440   14.6162   -3.1920 H         1 VAL         0.0234
     82 H23        -8.0814   15.8580   -6.5764 H         1 VAL         0.0234
     83 H24        -9.7047   16.5800   -6.3108 H         1 VAL         0.0234
     84 H25        -9.5557   14.8519   -6.7778 H         1 VAL         0.0234
     85 H26        -8.3418   17.9408   -1.9383 H         1 DC0         0.1857
     86 H27        -7.4514   16.0831    0.2079 H         1 DC0         0.0609
     87 H28        -9.6221   18.2359    0.4438 H         1 DC0         0.0837
     88 H29        -8.9485   17.2591    1.7924 H         1 DC0         0.0837
     89 H30        -6.8022   18.1641    1.3492 H         1 DC0         0.0292
     90 H31        -7.5825   19.1407    0.0592 H         1 DC0         0.0292
     91 H32        -6.0662   18.1411   -1.5972 H         1 DC0         0.0296
     92 H33        -3.9991   19.3236   -0.8953 H         1 DC0         0.0232
     93 H34        -4.6549   19.4490    0.7723 H         1 DC0         0.0232
     94 H35        -5.4838   20.2856   -0.5840 H         1 DC0         0.0232
     95 H36        -5.5665   16.0060   -0.4664 H         1 DC0         0.0232
     96 H37        -4.5875   16.8940    0.7499 H         1 DC0         0.0232
     97 H38        -4.0851   16.8856   -0.9747 H         1 DC0         0.0232
     98 H39        -9.6247   15.3787    0.2316 H         1 DC0         0.2038
     99 H40       -10.6672   16.4967   -0.3790 H         1 DC0         0.2038
    100 H41       -11.5443   16.7886    1.8595 H         1 DC0         0.1123
    101 H42       -11.8860   14.8575   -0.2757 H         1 DC0         0.0507
    102 H43       -13.0934   15.8331    0.6283 H         1 DC0         0.0507
    103 H44       -11.2655   12.5997    0.5532 H         1 DC0         0.0557
    104 H45       -14.4052   14.9133    2.3512 H         1 DC0         0.0557
    105 H46       -12.1180   10.5683    1.6875 H         1 DC0         0.0599
    106 H47       -15.1863   12.8864    3.5662 H         1 DC0         0.0599
    107 H48       -14.1005   10.6834    3.2017 H         1 DC0         0.0559
    108 H49       -12.0165   15.4878    3.8820 H         1 GLU         0.1885
    109 H50        -9.9957   13.6016    4.8492 H         1 GLU         0.0801
    110 H51        -9.9647   16.5655    5.6249 H         1 GLU         0.0330
    111 H52        -8.6946   15.7074    4.6882 H         1 GLU         0.0330
    112 H53        -7.7965   15.9491    6.8475 H         1 GLU         0.0433
    113 H54        -8.3879   14.2535    6.8009 H         1 GLU         0.0433
    114 H55       -10.8862   12.6385    6.6191 H         1 ALA         0.1883
    115 H56       -12.8043   13.8867    8.3926 H         1 ALA         0.0797
    116 H57       -14.7174   12.4722    7.6081 H         1 ALA         0.0277
    117 H58       -13.6997   11.8355    6.2719 H         1 ALA         0.0277
    118 H59       -14.1648   13.5703    6.2985 H         1 ALA         0.0277
    119 H60       -13.8493   11.9920    9.6831 H         1 NLE         0.1875
    120 H61       -13.5133   10.4057   11.2753 H         1 NLE         0.0726
    121 H62       -11.8640    8.4788   10.0237 H         1 NLE         0.0305
    122 H63       -12.8961    9.1683    8.7253 H         1 NLE         0.0305
    123 H64       -14.9036    8.5914    9.8636 H         1 NLE         0.0267
    124 H65       -14.0373    8.2873   11.4075 H         1 NLE         0.0267
    125 H66       -13.3183    6.6047    9.0085 H         1 NLE         0.0263
    126 H67       -14.8783    6.2858    9.8399 H         1 NLE         0.0263
    127 H68       -13.0683    4.8726   10.7536 H         1 NLE         0.0230
    128 H69       -13.6794    6.0242   11.9893 H         1 NLE         0.0230
    129 H70       -12.1193    6.3432   11.1580 H         1 NLE         0.0230
@<TRIPOS>BOND
     1    1    2 1  
     2    2    3 1  
     3    2   10 1  
     4    3    4 1  
     5    4    5 1  
     6    5    6 1  
     7    6    7 ar 
     8    7    8 1  
     9    7    9 ar 
    10   10   11 2  
    11   10   12 am 
    12   12   13 1  
    13   13   14 1  
    14   13   16 1  
    15   14   15 2  
    16   14   19 am 
    17   16   17 1  
    18   16   18 1  
    19   19   20 1  
    20   20   21 1  
    21   20   22 1  
    22   21   26 1  
    23   22   23 1  
    24   23   24 1  
    25   23   25 1  
    26   26   27 1  
    27   27   28 1  
    28   27   30 1  
    29   28   29 2  
    30   28   37 am 
    31   30   31 1  
    32   31   32 ar 
    33   31   33 ar 
    34   32   34 ar 
    35   33   35 ar 
    36   34   36 ar 
    37   35   36 ar 
    38   37   38 1  
    39   38   39 1  
    40   38   41 1  
    41   39   40 2  
    42   39   46 am 
    43   41   42 1  
    44   42   43 1  
    45   43   44 ar 
    46   43   45 ar 
    47   46   47 1  
    48   47   48 1  
    49   47   50 1  
    50   48   49 2  
    51   48   51 am 
    52   51   52 1  
    53   52   53 1  
    54   52   56 1  
    55   53   54 ar 
    56   53   55 ar 
    57   56   57 1  
    58   57   58 1  
    59   58   59 1  
    60    1   60 1  
    61    1   61 1  
    62    1   62 1  
    63    2   63 1  
    64    3   64 1  
    65    3   65 1  
    66    4   66 1  
    67    4   67 1  
    68    5   68 1  
    69    5   69 1  
    70    6   70 1  
    71    8   71 1  
    72    8   72 1  
    73    8   73 1  
    74    9   74 1  
    75    9   75 1  
    76   12   76 1  
    77   13   77 1  
    78   16   78 1  
    79   17   79 1  
    80   17   80 1  
    81   17   81 1  
    82   18   82 1  
    83   18   83 1  
    84   18   84 1  
    85   19   85 1  
    86   20   86 1  
    87   21   87 1  
    88   21   88 1  
    89   22   89 1  
    90   22   90 1  
    91   23   91 1  
    92   24   92 1  
    93   24   93 1  
    94   24   94 1  
    95   25   95 1  
    96   25   96 1  
    97   25   97 1  
    98   26   98 1  
    99   26   99 1  
   100   27  100 1  
   101   30  101 1  
   102   30  102 1  
   103   32  103 1  
   104   33  104 1  
   105   34  105 1  
   106   35  106 1  
   107   36  107 1  
   108   37  108 1  
   109   38  109 1  
   110   41  110 1  
   111   41  111 1  
   112   42  112 1  
   113   42  113 1  
   114   46  114 1  
   115   47  115 1  
   116   50  116 1  
   117   50  117 1  
   118   50  118 1  
   119   51  119 1  
   120   52  120 1  
   121   56  121 1  
   122   56  122 1  
   123   57  123 1  
   124   57  124 1  
   125   58  125 1  
   126   58  126 1  
   127   59  127 1  
   128   59  128 1  
   129   59  129 1  
@<TRIPOS>SUBSTRUCTURE
     1 ILO         1

