4gzf_ligand
  -I-interpret- 

130130  0  0  0  0  0  0  0  0999 V2000
   -4.1960   17.3050   -4.7760 N   0  3  0  0  0
   -5.1840   17.5310   -5.8100 C   0  0  0  0  0
   -5.1250   16.5710   -6.9860 C   0  0  0  0  0
   -3.7600   15.9580   -7.3780 C   0  0  0  0  0
   -3.3560   16.3040   -8.8270 C   0  0  0  0  0
   -1.8950   16.2970   -9.0130 N   0  0  0  0  0
   -1.1450   15.2650   -9.5000 C   0  0  0  0  0
    0.3660   15.3140   -9.4420 C   0  0  0  0  0
   -1.6260   14.2170  -10.0190 N   0  0  0  0  0
   -6.5220   17.5040   -5.1060 C   0  0  0  0  0
   -7.2390   18.4880   -5.1870 O   0  0  0  0  0
   -6.9030   16.4350   -4.4190 N   0  0  0  0  0
   -8.2320   16.2870   -3.8680 C   0  0  0  0  0
   -8.1660   15.9890   -2.3490 C   0  0  0  0  0
   -8.1440   14.8360   -1.9160 O   0  0  0  0  0
   -9.0310   15.2740   -4.7180 C   0  0  0  0  0
  -10.4770   15.0140   -4.2170 C   0  0  0  0  0
   -9.0980   15.6690   -6.2010 C   0  0  0  0  0
   -8.1620   17.0490   -1.5230 N   0  0  0  0  0
   -7.9220   17.0350   -0.0790 C   0  0  0  0  0
   -9.1890   17.2630    0.7190 C   0  0  0  0  0
   -7.0490   18.2040    0.2780 C   0  0  0  0  0
   -5.7730   18.1470   -0.5370 C   0  0  0  0  0
   -4.9180   19.3880   -0.2940 C   0  0  0  0  0
   -4.9460   16.8970   -0.2900 C   0  0  0  0  0
  -10.1510   16.2130    0.4390 N   0  3  0  0  0
  -11.1210   15.8600    1.4490 C   0  0  0  0  0
  -10.4740   15.1410    2.6160 C   0  0  0  0  0
   -9.4380   14.5450    2.4870 O   0  0  0  0  0
  -12.2480   15.1360    0.7250 C   0  0  0  0  0
  -12.7470   13.8920    1.4010 C   0  0  0  0  0
  -12.1280   12.6700    1.2060 C   0  0  0  0  0
  -13.8840   13.9710    2.2270 C   0  0  0  0  0
  -12.6140   11.5180    1.8520 C   0  0  0  0  0
  -14.3400   12.8110    2.8930 C   0  0  0  0  0
  -13.7290   11.5730    2.7060 C   0  0  0  0  0
  -11.0900   15.1170    3.8180 N   0  0  0  0  0
  -10.4720   14.5750    5.0380 C   0  0  0  0  0
  -11.5550   14.4440    6.0680 C   0  0  0  0  0
  -12.3490   15.3410    6.2570 O   0  0  0  0  0
   -9.4400   15.6080    5.4910 C   0  0  0  0  0
   -8.6900   15.3110    6.7800 C   0  0  0  0  0
   -9.6250   15.6050    7.9480 C   0  0  0  0  0
  -10.4300   16.6800    7.9070 O   0  0  0  0  0
   -9.6930   14.8490    8.9300 O   0  0  0  0  0
  -11.6030   13.3200    6.7670 N   0  0  0  0  0
  -12.6300   13.0300    7.7250 C   0  0  0  0  0
  -12.1960   11.8170    8.5230 C   0  0  0  0  0
  -11.1810   11.1770    8.2000 O   0  0  0  0  0
  -13.8920   12.7040    6.9190 C   0  0  0  0  0
  -13.0060   11.4690    9.5590 N   0  0  0  0  0
  -12.7380   10.3980   10.4950 C   0  0  0  0  0
  -11.4230   10.7220   11.1380 C   0  0  0  0  0
  -10.3000   10.3930   10.5060 O   0  0  0  0  0
  -11.3550   11.3270   12.2160 O   0  0  0  0  0
  -12.7960    9.0230    9.8110 C   0  0  0  0  0
  -13.9820    8.1930   10.3130 C   0  0  0  0  0
  -13.8680    6.7050    9.9560 C   0  0  0  0  0
  -13.1330    5.9330   11.0390 C   0  0  0  0  0
   -3.2641   17.3118   -5.1906 H   0  0  0  0  0
   -4.2634   18.0436   -4.0758 H   0  0  0  0  0
   -4.3670   16.4009   -4.3358 H   0  0  0  0  0
   -4.9895   18.4890   -6.2922 H   0  0  0  0  0
   -5.4279   17.1628   -7.8498 H   0  0  0  0  0
   -5.7416   15.7224   -6.6897 H   0  0  0  0  0
   -3.8415   14.8739   -7.2997 H   0  0  0  0  0
   -3.0019   16.3658   -6.7093 H   0  0  0  0  0
   -3.7220   17.3059   -9.0514 H   0  0  0  0  0
   -3.7860   15.5516   -9.4882 H   0  0  0  0  0
   -1.3942   17.1465   -8.7524 H   0  0  0  0  0
    0.7330   14.4751   -8.8507 H   0  0  0  0  0
    0.7693   15.2518  -10.4527 H   0  0  0  0  0
    0.6805   16.2503   -8.9809 H   0  0  0  0  0
   -1.0032   13.4847  -10.3599 H   0  0  0  0  0
   -6.2285   15.6839   -4.2728 H   0  0  0  0  0
   -8.7891   17.2218   -3.9298 H   0  0  0  0  0
   -8.4635   14.3505   -4.6034 H   0  0  0  0  0
  -10.4429   14.6199   -3.2013 H   0  0  0  0  0
  -11.0371   15.9490   -4.2267 H   0  0  0  0  0
  -10.9628   14.2911   -4.8724 H   0  0  0  0  0
   -9.5822   16.6410   -6.2953 H   0  0  0  0  0
   -8.0879   15.7239   -6.6070 H   0  0  0  0  0
   -9.6712   14.9214   -6.7493 H   0  0  0  0  0
   -8.3454   17.9586   -1.9466 H   0  0  0  0  0
   -7.4874   16.0622    0.1510 H   0  0  0  0  0
   -9.6187   18.2252    0.4405 H   0  0  0  0  0
   -8.9486   17.2535    1.7821 H   0  0  0  0  0
   -6.8048   18.1650    1.3396 H   0  0  0  0  0
   -7.5777   19.1324    0.0618 H   0  0  0  0  0
   -6.0910   18.1134   -1.5790 H   0  0  0  0  0
   -5.4797   20.2767   -0.5817 H   0  0  0  0  0
   -4.6580   19.4473    0.7629 H   0  0  0  0  0
   -4.0079   19.3231   -0.8903 H   0  0  0  0  0
   -4.6625   16.8524    0.7615 H   0  0  0  0  0
   -5.5352   16.0165   -0.5464 H   0  0  0  0  0
   -4.0490   16.9283   -0.9085 H   0  0  0  0  0
   -9.5894   15.3713    0.3102 H   0  0  0  0  0
  -10.7036   16.5661   -0.3423 H   0  0  0  0  0
  -11.5605   16.7251    1.9456 H   0  0  0  0  0
  -11.8516   14.8287   -0.2427 H   0  0  0  0  0
  -13.0889   15.8283    0.6836 H   0  0  0  0  0
  -11.2607   12.5993    0.5496 H   0  0  0  0  0
  -14.4081   14.9185    2.3518 H   0  0  0  0  0
  -12.1152   10.5630    1.6866 H   0  0  0  0  0
  -15.1910   12.8868    3.5699 H   0  0  0  0  0
  -14.1025   10.6785    3.2045 H   0  0  0  0  0
  -12.0350   15.4953    3.8832 H   0  0  0  0  0
   -9.9989   13.6054    4.8824 H   0  0  0  0  0
   -9.9976   16.5264    5.6748 H   0  0  0  0  0
   -8.6842   15.6390    4.7062 H   0  0  0  0  0
   -7.7967   15.9319    6.8474 H   0  0  0  0  0
   -8.3773   14.2670    6.8016 H   0  0  0  0  0
  -10.2688   17.1684    7.0964 H   0  0  0  0  0
  -10.8719   12.6249    6.6162 H   0  0  0  0  0
  -12.8132   13.8597    8.4078 H   0  0  0  0  0
  -14.1612   13.5632    6.3046 H   0  0  0  0  0
  -13.7001   11.8433    6.2783 H   0  0  0  0  0
  -14.7091   12.4745    7.6029 H   0  0  0  0  0
  -13.8661   12.0024    9.6856 H   0  0  0  0  0
  -13.5020   10.3263   11.2691 H   0  0  0  0  0
  -10.5155    9.9324    9.6918 H   0  0  0  0  0
  -11.8767    8.4846   10.0415 H   0  0  0  0  0
  -12.9127    9.1766    8.7382 H   0  0  0  0  0
  -14.8828    8.5802    9.8369 H   0  0  0  0  0
  -14.0059    8.2724   11.3998 H   0  0  0  0  0
  -13.3097    6.6132    9.0244 H   0  0  0  0  0
  -14.8725    6.2936    9.8572 H   0  0  0  0  0
  -12.1288    6.3404   11.1559 H   0  0  0  0  0
  -13.6753    6.0242   11.9801 H   0  0  0  0  0
  -13.0695    4.8825   10.7551 H   0  0  0  0  0
  1  2  1  0  0  0
  2  3  1  0  0  0
  2 10  1  0  0  0
  3  4  1  0  0  0
  4  5  1  0  0  0
  5  6  1  0  0  0
  6  7  1  0  0  0
  7  8  1  0  0  0
  7  9  2  0  0  0
 10 11  2  0  0  0
 10 12  1  0  0  0
 12 13  1  0  0  0
 13 14  1  0  0  0
 13 16  1  0  0  0
 14 15  2  0  0  0
 14 19  1  0  0  0
 16 17  1  0  0  0
 16 18  1  0  0  0
 19 20  1  0  0  0
 20 21  1  0  0  0
 20 22  1  0  0  0
 21 26  1  0  0  0
 22 23  1  0  0  0
 23 24  1  0  0  0
 23 25  1  0  0  0
 26 27  1  0  0  0
 27 28  1  0  0  0
 27 30  1  0  0  0
 28 29  2  0  0  0
 28 37  1  0  0  0
 30 31  1  0  0  0
 31 32  4  0  0  0
 31 33  4  0  0  0
 32 34  4  0  0  0
 33 35  4  0  0  0
 34 36  4  0  0  0
 35 36  4  0  0  0
 37 38  1  0  0  0
 38 39  1  0  0  0
 38 41  1  0  0  0
 39 40  2  0  0  0
 39 46  1  0  0  0
 41 42  1  0  0  0
 42 43  1  0  0  0
 43 44  1  0  0  0
 43 45  2  0  0  0
 46 47  1  0  0  0
 47 48  1  0  0  0
 47 50  1  0  0  0
 48 49  2  0  0  0
 48 51  1  0  0  0
 51 52  1  0  0  0
 52 53  1  0  0  0
 52 56  1  0  0  0
 53 54  1  0  0  0
 53 55  2  0  0  0
 56 57  1  0  0  0
 57 58  1  0  0  0
 58 59  1  0  0  0
  1 60  1  0  0  0
  1 61  1  0  0  0
  1 62  1  0  0  0
  2 63  1  0  0  0
  3 64  1  0  0  0
  3 65  1  0  0  0
  4 66  1  0  0  0
  4 67  1  0  0  0
  5 68  1  0  0  0
  5 69  1  0  0  0
  6 70  1  0  0  0
  8 71  1  0  0  0
  8 72  1  0  0  0
  8 73  1  0  0  0
  9 74  1  0  0  0
 12 75  1  0  0  0
 13 76  1  0  0  0
 16 77  1  0  0  0
 17 78  1  0  0  0
 17 79  1  0  0  0
 17 80  1  0  0  0
 18 81  1  0  0  0
 18 82  1  0  0  0
 18 83  1  0  0  0
 19 84  1  0  0  0
 20 85  1  0  0  0
 21 86  1  0  0  0
 21 87  1  0  0  0
 22 88  1  0  0  0
 22 89  1  0  0  0
 23 90  1  0  0  0
 24 91  1  0  0  0
 24 92  1  0  0  0
 24 93  1  0  0  0
 25 94  1  0  0  0
 25 95  1  0  0  0
 25 96  1  0  0  0
 26 97  1  0  0  0
 26 98  1  0  0  0
 27 99  1  0  0  0
 30100  1  0  0  0
 30101  1  0  0  0
 32102  1  0  0  0
 33103  1  0  0  0
 34104  1  0  0  0
 35105  1  0  0  0
 36106  1  0  0  0
 37107  1  0  0  0
 38108  1  0  0  0
 41109  1  0  0  0
 41110  1  0  0  0
 42111  1  0  0  0
 42112  1  0  0  0
 44113  1  0  0  0
 46114  1  0  0  0
 47115  1  0  0  0
 50116  1  0  0  0
 50117  1  0  0  0
 50118  1  0  0  0
 51119  1  0  0  0
 52120  1  0  0  0
 54121  1  0  0  0
 56122  1  0  0  0
 56123  1  0  0  0
 57124  1  0  0  0
 57125  1  0  0  0
 58126  1  0  0  0
 58127  1  0  0  0
 59128  1  0  0  0
 59129  1  0  0  0
 59130  1  0  0  0
M  END
$$$$
