1ezq_ligand
  -I-interpret- 

 65 67  0  0  0  0  0  0  0  0999 V2000
    7.2260    0.1870   17.7590 C   0  0  0  0  0
    7.9430    0.8410   18.7920 C   0  0  0  0  0
    9.3330    0.5830   18.8920 C   0  0  0  0  0
    9.9990   -0.2930   17.9980 C   0  0  0  0  0
    9.2750   -0.9420   16.9700 C   0  0  0  0  0
    7.8800   -0.7010   16.8480 C   0  0  0  0  0
    7.1360    3.9720   20.9030 C   0  0  0  0  0
    5.9420    3.5980   21.5860 C   0  0  0  0  0
    5.4120    2.2940   21.3340 C   0  0  0  0  0
    6.0620    1.4080   20.4320 C   0  0  0  0  0
    7.2490    1.7840   19.7550 C   0  0  0  0  0
    7.7700    3.0800   20.0090 C   0  0  0  0  0
    5.2730    4.5350   22.5310 C   0  0  0  0  0
    5.4850    5.8740   22.2930 N   0  0  0  0  0
    4.9130    6.9410   23.1240 C   0  0  0  0  0
    4.4460    8.0750   22.1970 C   0  0  0  0  0
    5.9910    7.4100   24.1730 C   0  0  0  0  0
    5.3710    8.5300   25.0530 C   0  0  0  0  0
    4.1050    8.1520   25.5930 O   0  0  0  0  0
    7.2930    7.9220   23.4540 C   0  0  0  0  0
    7.0910   -1.3800   15.7640 C   0  0  0  0  0
    6.7260   -0.4380   14.7000 N   0  3  0  0  0
    8.8140    7.3760   25.4750 C   0  0  0  0  0
    9.9870    7.6130   26.2340 C   0  0  0  0  0
   10.8930    8.6260   25.8190 C   0  0  0  0  0
   10.6260    9.3840   24.6630 C   0  0  0  0  0
    9.4580    9.1410   23.9140 C   0  0  0  0  0
    8.5360    8.1360   24.3060 C   0  0  0  0  0
   10.2690    6.8280   27.4410 C   0  0  0  0  0
   11.5370    6.6570   27.8650 N   0  0  0  0  0
    9.2640    6.2760   28.1360 N   0  0  0  0  0
    5.8330    9.6280   25.1930 O   0  0  0  0  0
    4.5770    4.1470   23.4760 O   0  0  0  0  0
    3.3210    9.1160   26.3120 C   0  0  0  0  0
    6.1554    0.3642   17.6568 H   0  0  0  0  0
    9.9067    1.0723   19.6791 H   0  0  0  0  0
   11.0700   -0.4667   18.1027 H   0  0  0  0  0
    9.7808   -1.6180   16.2806 H   0  0  0  0  0
    7.5657    4.9593   21.0726 H   0  0  0  0  0
    4.4999    1.9759   21.8389 H   0  0  0  0  0
    5.6386    0.4189   20.2574 H   0  0  0  0  0
    8.6819    3.3949   19.5017 H   0  0  0  0  0
    6.0688    6.1384   21.4995 H   0  0  0  0  0
    4.0480    6.5942   23.6893 H   0  0  0  0  0
    5.2975    8.4551   21.6326 H   0  0  0  0  0
    3.6933    7.6924   21.5077 H   0  0  0  0  0
    4.0173    8.8787   22.7957 H   0  0  0  0  0
    6.2790    6.5662   24.8000 H   0  0  0  0  0
    7.0391    8.9050   23.0574 H   0  0  0  0  0
    7.5590    7.1405   22.7422 H   0  0  0  0  0
    6.1765   -1.7817   16.2004 H   0  0  0  0  0
    7.7044   -2.1706   15.3319 H   0  0  0  0  0
    6.1929   -0.9282   13.9817 H   0  0  0  0  0
    6.1589    0.3134   15.0926 H   0  0  0  0  0
    7.5733   -0.0467   14.2886 H   0  0  0  0  0
    8.1159    6.6010   25.7915 H   0  0  0  0  0
   11.7971    8.8167   26.3972 H   0  0  0  0  0
   11.3237   10.1596   24.3473 H   0  0  0  0  0
    9.2596    9.7333   23.0207 H   0  0  0  0  0
   11.7242    6.1122   28.7068 H   0  0  0  0  0
   12.3093    7.0724   27.3441 H   0  0  0  0  0
    8.3004    6.4013   27.8260 H   0  0  0  0  0
    3.8845    9.4694   27.1755 H   0  0  0  0  0
    3.0915    9.9568   25.6574 H   0  0  0  0  0
    2.3938    8.6511   26.6471 H   0  0  0  0  0
  1  6  4  0  0  0
  1  2  4  0  0  0
  2 11  1  0  0  0
  2  3  4  0  0  0
  3  4  4  0  0  0
  4  5  4  0  0  0
  5  6  4  0  0  0
  6 21  1  0  0  0
 21 22  1  0  0  0
 11 12  4  0  0  0
 11 10  4  0  0  0
 10  9  4  0  0  0
  9  8  4  0  0  0
  8 13  1  0  0  0
  8  7  4  0  0  0
  7 12  4  0  0  0
 13 33  2  0  0  0
 13 14  1  0  0  0
 14 15  1  0  0  0
 15 17  1  0  0  0
 15 16  1  0  0  0
 17 20  1  0  0  0
 17 18  1  0  0  0
 18 32  2  0  0  0
 18 19  1  0  0  0
 19 34  1  0  0  0
 20 28  1  0  0  0
 28 27  4  0  0  0
 28 23  4  0  0  0
 23 24  4  0  0  0
 24 29  1  0  0  0
 24 25  4  0  0  0
 25 26  4  0  0  0
 26 27  4  0  0  0
 29 31  2  0  0  0
 29 30  1  0  0  0
  1 35  1  0  0  0
  3 36  1  0  0  0
  4 37  1  0  0  0
  5 38  1  0  0  0
  7 39  1  0  0  0
  9 40  1  0  0  0
 10 41  1  0  0  0
 12 42  1  0  0  0
 14 43  1  0  0  0
 15 44  1  0  0  0
 16 45  1  0  0  0
 16 46  1  0  0  0
 16 47  1  0  0  0
 17 48  1  0  0  0
 20 49  1  0  0  0
 20 50  1  0  0  0
 21 51  1  0  0  0
 21 52  1  0  0  0
 22 53  1  0  0  0
 22 54  1  0  0  0
 22 55  1  0  0  0
 23 56  1  0  0  0
 25 57  1  0  0  0
 26 58  1  0  0  0
 27 59  1  0  0  0
 30 60  1  0  0  0
 30 61  1  0  0  0
 31 62  1  0  0  0
 34 63  1  0  0  0
 34 64  1  0  0  0
 34 65  1  0  0  0
M  END
$$$$
