2fme_ligand
  -I-interpret- 

 48 50  0  0  0  0  0  0  0  0999 V2000
   22.9670   81.5930   47.9630 C   0  0  0  0  0
   22.7600   82.5180   49.1080 C   0  0  0  0  0
   24.0810   79.6240   46.8990 C   0  0  0  0  0
   23.4630   79.9680   45.6570 C   0  0  0  0  0
   22.5800   81.1010   45.6000 C   0  0  0  0  0
   22.3320   81.9160   46.7440 C   0  0  0  0  0
   26.4090   79.2240   50.5910 C   0  0  0  0  0
   27.8490   79.0390   50.6980 C   0  0  0  0  0
   28.7670   79.7170   49.7950 C   0  0  0  0  0
   28.3130   80.6120   48.7770 C   0  0  0  0  0
   28.3720   78.1980   51.6600 O   0  0  0  0  0
   21.4410   83.0720   46.6850 C   0  0  0  0  0
   23.5850   82.2700   50.2630 N   0  0  0  0  0
   23.6520   80.8460   50.5570 C   0  0  0  0  0
   24.4760   80.3120   49.3840 C   0  0  0  0  0
   23.8090   80.4480   48.0500 C   0  0  0  0  0
   25.9410   80.1200   49.5580 C   0  0  0  0  0
   26.8880   80.8110   48.6890 C   0  0  0  0  0
   21.8600   81.4320   44.3460 C   0  0  0  0  0
   24.0240   83.2370   51.1190 C   0  0  0  0  0
   24.3780   84.4740   50.6530 N   0  0  0  0  0
   24.7910   84.8580   49.2910 C   0  0  0  0  0
   24.3540   85.5280   51.6640 C   0  0  0  0  0
   24.1010   82.9910   52.3200 O   0  0  0  0  0
   21.7271   82.3864   49.4304 H   0  0  0  0  0
   23.0170   83.5155   48.7515 H   0  0  0  0  0
   24.7415   78.7601   46.9739 H   0  0  0  0  0
   23.6592   79.3773   44.7622 H   0  0  0  0  0
   25.7165   78.7110   51.2584 H   0  0  0  0  0
   29.8369   79.5363   49.8984 H   0  0  0  0  0
   29.0064   81.1164   48.1041 H   0  0  0  0  0
   29.3295   78.1919   51.5917 H   0  0  0  0  0
   20.6205   82.9330   47.3890 H   0  0  0  0  0
   21.9976   83.9719   46.9469 H   0  0  0  0  0
   21.0424   83.1707   45.6753 H   0  0  0  0  0
   22.6712   80.3780   50.6416 H   0  0  0  0  0
   24.0958   80.6281   51.5284 H   0  0  0  0  0
   24.4736   79.2223   49.4084 H   0  0  0  0  0
   26.5022   81.5058   47.9431 H   0  0  0  0  0
   22.5831   81.6268   43.5540 H   0  0  0  0  0
   21.2244   80.5935   44.0613 H   0  0  0  0  0
   21.2453   82.3181   44.5045 H   0  0  0  0  0
   25.6864   84.3017   49.0138 H   0  0  0  0  0
   23.9878   84.6284   48.5908 H   0  0  0  0  0
   25.0031   85.9268   49.2648 H   0  0  0  0  0
   23.3467   85.6166   52.0708 H   0  0  0  0  0
   25.0499   85.2776   52.4647 H   0  0  0  0  0
   24.6476   86.4736   51.2082 H   0  0  0  0  0
  1  2  1  0  0  0
  1  6  4  0  0  0
 16  1  4  0  0  0
 13  2  1  0  0  0
  3  4  4  0  0  0
 16  3  4  0  0  0
  4  5  4  0  0  0
  6  5  4  0  0  0
  5 19  1  0  0  0
  6 12  1  0  0  0
  7  8  4  0  0  0
 17  7  4  0  0  0
  8  9  4  0  0  0
  8 11  1  0  0  0
  9 10  4  0  0  0
 10 18  4  0  0  0
 14 13  1  0  0  0
 13 20  1  0  0  0
 15 14  1  0  0  0
 15 16  1  0  0  0
 15 17  1  0  0  0
 17 18  4  0  0  0
 20 21  1  0  0  0
 20 24  2  0  0  0
 21 22  1  0  0  0
 21 23  1  0  0  0
  2 25  1  0  0  0
  2 26  1  0  0  0
  3 27  1  0  0  0
  4 28  1  0  0  0
  7 29  1  0  0  0
  9 30  1  0  0  0
 10 31  1  0  0  0
 11 32  1  0  0  0
 12 33  1  0  0  0
 12 34  1  0  0  0
 12 35  1  0  0  0
 14 36  1  0  0  0
 14 37  1  0  0  0
 15 38  1  0  0  0
 18 39  1  0  0  0
 19 40  1  0  0  0
 19 41  1  0  0  0
 19 42  1  0  0  0
 22 43  1  0  0  0
 22 44  1  0  0  0
 22 45  1  0  0  0
 23 46  1  0  0  0
 23 47  1  0  0  0
 23 48  1  0  0  0
M  END
$$$$
