4bjc_ligand
  -I-interpret- 

 42 45  0  0  0  0  0  0  0  0999 V2000
   12.5440    2.0960   14.9880 O   0  0  0  0  0
   12.0450    3.0060   15.6590 C   0  0  0  0  0
   11.5500    2.6250   16.9050 N   0  0  0  0  0
   10.9100    3.5170   17.8900 C   0  0  0  0  0
   11.8180    4.6930   18.2640 C   0  0  0  0  0
   11.8850    5.6590   17.2370 C   0  0  0  0  0
   11.9900    5.4670   15.9090 C   0  0  0  0  0
   12.0560    4.3290   15.1860 C   0  0  0  0  0
   12.1520    4.4130   13.7900 C   0  0  0  0  0
   12.1750    5.6700   13.1850 C   0  0  0  0  0
   12.2720    5.8090   11.8200 F   0  0  0  0  0
   12.1100    6.8010   13.9890 C   0  0  0  0  0
   12.0170    6.6730   15.3130 C   0  0  0  0  0
   11.9390    7.6020   16.2530 N   0  0  0  0  0
   11.8610    6.9990   17.4380 C   0  0  0  0  0
   11.7570    7.7210   18.5810 C   0  0  0  0  0
   12.3890    7.3820   19.7840 C   0  0  0  0  0
   12.2420    8.1740   20.9280 C   0  0  0  0  0
   10.9910    8.8910   18.5640 C   0  0  0  0  0
   10.8470    9.6880   19.6980 C   0  0  0  0  0
   11.4590    9.3280   20.8980 C   0  0  0  0  0
   11.3370   10.1210   22.0210 C   0  0  0  0  0
   10.1710    9.7690   22.8460 N   0  3  0  0  0
    8.9080    9.9060   22.0950 C   0  0  0  0  0
   11.6383    1.6409   17.1584 H   0  0  0  0  0
   10.7049    2.9411   18.7924 H   0  0  0  0  0
    9.9961    3.9155   17.4494 H   0  0  0  0  0
   12.8229    4.3064   18.4334 H   0  0  0  0  0
   11.4073    5.1703   19.1537 H   0  0  0  0  0
   12.2080    3.5080   13.1850 H   0  0  0  0  0
   12.1350    7.7928   13.5376 H   0  0  0  0  0
   13.0065    6.4850   19.8298 H   0  0  0  0  0
   12.7442    7.8864   21.8517 H   0  0  0  0  0
   10.4940    9.1870   17.6402 H   0  0  0  0  0
   10.2516   10.5995   19.6465 H   0  0  0  0  0
   11.2111   11.1515   21.6889 H   0  0  0  0  0
   12.2305    9.9776   22.6287 H   0  0  0  0  0
   10.1399   10.4027   23.6446 H   0  0  0  0  0
   10.2666    8.7965   23.1385 H   0  0  0  0  0
    8.7944   10.9379   21.7628 H   0  0  0  0  0
    8.9281    9.2443   21.2291 H   0  0  0  0  0
    8.0720    9.6366   22.7404 H   0  0  0  0  0
  1  2  2  0  0  0
  2  3  1  0  0  0
  2  8  1  0  0  0
  3  4  1  0  0  0
  4  5  1  0  0  0
  5  6  1  0  0  0
  6  7  4  0  0  0
  6 15  4  0  0  0
  7  8  4  0  0  0
  7 13  4  0  0  0
  8  9  4  0  0  0
  9 10  4  0  0  0
 10 11  1  0  0  0
 10 12  4  0  0  0
 12 13  4  0  0  0
 13 14  4  0  0  0
 14 15  4  0  0  0
 15 16  1  0  0  0
 16 17  4  0  0  0
 16 19  4  0  0  0
 17 18  4  0  0  0
 18 21  4  0  0  0
 19 20  4  0  0  0
 20 21  4  0  0  0
 21 22  1  0  0  0
 22 23  1  0  0  0
 23 24  1  0  0  0
  3 25  1  0  0  0
  4 26  1  0  0  0
  4 27  1  0  0  0
  5 28  1  0  0  0
  5 29  1  0  0  0
  9 30  1  0  0  0
 12 31  1  0  0  0
 17 32  1  0  0  0
 18 33  1  0  0  0
 19 34  1  0  0  0
 20 35  1  0  0  0
 22 36  1  0  0  0
 22 37  1  0  0  0
 23 38  1  0  0  0
 23 39  1  0  0  0
 24 40  1  0  0  0
 24 41  1  0  0  0
 24 42  1  0  0  0
M  END
$$$$
