5if4_ligand
  -I-interpret- 

 89 95  0  0  0  0  0  0  0  0999 V2000
   -2.5310   -9.2360   21.1880 C   0  0  0  0  0
   -2.7130   -7.5100   19.3680 C   0  0  0  0  0
   -4.0210   -7.7480   15.4040 C   0  0  0  0  0
   -3.5300   -6.6610   20.2150 C   0  0  0  0  0
   -1.8360   -7.0910   22.0950 C   0  0  0  0  0
   -1.4340   -9.3140   18.9050 C   0  0  0  0  0
   -0.6580  -10.5160   18.9300 C   0  0  0  0  0
   -0.0030  -10.8530   17.7310 C   0  0  0  0  0
    0.9350  -12.2950   17.6830 Cl  0  0  0  0  0
   -0.0940  -10.0820   16.5550 C   0  0  0  0  0
   -0.8600   -8.9080   16.5610 C   0  0  0  0  0
   -1.5380   -8.5220   17.7410 C   0  0  0  0  0
   -2.3720   -7.4100   18.0270 C   0  0  0  0  0
   -2.7410   -6.3360   17.0400 C   0  0  0  0  0
   -4.1060   -6.5950   16.3990 C   0  0  0  0  0
   -3.1260   -7.3140   14.3840 O   0  0  0  0  0
   -4.5740   -6.1430   19.8010 O   0  0  0  0  0
   -3.0500   -6.4930   21.5410 N   0  0  0  0  0
   -2.2050   -8.6870   19.8550 N   0  0  0  0  0
   -1.8610   -8.5830   22.3800 C   0  0  0  0  0
    0.3090  -12.0530   22.0180 N   0  0  0  0  0
    1.1150  -12.1220   23.2250 C   0  0  0  0  0
    0.4270  -11.0790   21.0780 C   0  0  0  0  0
    1.4210   -9.9820   21.2390 C   0  0  0  0  0
   -0.5150  -11.3850   20.0930 C   0  0  0  0  0
   -1.1670  -12.5610   20.5450 C   0  0  0  0  0
   -2.2630  -13.3090   19.8670 C   0  0  0  0  0
   -0.6490  -12.9710   21.7320 N   0  0  0  0  0
   -2.6840   -9.6480   11.0110 C   0  0  0  0  0
   -2.5100  -10.6520    9.6340 Cl  0  0  0  0  0
   -2.2000   -8.3260   10.9640 C   0  0  0  0  0
   -1.5250   -7.7730    9.7250 C   0  0  0  0  0
   -2.3530   -7.5350   12.1180 C   0  0  0  0  0
   -2.9670   -8.0490   13.2570 C   0  0  0  0  0
   -3.4490   -9.3780   13.2840 C   0  0  0  0  0
   -3.3140  -10.2090   12.1420 C   0  0  0  0  0
   -3.8150  -11.6440   12.0910 C   0  0  0  0  0
   -5.7470   -4.5980   24.2010 C   0  0  0  0  0
   -5.9760   -5.8490   23.6060 C   0  0  0  0  0
   -7.2030   -6.6220   23.8400 C   0  0  0  0  0
   -7.3680   -7.8090   23.6080 O   0  0  0  0  0
   -8.1690   -5.8360   24.3290 O   0  0  0  0  0
   -5.0460   -6.3790   22.7530 C   0  0  0  0  0
   -3.8270   -5.7130   22.4410 C   0  0  0  0  0
   -3.5540   -4.4420   23.0350 C   0  0  0  0  0
   -4.5300   -3.9180   23.9030 C   0  0  0  0  0
   -4.0530   -2.6870   24.3540 N   0  0  0  0  0
   -4.7860   -1.8420   25.2710 C   0  0  0  0  0
   -2.8270   -2.3950   23.8220 C   0  0  0  0  0
   -2.5010   -3.4640   23.0080 C   0  0  0  0  0
   -2.1834  -10.2690   21.1788 H   0  0  0  0  0
   -3.6010   -9.0775   21.3228 H   0  0  0  0  0
   -5.0012   -7.9919   14.9945 H   0  0  0  0  0
   -3.6647   -8.6601   15.8829 H   0  0  0  0  0
   -1.6841   -6.6089   23.0607 H   0  0  0  0  0
   -1.0651   -6.9484   21.3378 H   0  0  0  0  0
    0.4260  -10.3953   15.6497 H   0  0  0  0  0
   -0.9328   -8.2962   15.6618 H   0  0  0  0  0
   -1.9894   -6.3243   16.2507 H   0  0  0  0  0
   -2.7875   -5.3852   17.5709 H   0  0  0  0  0
   -4.8200   -6.8546   17.1806 H   0  0  0  0  0
   -4.4252   -5.6960   15.8718 H   0  0  0  0  0
   -0.8522   -8.9707   22.5222 H   0  0  0  0  0
   -2.4058   -8.7961   23.2997 H   0  0  0  0  0
    2.1677  -12.2009   22.9534 H   0  0  0  0  0
    0.9579  -11.2206   23.8173 H   0  0  0  0  0
    0.8220  -12.9961   23.8065 H   0  0  0  0  0
    1.2066   -9.4306   22.1545 H   0  0  0  0  0
    2.4232  -10.4069   21.2956 H   0  0  0  0  0
    1.3583   -9.3083   20.3844 H   0  0  0  0  0
   -3.1249  -12.6537   19.7416 H   0  0  0  0  0
   -1.9187  -13.6495   18.8905 H   0  0  0  0  0
   -2.5442  -14.1690   20.4747 H   0  0  0  0  0
   -0.6418   -8.3697    9.4970 H   0  0  0  0  0
   -2.2192   -7.8139    8.8857 H   0  0  0  0  0
   -1.2302   -6.7391    9.9043 H   0  0  0  0  0
   -1.9867   -6.5084   12.1201 H   0  0  0  0  0
   -3.9256   -9.7651   14.1846 H   0  0  0  0  0
   -4.5555  -11.7409   11.2971 H   0  0  0  0  0
   -2.9777  -12.3130   11.8923 H   0  0  0  0  0
   -4.2696  -11.9030   13.0472 H   0  0  0  0  0
   -6.4820   -4.1574   24.8745 H   0  0  0  0  0
   -7.8305   -4.9441   24.4364 H   0  0  0  0  0
   -5.2463   -7.3477   22.2952 H   0  0  0  0  0
   -5.7439   -1.5713   24.8269 H   0  0  0  0  0
   -4.9556   -2.3809   26.2031 H   0  0  0  0  0
   -4.2089   -0.9393   25.4715 H   0  0  0  0  0
   -2.2291   -1.5018   24.0029 H   0  0  0  0  0
   -1.5807   -3.5522   22.4306 H   0  0  0  0  0
  1 19  1  0  0  0
 20  1  1  0  0  0
  4  2  1  0  0  0
  2 13  4  0  0  0
  2 19  4  0  0  0
 15  3  1  0  0  0
  3 16  1  0  0  0
  4 17  2  0  0  0
 18  4  1  0  0  0
 18  5  1  0  0  0
  5 20  1  0  0  0
  6  7  4  0  0  0
  6 12  4  0  0  0
 19  6  4  0  0  0
  7  8  4  0  0  0
  7 25  1  0  0  0
  8  9  1  0  0  0
  8 10  4  0  0  0
 11 10  4  0  0  0
 12 11  4  0  0  0
 13 12  4  0  0  0
 13 14  1  0  0  0
 14 15  1  0  0  0
 16 34  1  0  0  0
 44 18  1  0  0  0
 21 22  1  0  0  0
 23 21  4  0  0  0
 28 21  4  0  0  0
 23 24  1  0  0  0
 25 23  4  0  0  0
 25 26  4  0  0  0
 26 27  1  0  0  0
 26 28  4  0  0  0
 29 30  1  0  0  0
 31 29  4  0  0  0
 36 29  4  0  0  0
 31 32  1  0  0  0
 33 31  4  0  0  0
 34 33  4  0  0  0
 34 35  4  0  0  0
 35 36  4  0  0  0
 36 37  1  0  0  0
 39 38  4  0  0  0
 38 46  4  0  0  0
 39 40  1  0  0  0
 43 39  4  0  0  0
 40 41  2  0  0  0
 40 42  1  0  0  0
 43 44  4  0  0  0
 44 45  4  0  0  0
 45 46  4  0  0  0
 45 50  4  0  0  0
 46 47  4  0  0  0
 47 48  1  0  0  0
 47 49  4  0  0  0
 49 50  4  0  0  0
  1 51  1  0  0  0
  1 52  1  0  0  0
  3 53  1  0  0  0
  3 54  1  0  0  0
  5 55  1  0  0  0
  5 56  1  0  0  0
 10 57  1  0  0  0
 11 58  1  0  0  0
 14 59  1  0  0  0
 14 60  1  0  0  0
 15 61  1  0  0  0
 15 62  1  0  0  0
 20 63  1  0  0  0
 20 64  1  0  0  0
 22 65  1  0  0  0
 22 66  1  0  0  0
 22 67  1  0  0  0
 24 68  1  0  0  0
 24 69  1  0  0  0
 24 70  1  0  0  0
 27 71  1  0  0  0
 27 72  1  0  0  0
 27 73  1  0  0  0
 32 74  1  0  0  0
 32 75  1  0  0  0
 32 76  1  0  0  0
 33 77  1  0  0  0
 35 78  1  0  0  0
 37 79  1  0  0  0
 37 80  1  0  0  0
 37 81  1  0  0  0
 38 82  1  0  0  0
 42 83  1  0  0  0
 43 84  1  0  0  0
 48 85  1  0  0  0
 48 86  1  0  0  0
 48 87  1  0  0  0
 49 88  1  0  0  0
 50 89  1  0  0  0
M  END
$$$$
