3uu1_ligand
  -I-interpret- 

 23 23  0  0  0  0  0  0  0  0999 V2000
    7.9580   -3.2540   29.5240 C   0  0  0  0  0
    9.1880   -4.4310   24.7850 C   0  0  0  0  0
    7.6410   -6.7990   25.1350 N   0  0  0  0  0
    5.6670   -7.7090   28.7070 O   0  0  0  0  0
    6.0480   -8.3460   26.5930 O   0  0  0  0  0
    8.5250   -3.9300   27.1560 C   0  0  0  0  0
    7.1310   -5.4040   28.4760 C   0  0  0  0  0
    6.2020   -7.5610   27.5680 C   0  0  0  0  0
    7.8600   -4.2230   28.3490 C   0  0  0  0  0
    8.4510   -4.7950   26.0760 C   0  0  0  0  0
    7.7080   -5.9750   26.1840 C   0  0  0  0  0
    7.0520   -6.2820   27.3850 C   0  0  0  0  0
    9.0020   -3.1462   29.8183 H   0  0  0  0  0
    7.5609   -2.2834   29.2269 H   0  0  0  0  0
    7.3809   -3.6428   30.3630 H   0  0  0  0  0
    8.8063   -3.4833   24.4051 H   0  0  0  0  0
   10.2544   -4.3384   24.9907 H   0  0  0  0  0
    9.0263   -5.2129   24.0430 H   0  0  0  0  0
    8.1279   -6.5641   24.2700 H   0  0  0  0  0
    7.1030   -7.6632   25.1989 H   0  0  0  0  0
    5.9327   -6.9864   29.2804 H   0  0  0  0  0
    9.1075   -3.0124   27.0739 H   0  0  0  0  0
    6.6277   -5.6428   29.4129 H   0  0  0  0  0
  9  1  1  0  0  0
 10  2  1  0  0  0
 11  3  1  0  0  0
  8  4  1  0  0  0
  8  5  2  0  0  0
  6  9  4  0  0  0
 10  6  4  0  0  0
  9  7  4  0  0  0
  7 12  4  0  0  0
 12  8  1  0  0  0
 10 11  4  0  0  0
 11 12  4  0  0  0
  1 13  1  0  0  0
  1 14  1  0  0  0
  1 15  1  0  0  0
  2 16  1  0  0  0
  2 17  1  0  0  0
  2 18  1  0  0  0
  3 19  1  0  0  0
  3 20  1  0  0  0
  4 21  1  0  0  0
  6 22  1  0  0  0
  7 23  1  0  0  0
M  END
$$$$
