### 
### Created by X-TOOL on Mon Sep 10 21:13:18 2018
### 

@<TRIPOS>MOLECULE
4k6y_ligand
  142   143     1     0     0
SMALL
GAST_HUCK


@<TRIPOS>ATOM
      1 N          22.6270   24.0700   15.1560 N.4       1 SER         0.2396
      2 CA         22.4430   24.3930   16.5680 C.3       1 SER         0.0885
      3 C          22.1860   25.8830   16.7700 C.2       1 SER         0.2290
      4 O          22.0000   26.3470   17.8960 O.2       1 SER        -0.3906
      5 CB         23.6460   23.9290   17.3940 C.3       1 SER         0.1041
      6 OG         24.8640   24.2090   16.7260 O.3       1 SER        -0.3870
      7 N          22.1710   26.6280   15.6700 N.am      1 ARG        -0.2609
      8 CA         21.8270   28.0400   15.7060 C.3       1 ARG         0.1312
      9 C          20.3410   28.1880   16.0420 C.2       1 ARG         0.2040
     10 O          19.9120   29.1920   16.6070 O.2       1 ARG        -0.3944
     11 CB         22.1330   28.6890   14.3520 C.3       1 ARG        -0.0092
     12 CG         22.8600   30.0260   14.4400 C.3       1 ARG        -0.0156
     13 CD         23.2870   30.5220   13.0600 C.3       1 ARG         0.0627
     14 NE         22.6380   31.7780   12.6910 N.pl3     1 ARG        -0.2723
     15 CZ         23.1020   32.9870   13.0040 C.cat     1 ARG         0.2882
     16 NH1        22.4390   34.0710   12.6190 N.pl3     1 ARG        -0.2849
     17 NH2        24.2280   33.1220   13.6940 N.pl3     1 ARG        -0.2849
     18 N          19.5570   27.1760   15.6860 N.am      1 TRP        -0.2627
     19 CA         18.1200   27.2100   15.9270 C.3       1 TRP         0.1352
     20 C          17.7560   26.5160   17.2360 C.2       1 TRP         0.2052
     21 O          18.4460   25.6030   17.6800 O.2       1 TRP        -0.3942
     22 CB         17.3600   26.5010   14.8090 C.3       1 TRP         0.0042
     23 CG         17.6270   26.9710   13.4140 C.2       1 TRP        -0.0418
     24 CD1        18.2080   28.1460   13.0250 C.2       1 TRP         0.0167
     25 CD2        17.3200   26.2560   12.2160 C.ar      1 TRP        -0.0214
     26 NE1        18.2720   28.2050   11.6500 N.pl3     1 TRP        -0.2890
     27 CE2        17.7410   27.0540   11.1310 C.ar      1 TRP         0.0603
     28 CE3        16.7340   25.0120   11.9530 C.ar      1 TRP        -0.0747
     29 CZ2        17.5900   26.6490    9.8030 C.ar      1 TRP        -0.0443
     30 CZ3        16.5870   24.6110   10.6360 C.ar      1 TRP        -0.0792
     31 CH2        17.0140   25.4280    9.5780 C.ar      1 TRP        -0.0768
     32 N          16.6520   26.9500   17.8300 N.am      1 GLN        -0.2635
     33 CA         16.0860   26.2880   18.9930 C.3       1 GLN         0.1330
     34 C          15.4880   24.9400   18.5800 C.2       1 GLN         0.2041
     35 O          14.9710   24.7950   17.4620 O.2       1 GLN        -0.3944
     36 CB         14.9790   27.1550   19.6040 C.3       1 GLN         0.0045
     37 CG         15.4090   28.5620   19.9910 C.3       1 GLN         0.0412
     38 CD         14.2340   29.5040   20.1300 C.2       1 GLN         0.1737
     39 OE1        13.5460   29.5110   21.1540 O.2       1 GLN        -0.3973
     40 NE2        13.9920   30.3030   19.0970 N.am      1 GLN        -0.3009
     41 N          15.5780   23.9620   19.4800 N.am      1 THR        -0.2613
     42 CA         14.8820   22.6890   19.3350 C.3       1 THR         0.1565
     43 C          14.1020   22.4260   20.6040 C.2       1 THR         0.2065
     44 O          14.6140   22.6230   21.7020 O.2       1 THR        -0.3943
     45 CB         15.8610   21.5300   19.1040 C.3       1 THR         0.0924
     46 OG1        16.5280   21.7280   17.8550 O.3       1 THR        -0.3874
     47 CG2        15.1330   20.1780   19.0830 C.3       1 THR        -0.0346
     48 N          12.8530   21.9890   20.4600 N.am      1 SER        -0.2615
     49 CA         12.0450   21.6330   21.6120 C.3       1 SER         0.1539
     50 C          11.4470   20.2420   21.4210 C.2       1 SER         0.2062
     51 O          11.0380   19.8890   20.3210 O.2       1 SER        -0.3943
     52 CB         10.9110   22.6410   21.8100 C.3       1 SER         0.0843
     53 OG         11.4080   23.9400   22.0920 O.3       1 SER        -0.3903
     54 N          11.4340   19.4580   22.4940 N.am      1 ILE        -0.2634
     55 CA         10.7740   18.1530   22.5150 C.3       1 ILE         0.1335
     56 C           9.3520   18.4020   22.9920 C.2       1 ILE         0.2036
     57 O           9.1520   19.0410   24.0310 O.2       1 ILE        -0.3944
     58 CB         11.4910   17.2070   23.5020 C.3       1 ILE        -0.0037
     59 CG1        12.9570   17.0240   23.1150 C.3       1 ILE        -0.0491
     60 CG2        10.8030   15.8520   23.5560 C.3       1 ILE        -0.0582
     61 CD1        13.7910   16.3900   24.2270 C.3       1 ILE        -0.0648
     62 N           8.3670   17.9270   22.2280 N.am      1 ILE        -0.2692
     63 CA          6.9590   18.2030   22.5130 C.3       1 ILE         0.0969
     64 C           6.0940   16.9820   22.2630 C.2       1 ILE         0.0604
     65 O           6.5490   15.9580   21.7400 O.co2     1 ILE        -0.5666
     66 CB          6.4050   19.3710   21.6610 C.3       1 ILE        -0.0092
     67 CG1         6.4710   19.0640   20.1610 C.3       1 ILE        -0.0497
     68 CG2         7.1510   20.6690   21.9610 C.3       1 ILE        -0.0588
     69 CD1         5.7700   20.1440   19.3240 C.3       1 ILE        -0.0649
     70 OXT         4.9020   17.0240   22.5810 O.co2     1 ILE        -0.5666
     71 H          22.7943   23.0810   15.0566 H         1 SER         0.2016
     72 H          23.4161   24.5823   14.7942 H         1 SER         0.2016
     73 H          21.7976   24.3237   14.6424 H         1 SER         0.2016
     74 H          21.5570   23.8477   16.9251 H         1 SER         0.1122
     75 H          23.5696   22.8445   17.5615 H         1 SER         0.0640
     76 H          23.6395   24.4510   18.3622 H         1 SER         0.0640
     77 H          25.5919   23.9116   17.2591 H         1 SER         0.2099
     78 H          22.4026   26.2060   14.7935 H         1 ARG         0.1884
     79 H          22.4240   28.5379   16.4843 H         1 ARG         0.0800
     80 H          21.1807   28.8501   13.8255 H         1 ARG         0.0313
     81 H          22.7596   27.9951   13.7725 H         1 ARG         0.0313
     82 H          23.7542   29.9061   15.0693 H         1 ARG         0.0301
     83 H          22.1884   30.7690   14.8949 H         1 ARG         0.0301
     84 H          23.0253   29.7573   12.3138 H         1 ARG         0.0689
     85 H          24.3763   30.6751   13.0617 H         1 ARG         0.0689
     86 H          21.7619   31.7251   12.1520 H         1 ARG         0.2642
     87 H          22.7967   35.0063   12.8603 H         1 ARG         0.2615
     88 H          21.5670   33.9767   12.0790 H         1 ARG         0.2615
     89 H          24.7495   32.2871   13.9971 H         1 ARG         0.2615
     90 H          24.5802   34.0616   13.9262 H         1 ARG         0.2615
     91 H          19.9610   26.3751   15.2439 H         1 TRP         0.1884
     92 H          17.7995   28.2612   15.9740 H         1 TRP         0.0815
     93 H          16.2849   26.6281   15.0037 H         1 TRP         0.0397
     94 H          17.6174   25.4326   14.8560 H         1 TRP         0.0397
     95 H          18.5669   28.9202   13.7015 H         1 TRP         0.0795
     96 H          18.6566   28.9874   11.1015 H         1 TRP         0.2216
     97 H          16.4018   24.3751   12.7648 H         1 TRP         0.0540
     98 H          17.9164   27.2774    8.9822 H         1 TRP         0.0541
     99 H          16.1346   23.6502   10.4186 H         1 TRP         0.0510
    100 H          16.8846   25.0839    8.5582 H         1 TRP         0.0530
    101 H          16.1938   27.7604   17.4649 H         1 GLN         0.1883
    102 H          16.8776   26.1255   19.7393 H         1 GLN         0.0801
    103 H          14.6089   26.6498   20.5083 H         1 GLN         0.0337
    104 H          14.1640   27.2364   18.8698 H         1 GLN         0.0337
    105 H          16.0845   28.9514   19.2151 H         1 GLN         0.0504
    106 H          15.9419   28.5171   20.9523 H         1 GLN         0.0504
    107 H          13.2280   30.9473   19.1315 H         1 GLN         0.1814
    108 H          14.5738   30.2602   18.2848 H         1 GLN         0.1814
    109 H          16.1471   24.1071   20.2894 H         1 THR         0.1884
    110 H          14.1913   22.7507   18.4811 H         1 THR         0.0826
    111 H          16.6028   21.5219   19.9162 H         1 THR         0.0639
    112 H          17.0031   22.5503   17.8779 H         1 THR         0.2101
    113 H          15.8622   19.3715   18.9159 H         1 THR         0.0257
    114 H          14.3899   20.1742   18.2720 H         1 THR         0.0257
    115 H          14.6256   20.0197   20.0461 H         1 THR         0.0257
    116 H          12.4647   21.9045   19.5424 H         1 SER         0.1884
    117 H          12.6840   21.6317   22.5073 H         1 SER         0.0823
    118 H          10.2819   22.3099   22.6494 H         1 SER         0.0606
    119 H          10.3060   22.6821   20.8923 H         1 SER         0.0606
    120 H          11.9486   24.2350   21.3686 H         1 SER         0.2097
    121 H          11.8955   19.7740   23.3230 H         1 ILE         0.1883
    122 H          10.7716   17.7082   21.5089 H         1 ILE         0.0803
    123 H          11.4487   17.6592   24.5038 H         1 ILE         0.0345
    124 H          13.3825   18.0097   22.8758 H         1 ILE         0.0267
    125 H          13.0074   16.3774   22.2265 H         1 ILE         0.0267
    126 H           9.7476   15.9875   23.8349 H         1 ILE         0.0235
    127 H          11.3012   15.2173   24.3036 H         1 ILE         0.0235
    128 H          10.8624   15.3710   22.5685 H         1 ILE         0.0235
    129 H          14.8327   16.2848   23.8895 H         1 ILE         0.0230
    130 H          13.3829   15.3982   24.4714 H         1 ILE         0.0230
    131 H          13.7580   17.0305   25.1207 H         1 ILE         0.0230
    132 H           8.5987   17.3640   21.4347 H         1 ILE         0.1875
    133 H           6.8786   18.4787   23.5748 H         1 ILE         0.0729
    134 H           5.3485   19.5128   21.9323 H         1 ILE         0.0338
    135 H           5.9823   18.0964   19.9742 H         1 ILE         0.0267
    136 H           7.5262   19.0068   19.8558 H         1 ILE         0.0267
    137 H           7.0985   20.8813   23.0390 H         1 ILE         0.0234
    138 H           6.6885   21.4955   21.4016 H         1 ILE         0.0234
    139 H           8.2035   20.5653   21.6586 H         1 ILE         0.0234
    140 H           5.8411   19.8848   18.2573 H         1 ILE         0.0230
    141 H           6.2554   21.1156   19.4983 H         1 ILE         0.0230
    142 H           4.7114   20.2052   19.6167 H         1 ILE         0.0230
@<TRIPOS>BOND
     1    1    2 1  
     2    2    3 1  
     3    2    5 1  
     4    3    4 2  
     5    3    7 am 
     6    5    6 1  
     7    7    8 1  
     8    8    9 1  
     9    8   11 1  
    10    9   10 2  
    11    9   18 am 
    12   11   12 1  
    13   12   13 1  
    14   13   14 1  
    15   14   15 ar 
    16   15   16 ar 
    17   15   17 ar 
    18   18   19 1  
    19   19   20 1  
    20   19   22 1  
    21   20   21 2  
    22   20   32 am 
    23   22   23 1  
    24   23   24 2  
    25   23   25 1  
    26   24   26 1  
    27   25   27 ar 
    28   25   28 ar 
    29   26   27 1  
    30   27   29 ar 
    31   28   30 ar 
    32   29   31 ar 
    33   30   31 ar 
    34   32   33 1  
    35   33   34 1  
    36   33   36 1  
    37   34   35 2  
    38   34   41 am 
    39   36   37 1  
    40   37   38 1  
    41   38   39 2  
    42   38   40 am 
    43   41   42 1  
    44   42   43 1  
    45   42   45 1  
    46   43   44 2  
    47   43   48 am 
    48   45   46 1  
    49   45   47 1  
    50   48   49 1  
    51   49   50 1  
    52   49   52 1  
    53   50   51 2  
    54   50   54 am 
    55   52   53 1  
    56   54   55 1  
    57   55   56 1  
    58   55   58 1  
    59   56   57 2  
    60   56   62 am 
    61   58   59 1  
    62   58   60 1  
    63   59   61 1  
    64   62   63 1  
    65   63   64 1  
    66   63   66 1  
    67   64   65 ar 
    68   64   70 ar 
    69   66   67 1  
    70   66   68 1  
    71   67   69 1  
    72    1   71 1  
    73    1   72 1  
    74    1   73 1  
    75    2   74 1  
    76    5   75 1  
    77    5   76 1  
    78    6   77 1  
    79    7   78 1  
    80    8   79 1  
    81   11   80 1  
    82   11   81 1  
    83   12   82 1  
    84   12   83 1  
    85   13   84 1  
    86   13   85 1  
    87   14   86 1  
    88   16   87 1  
    89   16   88 1  
    90   17   89 1  
    91   17   90 1  
    92   18   91 1  
    93   19   92 1  
    94   22   93 1  
    95   22   94 1  
    96   24   95 1  
    97   26   96 1  
    98   28   97 1  
    99   29   98 1  
   100   30   99 1  
   101   31  100 1  
   102   32  101 1  
   103   33  102 1  
   104   36  103 1  
   105   36  104 1  
   106   37  105 1  
   107   37  106 1  
   108   40  107 1  
   109   40  108 1  
   110   41  109 1  
   111   42  110 1  
   112   45  111 1  
   113   46  112 1  
   114   47  113 1  
   115   47  114 1  
   116   47  115 1  
   117   48  116 1  
   118   49  117 1  
   119   52  118 1  
   120   52  119 1  
   121   53  120 1  
   122   54  121 1  
   123   55  122 1  
   124   58  123 1  
   125   59  124 1  
   126   59  125 1  
   127   60  126 1  
   128   60  127 1  
   129   60  128 1  
   130   61  129 1  
   131   61  130 1  
   132   61  131 1  
   133   62  132 1  
   134   63  133 1  
   135   66  134 1  
   136   67  135 1  
   137   67  136 1  
   138   68  137 1  
   139   68  138 1  
   140   68  139 1  
   141   69  140 1  
   142   69  141 1  
   143   69  142 1  
@<TRIPOS>SUBSTRUCTURE
     1 SER         1

