4k6y_ligand
  -I-interpret- 

141142  0  0  0  0  0  0  0  0999 V2000
   22.6270   24.0700   15.1560 N   0  3  0  0  0
   22.4430   24.3930   16.5680 C   0  0  0  0  0
   22.1860   25.8830   16.7700 C   0  0  0  0  0
   22.0000   26.3470   17.8960 O   0  0  0  0  0
   23.6460   23.9290   17.3940 C   0  0  0  0  0
   24.8640   24.2090   16.7260 O   0  0  0  0  0
   22.1710   26.6280   15.6700 N   0  0  0  0  0
   21.8270   28.0400   15.7060 C   0  0  0  0  0
   20.3410   28.1880   16.0420 C   0  0  0  0  0
   19.9120   29.1920   16.6070 O   0  0  0  0  0
   22.1330   28.6890   14.3520 C   0  0  0  0  0
   22.8600   30.0260   14.4400 C   0  0  0  0  0
   23.2870   30.5220   13.0600 C   0  0  0  0  0
   22.6380   31.7780   12.6910 N   0  0  0  0  0
   23.1020   32.9870   13.0040 C   0  0  0  0  0
   22.4390   34.0710   12.6190 N   0  0  0  0  0
   24.2280   33.1220   13.6940 N   0  0  0  0  0
   19.5570   27.1760   15.6860 N   0  0  0  0  0
   18.1200   27.2100   15.9270 C   0  0  0  0  0
   17.7560   26.5160   17.2360 C   0  0  0  0  0
   18.4460   25.6030   17.6800 O   0  0  0  0  0
   17.3600   26.5010   14.8090 C   0  0  0  0  0
   17.6270   26.9710   13.4140 C   0  0  0  0  0
   18.2080   28.1460   13.0250 C   0  0  0  0  0
   17.3200   26.2560   12.2160 C   0  0  0  0  0
   18.2720   28.2050   11.6500 N   0  0  0  0  0
   17.7410   27.0540   11.1310 C   0  0  0  0  0
   16.7340   25.0120   11.9530 C   0  0  0  0  0
   17.5900   26.6490    9.8030 C   0  0  0  0  0
   16.5870   24.6110   10.6360 C   0  0  0  0  0
   17.0140   25.4280    9.5780 C   0  0  0  0  0
   16.6520   26.9500   17.8300 N   0  0  0  0  0
   16.0860   26.2880   18.9930 C   0  0  0  0  0
   15.4880   24.9400   18.5800 C   0  0  0  0  0
   14.9710   24.7950   17.4620 O   0  0  0  0  0
   14.9790   27.1550   19.6040 C   0  0  0  0  0
   15.4090   28.5620   19.9910 C   0  0  0  0  0
   14.2340   29.5040   20.1300 C   0  0  0  0  0
   13.5460   29.5110   21.1540 O   0  0  0  0  0
   13.9920   30.3030   19.0970 N   0  0  0  0  0
   15.5780   23.9620   19.4800 N   0  0  0  0  0
   14.8820   22.6890   19.3350 C   0  0  0  0  0
   14.1020   22.4260   20.6040 C   0  0  0  0  0
   14.6140   22.6230   21.7020 O   0  0  0  0  0
   15.8610   21.5300   19.1040 C   0  0  0  0  0
   16.5280   21.7280   17.8550 O   0  0  0  0  0
   15.1330   20.1780   19.0830 C   0  0  0  0  0
   12.8530   21.9890   20.4600 N   0  0  0  0  0
   12.0450   21.6330   21.6120 C   0  0  0  0  0
   11.4470   20.2420   21.4210 C   0  0  0  0  0
   11.0380   19.8890   20.3210 O   0  0  0  0  0
   10.9110   22.6410   21.8100 C   0  0  0  0  0
   11.4080   23.9400   22.0920 O   0  0  0  0  0
   11.4340   19.4580   22.4940 N   0  0  0  0  0
   10.7740   18.1530   22.5150 C   0  0  0  0  0
    9.3520   18.4020   22.9920 C   0  0  0  0  0
    9.1520   19.0410   24.0310 O   0  0  0  0  0
   11.4910   17.2070   23.5020 C   0  0  0  0  0
   12.9570   17.0240   23.1150 C   0  0  0  0  0
   10.8030   15.8520   23.5560 C   0  0  0  0  0
   13.7910   16.3900   24.2270 C   0  0  0  0  0
    8.3670   17.9270   22.2280 N   0  0  0  0  0
    6.9590   18.2030   22.5130 C   0  0  0  0  0
    6.0940   16.9820   22.2630 C   0  0  0  0  0
    6.5490   15.9580   21.7400 O   0  0  0  0  0
    6.4050   19.3710   21.6610 C   0  0  0  0  0
    6.4710   19.0640   20.1610 C   0  0  0  0  0
    7.1510   20.6690   21.9610 C   0  0  0  0  0
    5.7700   20.1440   19.3240 C   0  0  0  0  0
    4.9020   17.0240   22.5810 O   0  0  0  0  0
   21.8149   24.3879   14.6271 H   0  0  0  0  0
   23.4647   24.5365   14.8081 H   0  0  0  0  0
   22.7295   23.0607   15.0499 H   0  0  0  0  0
   21.5614   23.8562   16.9182 H   0  0  0  0  0
   23.5708   22.8520   17.5441 H   0  0  0  0  0
   23.6407   24.4603   18.3457 H   0  0  0  0  0
   25.5996   23.9085   17.2648 H   0  0  0  0  0
   22.4073   26.1975   14.7760 H   0  0  0  0  0
   22.4205   28.5408   16.4709 H   0  0  0  0  0
   21.1759   28.8783   13.8660 H   0  0  0  0  0
   22.7880   28.0053   13.8119 H   0  0  0  0  0
   23.7528   29.8943   15.0513 H   0  0  0  0  0
   22.1823   30.7597   14.8765 H   0  0  0  0  0
   22.9997   29.7674   12.3278 H   0  0  0  0  0
   24.3632   30.6936   13.0826 H   0  0  0  0  0
   21.7704   31.7256   12.1573 H   0  0  0  0  0
   22.7958   34.9973   12.8538 H   0  0  0  0  0
   21.5729   33.9775   12.0884 H   0  0  0  0  0
   24.7470   32.2953   13.9900 H   0  0  0  0  0
   19.9690   26.3591   15.2351 H   0  0  0  0  0
   17.8413   28.2628   15.9714 H   0  0  0  0  0
   16.3033   26.6939   14.9943 H   0  0  0  0  0
   17.6795   25.4594   14.8418 H   0  0  0  0  0
   18.5672   28.9209   13.7022 H   0  0  0  0  0
   16.4000   24.3716   12.7693 H   0  0  0  0  0
   17.9182   27.2808    8.9777 H   0  0  0  0  0
   16.1321   23.6449   10.4174 H   0  0  0  0  0
   16.8839   25.0820    8.5526 H   0  0  0  0  0
   16.1846   27.7766   17.4576 H   0  0  0  0  0
   16.8766   26.1339   19.7274 H   0  0  0  0  0
   14.6589   26.6592   20.5204 H   0  0  0  0  0
   14.2039   27.2591   18.8447 H   0  0  0  0  0
   16.0584   28.9455   19.2040 H   0  0  0  0  0
   15.9146   28.5077   20.9551 H   0  0  0  0  0
   13.2101   30.9572   19.1304 H   0  0  0  0  0
   14.5880   30.2624   18.2703 H   0  0  0  0  0
   16.1584   24.1100   20.3056 H   0  0  0  0  0
   14.2229   22.7506   18.4690 H   0  0  0  0  0
   16.5792   21.5152   19.9238 H   0  0  0  0  0
   17.1425   21.0061   17.7037 H   0  0  0  0  0
   14.6306   20.0224   20.0377 H   0  0  0  0  0
   14.3970   20.1756   18.2790 H   0  0  0  0  0
   15.8565   19.3797   18.9174 H   0  0  0  0  0
   12.4569   21.9028   19.5240 H   0  0  0  0  0
   12.6877   21.6413   22.4924 H   0  0  0  0  0
   10.3041   22.3143   22.6544 H   0  0  0  0  0
   10.3283   22.6881   20.8900 H   0  0  0  0  0
   10.6716   24.5445   22.2100 H   0  0  0  0  0
   11.9047   19.7804   23.3395 H   0  0  0  0  0
   10.7945   17.6877   21.5295 H   0  0  0  0  0
   11.4414   17.6656   24.4896 H   0  0  0  0  0
   13.3724   18.0104   22.9086 H   0  0  0  0  0
   12.9929   16.3593   22.2518 H   0  0  0  0  0
    9.7714   15.9825   23.8830 H   0  0  0  0  0
   10.8167   15.3992   22.5646 H   0  0  0  0  0
   11.3294   15.2064   24.2590 H   0  0  0  0  0
   13.7575   17.0255   25.1119 H   0  0  0  0  0
   13.3856   15.4074   24.4683 H   0  0  0  0  0
   14.8229   16.2863   23.8914 H   0  0  0  0  0
    8.6033   17.3527   21.4188 H   0  0  0  0  0
    6.9190   18.4798   23.5665 H   0  0  0  0  0
    7.4825   16.0828   21.5538 H   0  0  0  0  0
    5.3571   19.4943   21.9343 H   0  0  0  0  0
    5.9670   18.1138   19.9841 H   0  0  0  0  0
    7.5195   19.0293   19.8651 H   0  0  0  0  0
    7.0338   20.9185   23.0156 H   0  0  0  0  0
    8.2089   20.5398   21.7323 H   0  0  0  0  0
    6.7410   21.4721   21.3486 H   0  0  0  0  0
    4.7213   20.2036   19.6150 H   0  0  0  0  0
    6.2519   21.1062   19.4976 H   0  0  0  0  0
    5.8411   19.8861   18.2673 H   0  0  0  0  0
  1  2  1  0  0  0
  2  3  1  0  0  0
  2  5  1  0  0  0
  3  4  2  0  0  0
  3  7  1  0  0  0
  5  6  1  0  0  0
  7  8  1  0  0  0
  8  9  1  0  0  0
  8 11  1  0  0  0
  9 10  2  0  0  0
  9 18  1  0  0  0
 11 12  1  0  0  0
 12 13  1  0  0  0
 13 14  1  0  0  0
 14 15  1  0  0  0
 15 16  1  0  0  0
 15 17  2  0  0  0
 18 19  1  0  0  0
 19 20  1  0  0  0
 19 22  1  0  0  0
 20 21  2  0  0  0
 20 32  1  0  0  0
 22 23  1  0  0  0
 23 24  4  0  0  0
 23 25  4  0  0  0
 24 26  4  0  0  0
 25 27  4  0  0  0
 25 28  4  0  0  0
 26 27  4  0  0  0
 27 29  4  0  0  0
 28 30  4  0  0  0
 29 31  4  0  0  0
 30 31  4  0  0  0
 32 33  1  0  0  0
 33 34  1  0  0  0
 33 36  1  0  0  0
 34 35  2  0  0  0
 34 41  1  0  0  0
 36 37  1  0  0  0
 37 38  1  0  0  0
 38 39  2  0  0  0
 38 40  1  0  0  0
 41 42  1  0  0  0
 42 43  1  0  0  0
 42 45  1  0  0  0
 43 44  2  0  0  0
 43 48  1  0  0  0
 45 46  1  0  0  0
 45 47  1  0  0  0
 48 49  1  0  0  0
 49 50  1  0  0  0
 49 52  1  0  0  0
 50 51  2  0  0  0
 50 54  1  0  0  0
 52 53  1  0  0  0
 54 55  1  0  0  0
 55 56  1  0  0  0
 55 58  1  0  0  0
 56 57  2  0  0  0
 56 62  1  0  0  0
 58 59  1  0  0  0
 58 60  1  0  0  0
 59 61  1  0  0  0
 62 63  1  0  0  0
 63 64  1  0  0  0
 63 66  1  0  0  0
 64 65  1  0  0  0
 64 70  2  0  0  0
 66 67  1  0  0  0
 66 68  1  0  0  0
 67 69  1  0  0  0
  1 71  1  0  0  0
  1 72  1  0  0  0
  1 73  1  0  0  0
  2 74  1  0  0  0
  5 75  1  0  0  0
  5 76  1  0  0  0
  6 77  1  0  0  0
  7 78  1  0  0  0
  8 79  1  0  0  0
 11 80  1  0  0  0
 11 81  1  0  0  0
 12 82  1  0  0  0
 12 83  1  0  0  0
 13 84  1  0  0  0
 13 85  1  0  0  0
 14 86  1  0  0  0
 16 87  1  0  0  0
 16 88  1  0  0  0
 17 89  1  0  0  0
 18 90  1  0  0  0
 19 91  1  0  0  0
 22 92  1  0  0  0
 22 93  1  0  0  0
 24 94  1  0  0  0
 28 95  1  0  0  0
 29 96  1  0  0  0
 30 97  1  0  0  0
 31 98  1  0  0  0
 32 99  1  0  0  0
 33100  1  0  0  0
 36101  1  0  0  0
 36102  1  0  0  0
 37103  1  0  0  0
 37104  1  0  0  0
 40105  1  0  0  0
 40106  1  0  0  0
 41107  1  0  0  0
 42108  1  0  0  0
 45109  1  0  0  0
 46110  1  0  0  0
 47111  1  0  0  0
 47112  1  0  0  0
 47113  1  0  0  0
 48114  1  0  0  0
 49115  1  0  0  0
 52116  1  0  0  0
 52117  1  0  0  0
 53118  1  0  0  0
 54119  1  0  0  0
 55120  1  0  0  0
 58121  1  0  0  0
 59122  1  0  0  0
 59123  1  0  0  0
 60124  1  0  0  0
 60125  1  0  0  0
 60126  1  0  0  0
 61127  1  0  0  0
 61128  1  0  0  0
 61129  1  0  0  0
 62130  1  0  0  0
 63131  1  0  0  0
 65132  1  0  0  0
 66133  1  0  0  0
 67134  1  0  0  0
 67135  1  0  0  0
 68136  1  0  0  0
 68137  1  0  0  0
 68138  1  0  0  0
 69139  1  0  0  0
 69140  1  0  0  0
 69141  1  0  0  0
M  END
$$$$
