5c91_ligand
  -I-interpret- 

 45 46  0  0  0  0  0  0  0  0999 V2000
  -36.9880    3.4340   -4.4930 O   0  0  0  0  0
  -36.1060    9.8520   -4.2280 C   0  0  0  0  0
  -35.5210    8.5530   -6.2430 C   0  0  0  0  0
  -35.0460    7.3050   -6.9370 C   0  0  0  0  0
  -33.9830    5.9530   -8.3930 N   0  0  0  0  0
  -34.1540    7.2570   -8.1170 C   0  0  0  0  0
  -33.5660    8.4340   -8.8510 C   0  0  0  0  0
  -33.1560    5.4310   -9.5180 C   0  0  0  0  0
  -34.6710    5.1920   -7.5090 C   0  0  0  0  0
  -34.7970    3.8080   -7.3950 C   0  0  0  0  0
  -35.5700    3.2490   -6.3800 C   0  0  0  0  0
  -36.2340    4.0570   -5.4600 C   0  0  0  0  0
  -37.4800    4.0670   -3.3090 C   0  0  0  0  0
  -36.1200    5.4490   -5.5680 C   0  0  0  0  0
  -36.1110   10.4690   -0.5500 O   0  0  0  0  0
  -37.2340   10.5140   -1.0360 C   0  0  0  0  0
  -38.3870   10.1030   -0.2360 O   0  0  0  0  0
  -38.3640    8.9420    0.5930 C   0  0  0  0  0
  -37.4480   11.0200   -2.4520 C   0  0  0  0  0
  -37.4600    9.9120   -3.5180 C   0  0  0  0  0
  -35.6990    8.6260   -4.9130 N   0  0  0  0  0
  -35.7220    9.5190   -6.9640 O   0  0  0  0  0
  -35.3420    6.0000   -6.5830 C   0  0  0  0  0
  -35.3727    9.9776   -3.4314 H   0  0  0  0  0
  -36.1781   10.5976   -5.0198 H   0  0  0  0  0
  -34.3713    9.0570   -9.2402 H   0  0  0  0  0
  -32.9518    9.0181   -8.1656 H   0  0  0  0  0
  -32.9510    8.0755   -9.6764 H   0  0  0  0  0
  -33.5519    5.8049  -10.4622 H   0  0  0  0  0
  -32.1260    5.7663   -9.3961 H   0  0  0  0  0
  -33.1875    4.3415   -9.5154 H   0  0  0  0  0
  -34.2865    3.1583   -8.1059 H   0  0  0  0  0
  -35.6564    2.1650   -6.3047 H   0  0  0  0  0
  -36.6404    4.4389   -2.7217 H   0  0  0  0  0
  -38.1282    4.8985   -3.5857 H   0  0  0  0  0
  -38.0451    3.3444   -2.7203 H   0  0  0  0  0
  -36.6376    6.0975   -4.8612 H   0  0  0  0  0
  -38.1704    8.0625   -0.0210 H   0  0  0  0  0
  -37.5768    9.0458    1.3397 H   0  0  0  0  0
  -39.3273    8.8339    1.0914 H   0  0  0  0  0
  -36.6167   11.6848   -2.6865 H   0  0  0  0  0
  -38.4244   11.5038   -2.4780 H   0  0  0  0  0
  -37.6544    8.9538   -3.0362 H   0  0  0  0  0
  -38.2387   10.1275   -4.2496 H   0  0  0  0  0
  -35.5428    7.7866   -4.3550 H   0  0  0  0  0
 12  1  1  0  0  0
  1 13  1  0  0  0
 20  2  1  0  0  0
  2 21  1  0  0  0
  3  4  1  0  0  0
 21  3  1  0  0  0
  3 22  2  0  0  0
  4  6  4  0  0  0
  4 23  4  0  0  0
  6  5  4  0  0  0
  5  8  1  0  0  0
  9  5  4  0  0  0
  6  7  1  0  0  0
  9 10  4  0  0  0
 23  9  4  0  0  0
 10 11  4  0  0  0
 12 11  4  0  0  0
 14 12  4  0  0  0
 23 14  4  0  0  0
 16 15  2  0  0  0
 16 17  1  0  0  0
 19 16  1  0  0  0
 17 18  1  0  0  0
 19 20  1  0  0  0
  2 24  1  0  0  0
  2 25  1  0  0  0
  7 26  1  0  0  0
  7 27  1  0  0  0
  7 28  1  0  0  0
  8 29  1  0  0  0
  8 30  1  0  0  0
  8 31  1  0  0  0
 10 32  1  0  0  0
 11 33  1  0  0  0
 13 34  1  0  0  0
 13 35  1  0  0  0
 13 36  1  0  0  0
 14 37  1  0  0  0
 18 38  1  0  0  0
 18 39  1  0  0  0
 18 40  1  0  0  0
 19 41  1  0  0  0
 19 42  1  0  0  0
 20 43  1  0  0  0
 20 44  1  0  0  0
 21 45  1  0  0  0
M  END
$$$$
