#	Name:			4no1_ligand
#	Creating user name:	wangrx
#	Creation time:		Wed Aug  4 17:56:34 2021

#	Modifying user name:	wangrx
#	Modification time:	Wed Aug  4 17:57:10 2021

@<TRIPOS>MOLECULE
4no1_ligand
   79    79     1     0     0
SMALL
GAST_HUCK


@<TRIPOS>ATOM
      1 C1         13.0350 -136.5920   24.7530 C.ar      1 CIX        -0.0578 
      2 C2         13.6460 -135.9620   25.8370 C.ar      1 CIX        -0.0685 
      3 C3         13.6230 -136.5580   27.0980 C.ar      1 CIX        -0.0687 
      4 C4         12.9870 -137.7860   27.2730 C.ar      1 CIX        -0.0685 
      5 C5         12.3760 -138.4150   26.1890 C.ar      1 CIX        -0.0578 
      6 C6         12.3930 -137.8230   24.9220 C.ar      1 CIX        -0.0130 
      7 C7         11.7670 -138.4820   23.8490 C.3       1 CIX         0.1113 
      8 O8         11.5430 -137.5340   22.8200 O.3       1 CIX        -0.2506 
      9 C9         10.9920 -138.1050   21.7030 C.2       1 CIX         0.3239 
     10 O10        11.0280 -139.3270   21.5490 O.2       1 CIX        -0.3773 
     11 N11        10.4170 -137.3240   20.7650 N.am      1 CIX        -0.2411 
     12 C12         9.8160 -137.8860   19.5360 C.3       1 CIX         0.1331 
     13 C17        10.8380 -137.8940   18.3970 C.2       1 CIX         0.2039 
     14 O18        11.5360 -136.9020   18.1890 O.2       1 CIX        -0.3944 
     15 C13         8.6510 -137.0100   19.0380 C.3       1 CIX        -0.0101 
     16 C14         7.2990 -137.2900   19.7180 C.3       1 CIX        -0.0425 
     17 C15         6.2040 -136.5260   18.9510 C.3       1 CIX        -0.0625 
     18 C16         6.9530 -138.7880   19.7350 C.3       1 CIX        -0.0625 
     19 N19        10.8490 -139.0090   17.6380 N.am      1 CIX        -0.2638 
     20 C20        11.7150 -139.1370   16.4550 C.3       1 CIX         0.1286 
     21 C25        10.8200 -139.0460   15.2230 C.2       1 CIX         0.1735 
     22 O26         9.8220 -139.7620   15.1380 O.2       1 CIX        -0.3971 
     23 C21        12.3840 -140.5290   16.3640 C.3       1 CIX        -0.0102 
     24 C22        13.8340 -140.6770   16.8920 C.3       1 CIX        -0.0425 
     25 C23        14.6530 -139.3700   16.9140 C.3       1 CIX        -0.0625 
     26 C24        13.8170 -141.3020   18.2990 C.3       1 CIX        -0.0625 
     27 C28        10.5140 -138.1320   12.9650 C.3       1 CIX        -0.2261 
     28 C29        10.3910 -136.6740   12.4720 C.3       1 CIX        -0.1585 
     29 C30         9.6540 -135.7580   13.4610 C.3       1 CIX        -0.0721 
     30 C31         9.5120 -134.3620   12.8330 C.3       1 CIX        -0.0649 
     31 C32         8.2530 -136.2920   13.7940 C.3       1 CIX        -0.0649 
     32 N27        11.2360 -138.2210   14.2480 N.am      1 CIX        -0.4362 
     33 B33        11.2990 -138.9620   11.9300 B         1 CIX         3.0000 
     34 O34        11.4110 -140.3400   12.3310 O.3       1 CIX        -0.4105 
     35 O35        12.5550 -138.3060   11.6930 O.3       1 CIX        -0.4105 
     36 H1         13.0578 -136.1253   23.7749 H         1 CIX         0.0557 
     37 H2         14.1399 -135.0069   25.6993 H         1 CIX         0.0599 
     38 H3         14.0985 -136.0675   27.9396 H         1 CIX         0.0559 
     39 H4         12.9675 -138.2518   28.2516 H         1 CIX         0.0599 
     40 H5         11.8838 -139.3706   26.3294 H         1 CIX         0.0557 
     41 H6         10.8076 -138.9059   24.1805 H         1 CIX         0.0776 
     42 H7         12.4157 -139.2890   23.4776 H         1 CIX         0.0776 
     43 H8         10.3965 -136.3341   20.9052 H         1 CIX         0.1899 
     44 H9          9.4628 -138.9076   19.7399 H         1 CIX         0.0799 
     45 H10         8.5326 -137.1793   17.9576 H         1 CIX         0.0315 
     46 H11         8.9131 -135.9569   19.2176 H         1 CIX         0.0315 
     47 H12         7.3412 -136.9268   20.7554 H         1 CIX         0.0298 
     48 H13         5.2278 -136.7132   19.4221 H         1 CIX         0.0232 
     49 H14         6.1793 -136.8708   17.9067 H         1 CIX         0.0232 
     50 H15         6.4226 -135.4482   18.9763 H         1 CIX         0.0232 
     51 H16         7.7327 -139.3382   20.2821 H         1 CIX         0.0232 
     52 H17         6.8957 -139.1629   18.7024 H         1 CIX         0.0232 
     53 H18         5.9831 -138.9347   20.2327 H         1 CIX         0.0232 
     54 H19        10.2511 -139.7711   17.8865 H         1 CIX         0.1883 
     55 H20        12.4770 -138.3437   16.4588 H         1 CIX         0.0799 
     56 H21        12.3913 -140.8194   15.3031 H         1 CIX         0.0315 
     57 H22        11.7561 -141.2312   16.9321 H         1 CIX         0.0315 
     58 H23        14.3536 -141.3722   16.2162 H         1 CIX         0.0298 
     59 H24        15.6616 -139.5758   17.3017 H         1 CIX         0.0232 
     60 H25        14.1537 -138.6353   17.5627 H         1 CIX         0.0232 
     61 H26        14.7278 -138.9669   15.8933 H         1 CIX         0.0232 
     62 H27        13.2323 -142.2335   18.2794 H         1 CIX         0.0232 
     63 H28        13.3592 -140.5966   19.0081 H         1 CIX         0.0232 
     64 H29        14.8474 -141.5225   18.6148 H         1 CIX         0.0232 
     65 H31         9.5047 -138.5494   13.0956 H         1 CIX        -0.1822 
     66 H32         9.8414 -136.6728   11.5191 H         1 CIX        -0.0063 
     67 H33        11.4027 -136.2729   12.3123 H         1 CIX        -0.0063 
     68 H34        10.2406 -135.6874   14.3888 H         1 CIX         0.0272 
     69 H35         8.9852 -133.6969   13.5331 H         1 CIX         0.0232 
     70 H36         8.9388 -134.4375   11.8972 H         1 CIX         0.0232 
     71 H37        10.5104 -133.9527   12.6194 H         1 CIX         0.0232 
     72 H38         8.3392 -137.2917   14.2447 H         1 CIX         0.0232 
     73 H39         7.6562 -136.3557   12.8722 H         1 CIX         0.0232 
     74 H40         7.7602 -135.6112   14.5036 H         1 CIX         0.0232 
     75 H41        12.0491 -137.6576   14.3945 H         1 CIX         0.1459 
     76 H42        11.8558 -140.8315   11.6505 H         1 CIX         0.2052 
     77 H43        11.8558 -140.8315   11.6505 H         1 CIX         0.2052 
     78 H44        13.0217 -138.7587   11.0003 H         1 CIX         0.2052 
     79 H45        13.0217 -138.7587   11.0003 H         1 CIX         0.2052 
@<TRIPOS>BOND
     1    1    2 ar   
     2    6    1 ar   
     3    2    3 ar   
     4    4    3 ar   
     5    5    4 ar   
     6    6    5 ar   
     7    7    6 1    
     8    8    7 1    
     9    9    8 1    
    10    9   10 2    
    11   11    9 am   
    12   12   11 1    
    13   13   12 1    
    14   12   15 1    
    15   13   14 2    
    16   19   13 am   
    17   15   16 1    
    18   16   17 1    
    19   16   18 1    
    20   20   19 1    
    21   21   20 1    
    22   20   23 1    
    23   21   22 2    
    24   32   21 am   
    25   23   24 1    
    26   24   25 1    
    27   24   26 1    
    28   27   28 1    
    29   27   32 1    
    30   27   33 1    
    31   28   29 1    
    32   29   30 1    
    33   29   31 1    
    34   33   34 1    
    35   33   35 1    
    36    1   36 1    
    37    2   37 1    
    38    3   38 1    
    39    4   39 1    
    40    5   40 1    
    41    7   41 1    
    42    7   42 1    
    43   11   43 1    
    44   12   44 1    
    45   15   45 1    
    46   15   46 1    
    47   16   47 1    
    48   17   48 1    
    49   17   49 1    
    50   17   50 1    
    51   18   51 1    
    52   18   52 1    
    53   18   53 1    
    54   19   54 1    
    55   20   55 1    
    56   23   56 1    
    57   23   57 1    
    58   24   58 1    
    59   25   59 1    
    60   25   60 1    
    61   25   61 1    
    62   26   62 1    
    63   26   63 1    
    64   26   64 1    
    65   27   65 1    
    66   28   66 1    
    67   28   67 1    
    68   29   68 1    
    69   30   69 1    
    70   30   70 1    
    71   30   71 1    
    72   31   72 1    
    73   31   73 1    
    74   31   74 1    
    75   32   75 1    
    76   34   76 1    
    77   34   77 1    
    78   35   78 1    
    79   35   79 1    
@<TRIPOS>SUBSTRUCTURE
     1 CIX         1 PERM              0 ****  ****    0 ROOT 
