4no1_ligand

Created by X-TOOL on Fri Nov 18 17:50:59 2016
 80 80  0  0  0  0  0  0  0  0999 V2000
   13.0350 -136.5920   24.7530  C 0  0  0  2  0  3
   13.6460 -135.9620   25.8370  C 0  0  0  2  0  3
   13.6230 -136.5580   27.0980  C 0  0  0  2  0  3
   12.9870 -137.7860   27.2730  C 0  0  0  2  0  3
   12.3760 -138.4150   26.1890  C 0  0  0  2  0  3
   12.3930 -137.8230   24.9220  C 0  0  0  1  0  3
   11.7670 -138.4820   23.8490  C 0  0  0  3  0  4
   11.5430 -137.5340   22.8200  O 0  0  0  1  0  2
   10.9920 -138.1050   21.7030  C 0  0  0  1  0  3
   11.0280 -139.3270   21.5490  O 0  0  0  1  0  1
   10.4170 -137.3240   20.7650  N 0  0  0  2  0  3
    9.8160 -137.8860   19.5360  C 0  0  0  2  0  4
   10.8380 -137.8940   18.3970  C 0  0  0  1  0  3
   11.5360 -136.9020   18.1890  O 0  0  0  1  0  1
    8.6510 -137.0100   19.0380  C 0  0  0  3  0  4
    7.2990 -137.2900   19.7180  C 0  0  0  2  0  4
    6.2040 -136.5260   18.9510  C 0  0  0  4  0  4
    6.9530 -138.7880   19.7350  C 0  0  0  4  0  4
   10.8490 -139.0090   17.6380  N 0  0  0  2  0  3
   11.7150 -139.1370   16.4550  C 0  0  0  2  0  4
   10.8200 -139.0460   15.2230  C 0  0  0  1  0  3
    9.8220 -139.7620   15.1380  O 0  0  0  1  0  1
   12.3840 -140.5290   16.3640  C 0  0  0  3  0  4
   13.8340 -140.6770   16.8920  C 0  0  0  2  0  4
   14.6530 -139.3700   16.9140  C 0  0  0  4  0  4
   13.8170 -141.3020   18.2990  C 0  0  0  4  0  4
   10.5140 -138.1320   12.9650  C 0  0  0  3  0  5
   10.3910 -136.6740   12.4720  C 0  0  0  3  0  4
    9.6540 -135.7580   13.4610  C 0  0  0  2  0  4
    9.5120 -134.3620   12.8330  C 0  0  0  4  0  4
    8.2530 -136.2920   13.7940  C 0  0  0  4  0  4
   11.2360 -138.2210   14.2480  N 0  0  0  2  0  3
   11.2990 -138.9620   11.9300  B 0  0  0  1  0  3
   11.4110 -140.3400   12.3310  O 0  0  0  3  0  3
   12.5550 -138.3060   11.6930  O 0  0  0  3  0  3
   13.0578 -136.1253   23.7749  H 0  0  0  1  0  1
   14.1399 -135.0069   25.6993  H 0  0  0  1  0  1
   14.0985 -136.0675   27.9396  H 0  0  0  1  0  1
   12.9675 -138.2518   28.2516  H 0  0  0  1  0  1
   11.8838 -139.3706   26.3294  H 0  0  0  1  0  1
   10.8076 -138.9059   24.1805  H 0  0  0  1  0  1
   12.4157 -139.2890   23.4776  H 0  0  0  1  0  1
   10.3965 -136.3341   20.9052  H 0  0  0  1  0  1
    9.4628 -138.9076   19.7399  H 0  0  0  1  0  1
    8.5326 -137.1793   17.9576  H 0  0  0  1  0  1
    8.9131 -135.9569   19.2176  H 0  0  0  1  0  1
    7.3412 -136.9268   20.7554  H 0  0  0  1  0  1
    5.2278 -136.7132   19.4221  H 0  0  0  1  0  1
    6.1793 -136.8708   17.9067  H 0  0  0  1  0  1
    6.4226 -135.4482   18.9763  H 0  0  0  1  0  1
    7.7327 -139.3382   20.2821  H 0  0  0  1  0  1
    6.8957 -139.1629   18.7024  H 0  0  0  1  0  1
    5.9831 -138.9347   20.2327  H 0  0  0  1  0  1
   10.2511 -139.7711   17.8865  H 0  0  0  1  0  1
   12.4770 -138.3437   16.4588  H 0  0  0  1  0  1
   12.3913 -140.8194   15.3031  H 0  0  0  1  0  1
   11.7561 -141.2312   16.9321  H 0  0  0  1  0  1
   14.3536 -141.3722   16.2162  H 0  0  0  1  0  1
   15.6616 -139.5758   17.3017  H 0  0  0  1  0  1
   14.1537 -138.6353   17.5627  H 0  0  0  1  0  1
   14.7278 -138.9669   15.8933  H 0  0  0  1  0  1
   13.2323 -142.2335   18.2794  H 0  0  0  1  0  1
   13.3592 -140.5966   19.0081  H 0  0  0  1  0  1
   14.8474 -141.5225   18.6148  H 0  0  0  1  0  1
   11.0582 -138.7179   12.2096  H 0  0  0  1  0  1
    9.5047 -138.5494   13.0956  H 0  0  0  1  0  1
    9.8414 -136.6728   11.5191  H 0  0  0  1  0  1
   11.4027 -136.2729   12.3123  H 0  0  0  1  0  1
   10.2406 -135.6874   14.3888  H 0  0  0  1  0  1
    8.9852 -133.6969   13.5331  H 0  0  0  1  0  1
    8.9388 -134.4375   11.8972  H 0  0  0  1  0  1
   10.5104 -133.9527   12.6194  H 0  0  0  1  0  1
    8.3392 -137.2917   14.2447  H 0  0  0  1  0  1
    7.6562 -136.3557   12.8722  H 0  0  0  1  0  1
    7.7602 -135.6112   14.5036  H 0  0  0  1  0  1
   12.0491 -137.6576   14.3945  H 0  0  0  1  0  1
   11.8558 -140.8315   11.6505  H 0  0  0  1  0  1
   11.8558 -140.8315   11.6505  H 0  0  0  1  0  1
   13.0217 -138.7587   11.0003  H 0  0  0  1  0  1
   13.0217 -138.7587   11.0003  H 0  0  0  1  0  1
  1  2  4  0  0  1
  6  1  4  0  0  1
  2  3  4  0  0  1
  4  3  4  0  0  1
  5  4  4  0  0  1
  6  5  4  0  0  1
  7  6  1  0  0  2
  8  7  1  0  0  2
  9  8  1  0  0  2
  9 10  2  0  0  2
 11  9  1  0  0  2
 12 11  1  0  0  2
 13 12  1  0  0  2
 12 15  1  0  0  2
 13 14  2  0  0  2
 19 13  1  0  0  2
 15 16  1  0  0  2
 16 17  1  0  0  2
 16 18  1  0  0  2
 20 19  1  0  0  2
 21 20  1  0  0  2
 20 23  1  0  0  2
 21 22  2  0  0  2
 32 21  1  0  0  2
 23 24  1  0  0  2
 24 25  1  0  0  2
 24 26  1  0  0  2
 27 28  1  0  0  2
 27 32  1  0  0  2
 27 33  1  0  0  2
 28 29  1  0  0  2
 29 30  1  0  0  2
 29 31  1  0  0  2
 33 34  1  0  0  2
 33 35  1  0  0  2
  1 36  1  0  0  2
  2 37  1  0  0  2
  3 38  1  0  0  2
  4 39  1  0  0  2
  5 40  1  0  0  2
  7 41  1  0  0  2
  7 42  1  0  0  2
 11 43  1  0  0  2
 12 44  1  0  0  2
 15 45  1  0  0  2
 15 46  1  0  0  2
 16 47  1  0  0  2
 17 48  1  0  0  2
 17 49  1  0  0  2
 17 50  1  0  0  2
 18 51  1  0  0  2
 18 52  1  0  0  2
 18 53  1  0  0  2
 19 54  1  0  0  2
 20 55  1  0  0  2
 23 56  1  0  0  2
 23 57  1  0  0  2
 24 58  1  0  0  2
 25 59  1  0  0  2
 25 60  1  0  0  2
 25 61  1  0  0  2
 26 62  1  0  0  2
 26 63  1  0  0  2
 26 64  1  0  0  2
 27 65  1  0  0  2
 27 66  1  0  0  2
 28 67  1  0  0  2
 28 68  1  0  0  2
 29 69  1  0  0  2
 30 70  1  0  0  2
 30 71  1  0  0  2
 30 72  1  0  0  2
 31 73  1  0  0  2
 31 74  1  0  0  2
 31 75  1  0  0  2
 32 76  1  0  0  2
 34 77  1  0  0  2
 34 78  1  0  0  2
 35 79  1  0  0  2
 35 80  1  0  0  2
M  END
> <MOLECULAR_FORMULA>
C25H45N3O6B

> <MOLECULAR_WEIGHT>
494.1

> <NUM_HB_ATOMS>
9  

> <NUM_ROTOR>
15 

> <XLOGP2>
4.48 

$$$$
