6r7k_ligand
  -I-interpret- 

 65 67  0  0  0  0  0  0  0  0999 V2000
  -24.0710   -0.9200  -16.9770 C   0  0  0  0  0
  -23.9690   -2.3730  -16.5570 C   0  0  0  0  0
  -25.3470   -4.3610  -15.5800 O   0  0  0  0  0
  -26.3750   -3.0400  -17.4640 O   0  0  0  0  0
  -27.3970   -1.2280  -15.3260 C   0  0  0  0  0
  -27.9610   -0.4170  -14.3580 C   0  0  0  0  0
  -27.4190   -0.3600  -13.0890 C   0  0  0  0  0
  -26.3000   -1.1160  -12.7920 C   0  0  0  0  0
  -25.7470   -1.9560  -13.7400 C   0  0  0  0  0
  -28.0170    0.5760  -12.0860 C   0  0  0  0  0
  -27.9570    1.0320   -9.6450 C   0  0  0  0  0
  -27.3540    0.5350   -8.3630 C   0  0  0  0  0
  -29.3570    0.5690   -5.1870 C   0  0  0  0  0
  -30.2130   -0.4970   -5.3940 C   0  0  0  0  0
  -30.1390   -1.2330   -6.5620 C   0  0  0  0  0
  -29.2200   -0.9030   -7.5430 C   0  0  0  0  0
  -28.2480    2.7410  -13.0490 N   0  0  0  0  0
  -26.8300    4.7480  -13.2080 C   0  0  0  0  0
  -28.5250    5.6860  -15.1740 C   0  0  0  0  0
  -28.7590    4.4570  -14.5920 C   0  0  0  0  0
  -27.1790    7.8230  -15.3790 C   0  0  0  0  0
  -26.8450    7.7760  -16.8610 C   0  0  0  0  0
  -25.5840   -3.0740  -16.2300 S   0  0  0  0  0
  -26.3030   -1.9990  -15.0020 C   0  0  0  0  0
  -27.6820    0.2030  -10.7100 N   0  0  0  0  0
  -28.5770    2.0810   -9.7050 O   0  0  0  0  0
  -28.3730    0.1700   -7.3400 C   0  0  0  0  0
  -28.4340    0.8960   -6.1630 C   0  0  0  0  0
  -27.4060    1.9360  -12.3320 C   0  0  0  0  0
  -26.3050    2.2690  -11.9340 O   0  0  0  0  0
  -27.9200    3.9930  -13.6060 C   0  0  0  0  0
  -26.6040    5.9800  -13.7960 C   0  0  0  0  0
  -27.4460    6.4640  -14.7800 C   0  0  0  0  0
  -26.0610    8.4000  -14.7150 O   0  0  0  0  0
  -26.4130    9.0150  -17.2630 F   0  0  0  0  0
  -25.8530    6.8720  -17.1220 F   0  0  0  0  0
  -27.9410    7.4180  -17.5980 F   0  0  0  0  0
  -28.3160    8.7870  -15.0910 C   0  0  0  0  0
  -27.9750   10.0480  -15.4620 F   0  0  0  0  0
  -29.4750    8.4450  -15.7280 F   0  0  0  0  0
  -28.5430    8.8570  -13.7550 F   0  0  0  0  0
  -24.6706   -0.8466  -17.8843 H   0  0  0  0  0
  -24.5433   -0.3451  -16.1804 H   0  0  0  0  0
  -23.0722   -0.5271  -17.1673 H   0  0  0  0  0
  -23.3764   -2.4284  -15.6438 H   0  0  0  0  0
  -23.5052   -2.9356  -17.3672 H   0  0  0  0  0
  -27.8133   -1.2565  -16.3330 H   0  0  0  0  0
  -28.8397    0.1815  -14.5984 H   0  0  0  0  0
  -25.8501   -1.0489  -11.8015 H   0  0  0  0  0
  -24.8844   -2.5754  -13.4943 H   0  0  0  0  0
  -29.1010    0.5551  -12.1979 H   0  0  0  0  0
  -26.7443    1.3389   -7.9506 H   0  0  0  0  0
  -26.7801   -0.3626   -8.5934 H   0  0  0  0  0
  -29.4094    1.1458   -4.2636 H   0  0  0  0  0
  -30.9489   -0.7580   -4.6335 H   0  0  0  0  0
  -30.8093   -2.0794   -6.7114 H   0  0  0  0  0
  -29.1650   -1.4825   -8.4646 H   0  0  0  0  0
  -29.1999    2.4043  -13.1936 H   0  0  0  0  0
  -26.1552    4.3749  -12.4376 H   0  0  0  0  0
  -29.1957    6.0498  -15.9524 H   0  0  0  0  0
  -29.6083    3.8542  -14.9135 H   0  0  0  0  0
  -27.2325   -0.6958  -10.5354 H   0  0  0  0  0
  -27.7505    1.7302   -6.0048 H   0  0  0  0  0
  -25.7495    6.5777  -13.4787 H   0  0  0  0  0
  -26.2383    8.4453  -13.7726 H   0  0  0  0  0
  2  1  1  0  0  0
 23  2  1  0  0  0
 23  3  2  0  0  0
 23  4  2  0  0  0
  5  6  4  0  0  0
 24  5  4  0  0  0
  6  7  4  0  0  0
  8  7  4  0  0  0
  7 10  1  0  0  0
  9  8  4  0  0  0
 24  9  4  0  0  0
 10 25  1  0  0  0
 10 29  1  0  0  0
 11 12  1  0  0  0
 25 11  1  0  0  0
 11 26  2  0  0  0
 12 27  1  0  0  0
 14 13  4  0  0  0
 13 28  4  0  0  0
 15 14  4  0  0  0
 16 15  4  0  0  0
 27 16  4  0  0  0
 29 17  1  0  0  0
 17 31  1  0  0  0
 31 18  4  0  0  0
 18 32  4  0  0  0
 20 19  4  0  0  0
 19 33  4  0  0  0
 31 20  4  0  0  0
 21 22  1  0  0  0
 33 21  1  0  0  0
 21 34  1  0  0  0
 21 38  1  0  0  0
 22 35  1  0  0  0
 22 36  1  0  0  0
 22 37  1  0  0  0
 23 24  1  0  0  0
 27 28  4  0  0  0
 29 30  2  0  0  0
 32 33  4  0  0  0
 38 39  1  0  0  0
 38 40  1  0  0  0
 38 41  1  0  0  0
  1 42  1  0  0  0
  1 43  1  0  0  0
  1 44  1  0  0  0
  2 45  1  0  0  0
  2 46  1  0  0  0
  5 47  1  0  0  0
  6 48  1  0  0  0
  8 49  1  0  0  0
  9 50  1  0  0  0
 10 51  1  0  0  0
 12 52  1  0  0  0
 12 53  1  0  0  0
 13 54  1  0  0  0
 14 55  1  0  0  0
 15 56  1  0  0  0
 16 57  1  0  0  0
 17 58  1  0  0  0
 18 59  1  0  0  0
 19 60  1  0  0  0
 20 61  1  0  0  0
 25 62  1  0  0  0
 28 63  1  0  0  0
 32 64  1  0  0  0
 34 65  1  0  0  0
M  END
$$$$
