6o9x_ligand
  -I-interpret- 

 42 44  0  0  0  0  0  0  0  0999 V2000
   -2.4060   -8.4460   24.6280 C   0  0  0  0  0
   -3.3010   -6.0450   25.8230 C   0  0  0  0  0
   -2.9070   -6.8920   28.0570 C   0  0  0  0  0
   -2.4920   -8.9610   22.6010 C   0  0  0  0  0
   -1.9380  -11.5380   21.3990 C   0  0  0  0  0
   -0.6150  -11.6230   22.1280 C   0  0  0  0  0
    0.7850  -12.3530   23.9980 C   0  0  0  0  0
   -0.6810  -13.6300   25.3700 C   0  0  0  0  0
   -1.4630  -12.8490   24.2960 C   0  0  0  0  0
   -3.6400   -5.0250   26.4410 O   0  0  0  0  0
   -3.3490   -6.1600   24.3800 N   0  0  0  0  0
   -3.8300   -4.9830   23.6400 C   0  0  0  0  0
   -3.0250   -7.3540   23.8230 C   0  0  0  0  0
   -2.9560   -7.7050   22.5040 N   0  0  0  0  0
   -2.1800   -9.5180   23.8430 N   0  0  0  0  0
   -2.5400   -8.3620   26.0410 C   0  0  0  0  0
   -1.7570   -9.6800   27.0380 S   0  0  0  0  0
   -2.8070   -7.0760   26.6170 N   0  0  0  0  0
   -2.3550   -9.8480   21.1150 S   0  0  0  0  0
   -0.4640  -12.6570   23.2180 N   0  3  0  0  0
    0.7280  -13.0700   25.3330 C   0  0  0  0  0
   -3.7156   -7.5110   28.4458 H   0  0  0  0  0
   -1.9670   -7.1836   28.5254 H   0  0  0  0  0
   -3.1131   -5.8440   28.2746 H   0  0  0  0  0
   -2.7146  -12.0041   22.0054 H   0  0  0  0  0
   -1.8569  -12.0551   20.4429 H   0  0  0  0  0
   -0.5004  -10.6610   22.6274 H   0  0  0  0  0
    0.1146  -11.8999   21.3670 H   0  0  0  0  0
    0.8597  -11.2782   24.1636 H   0  0  0  0  0
    1.6567  -12.6920   23.4383 H   0  0  0  0  0
   -0.6902  -14.7015   25.1705 H   0  0  0  0  0
   -1.1313  -13.5133   26.3557 H   0  0  0  0  0
   -1.8623  -11.9064   24.6704 H   0  0  0  0  0
   -2.3514  -13.3804   23.9547 H   0  0  0  0  0
   -3.0769   -4.6801   22.9125 H   0  0  0  0  0
   -4.7562   -5.2340   23.1230 H   0  0  0  0  0
   -4.0120   -4.1659   24.3381 H   0  0  0  0  0
   -3.5607   -8.7168   26.1836 H   0  0  0  0  0
   -1.6128  -10.7716   26.2920 H   0  0  0  0  0
   -0.5266  -13.4941   22.6386 H   0  0  0  0  0
    0.9383  -12.4084   26.1734 H   0  0  0  0  0
    1.4894  -13.8445   25.4256 H   0  0  0  0  0
 13  1  4  0  0  0
  1 15  4  0  0  0
  1 16  1  0  0  0
  2 10  2  0  0  0
 11  2  1  0  0  0
  2 18  1  0  0  0
 18  3  1  0  0  0
  4 14  4  0  0  0
 15  4  4  0  0  0
  4 19  1  0  0  0
  5  6  1  0  0  0
 19  5  1  0  0  0
  6 20  1  0  0  0
 20  7  1  0  0  0
  7 21  1  0  0  0
  9  8  1  0  0  0
  8 21  1  0  0  0
 20  9  1  0  0  0
 11 12  1  0  0  0
 11 13  1  0  0  0
 13 14  4  0  0  0
 16 17  1  0  0  0
 16 18  1  0  0  0
  3 22  1  0  0  0
  3 23  1  0  0  0
  3 24  1  0  0  0
  5 25  1  0  0  0
  5 26  1  0  0  0
  6 27  1  0  0  0
  6 28  1  0  0  0
  7 29  1  0  0  0
  7 30  1  0  0  0
  8 31  1  0  0  0
  8 32  1  0  0  0
  9 33  1  0  0  0
  9 34  1  0  0  0
 12 35  1  0  0  0
 12 36  1  0  0  0
 12 37  1  0  0  0
 16 38  1  0  0  0
 17 39  1  0  0  0
 20 40  1  0  0  0
 21 41  1  0  0  0
 21 42  1  0  0  0
M  END
$$$$
