3bhx_ligand
  -I-interpret- 

 33 32  0  0  0  0  0  0  0  0999 V2000
   19.6910   46.9650   46.2160 O   0  0  0  0  0
   19.8820   46.9110   44.9880 C   0  0  0  0  0
   20.4650   47.8730   44.4470 O   0  0  0  0  0
   19.3970   45.7670   44.0590 C   0  0  0  0  0
   18.6770   44.7510   44.8520 C   0  0  0  0  0
   17.5140   43.8580   43.8400 P   0  0  0  0  0
   18.2360   42.9430   42.8000 O   0  0  0  0  0
   16.7070   43.0670   44.7860 O   0  0  0  0  0
   16.3170   44.9200   42.9990 C   0  0  0  0  0
   15.9010   44.4150   41.5800 C   0  0  0  0  0
   17.0720   44.5110   40.5970 C   0  0  0  0  0
   17.9830   45.3720   40.7240 O   0  0  0  0  0
   17.0940   43.6960   39.5810 O   0  0  0  0  0
   14.6720   45.1840   40.9650 C   0  0  0  0  0
   14.9820   46.6890   41.0340 C   0  0  0  0  0
   13.9080   47.5000   40.3570 C   0  0  0  0  0
   13.1300   46.9540   39.5330 O   0  0  0  0  0
   13.9030   48.7330   40.5890 O   0  0  0  0  0
   20.5483   47.7066   43.5052 H   0  0  0  0  0
   20.2582   45.3044   43.5768 H   0  0  0  0  0
   18.7267   46.1760   43.3030 H   0  0  0  0  0
   18.1319   45.2530   45.6513 H   0  0  0  0  0
   19.4021   44.0452   45.2573 H   0  0  0  0  0
   18.7516   43.4871   42.2002 H   0  0  0  0  0
   16.7868   45.8950   42.8691 H   0  0  0  0  0
   15.4157   44.9377   43.6117 H   0  0  0  0  0
   15.6038   43.3767   41.7274 H   0  0  0  0  0
   16.3377   43.1067   39.6285 H   0  0  0  0  0
   13.7639   44.9572   41.5235 H   0  0  0  0  0
   14.5098   44.8765   39.9319 H   0  0  0  0  0
   15.9283   46.8723   40.5250 H   0  0  0  0  0
   15.0325   46.9854   42.0817 H   0  0  0  0  0
   13.3013   46.0097   39.5102 H   0  0  0  0  0
  1  2  2  0  0  0
  2  3  1  0  0  0
  2  4  1  0  0  0
  4  5  1  0  0  0
  5  6  1  0  0  0
  6  7  1  0  0  0
  6  8  2  0  0  0
  6  9  1  0  0  0
  9 10  1  0  0  0
 10 11  1  0  0  0
 10 14  1  0  0  0
 11 12  2  0  0  0
 11 13  1  0  0  0
 14 15  1  0  0  0
 15 16  1  0  0  0
 16 17  1  0  0  0
 16 18  2  0  0  0
  3 19  1  0  0  0
  4 20  1  0  0  0
  4 21  1  0  0  0
  5 22  1  0  0  0
  5 23  1  0  0  0
  7 24  1  0  0  0
  9 25  1  0  0  0
  9 26  1  0  0  0
 10 27  1  0  0  0
 13 28  1  0  0  0
 14 29  1  0  0  0
 14 30  1  0  0  0
 15 31  1  0  0  0
 15 32  1  0  0  0
 17 33  1  0  0  0
M  END
$$$$
