### 
### Created by X-TOOL on Mon Sep 10 21:12:57 2018
### 

@<TRIPOS>MOLECULE
3bhx_ligand
   29    28     1     0     0
SMALL
GAST_HUCK


@<TRIPOS>ATOM
      1 O3         19.6910   46.9650   46.2160 O.co2     1 BHX        -0.5690
      2 C2         19.8820   46.9110   44.9880 C.2       1 BHX         0.0363
      3 O2         20.4650   47.8730   44.4470 O.co2     1 BHX        -0.5690
      4 C4         19.3970   45.7670   44.0590 C.3       1 BHX         0.0161
      5 C5         18.6770   44.7510   44.8520 C.3       1 BHX         0.0250
      6 P6         17.5140   43.8580   43.8400 P.3       1 BHX        -0.0124
      7 O61        18.2360   42.9430   42.8000 O.co2     1 BHX        -0.6189
      8 O6         16.7070   43.0670   44.7860 O.co2     1 BHX        -0.6189
      9 C1         16.3170   44.9200   42.9990 C.3       1 BHX         0.0279
     10 CA         15.9010   44.4150   41.5800 C.3       1 BHX         0.0291
     11 C          17.0720   44.5110   40.5970 C.2       1 BHX         0.0395
     12 O          17.9830   45.3720   40.7240 O.co2     1 BHX        -0.5687
     13 OC         17.0940   43.6960   39.5810 O.co2     1 BHX        -0.5687
     14 CB         14.6720   45.1840   40.9650 C.3       1 BHX        -0.0256
     15 CG         14.9820   46.6890   41.0340 C.3       1 BHX         0.0020
     16 CD         13.9080   47.5000   40.3570 C.2       1 BHX         0.0349
     17 OE2        13.1300   46.9540   39.5330 O.co2     1 BHX        -0.5690
     18 OE1        13.9030   48.7330   40.5890 O.co2     1 BHX        -0.5690
     19 H1         20.2650   45.3008   43.5698 H         1 BHX         0.0446
     20 H2         18.7223   46.1788   43.2940 H         1 BHX         0.0446
     21 H3         18.1344   45.2500   45.6685 H         1 BHX         0.0483
     22 H4         19.4045   44.0424   45.2745 H         1 BHX         0.0483
     23 H5         16.7588   45.9218   42.8931 H         1 BHX         0.0486
     24 H6         15.4127   44.9820   43.6222 H         1 BHX         0.0486
     25 H7         15.6188   43.3565   41.6800 H         1 BHX         0.0482
     26 H8         13.7631   44.9616   41.5432 H         1 BHX         0.0304
     27 H9         14.5246   44.8792   39.9184 H         1 BHX         0.0304
     28 H10        15.9435   46.8802   40.5351 H         1 BHX         0.0432
     29 H11        15.0494   46.9931   42.0890 H         1 BHX         0.0432
@<TRIPOS>BOND
     1    1    2 ar 
     2    2    3 ar 
     3    2    4 1  
     4    4    5 1  
     5    5    6 1  
     6    6    7 ar 
     7    6    8 ar 
     8    6    9 1  
     9    9   10 1  
    10   10   11 1  
    11   10   14 1  
    12   11   12 ar 
    13   11   13 ar 
    14   14   15 1  
    15   15   16 1  
    16   16   17 ar 
    17   16   18 ar 
    18    4   19 1  
    19    4   20 1  
    20    5   21 1  
    21    5   22 1  
    22    9   23 1  
    23    9   24 1  
    24   10   25 1  
    25   14   26 1  
    26   14   27 1  
    27   15   28 1  
    28   15   29 1  
@<TRIPOS>SUBSTRUCTURE
     1 BHX         1

