4oew_ligand
  -I-interpret- 

 58 60  0  0  0  0  0  0  0  0999 V2000
  -25.2180   18.8870  -19.2840 C   0  0  0  0  0
  -29.8350   13.5760  -15.0940 C   0  0  0  0  0
  -29.4720    9.6800  -19.7340 C   0  0  0  0  0
  -28.9300   19.1680  -16.6340 O   0  0  0  0  0
  -31.0240   13.5310  -24.0910 O   0  0  0  0  0
  -32.6380   14.3540  -22.4650 O   0  0  0  0  0
  -30.5490   17.6170  -14.0150 I   0  0  0  0  0
  -28.7320   14.8660  -22.6480 C   0  0  0  0  0
  -27.6580   15.5620  -22.0500 C   0  0  0  0  0
  -29.9720   14.9780  -20.6210 C   0  0  0  0  0
  -24.5550   17.9120  -20.2110 C   0  0  0  0  0
  -30.8200   14.6100  -15.6370 C   0  0  0  0  0
  -25.5030   16.9870  -20.9280 C   0  0  0  0  0
  -29.9440   10.0030  -22.1510 C   0  0  0  0  0
  -31.5030   10.1150  -20.5250 C   0  0  0  0  0
  -30.0800   11.5250  -22.3670 C   0  0  0  0  0
  -31.6280   11.6060  -20.5650 C   0  0  0  0  0
  -29.7810   15.2910  -17.7350 N   0  0  0  0  0
  -28.9420   17.3640  -18.1260 N   0  0  0  0  0
  -26.6550   16.6660  -20.1680 O   0  0  0  0  0
  -29.9300   14.5680  -21.9010 C   0  0  0  0  0
  -27.7280   15.9820  -20.7210 C   0  0  0  0  0
  -30.1500   15.6860  -16.4780 C   0  0  0  0  0
  -29.9110   16.9950  -15.9640 C   0  0  0  0  0
  -28.8590   15.6680  -19.9600 C   0  0  0  0  0
  -29.1690   16.0930  -18.5370 C   0  0  0  0  0
  -29.2760   17.8210  -16.8850 C   0  0  0  0  0
  -30.2700    9.6680  -20.8820 N   0  3  0  0  0
  -31.4030   12.1830  -21.8660 N   0  0  0  0  0
  -31.2900   13.6580  -22.6560 S   0  0  0  0  0
  -25.9061   19.5146  -19.8504 H   0  0  0  0  0
  -25.7688   18.3411  -18.5180 H   0  0  0  0  0
  -24.4592   19.5114  -18.8123 H   0  0  0  0  0
  -29.3334   13.0819  -15.9261 H   0  0  0  0  0
  -29.0959   14.0745  -14.4669 H   0  0  0  0  0
  -30.3754   12.8366  -14.5030 H   0  0  0  0  0
  -28.6246    9.0092  -19.8751 H   0  0  0  0  0
  -29.1098   10.6924  -19.5554 H   0  0  0  0  0
  -30.0617    9.3477  -18.8796 H   0  0  0  0  0
  -29.1993   19.4058  -15.7438 H   0  0  0  0  0
  -28.6547   14.5497  -23.6882 H   0  0  0  0  0
  -26.7626   15.7738  -22.6344 H   0  0  0  0  0
  -30.8783   14.7882  -20.0459 H   0  0  0  0  0
  -23.9004   17.2882  -19.6024 H   0  0  0  0  0
  -24.0417   18.4966  -20.9744 H   0  0  0  0  0
  -31.2901   15.1001  -14.7844 H   0  0  0  0  0
  -31.5327   14.0866  -16.2744 H   0  0  0  0  0
  -24.9695   16.0574  -21.1261 H   0  0  0  0  0
  -25.8364   17.4941  -21.8334 H   0  0  0  0  0
  -28.9101    9.7122  -22.3371 H   0  0  0  0  0
  -30.6191    9.4888  -22.8351 H   0  0  0  0  0
  -32.2201    9.7055  -21.2364 H   0  0  0  0  0
  -31.6836    9.7971  -19.4981 H   0  0  0  0  0
  -30.0548   11.6805  -23.4456 H   0  0  0  0  0
  -29.2769   11.9848  -21.7910 H   0  0  0  0  0
  -30.8668   12.0105  -19.8978 H   0  0  0  0  0
  -32.6504   11.8508  -20.2771 H   0  0  0  0  0
  -30.1107    8.6902  -21.1249 H   0  0  0  0  0
 11  1  1  0  0  0
 12  2  1  0  0  0
 28  3  1  0  0  0
 27  4  1  0  0  0
 30  5  2  0  0  0
 30  6  2  0  0  0
 24  7  1  0  0  0
  8  9  4  0  0  0
 21  8  4  0  0  0
  9 22  4  0  0  0
 21 10  4  0  0  0
 10 25  4  0  0  0
 13 11  1  0  0  0
 23 12  1  0  0  0
 20 13  1  0  0  0
 16 14  1  0  0  0
 14 28  1  0  0  0
 17 15  1  0  0  0
 15 28  1  0  0  0
 29 16  1  0  0  0
 29 17  1  0  0  0
 18 23  4  0  0  0
 26 18  4  0  0  0
 26 19  4  0  0  0
 19 27  4  0  0  0
 22 20  1  0  0  0
 30 21  1  0  0  0
 25 22  4  0  0  0
 23 24  4  0  0  0
 27 24  4  0  0  0
 25 26  1  0  0  0
 29 30  1  0  0  0
  1 31  1  0  0  0
  1 32  1  0  0  0
  1 33  1  0  0  0
  2 34  1  0  0  0
  2 35  1  0  0  0
  2 36  1  0  0  0
  3 37  1  0  0  0
  3 38  1  0  0  0
  3 39  1  0  0  0
  4 40  1  0  0  0
  8 41  1  0  0  0
  9 42  1  0  0  0
 10 43  1  0  0  0
 11 44  1  0  0  0
 11 45  1  0  0  0
 12 46  1  0  0  0
 12 47  1  0  0  0
 13 48  1  0  0  0
 13 49  1  0  0  0
 14 50  1  0  0  0
 14 51  1  0  0  0
 15 52  1  0  0  0
 15 53  1  0  0  0
 16 54  1  0  0  0
 16 55  1  0  0  0
 17 56  1  0  0  0
 17 57  1  0  0  0
 28 58  1  0  0  0
M  END
$$$$
