4zzx_ligand
  -I-interpret- 

 34 35  0  0  0  0  0  0  0  0999 V2000
    8.0630   14.6360   58.7890 C   0  0  0  0  0
    8.0130   13.7660   59.8090 N   0  0  0  0  0
    9.2830   15.4790   58.7870 C   0  0  0  0  0
    9.9040   14.9960   59.9140 C   0  0  0  0  0
    9.8740   16.4940   58.0210 C   0  0  0  0  0
    9.1570   13.9320   60.5480 C   0  0  0  0  0
    9.2650   17.0460   56.7660 C   0  0  0  0  0
    7.1270   14.7470   57.9090 O   0  0  0  0  0
    9.9330   17.7960   56.0750 O   0  0  0  0  0
    8.0640   16.6540   56.3410 N   0  0  0  0  0
    6.9440   12.7970   60.0650 C   0  0  0  0  0
   11.1400   15.5180   60.3030 C   0  0  0  0  0
   11.1070   17.0200   58.4390 C   0  0  0  0  0
    5.9550   13.3550   61.0640 C   0  0  0  0  0
   11.7490   16.5270   59.5770 C   0  0  0  0  0
    4.2040   11.8820   60.3960 O   0  0  0  0  0
    5.0090   12.2410   61.5200 C   0  0  0  0  0
    3.3990   10.7300   60.6910 C   0  0  0  0  0
    9.7390   13.0109   60.5788 H   0  0  0  0  0
    8.9209   14.1831   61.5821 H   0  0  0  0  0
    7.7090   16.9814   55.4426 H   0  0  0  0  0
    7.4999   16.0266   56.9142 H   0  0  0  0  0
    7.3814   11.8845   60.4701 H   0  0  0  0  0
    6.4242   12.5866   59.1303 H   0  0  0  0  0
   11.6326   15.1246   61.1922 H   0  0  0  0  0
   11.5696   17.8245   57.8672 H   0  0  0  0  0
    5.3784   14.1539   60.5978 H   0  0  0  0  0
    6.4924   13.7514   61.9255 H   0  0  0  0  0
   12.7129   16.9297   59.8881 H   0  0  0  0  0
    4.3843   12.5826   62.3454 H   0  0  0  0  0
    5.5744   11.3802   61.8770 H   0  0  0  0  0
    4.0469    9.8902   60.9419 H   0  0  0  0  0
    2.7457   10.9513   61.5350 H   0  0  0  0  0
    2.7955   10.4771   59.8192 H   0  0  0  0  0
  1  2  1  0  0  0
  1  3  1  0  0  0
  1  8  2  0  0  0
  2  6  1  0  0  0
  2 11  1  0  0  0
  3  4  4  0  0  0
  3  5  4  0  0  0
  4  6  1  0  0  0
  4 12  4  0  0  0
  5  7  1  0  0  0
  5 13  4  0  0  0
  7  9  2  0  0  0
  7 10  1  0  0  0
 11 14  1  0  0  0
 12 15  4  0  0  0
 13 15  4  0  0  0
 14 17  1  0  0  0
 17 16  1  0  0  0
 16 18  1  0  0  0
  6 19  1  0  0  0
  6 20  1  0  0  0
 10 21  1  0  0  0
 10 22  1  0  0  0
 11 23  1  0  0  0
 11 24  1  0  0  0
 12 25  1  0  0  0
 13 26  1  0  0  0
 14 27  1  0  0  0
 14 28  1  0  0  0
 15 29  1  0  0  0
 17 30  1  0  0  0
 17 31  1  0  0  0
 18 32  1  0  0  0
 18 33  1  0  0  0
 18 34  1  0  0  0
M  END
$$$$
