3k02_ligand
  -I-interpret- 

109113  0  0  0  0  0  0  0  0999 V2000
   -8.2750  -14.3640   18.9790 C   0  0  0  0  0
   -5.3370  -11.9350   22.8950 C   0  0  0  0  0
   -4.5490   -6.6510   23.9860 C   0  0  0  0  0
   -4.2490   -2.7010   20.4260 C   0  0  0  0  0
   -4.1100   -2.6710   15.0990 C   0  0  0  0  0
   -3.2890   -3.8500   15.0340 O   0  0  0  0  0
   -7.6290  -15.7320   18.7920 C   0  0  0  0  0
   -6.4440  -15.9440   19.5630 O   0  0  0  0  0
   -4.5700  -12.8850   21.9420 C   0  0  0  0  0
   -3.3370  -12.2630   21.5570 O   0  0  0  0  0
   -3.5990   -7.6900   24.5900 C   0  0  0  0  0
   -2.2940   -7.1590   24.8210 O   0  0  0  0  0
   -3.0210   -2.9450   21.2990 C   0  0  0  0  0
   -1.8510   -2.4580   20.6200 O   0  0  0  0  0
   -3.3680   -1.6330   15.9200 C   0  0  0  0  0
   -2.1420   -1.1820   15.3120 O   0  0  0  0  0
   -8.7780  -16.5680   19.3170 C   0  0  0  0  0
   -8.3120  -17.8640   19.7060 O   0  0  0  0  0
   -5.3160  -13.5080   20.7240 C   0  0  0  0  0
   -4.7850  -13.2250   19.3860 O   0  0  0  0  0
   -3.6030   -8.9050   23.6740 C   0  0  0  0  0
   -2.5710   -9.8060   24.1430 O   0  0  0  0  0
   -2.8770   -4.4270   21.6920 C   0  0  0  0  0
   -1.7830   -4.5670   22.5750 O   0  0  0  0  0
   -3.0690   -2.1570   17.3300 C   0  0  0  0  0
   -2.3700   -1.1890   18.1240 O   0  0  0  0  0
   -9.8840  -16.5960   18.2490 C   0  0  0  0  0
  -11.0880  -17.1880   18.8020 O   0  0  0  0  0
   -6.8530  -13.3860   20.7470 C   0  0  0  0  0
   -7.4010  -13.2810   19.3890 N   0  3  0  0  0
   -5.0270   -9.5130   23.5480 C   0  0  0  0  0
   -5.1370  -10.5370   22.5320 O   0  0  0  0  0
   -4.2170   -4.8990   22.3180 C   0  0  0  0  0
   -4.1110   -6.3170   22.6470 O   0  0  0  0  0
   -4.3680   -2.6250   18.0040 C   0  0  0  0  0
   -4.0680   -3.3930   19.1780 O   0  0  0  0  0
  -10.1430  -15.1940   17.6900 C   0  0  0  0  0
   -7.4440  -12.3740   21.7460 C   0  0  0  0  0
   -6.7070  -12.3490   22.9640 O   0  0  0  0  0
   -6.0460   -8.4190   23.1800 C   0  0  0  0  0
   -5.8700   -7.2040   23.9440 O   0  0  0  0  0
   -5.3910   -4.5770   21.3910 C   0  0  0  0  0
   -5.4310   -3.1930   21.0350 O   0  0  0  0  0
   -5.2180   -3.4920   17.0840 C   0  0  0  0  0
   -5.3660   -2.9680   15.7420 O   0  0  0  0  0
  -11.4460  -14.8910   16.9860 C   0  0  0  0  0
  -11.9700  -16.0680   16.3570 O   0  0  0  0  0
   -8.8830  -12.7280   22.1200 C   0  0  0  0  0
   -7.4710   -8.8950   23.4370 C   0  0  0  0  0
   -8.3580   -8.1750   22.6180 O   0  0  0  0  0
   -6.7660   -4.8420   22.0000 C   0  0  0  0  0
   -7.8280   -4.6920   21.0560 O   0  0  0  0  0
   -6.6500   -3.7180   17.5950 C   0  0  0  0  0
   -7.3560   -2.4630   17.6490 O   0  0  0  0  0
   -9.2180  -14.2070   17.8020 C   0  0  0  0  0
   -8.8717  -14.2940   19.8885 H   0  0  0  0  0
   -4.9359  -12.0050   23.9061 H   0  0  0  0  0
   -4.5497   -5.7462   24.5938 H   0  0  0  0  0
   -4.3542   -1.6259   20.2803 H   0  0  0  0  0
   -4.3119   -2.3058   14.0921 H   0  0  0  0  0
   -3.7383   -4.5234   14.5181 H   0  0  0  0  0
   -7.2746  -15.9298   17.7804 H   0  0  0  0  0
   -5.7331  -15.4038   19.2102 H   0  0  0  0  0
   -4.4125  -13.7803   22.5434 H   0  0  0  0  0
   -2.9104  -11.8931   22.3334 H   0  0  0  0  0
   -3.9445   -7.9885   25.5798 H   0  0  0  0  0
   -2.3577   -6.3983   25.4031 H   0  0  0  0  0
   -3.1426   -2.3961   22.2328 H   0  0  0  0  0
   -1.9765   -1.5342   20.3912 H   0  0  0  0  0
   -4.0382   -0.7750   15.9726 H   0  0  0  0  0
   -2.3260   -0.8533   14.4290 H   0  0  0  0  0
   -9.2061  -16.1317   20.2195 H   0  0  0  0  0
   -9.0496  -18.3822   20.0362 H   0  0  0  0  0
   -5.0727  -14.5552   20.9040 H   0  0  0  0  0
   -5.3295  -13.6629   18.7277 H   0  0  0  0  0
   -3.3577   -8.6429   22.6448 H   0  0  0  0  0
   -2.5492  -10.5852   23.5826 H   0  0  0  0  0
   -2.6724   -5.0546   20.8246 H   0  0  0  0  0
   -1.6893   -5.4897   22.8228 H   0  0  0  0  0
   -2.4027   -3.0152   17.2420 H   0  0  0  0  0
   -2.2020   -1.5534   18.9961 H   0  0  0  0  0
   -9.5553  -17.2142   17.4136 H   0  0  0  0  0
  -11.7738  -17.2023   18.1304 H   0  0  0  0  0
   -7.2009  -14.3286   21.1695 H   0  0  0  0  0
   -7.9648  -12.4312   19.3695 H   0  0  0  0  0
   -6.6035  -13.2965   18.7533 H   0  0  0  0  0
   -5.2294   -9.9591   24.5217 H   0  0  0  0  0
   -4.4160   -4.3590   23.2437 H   0  0  0  0  0
   -4.9273   -1.7242   18.2566 H   0  0  0  0  0
   -7.3995  -11.4070   21.2450 H   0  0  0  0  0
   -5.8751   -8.2129   22.1234 H   0  0  0  0  0
   -5.2096   -5.2343   20.5406 H   0  0  0  0  0
   -4.6525   -4.4237   17.0724 H   0  0  0  0  0
  -11.2653  -14.1348   16.2220 H   0  0  0  0  0
  -12.1678  -14.5339   17.7206 H   0  0  0  0  0
  -12.7957  -15.8536   15.9168 H   0  0  0  0  0
   -9.5011  -12.7273   21.2222 H   0  0  0  0  0
   -8.9053  -13.7172   22.5773 H   0  0  0  0  0
   -9.2653  -11.9911   22.8263 H   0  0  0  0  0
   -7.7267   -8.7305   24.4837 H   0  0  0  0  0
   -7.5465   -9.9582   23.2091 H   0  0  0  0  0
   -9.2557   -8.4745   22.7796 H   0  0  0  0  0
   -6.9234   -4.1159   22.7976 H   0  0  0  0  0
   -6.7800   -5.8717   22.3573 H   0  0  0  0  0
   -8.6665   -4.8690   21.4886 H   0  0  0  0  0
   -6.6106   -4.1513   18.5944 H   0  0  0  0  0
   -7.1708   -4.3943   16.9171 H   0  0  0  0  0
   -8.2487   -2.6128   17.9688 H   0  0  0  0  0
   -9.1581  -13.3716   17.1044 H   0  0  0  0  0
  1  7  1  0  0  0
 30  1  1  0  0  0
  1 55  1  0  0  0
  2  9  1  0  0  0
 32  2  1  0  0  0
  2 39  1  0  0  0
  3 11  1  0  0  0
 34  3  1  0  0  0
  3 41  1  0  0  0
  4 13  1  0  0  0
 36  4  1  0  0  0
  4 43  1  0  0  0
  5  6  1  0  0  0
 15  5  1  0  0  0
  5 45  1  0  0  0
  7  8  1  0  0  0
  7 17  1  0  0  0
  9 10  1  0  0  0
  9 19  1  0  0  0
 11 12  1  0  0  0
 11 21  1  0  0  0
 13 14  1  0  0  0
 13 23  1  0  0  0
 15 16  1  0  0  0
 25 15  1  0  0  0
 17 18  1  0  0  0
 17 27  1  0  0  0
 19 20  1  0  0  0
 19 29  1  0  0  0
 21 22  1  0  0  0
 21 31  1  0  0  0
 23 24  1  0  0  0
 23 33  1  0  0  0
 25 26  1  0  0  0
 35 25  1  0  0  0
 27 28  1  0  0  0
 27 37  1  0  0  0
 29 30  1  0  0  0
 29 38  1  0  0  0
 31 32  1  0  0  0
 31 40  1  0  0  0
 33 34  1  0  0  0
 33 42  1  0  0  0
 35 36  1  0  0  0
 35 44  1  0  0  0
 37 46  1  0  0  0
 37 55  2  0  0  0
 38 39  1  0  0  0
 38 48  1  0  0  0
 40 41  1  0  0  0
 40 49  1  0  0  0
 42 43  1  0  0  0
 42 51  1  0  0  0
 44 45  1  0  0  0
 44 53  1  0  0  0
 46 47  1  0  0  0
 49 50  1  0  0  0
 51 52  1  0  0  0
 53 54  1  0  0  0
  1 56  1  0  0  0
  2 57  1  0  0  0
  3 58  1  0  0  0
  4 59  1  0  0  0
  5 60  1  0  0  0
  6 61  1  0  0  0
  7 62  1  0  0  0
  8 63  1  0  0  0
  9 64  1  0  0  0
 10 65  1  0  0  0
 11 66  1  0  0  0
 12 67  1  0  0  0
 13 68  1  0  0  0
 14 69  1  0  0  0
 15 70  1  0  0  0
 16 71  1  0  0  0
 17 72  1  0  0  0
 18 73  1  0  0  0
 19 74  1  0  0  0
 20 75  1  0  0  0
 21 76  1  0  0  0
 22 77  1  0  0  0
 23 78  1  0  0  0
 24 79  1  0  0  0
 25 80  1  0  0  0
 26 81  1  0  0  0
 27 82  1  0  0  0
 28 83  1  0  0  0
 29 84  1  0  0  0
 30 85  1  0  0  0
 30 86  1  0  0  0
 31 87  1  0  0  0
 33 88  1  0  0  0
 35 89  1  0  0  0
 38 90  1  0  0  0
 40 91  1  0  0  0
 42 92  1  0  0  0
 44 93  1  0  0  0
 46 94  1  0  0  0
 46 95  1  0  0  0
 47 96  1  0  0  0
 48 97  1  0  0  0
 48 98  1  0  0  0
 48 99  1  0  0  0
 49100  1  0  0  0
 49101  1  0  0  0
 50102  1  0  0  0
 51103  1  0  0  0
 51104  1  0  0  0
 52105  1  0  0  0
 53106  1  0  0  0
 53107  1  0  0  0
 54108  1  0  0  0
 55109  1  0  0  0
M  END
$$$$
