4q1d_ligand
  -I-interpret- 

 57 59  0  0  0  0  0  0  0  0999 V2000
    7.3640   35.1750    0.6490 F   0  0  0  0  0
    7.5030   35.8330   -0.5510 C   0  0  0  0  0
    8.8730   35.4360   -1.0890 C   0  0  0  0  0
    8.9320   35.9720   -2.4090 O   0  0  0  0  0
   10.1740   35.7340   -2.9990 C   0  0  0  0  0
   10.6070   34.4410   -3.2570 C   0  0  0  0  0
   10.9620   36.8320   -3.3400 C   0  0  0  0  0
   10.4480   38.0950   -3.0520 O   0  0  0  0  0
   10.9980   39.1960   -3.8120 C   0  0  0  0  0
   12.2090   36.6410   -3.9370 C   0  0  0  0  0
   12.6480   35.3550   -4.1900 C   0  0  0  0  0
   11.8410   34.2780   -3.8610 C   0  0  0  0  0
   12.3180   32.9940   -4.1100 C   0  0  0  0  0
   12.0730   31.9550   -3.2980 N   0  0  0  0  0
   13.2690   32.5650   -5.4100 S   0  0  0  0  0
   13.3550   30.9420   -4.8980 C   0  0  0  0  0
   14.0900   29.8100   -5.5660 C   0  0  0  0  0
   15.5530   30.2130   -5.5980 C   0  0  0  0  0
   16.0360   30.4410   -4.1420 C   0  0  0  0  0
   12.6520   30.8340   -3.7250 C   0  0  0  0  0
   12.4850   29.5190   -2.9890 C   0  0  0  0  0
   12.6290   29.6930   -1.4780 C   0  0  0  0  0
   10.8770   28.9340   -3.4990 S   0  0  0  0  0
   11.1680   27.2680   -3.8250 C   0  0  0  0  0
   10.1620   26.3910   -3.9430 N   0  0  0  0  0
   12.4270   26.9020   -3.9430 N   0  0  0  0  0
   12.7370   25.6310   -4.1880 C   0  0  0  0  0
   14.0390   25.3040   -4.3070 N   0  0  0  0  0
   11.7250   24.6680   -4.3290 C   0  0  0  0  0
   10.4150   25.0840   -4.1780 C   0  0  0  0  0
    9.4030   24.1700   -4.2940 N   0  0  0  0  0
    7.4265   36.9126   -0.4214 H   0  0  0  0  0
    6.7101   35.5587   -1.2468 H   0  0  0  0  0
    9.0040   34.3539   -1.0904 H   0  0  0  0  0
    9.6765   35.8245   -0.4632 H   0  0  0  0  0
    9.9935   33.5800   -2.9918 H   0  0  0  0  0
   12.0713   39.2591   -3.6330 H   0  0  0  0  0
   10.8145   39.0305   -4.8736 H   0  0  0  0  0
   10.5211   40.1252   -3.5001 H   0  0  0  0  0
   12.8301   37.4969   -4.2010 H   0  0  0  0  0
   13.6240   35.1891   -4.6460 H   0  0  0  0  0
   13.7093   29.6347   -6.5722 H   0  0  0  0  0
   13.9521   28.8766   -5.0203 H   0  0  0  0  0
   15.6728   31.1292   -6.1763 H   0  0  0  0  0
   16.1444   29.4260   -6.0660 H   0  0  0  0  0
   15.4427   31.2321   -3.6834 H   0  0  0  0  0
   15.9170   29.5192   -3.5725 H   0  0  0  0  0
   17.0866   30.7313   -4.1503 H   0  0  0  0  0
   13.2598   28.7917   -3.2315 H   0  0  0  0  0
   13.6189   30.0894   -1.2519 H   0  0  0  0  0
   11.8680   30.3860   -1.1192 H   0  0  0  0  0
   12.5025   28.7273   -0.9887 H   0  0  0  0  0
   14.7563   26.0226   -4.2094 H   0  0  0  0  0
   14.3071   24.3379   -4.4947 H   0  0  0  0  0
   11.9639   23.6277   -4.5500 H   0  0  0  0  0
    8.4323   24.4696   -4.2030 H   0  0  0  0  0
    9.6195   23.1892   -4.4714 H   0  0  0  0  0
  1  2  1  0  0  0
  2  3  1  0  0  0
  3  4  1  0  0  0
  4  5  1  0  0  0
  5  6  4  0  0  0
  5  7  4  0  0  0
  6 12  4  0  0  0
  7  8  1  0  0  0
  7 10  4  0  0  0
  8  9  1  0  0  0
 10 11  4  0  0  0
 11 12  4  0  0  0
 12 13  1  0  0  0
 13 14  4  0  0  0
 13 15  4  0  0  0
 14 20  4  0  0  0
 15 16  4  0  0  0
 16 17  1  0  0  0
 16 20  4  0  0  0
 17 18  1  0  0  0
 18 19  1  0  0  0
 20 21  1  0  0  0
 21 22  1  0  0  0
 21 23  1  0  0  0
 23 24  1  0  0  0
 24 25  4  0  0  0
 24 26  4  0  0  0
 25 30  4  0  0  0
 26 27  4  0  0  0
 27 28  1  0  0  0
 27 29  4  0  0  0
 29 30  4  0  0  0
 30 31  1  0  0  0
  2 32  1  0  0  0
  2 33  1  0  0  0
  3 34  1  0  0  0
  3 35  1  0  0  0
  6 36  1  0  0  0
  9 37  1  0  0  0
  9 38  1  0  0  0
  9 39  1  0  0  0
 10 40  1  0  0  0
 11 41  1  0  0  0
 17 42  1  0  0  0
 17 43  1  0  0  0
 18 44  1  0  0  0
 18 45  1  0  0  0
 19 46  1  0  0  0
 19 47  1  0  0  0
 19 48  1  0  0  0
 21 49  1  0  0  0
 22 50  1  0  0  0
 22 51  1  0  0  0
 22 52  1  0  0  0
 28 53  1  0  0  0
 28 54  1  0  0  0
 29 55  1  0  0  0
 31 56  1  0  0  0
 31 57  1  0  0  0
M  END
$$$$
