5c8m_ligand
  -I-interpret- 

 57 60  0  0  0  0  0  0  0  0999 V2000
  -54.7130    1.5010  -21.2730 C   0  0  0  0  0
  -55.7040    2.4670  -21.4950 C   0  0  0  0  0
  -52.6590   -1.1820  -22.6950 C   0  0  0  0  0
  -55.9480    1.8120  -23.7270 C   0  0  0  0  0
  -54.9470    0.8420  -23.5880 C   0  0  0  0  0
  -54.3180    0.6690  -22.3480 C   0  0  0  0  0
  -51.1620   -0.9400  -22.9180 C   0  0  0  0  0
  -53.0010   -2.6250  -22.3120 C   0  0  0  0  0
  -53.9640    1.1390  -20.2020 N   0  0  0  0  0
  -52.1870   -0.4060  -19.5120 C   0  0  0  0  0
  -53.1510    0.1760  -20.5240 C   0  0  0  0  0
  -56.2710    2.5860  -22.6870 N   0  0  0  0  0
  -53.3300   -0.1650  -21.8550 N   0  0  0  0  0
  -56.6090    2.0600  -24.9420 N   0  0  0  0  0
  -56.6920    1.2170  -26.0480 C   0  0  0  0  0
  -57.7530    1.3750  -26.9540 C   0  0  0  0  0
  -57.8170    0.5370  -28.0540 C   0  0  0  0  0
  -56.8870   -0.4030  -28.2100 N   0  0  0  0  0
  -55.8740   -0.5470  -27.3480 C   0  0  0  0  0
  -55.7840    0.2660  -26.2910 N   0  0  0  0  0
  -54.9390   -1.5700  -27.5340 N   0  0  0  0  0
  -54.5250   -1.6730  -28.9600 C   0  0  0  0  0
  -53.3440   -2.6210  -29.2000 C   0  0  0  0  0
  -52.2430   -2.1580  -28.2430 C   0  0  0  0  0
  -52.6570   -2.4560  -26.7950 C   0  0  0  0  0
  -53.8860   -1.5920  -26.4770 C   0  0  0  0  0
  -50.5560   -2.6080  -28.7530 S   0  0  0  0  0
  -50.1000   -3.6880  -27.9470 O   0  0  0  0  0
  -50.6000   -2.7890  -30.1620 O   0  0  0  0  0
  -49.4980   -1.1770  -28.3760 C   0  0  0  0  0
  -56.0105    3.1249  -20.6817 H   0  0  0  0  0
  -53.0994   -1.0395  -23.6818 H   0  0  0  0  0
  -54.6591    0.2254  -24.4395 H   0  0  0  0  0
  -50.6176   -1.1703  -22.0022 H   0  0  0  0  0
  -50.8076   -1.5823  -23.7241 H   0  0  0  0  0
  -51.0000    0.1041  -23.1857 H   0  0  0  0  0
  -52.6996   -2.8069  -21.2804 H   0  0  0  0  0
  -54.0753   -2.7809  -22.4108 H   0  0  0  0  0
  -52.4707   -3.3104  -22.9731 H   0  0  0  0  0
  -51.5203    0.3786  -19.1542 H   0  0  0  0  0
  -52.7479   -0.8185  -18.6733 H   0  0  0  0  0
  -51.6012   -1.1957  -19.9825 H   0  0  0  0  0
  -57.0820    2.9600  -25.0234 H   0  0  0  0  0
  -58.5109    2.1420  -26.7944 H   0  0  0  0  0
  -58.6193    0.6454  -28.7838 H   0  0  0  0  0
  -54.2112   -0.6788  -29.2781 H   0  0  0  0  0
  -55.3752   -2.0687  -29.5156 H   0  0  0  0  0
  -53.0104   -2.5871  -30.2372 H   0  0  0  0  0
  -53.6221   -3.6586  -29.0150 H   0  0  0  0  0
  -52.1532   -1.0731  -28.2977 H   0  0  0  0  0
  -51.8412   -2.2236  -26.1105 H   0  0  0  0  0
  -52.8944   -3.5133  -26.6771 H   0  0  0  0  0
  -54.3463   -2.0191  -25.5860 H   0  0  0  0  0
  -53.5289   -0.5677  -26.3701 H   0  0  0  0  0
  -49.5849   -0.9313  -27.3176 H   0  0  0  0  0
  -48.4618   -1.4213  -28.6097 H   0  0  0  0  0
  -49.8156   -0.3240  -28.9756 H   0  0  0  0  0
  1  2  4  0  0  0
  6  1  4  0  0  0
  1  9  4  0  0  0
  2 12  4  0  0  0
  3  7  1  0  0  0
  3  8  1  0  0  0
 13  3  1  0  0  0
  5  4  4  0  0  0
  4 12  4  0  0  0
  4 14  1  0  0  0
  6  5  4  0  0  0
  6 13  4  0  0  0
  9 11  4  0  0  0
 11 10  1  0  0  0
 11 13  4  0  0  0
 14 15  1  0  0  0
 15 16  4  0  0  0
 15 20  4  0  0  0
 16 17  4  0  0  0
 17 18  4  0  0  0
 18 19  4  0  0  0
 19 20  4  0  0  0
 19 21  1  0  0  0
 21 22  1  0  0  0
 21 26  1  0  0  0
 22 23  1  0  0  0
 23 24  1  0  0  0
 24 25  1  0  0  0
 24 27  1  0  0  0
 25 26  1  0  0  0
 27 28  2  0  0  0
 27 29  2  0  0  0
 27 30  1  0  0  0
  2 31  1  0  0  0
  3 32  1  0  0  0
  5 33  1  0  0  0
  7 34  1  0  0  0
  7 35  1  0  0  0
  7 36  1  0  0  0
  8 37  1  0  0  0
  8 38  1  0  0  0
  8 39  1  0  0  0
 10 40  1  0  0  0
 10 41  1  0  0  0
 10 42  1  0  0  0
 14 43  1  0  0  0
 16 44  1  0  0  0
 17 45  1  0  0  0
 22 46  1  0  0  0
 22 47  1  0  0  0
 23 48  1  0  0  0
 23 49  1  0  0  0
 24 50  1  0  0  0
 25 51  1  0  0  0
 25 52  1  0  0  0
 26 53  1  0  0  0
 26 54  1  0  0  0
 30 55  1  0  0  0
 30 56  1  0  0  0
 30 57  1  0  0  0
M  END
$$$$
