1hkm_ligand
  -I-interpret- 

 80 83  0  0  0  0  0  0  0  0999 V2000
    0.9970   61.4230   -2.2450 C   0  0  0  0  0
   -0.4980   61.6380   -2.5360 C   0  0  0  0  0
   -1.2290   60.3050   -2.6830 C   0  0  0  0  0
   -0.4830   59.3850   -3.6690 C   0  0  0  0  0
    0.9700   59.2130   -3.2130 C   0  0  0  0  0
    1.7170   58.2780   -4.1720 C   0  0  0  0  0
   -1.2340   63.7460   -1.4990 C   0  0  0  0  0
   -1.8510   64.3870   -0.2500 C   0  0  0  0  0
   -1.0850   62.4200   -1.4390 N   0  0  0  0  0
   -1.3140   59.6850   -1.4080 O   0  0  0  0  0
   -1.1200   58.1040   -3.7350 O   0  0  0  0  0
    1.6010   60.5190   -3.2100 O   0  0  0  0  0
    3.0210   57.9890   -3.6520 O   0  0  0  0  0
   -0.9290   64.4310   -2.4760 O   0  0  0  0  0
    5.4840   63.7600   -0.9810 C   0  0  0  0  0
    5.2580   62.2630   -1.2560 C   0  0  0  0  0
    4.0070   62.0410   -2.1310 C   0  0  0  0  0
    2.7910   62.7900   -1.5310 C   0  0  0  0  0
    3.1600   64.2630   -1.3560 C   0  0  0  0  0
    1.9670   65.0290   -0.7860 C   0  0  0  0  0
    7.3140   60.9160   -1.3110 C   0  0  0  0  0
    8.5520   60.4170   -2.0540 C   0  0  0  0  0
    6.4520   61.7270   -1.9380 N   0  0  0  0  0
    4.2560   62.5040   -3.4610 O   0  0  0  0  0
    1.6240   62.6980   -2.3520 O   0  0  0  0  0
    4.2860   64.3590   -0.4310 O   0  0  0  0  0
    2.3290   66.3970   -0.6230 O   0  0  0  0  0
    7.1320   60.5830   -0.1380 O   0  0  0  0  0
    8.7940   66.6060    1.2020 C   0  0  0  0  0
    7.4200   67.3200    1.1560 C   0  0  0  0  0
    6.3880   66.2290    0.8630 C   0  0  0  0  0
    7.1310   65.1950    0.0180 C   0  0  0  0  0
    8.4580   65.1770    0.7670 C   0  0  0  0  0
    9.5920   64.5070   -0.0160 C   0  0  0  0  0
    8.2880   67.4100    3.2590 C   0  0  0  0  0
    9.4440   67.3110    5.2600 C   0  0  0  0  0
    7.2880   67.8280    2.5110 N   0  0  0  0  0
    8.4220   67.7550    4.5450 N   0  0  0  0  0
    5.3080   66.7820    0.1060 O   0  0  0  0  0
    6.5510   63.8720   -0.0350 O   0  0  0  0  0
    9.8250   65.2140   -1.2280 O   0  0  0  0  0
    9.1870   66.6130    2.6140 O   0  0  0  0  0
    1.1211   60.9830   -1.2555 H   0  0  0  0  0
   -0.6033   62.1768   -3.4776 H   0  0  0  0  0
   -2.2301   60.4832   -3.0757 H   0  0  0  0  0
   -0.5044   59.8402   -4.6592 H   0  0  0  0  0
    0.9981   58.7762   -2.2148 H   0  0  0  0  0
    1.8159   58.7626   -5.1433 H   0  0  0  0  0
    1.1574   57.3486   -4.2777 H   0  0  0  0  0
   -1.1580   65.1219    0.1597 H   0  0  0  0  0
   -2.7860   64.8781   -0.5194 H   0  0  0  0  0
   -2.0459   63.6150    0.4944 H   0  0  0  0  0
   -1.3909   61.9306   -0.5980 H   0  0  0  0  0
   -1.7799   60.2654   -0.8016 H   0  0  0  0  0
   -2.0298   58.2146   -4.0208 H   0  0  0  0  0
    3.4829   57.4037   -4.2567 H   0  0  0  0  0
    5.7295   64.2772   -1.9086 H   0  0  0  0  0
    5.0968   61.7452   -0.3105 H   0  0  0  0  0
    3.7827   60.9747   -2.1585 H   0  0  0  0  0
    2.5540   62.3212   -0.5759 H   0  0  0  0  0
    3.4316   64.6919   -2.3206 H   0  0  0  0  0
    1.6854   64.6060    0.1783 H   0  0  0  0  0
    1.1206   64.9516   -1.4684 H   0  0  0  0  0
    9.4478   60.7597   -1.5361 H   0  0  0  0  0
    8.5421   59.3274   -2.0832 H   0  0  0  0  0
    8.5464   60.8090   -3.0710 H   0  0  0  0  0
    6.6250   61.9804   -2.9108 H   0  0  0  0  0
    3.4739   62.3628   -3.9995 H   0  0  0  0  0
    1.5830   66.8838   -0.2650 H   0  0  0  0  0
    9.5824   67.0458    0.5911 H   0  0  0  0  0
    7.3032   68.1116    0.4159 H   0  0  0  0  0
    5.9735   65.7965    1.7736 H   0  0  0  0  0
    7.1485   65.4578   -1.0397 H   0  0  0  0  0
    8.3486   64.5509    1.6525 H   0  0  0  0  0
    9.3119   63.4792   -0.2468 H   0  0  0  0  0
   10.5002   64.5164    0.5866 H   0  0  0  0  0
   10.1867   66.6577    4.8020 H   0  0  0  0  0
    9.5427   67.5987    6.3067 H   0  0  0  0  0
    4.6621   66.0956   -0.0764 H   0  0  0  0  0
   10.5361   64.7892   -1.7133 H   0  0  0  0  0
  1  2  1  0  0  0
  1 12  1  0  0  0
 25  1  1  0  0  0
  2  3  1  0  0  0
  2  9  1  0  0  0
  3  4  1  0  0  0
  3 10  1  0  0  0
  5  4  1  0  0  0
  4 11  1  0  0  0
  5  6  1  0  0  0
 12  5  1  0  0  0
  6 13  1  0  0  0
  7  8  1  0  0  0
  9  7  1  0  0  0
  7 14  2  0  0  0
 15 16  1  0  0  0
 15 26  1  0  0  0
 40 15  1  0  0  0
 16 17  1  0  0  0
 16 23  1  0  0  0
 17 18  1  0  0  0
 17 24  1  0  0  0
 19 18  1  0  0  0
 18 25  1  0  0  0
 19 20  1  0  0  0
 26 19  1  0  0  0
 20 27  1  0  0  0
 21 22  1  0  0  0
 23 21  1  0  0  0
 21 28  2  0  0  0
 29 30  1  0  0  0
 33 29  1  0  0  0
 29 42  1  0  0  0
 31 30  1  0  0  0
 30 37  1  0  0  0
 32 31  1  0  0  0
 31 39  1  0  0  0
 32 33  1  0  0  0
 32 40  1  0  0  0
 33 34  1  0  0  0
 34 41  1  0  0  0
 37 35  2  0  0  0
 35 38  1  0  0  0
 35 42  1  0  0  0
 38 36  2  0  0  0
  1 43  1  0  0  0
  2 44  1  0  0  0
  3 45  1  0  0  0
  4 46  1  0  0  0
  5 47  1  0  0  0
  6 48  1  0  0  0
  6 49  1  0  0  0
  8 50  1  0  0  0
  8 51  1  0  0  0
  8 52  1  0  0  0
  9 53  1  0  0  0
 10 54  1  0  0  0
 11 55  1  0  0  0
 13 56  1  0  0  0
 15 57  1  0  0  0
 16 58  1  0  0  0
 17 59  1  0  0  0
 18 60  1  0  0  0
 19 61  1  0  0  0
 20 62  1  0  0  0
 20 63  1  0  0  0
 22 64  1  0  0  0
 22 65  1  0  0  0
 22 66  1  0  0  0
 23 67  1  0  0  0
 24 68  1  0  0  0
 27 69  1  0  0  0
 29 70  1  0  0  0
 30 71  1  0  0  0
 31 72  1  0  0  0
 32 73  1  0  0  0
 33 74  1  0  0  0
 34 75  1  0  0  0
 34 76  1  0  0  0
 36 77  1  0  0  0
 36 78  1  0  0  0
 39 79  1  0  0  0
 41 80  1  0  0  0
M  END
$$$$
