5tqu_ligand
  -I-interpret- 

 52 55  0  0  0  0  0  0  0  0999 V2000
  -40.3560   11.0250    7.8570 C   0  0  0  0  0
  -42.2990   12.6430    7.5260 C   0  0  0  0  0
  -43.3460   11.5710    7.6410 C   0  0  0  0  0
  -44.1080   11.6880   10.0350 C   0  0  0  0  0
  -44.9690   12.0840   12.3900 C   0  0  0  0  0
  -43.9580   14.0550   13.4610 C   0  0  0  0  0
  -43.5270   15.8620   14.5550 C   0  0  0  0  0
  -42.9560   16.9770   15.1620 C   0  0  0  0  0
  -45.1320   17.5620   16.0410 C   0  0  0  0  0
  -45.7110   16.4540   15.4400 C   0  0  0  0  0
  -44.8900   15.6160   14.7010 C   0  0  0  0  0
  -42.4480   13.9810    7.3170 C   0  0  0  0  0
  -41.1420   14.5760    7.2860 C   0  0  0  0  0
  -40.6070   15.8580    7.1160 C   0  0  0  0  0
  -39.2470   16.0960    7.1410 C   0  0  0  0  0
  -38.3920   15.0310    7.3400 C   0  0  0  0  0
  -40.2300   13.5300    7.4840 C   0  0  0  0  0
  -36.6750   15.3210    7.3720 Cl  0  0  0  0  0
  -41.6690   17.2060    6.8650 Cl  0  0  0  0  0
  -38.8570   13.7440    7.5130 C   0  0  0  0  0
  -40.9410   12.3510    7.6310 N   0  0  0  0  0
  -40.7650   10.4390    9.1890 C   0  0  0  0  0
  -40.4840   11.3400   10.2470 O   0  0  0  0  0
  -44.3910   11.8710    8.6110 N   0  3  0  0  0
  -45.2810   12.0840   10.9080 C   0  0  0  0  0
  -43.8470   12.9550   12.7110 N   0  0  0  0  0
  -45.1370   14.4540   13.9910 N   0  0  0  0  0
  -42.9550   14.8630   13.7670 N   0  0  0  0  0
  -43.7720   17.8200   15.9030 C   0  0  0  0  0
  -39.2709   11.1279    7.8510 H   0  0  0  0  0
  -40.7115   10.3593    7.0705 H   0  0  0  0  0
  -42.8451   10.6619    7.9737 H   0  0  0  0  0
  -43.8245   11.4782    6.6661 H   0  0  0  0  0
  -43.2615   12.3229   10.2965 H   0  0  0  0  0
  -43.8997   10.6318   10.2060 H   0  0  0  0  0
  -44.7063   11.0675   12.6831 H   0  0  0  0  0
  -45.8470   12.4485   12.9232 H   0  0  0  0  0
  -41.8908   17.1835   15.0575 H   0  0  0  0  0
  -45.7509   18.2395   16.6292 H   0  0  0  0  0
  -46.7763   16.2489   15.5452 H   0  0  0  0  0
  -43.3943   14.5080    7.1946 H   0  0  0  0  0
  -38.8566   17.1047    7.0063 H   0  0  0  0  0
  -38.1654   12.9160    7.6685 H   0  0  0  0  0
  -40.2038    9.5193    9.3540 H   0  0  0  0  0
  -41.8372   10.2435    9.1711 H   0  0  0  0  0
  -40.7519   10.9464   11.0806 H   0  0  0  0  0
  -45.1400   11.2102    8.4042 H   0  0  0  0  0
  -44.5708   12.8693    8.5043 H   0  0  0  0  0
  -46.0707   11.3512   10.7425 H   0  0  0  0  0
  -45.5598   13.1018   10.6350 H   0  0  0  0  0
  -42.9270   12.7122   12.3435 H   0  0  0  0  0
  -43.3407   18.6978   16.3843 H   0  0  0  0  0
 21  1  1  0  0  0
  1 22  1  0  0  0
  3  2  1  0  0  0
  2 12  4  0  0  0
  2 21  4  0  0  0
 24  3  1  0  0  0
  4 24  1  0  0  0
 25  4  1  0  0  0
  5 25  1  0  0  0
 26  5  1  0  0  0
  6 26  1  0  0  0
  6 27  4  0  0  0
 28  6  4  0  0  0
  8  7  4  0  0  0
  7 11  4  0  0  0
  7 28  4  0  0  0
 29  8  4  0  0  0
  9 10  4  0  0  0
  9 29  4  0  0  0
 10 11  4  0  0  0
 11 27  4  0  0  0
 12 13  4  0  0  0
 13 14  4  0  0  0
 13 17  4  0  0  0
 14 15  4  0  0  0
 14 19  1  0  0  0
 15 16  4  0  0  0
 16 18  1  0  0  0
 16 20  4  0  0  0
 17 20  4  0  0  0
 17 21  4  0  0  0
 22 23  1  0  0  0
  1 30  1  0  0  0
  1 31  1  0  0  0
  3 32  1  0  0  0
  3 33  1  0  0  0
  4 34  1  0  0  0
  4 35  1  0  0  0
  5 36  1  0  0  0
  5 37  1  0  0  0
  8 38  1  0  0  0
  9 39  1  0  0  0
 10 40  1  0  0  0
 12 41  1  0  0  0
 15 42  1  0  0  0
 20 43  1  0  0  0
 22 44  1  0  0  0
 22 45  1  0  0  0
 23 46  1  0  0  0
 24 47  1  0  0  0
 24 48  1  0  0  0
 25 49  1  0  0  0
 25 50  1  0  0  0
 26 51  1  0  0  0
 29 52  1  0  0  0
M  END
$$$$
