5aix_ligand
  -I-interpret- 

 51 53  0  0  0  0  0  0  0  0999 V2000
   16.5120    7.2020    2.2980 C   0  0  0  0  0
   16.1740    5.8710    2.6580 O   0  0  0  0  0
   16.4570    5.1170    1.5270 C   0  0  0  0  0
   17.6210    4.3860    1.4530 C   0  0  0  0  0
   17.8660    3.6410    0.3200 C   0  0  0  0  0
   16.9650    3.6540   -0.7130 C   0  0  0  0  0
   15.7920    4.3910   -0.6410 C   0  0  0  0  0
   15.5480    5.1190    0.4980 C   0  0  0  0  0
   14.8820    4.4650   -1.7590 C   0  0  0  0  0
   15.2080    3.7750   -2.9190 C   0  0  0  0  0
   14.3840    3.8650   -4.0190 C   0  0  0  0  0
   13.2700    4.6540   -3.8730 C   0  0  0  0  0
   12.9970    5.3180   -2.6860 C   0  0  0  0  0
   13.7900    5.2600   -1.6120 N   0  0  0  0  0
   12.3350    4.7810   -4.9820 C   0  0  0  0  0
   11.1420    4.8350   -4.6670 O   0  0  0  0  0
   12.9570    4.8040   -6.2210 N   0  0  0  0  0
   12.1660    4.8860   -7.4300 C   0  0  0  0  0
   11.9070    3.5730   -8.1270 C   0  0  0  0  0
   10.8980    3.8430   -9.2300 C   0  0  0  0  0
   11.5730    4.7350  -10.1580 N   0  3  0  0  0
   11.6720    6.0470   -9.5340 C   0  0  0  0  0
   12.7050    5.8910   -8.4260 C   0  0  0  0  0
   10.8320    4.8240  -11.3830 C   0  0  0  0  0
   11.7690    5.1720  -12.5270 C   0  0  0  0  0
   11.1380    4.7500  -13.6390 F   0  0  0  0  0
   11.9950    6.5270  -12.6520 F   0  0  0  0  0
   12.9970    4.5690  -12.4570 F   0  0  0  0  0
   17.5685    7.2485    2.0339 H   0  0  0  0  0
   15.9089    7.5104    1.4441 H   0  0  0  0  0
   16.3172    7.8655    3.1406 H   0  0  0  0  0
   18.3360    4.3963    2.2757 H   0  0  0  0  0
   18.7741    3.0428    0.2453 H   0  0  0  0  0
   17.1749    3.0725   -1.6107 H   0  0  0  0  0
   14.6299    5.7001    0.5852 H   0  0  0  0  0
   16.1109    3.1656   -2.9589 H   0  0  0  0  0
   14.6032    3.3413   -4.9495 H   0  0  0  0  0
   12.0889    5.9179   -2.6263 H   0  0  0  0  0
   13.9744    4.7630   -6.2804 H   0  0  0  0  0
   11.2029    5.2326   -7.0554 H   0  0  0  0  0
   11.5202    2.8347   -7.4246 H   0  0  0  0  0
   12.8307    3.1691   -8.5415 H   0  0  0  0  0
    9.9845    4.2895   -8.8373 H   0  0  0  0  0
   10.5813    2.9213   -9.7182 H   0  0  0  0  0
   12.5038    4.3789  -10.3752 H   0  0  0  0  0
   10.7103    6.3769   -9.1411 H   0  0  0  0  0
   11.9684    6.8108  -10.2529 H   0  0  0  0  0
   13.6529    5.5449   -8.8380 H   0  0  0  0  0
   12.8845    6.8490   -7.9380 H   0  0  0  0  0
   10.0732    5.6009  -11.2896 H   0  0  0  0  0
   10.3554    3.8650  -11.5864 H   0  0  0  0  0
  1  2  1  0  0  0
  2  3  1  0  0  0
  3  4  4  0  0  0
  3  8  4  0  0  0
  4  5  4  0  0  0
  5  6  4  0  0  0
  6  7  4  0  0  0
  7  8  4  0  0  0
  7  9  1  0  0  0
  9 10  4  0  0  0
  9 14  4  0  0  0
 10 11  4  0  0  0
 11 12  4  0  0  0
 12 13  4  0  0  0
 12 15  1  0  0  0
 13 14  4  0  0  0
 15 16  2  0  0  0
 15 17  1  0  0  0
 17 18  1  0  0  0
 18 19  1  0  0  0
 18 23  1  0  0  0
 19 20  1  0  0  0
 20 21  1  0  0  0
 21 22  1  0  0  0
 21 24  1  0  0  0
 22 23  1  0  0  0
 24 25  1  0  0  0
 25 26  1  0  0  0
 25 27  1  0  0  0
 25 28  1  0  0  0
  1 29  1  0  0  0
  1 30  1  0  0  0
  1 31  1  0  0  0
  4 32  1  0  0  0
  5 33  1  0  0  0
  6 34  1  0  0  0
  8 35  1  0  0  0
 10 36  1  0  0  0
 11 37  1  0  0  0
 13 38  1  0  0  0
 17 39  1  0  0  0
 18 40  1  0  0  0
 19 41  1  0  0  0
 19 42  1  0  0  0
 20 43  1  0  0  0
 20 44  1  0  0  0
 21 45  1  0  0  0
 22 46  1  0  0  0
 22 47  1  0  0  0
 23 48  1  0  0  0
 23 49  1  0  0  0
 24 50  1  0  0  0
 24 51  1  0  0  0
M  END
$$$$
