1c5y_ligand
  -I-interpret- 

 19 20  0  0  0  0  0  0  0  0999 V2000
    8.1660   -0.9270   25.8650 C   0  0  0  0  0
    8.4900    0.3310   25.4350 C   0  0  0  0  0
    7.5500   -1.0330   27.0040 N   0  0  0  0  0
    8.5110   -1.9100   25.0980 N   0  0  0  0  0
    9.0730    0.5490   23.7620 S   0  0  0  0  0
    9.2650    2.2370   23.9650 C   0  0  0  0  0
    8.8960    2.5900   25.2540 C   0  0  0  0  0
    8.4730    1.5580   26.0570 C   0  0  0  0  0
    9.6740    3.1910   23.1680 N   0  0  0  0  0
    9.7660    4.4770   23.4640 C   0  0  0  0  0
    9.3970    4.8440   24.7560 C   0  0  0  0  0
    8.9570    3.9010   25.6530 C   0  0  0  0  0
    7.2970   -1.9535   27.3632 H   0  0  0  0  0
    7.3194   -0.1957   27.5390 H   0  0  0  0  0
    8.3005   -2.8695   25.3728 H   0  0  0  0  0
    8.1540    1.6985   27.0898 H   0  0  0  0  0
   10.1121    5.2104   22.7357 H   0  0  0  0  0
    9.4579    5.8895   25.0583 H   0  0  0  0  0
    8.6621    4.1890   26.6621 H   0  0  0  0  0
  5  2  4  0  0  0
  6  5  4  0  0  0
  7  6  4  0  0  0
 11 10  4  0  0  0
 12  7  4  0  0  0
 12 11  4  0  0  0
 10  9  4  0  0  0
  6  9  4  0  0  0
  2  8  4  0  0  0
  8  7  4  0  0  0
  2  1  1  0  0  0
  1  3  1  0  0  0
  1  4  2  0  0  0
  3 13  1  0  0  0
  3 14  1  0  0  0
  4 15  1  0  0  0
  8 16  1  0  0  0
 10 17  1  0  0  0
 11 18  1  0  0  0
 12 19  1  0  0  0
M  END
$$$$
