5iwg_ligand
  -I-interpret- 

 42 44  0  0  0  0  0  0  0  0999 V2000
   67.0780   31.6750   -0.8460 O   0  0  0  0  0
   68.0140   31.0770   -0.3390 C   0  0  0  0  0
   67.7450   30.0110    0.4830 N   0  0  0  0  0
   66.4800   29.4660    0.8180 C   0  0  0  0  0
   66.0840   29.3100    2.1430 C   0  0  0  0  0
   64.8500   28.7000    2.4650 C   0  0  0  0  0
   64.0340   28.2310    1.4290 C   0  0  0  0  0
   64.4120   28.3600    0.1170 C   0  0  0  0  0
   65.6360   28.9550   -0.1880 C   0  0  0  0  0
   65.9510   29.0580   -1.5240 N   0  0  0  0  0
   64.3830   28.5610    3.8690 C   0  0  0  0  0
   63.0190   28.7480    4.2050 C   0  0  0  0  0
   62.5850   28.6270    5.5140 C   0  0  0  0  0
   63.4990   28.3300    6.5110 C   0  0  0  0  0
   63.0640   28.2160    7.7730 F   0  0  0  0  0
   64.8470   28.1540    6.2080 C   0  0  0  0  0
   65.2950   28.2650    4.8990 C   0  0  0  0  0
   69.4320   31.5170   -0.7150 C   0  0  0  0  0
   69.6160   33.0480   -0.6670 C   0  0  0  0  0
   71.0430   33.3620   -1.1300 C   0  0  0  0  0
   71.9780   32.7240   -0.2610 O   0  0  0  0  0
   71.9480   31.2970   -0.3060 C   0  0  0  0  0
   70.5490   30.7940    0.0800 C   0  0  0  0  0
   68.5544   29.5553    0.9043 H   0  0  0  0  0
   66.7342   29.6630    2.9435 H   0  0  0  0  0
   63.0829   27.7556    1.6688 H   0  0  0  0  0
   63.7615   28.0007   -0.6804 H   0  0  0  0  0
   66.8170   29.5148   -1.8101 H   0  0  0  0  0
   65.3184   28.6776   -2.2279 H   0  0  0  0  0
   62.3012   28.9906    3.4214 H   0  0  0  0  0
   61.5316   28.7645    5.7581 H   0  0  0  0  0
   65.5554   27.9274    7.0048 H   0  0  0  0  0
   66.3510   28.1232    4.6693 H   0  0  0  0  0
   69.5449   31.2033   -1.7528 H   0  0  0  0  0
   69.4566   33.4171    0.3461 H   0  0  0  0  0
   68.8906   33.5373   -1.3170 H   0  0  0  0  0
   71.2030   34.4399   -1.1064 H   0  0  0  0  0
   71.1836   32.9947   -2.1466 H   0  0  0  0  0
   72.6807   30.8987    0.3958 H   0  0  0  0  0
   72.1852   30.9631   -1.3161 H   0  0  0  0  0
   70.4948   29.7294   -0.1477 H   0  0  0  0  0
   70.3959   30.9932    1.1407 H   0  0  0  0  0
  1  2  2  0  0  0
  2  3  1  0  0  0
  2 18  1  0  0  0
  3  4  1  0  0  0
  4  5  4  0  0  0
  4  9  4  0  0  0
  5  6  4  0  0  0
  6  7  4  0  0  0
  6 11  1  0  0  0
  7  8  4  0  0  0
  8  9  4  0  0  0
  9 10  1  0  0  0
 11 12  4  0  0  0
 11 17  4  0  0  0
 12 13  4  0  0  0
 13 14  4  0  0  0
 14 15  1  0  0  0
 14 16  4  0  0  0
 16 17  4  0  0  0
 18 19  1  0  0  0
 18 23  1  0  0  0
 19 20  1  0  0  0
 20 21  1  0  0  0
 21 22  1  0  0  0
 22 23  1  0  0  0
  3 24  1  0  0  0
  5 25  1  0  0  0
  7 26  1  0  0  0
  8 27  1  0  0  0
 10 28  1  0  0  0
 10 29  1  0  0  0
 12 30  1  0  0  0
 13 31  1  0  0  0
 16 32  1  0  0  0
 17 33  1  0  0  0
 18 34  1  0  0  0
 19 35  1  0  0  0
 19 36  1  0  0  0
 20 37  1  0  0  0
 20 38  1  0  0  0
 22 39  1  0  0  0
 22 40  1  0  0  0
 23 41  1  0  0  0
 23 42  1  0  0  0
M  END
$$$$
