6eg9_ligand
  -I-interpret- 

 68 72  0  0  0  0  0  0  0  0999 V2000
   -6.1580  -29.0920  -30.6180 N   0  0  0  0  0
    5.4100  -31.5840  -20.3720 N   0  3  0  0  0
   -3.1330  -27.4530  -27.6640 C   0  0  0  0  0
   -2.0160  -26.9700  -26.9110 C   0  0  0  0  0
   -1.6600  -25.6410  -26.8220 C   0  0  0  0  0
   -0.5470  -25.2850  -26.0590 C   0  0  0  0  0
    0.2140  -26.2480  -25.3900 C   0  0  0  0  0
   -1.2750  -27.9470  -26.2530 C   0  0  0  0  0
    2.6350  -29.2290  -23.9570 C   0  0  0  0  0
    4.6070  -29.3920  -22.5950 C   0  0  0  0  0
    3.4940  -31.4290  -23.2670 C   0  0  0  0  0
    5.5200  -31.4860  -21.8530 C   0  0  0  0  0
    6.8050  -31.6520  -19.8980 C   0  0  0  0  0
    6.8990  -31.7680  -18.3840 C   0  0  0  0  0
    4.7430  -30.4660  -19.6660 C   0  0  0  0  0
   -8.2890  -29.2700  -29.4790 C   0  0  0  0  0
   -8.9180  -29.0560  -28.2510 C   0  0  0  0  0
   -8.1330  -28.5510  -27.2070 C   0  0  0  0  0
   -6.7550  -28.2880  -27.4570 N   0  0  0  0  0
   -6.3130  -28.5030  -28.5320 N   0  0  0  0  0
   -6.9930  -28.9850  -29.5840 C   0  0  0  0  0
   -4.9590  -28.6820  -30.2250 C   0  0  0  0  0
   -5.0670  -28.3290  -28.9580 C   0  0  0  0  0
   -3.9670  -27.8250  -28.2110 C   0  0  0  0  0
   -0.1500  -27.5990  -25.4950 C   0  0  0  0  0
   -2.4030  -24.6830  -27.4800 C   0  0  0  0  0
    0.5370  -28.6250  -24.8610 C   0  0  0  0  0
   -0.0490  -29.6770  -24.6190 O   0  0  0  0  0
    1.8220  -28.3570  -24.5810 N   0  0  0  0  0
    3.6750  -28.6180  -23.2580 C   0  0  0  0  0
    4.5210  -30.7820  -22.5610 C   0  0  0  0  0
    2.5570  -30.6420  -23.9630 C   0  0  0  0  0
    3.3640  -32.8270  -23.2980 C   0  0  0  0  0
    2.5550  -32.9850  -24.3540 F   0  0  0  0  0
    4.2440  -33.4300  -23.6250 F   0  0  0  0  0
    2.7740  -33.2700  -22.5000 F   0  0  0  0  0
    4.7930  -30.6480  -18.1740 C   0  0  0  0  0
    6.1640  -30.7710  -16.2390 C   0  0  0  0  0
    6.1860  -30.6620  -17.7120 N   0  3  0  0  0
    4.8182  -32.3892  -20.1672 H   0  0  0  0  0
   -0.2654  -24.2347  -25.9832 H   0  0  0  0  0
    1.0784  -25.9534  -24.7949 H   0  0  0  0  0
   -1.5730  -28.9928  -26.3283 H   0  0  0  0  0
    5.4345  -28.9007  -22.0831 H   0  0  0  0  0
    5.4512  -32.5132  -22.2112 H   0  0  0  0  0
    6.4403  -30.9304  -22.0330 H   0  0  0  0  0
    7.3078  -30.7324  -20.1973 H   0  0  0  0  0
    7.2658  -32.5388  -20.3331 H   0  0  0  0  0
    7.9501  -31.7256  -18.0986 H   0  0  0  0  0
    6.4412  -32.7094  -18.0803 H   0  0  0  0  0
    3.6982  -30.4367  -19.9754 H   0  0  0  0  0
    5.2606  -29.5405  -19.9184 H   0  0  0  0  0
   -8.8456  -29.6609  -30.3308 H   0  0  0  0  0
   -9.9769  -29.2731  -28.1106 H   0  0  0  0  0
   -8.5666  -28.3632  -26.2247 H   0  0  0  0  0
   -4.0555  -28.6439  -30.8336 H   0  0  0  0  0
   -2.3922  -24.8885  -28.5504 H   0  0  0  0  0
   -3.4296  -24.7068  -27.1145 H   0  0  0  0  0
   -1.9722  -23.6993  -27.2933 H   0  0  0  0  0
    2.2000  -27.4498  -24.8540 H   0  0  0  0  0
    3.7524  -27.5310  -23.2348 H   0  0  0  0  0
    1.7557  -31.1305  -24.5174 H   0  0  0  0  0
    4.3211  -31.5955  -17.9140 H   0  0  0  0  0
    4.2666  -29.8220  -17.6958 H   0  0  0  0  0
    5.6669  -31.6976  -15.9519 H   0  0  0  0  0
    7.1863  -30.7734  -15.8608 H   0  0  0  0  0
    5.6227  -29.9222  -15.8212 H   0  0  0  0  0
    6.6914  -29.8088  -17.9509 H   0  0  0  0  0
  1 21  4  0  0  0
 22  1  4  0  0  0
 12  2  1  0  0  0
  2 13  1  0  0  0
  2 15  1  0  0  0
  4  3  1  0  0  0
  3 24  3  0  0  0
  4  5  4  0  0  0
  8  4  4  0  0  0
  6  5  4  0  0  0
  5 26  1  0  0  0
  7  6  4  0  0  0
 25  7  4  0  0  0
 25  8  4  0  0  0
 29  9  1  0  0  0
  9 30  4  0  0  0
  9 32  4  0  0  0
 30 10  4  0  0  0
 10 31  4  0  0  0
 11 31  4  0  0  0
 32 11  4  0  0  0
 11 33  1  0  0  0
 31 12  1  0  0  0
 13 14  1  0  0  0
 14 39  1  0  0  0
 15 37  1  0  0  0
 16 17  4  0  0  0
 21 16  4  0  0  0
 18 17  4  0  0  0
 19 18  4  0  0  0
 20 19  4  0  0  0
 20 21  4  0  0  0
 23 20  4  0  0  0
 23 22  4  0  0  0
 24 23  1  0  0  0
 27 25  1  0  0  0
 27 28  2  0  0  0
 27 29  1  0  0  0
 33 34  1  0  0  0
 33 35  1  0  0  0
 33 36  1  0  0  0
 37 39  1  0  0  0
 39 38  1  0  0  0
  2 40  1  0  0  0
  6 41  1  0  0  0
  7 42  1  0  0  0
  8 43  1  0  0  0
 10 44  1  0  0  0
 12 45  1  0  0  0
 12 46  1  0  0  0
 13 47  1  0  0  0
 13 48  1  0  0  0
 14 49  1  0  0  0
 14 50  1  0  0  0
 15 51  1  0  0  0
 15 52  1  0  0  0
 16 53  1  0  0  0
 17 54  1  0  0  0
 18 55  1  0  0  0
 22 56  1  0  0  0
 26 57  1  0  0  0
 26 58  1  0  0  0
 26 59  1  0  0  0
 29 60  1  0  0  0
 30 61  1  0  0  0
 32 62  1  0  0  0
 37 63  1  0  0  0
 37 64  1  0  0  0
 38 65  1  0  0  0
 38 66  1  0  0  0
 38 67  1  0  0  0
 39 68  1  0  0  0
M  END
$$$$
