5ctb_ligand
  -I-interpret- 

 54 58  0  0  0  0  0  0  0  0999 V2000
    6.0360   29.9580   22.9370 N   0  0  0  0  0
    5.0410   30.5760   25.1100 C   0  0  0  0  0
    4.5960   34.2700   27.7890 N   0  0  0  0  0
    3.8930   32.2870   26.9140 C   0  0  0  0  0
    5.1640   32.5860   26.3560 C   0  0  0  0  0
    5.6500   29.5640   24.2150 C   0  0  0  0  0
    4.8030   31.0110   21.0600 C   0  0  0  0  0
    7.8210   33.4560   17.7070 C   0  0  0  0  0
    7.7960   32.4390   18.6500 C   0  0  0  0  0
    5.5580   33.8380   26.9460 C   0  0  0  0  0
    5.5850   32.8920   16.9960 C   0  0  0  0  0
    4.3750   31.0000   18.0490 C   0  0  0  0  0
    6.7230   33.6780   16.8680 C   0  0  0  0  0
    1.9080   30.8150   27.2660 C   0  0  0  0  0
    3.1950   31.1110   26.5960 C   0  0  0  0  0
    3.7880   30.2650   25.6880 C   0  0  0  0  0
    5.7500   31.7080   25.4450 C   0  0  0  0  0
    3.5950   33.3380   27.7740 N   0  0  0  0  0
    5.8600   28.4210   24.6140 O   0  0  0  0  0
    6.7370   29.0350   22.0290 C   0  0  0  0  0
    5.9020   28.7610   20.7760 C   0  0  0  0  0
    5.5020   30.0690   20.0770 C   0  0  0  0  0
    5.6540   31.2320   22.3180 C   0  0  0  0  0
    4.5940   29.7670   18.8820 C   0  0  0  0  0
    3.3230   31.2200   17.4770 O   0  0  0  0  0
    5.5430   31.8700   17.9390 C   0  0  0  0  0
    6.6510   31.6480   18.7550 C   0  0  0  0  0
    6.7290   30.6400   19.6640 O   0  0  0  0  0
    9.0240   34.3190   17.5970 C   0  0  0  0  0
    6.7780   34.7440   15.8330 C   0  0  0  0  0
    3.8544   30.5632   21.3561 H   0  0  0  0  0
    4.6494   31.9728   20.5706 H   0  0  0  0  0
    8.6549   32.2609   19.2971 H   0  0  0  0  0
    6.4933   34.3596   26.7427 H   0  0  0  0  0
    4.7223   33.0764   16.3558 H   0  0  0  0  0
    2.0673   30.7472   28.3422 H   0  0  0  0  0
    1.1967   31.6127   27.0522 H   0  0  0  0  0
    1.5161   29.8680   26.8950 H   0  0  0  0  0
    3.2840   29.3396   25.4092 H   0  0  0  0  0
    6.7310   31.9098   25.0148 H   0  0  0  0  0
    6.9065   28.0926   22.5499 H   0  0  0  0  0
    7.6811   29.4892   21.7283 H   0  0  0  0  0
    4.9951   28.2332   21.0712 H   0  0  0  0  0
    6.4980   28.1655   20.0845 H   0  0  0  0  0
    6.5616   31.7639   22.0327 H   0  0  0  0  0
    5.0669   31.8036   23.0368 H   0  0  0  0  0
    5.0702   29.0062   18.2635 H   0  0  0  0  0
    3.6300   29.4192   19.2534 H   0  0  0  0  0
    9.1932   34.8270   18.5464 H   0  0  0  0  0
    9.8900   33.7036   17.3533 H   0  0  0  0  0
    8.8689   35.0578   16.8108 H   0  0  0  0  0
    6.9399   35.7083   16.3147 H   0  0  0  0  0
    7.5975   34.5382   15.1445 H   0  0  0  0  0
    5.8367   34.7643   15.2838 H   0  0  0  0  0
  1  6  1  0  0  0
 20  1  1  0  0  0
 23  1  1  0  0  0
  6  2  1  0  0  0
  2 16  4  0  0  0
  2 17  4  0  0  0
 10  3  4  0  0  0
  3 18  4  0  0  0
  5  4  4  0  0  0
 15  4  4  0  0  0
  4 18  4  0  0  0
  5 10  4  0  0  0
 17  5  4  0  0  0
  6 19  2  0  0  0
 22  7  1  0  0  0
  7 23  1  0  0  0
  8  9  4  0  0  0
 13  8  4  0  0  0
  8 29  1  0  0  0
  9 27  4  0  0  0
 11 13  4  0  0  0
 26 11  4  0  0  0
 24 12  1  0  0  0
 12 25  2  0  0  0
 12 26  1  0  0  0
 13 30  1  0  0  0
 15 14  1  0  0  0
 16 15  4  0  0  0
 21 20  1  0  0  0
 22 21  1  0  0  0
 22 24  1  0  0  0
 22 28  1  0  0  0
 26 27  4  0  0  0
 27 28  1  0  0  0
  7 31  1  0  0  0
  7 32  1  0  0  0
  9 33  1  0  0  0
 10 34  1  0  0  0
 11 35  1  0  0  0
 14 36  1  0  0  0
 14 37  1  0  0  0
 14 38  1  0  0  0
 16 39  1  0  0  0
 17 40  1  0  0  0
 20 41  1  0  0  0
 20 42  1  0  0  0
 21 43  1  0  0  0
 21 44  1  0  0  0
 23 45  1  0  0  0
 23 46  1  0  0  0
 24 47  1  0  0  0
 24 48  1  0  0  0
 29 49  1  0  0  0
 29 50  1  0  0  0
 29 51  1  0  0  0
 30 52  1  0  0  0
 30 53  1  0  0  0
 30 54  1  0  0  0
M  END
$$$$
