6e6w_ligand
  -I-interpret- 

 33 35  0  0  0  0  0  0  0  0999 V2000
  -17.3510   16.0530  134.6110 O   0  0  0  0  0
  -18.4070   16.3500  135.2410 C   0  0  0  0  0
  -18.3940   16.3990  136.4600 O   0  0  0  0  0
  -19.5640   16.8470  134.6790 C   0  0  0  0  0
  -20.5710   17.0690  135.6160 N   0  0  0  0  0
  -19.7720   17.1780  133.3400 C   0  0  0  0  0
  -18.8150   16.9660  132.4390 O   0  0  0  0  0
  -20.9630   17.7450  132.9020 C   0  0  0  0  0
  -21.1840   18.0540  131.7140 O   0  0  0  0  0
  -21.9530   17.9590  133.8600 C   0  0  0  0  0
  -21.7720   17.6080  135.1970 C   0  0  0  0  0
  -22.8260   17.8560  136.0690 C   0  0  0  0  0
  -24.0780   17.2010  135.9010 C   0  0  0  0  0
  -24.3580   16.2430  134.8890 C   0  0  0  0  0
  -25.1190   17.5160  136.7490 C   0  0  0  0  0
  -22.6360   18.8020  137.0800 C   0  0  0  0  0
  -23.6930   19.0960  137.9400 C   0  0  0  0  0
  -24.9330   18.4420  137.7720 C   0  0  0  0  0
  -25.9760   18.7130  138.5350 C   0  0  0  0  0
  -27.2440   18.4650  138.1580 N   0  0  0  0  0
  -27.9520   18.8770  139.0450 N   0  0  0  0  0
  -27.1710   19.4030  140.0190 N   0  0  0  0  0
  -25.9490   19.3210  139.7200 N   0  0  0  0  0
  -17.5302   16.0583  133.6679 H   0  0  0  0  0
  -20.1086   16.8290  134.3162 H   0  0  0  0  0
  -18.0523   16.5736  132.8702 H   0  0  0  0  0
  -22.8955   18.4137  133.5549 H   0  0  0  0  0
  -24.2181   16.6999  133.9093 H   0  0  0  0  0
  -23.6814   15.3952  134.9959 H   0  0  0  0  0
  -25.3885   15.9019  134.9885 H   0  0  0  0  0
  -26.0901   17.0387  136.6180 H   0  0  0  0  0
  -21.6747   19.3030  137.1945 H   0  0  0  0  0
  -23.5629   19.8270  138.7380 H   0  0  0  0  0
  1  2  1  0  0  0
  2  3  2  0  0  0
  2  4  1  0  0  0
  4  5  2  0  0  0
  4  6  1  0  0  0
  5 11  1  0  0  0
  6  7  1  0  0  0
  6  8  1  0  0  0
  8  9  2  0  0  0
  8 10  1  0  0  0
 10 11  2  0  0  0
 11 12  1  0  0  0
 12 13  4  0  0  0
 12 16  4  0  0  0
 13 14  1  0  0  0
 13 15  4  0  0  0
 15 18  4  0  0  0
 16 17  4  0  0  0
 17 18  4  0  0  0
 18 19  1  0  0  0
 19 20  4  0  0  0
 19 23  4  0  0  0
 20 21  4  0  0  0
 21 22  4  0  0  0
 22 23  4  0  0  0
  1 24  1  0  0  0
  6 25  1  0  0  0
  7 26  1  0  0  0
 10 27  1  0  0  0
 14 28  1  0  0  0
 14 29  1  0  0  0
 14 30  1  0  0  0
 15 31  1  0  0  0
 16 32  1  0  0  0
 17 33  1  0  0  0
M  END
$$$$
