2vvs_ligand
  -I-interpret- 

 44 45  0  0  0  0  0  0  0  0999 V2000
  -11.0440  -11.0480    5.0140 C   0  0  0  0  0
  -10.1010  -10.6620    6.1550 C   0  0  0  0  0
  -10.0280   -9.4940    6.5560 O   0  0  0  0  0
   -9.3900  -11.6960    6.6290 N   0  0  0  0  0
   -8.4910  -11.6390    7.8050 C   0  0  0  0  0
   -9.3330  -11.3550    9.0850 C   0  0  0  0  0
   -9.6890  -12.5700    9.7800 O   0  0  0  0  0
   -8.6020  -10.3850   10.0360 C   0  0  0  0  0
   -9.3910  -10.0790   11.1690 O   0  0  0  0  0
   -8.2570   -9.0810    9.3020 C   0  0  0  0  0
   -7.7340   -8.0110   10.2590 C   0  0  0  0  0
   -6.3940   -8.2640   10.6250 O   0  0  0  0  0
   -7.3370   -9.3630    8.2000 O   0  0  0  0  0
   -7.2930  -10.6400    7.6750 C   0  0  0  0  0
   -6.1040  -11.0150    7.1650 N   0  0  0  0  0
   -5.0990  -10.0500    7.1720 O   0  0  0  0  0
   -3.8640  -10.4690    6.7480 C   0  0  0  0  0
   -3.6570  -11.6350    6.3820 O   0  0  0  0  0
   -2.9010   -9.5330    6.7790 N   0  0  0  0  0
   -1.6490   -9.7190    6.3480 C   0  0  0  0  0
   -1.0970  -10.9990    6.1970 C   0  0  0  0  0
    0.1960  -11.1490    5.7070 C   0  0  0  0  0
    0.9380  -10.0060    5.3760 C   0  0  0  0  0
    0.3880   -8.7220    5.5310 C   0  0  0  0  0
   -0.9140   -8.5850    6.0040 C   0  0  0  0  0
  -12.0700  -10.8128    5.2970 H   0  0  0  0  0
  -10.7757  -10.4888    4.1177 H   0  0  0  0  0
  -10.9559  -12.1165    4.8172 H   0  0  0  0  0
   -9.4748  -12.5888    6.1431 H   0  0  0  0  0
   -8.0137  -12.6165    7.8743 H   0  0  0  0  0
  -10.2563  -10.8803    8.7528 H   0  0  0  0  0
  -10.1423  -13.1621    9.1754 H   0  0  0  0  0
   -7.6888  -10.8791   10.3678 H   0  0  0  0  0
   -9.6106  -10.8901   11.6331 H   0  0  0  0  0
   -9.1683   -8.6640    8.8734 H   0  0  0  0  0
   -8.3481   -8.0196   11.1595 H   0  0  0  0  0
   -7.7812   -7.0438    9.7587 H   0  0  0  0  0
   -6.0923   -7.5780   11.2250 H   0  0  0  0  0
   -3.1415   -8.6169    7.1576 H   0  0  0  0  0
   -1.6826  -11.8786    6.4643 H   0  0  0  0  0
    0.6271  -12.1423    5.5819 H   0  0  0  0  0
    1.9531  -10.1147    4.9941 H   0  0  0  0  0
    0.9771   -7.8392    5.2825 H   0  0  0  0  0
   -1.3576   -7.5945    6.1052 H   0  0  0  0  0
  1  2  1  0  0  0
  2  3  2  0  0  0
  2  4  1  0  0  0
  4  5  1  0  0  0
  5  6  1  0  0  0
  5 14  1  0  0  0
  6  7  1  0  0  0
  6  8  1  0  0  0
  8  9  1  0  0  0
  8 10  1  0  0  0
 10 11  1  0  0  0
 10 13  1  0  0  0
 11 12  1  0  0  0
 13 14  1  0  0  0
 14 15  2  0  0  0
 15 16  1  0  0  0
 16 17  1  0  0  0
 17 18  2  0  0  0
 17 19  1  0  0  0
 19 20  1  0  0  0
 20 21  4  0  0  0
 20 25  4  0  0  0
 21 22  4  0  0  0
 22 23  4  0  0  0
 23 24  4  0  0  0
 24 25  4  0  0  0
  1 26  1  0  0  0
  1 27  1  0  0  0
  1 28  1  0  0  0
  4 29  1  0  0  0
  5 30  1  0  0  0
  6 31  1  0  0  0
  7 32  1  0  0  0
  8 33  1  0  0  0
  9 34  1  0  0  0
 10 35  1  0  0  0
 11 36  1  0  0  0
 11 37  1  0  0  0
 12 38  1  0  0  0
 19 39  1  0  0  0
 21 40  1  0  0  0
 22 41  1  0  0  0
 23 42  1  0  0  0
 24 43  1  0  0  0
 25 44  1  0  0  0
M  END
$$$$
