4rdn_ligand
  -I-interpret- 

 35 37  0  0  0  0  0  0  0  0999 V2000
   -9.1750  -29.2620   14.5420 O   0  0  0  0  0
   -8.6590  -29.0550   13.2450 C   0  0  0  0  0
   -9.1110  -30.2000   12.3530 C   0  0  0  0  0
  -10.5400  -30.1860   12.1800 O   0  0  0  0  0
   -8.5090  -30.0820   10.9640 C   0  0  0  0  0
   -7.2270  -30.6940   10.8420 O   0  0  0  0  0
   -9.5570  -30.7490   10.0960 C   0  0  0  0  0
   -9.3310  -32.1510    9.9870 O   0  0  0  0  0
  -10.8680  -30.4610   10.8210 C   0  0  0  0  0
  -11.5420  -29.2340   10.3370 N   0  0  0  0  0
  -10.9670  -28.1470    9.7730 C   0  0  0  0  0
  -11.8960  -27.2020    9.4900 N   0  0  0  0  0
  -13.0840  -27.6820    9.8850 C   0  0  0  0  0
  -14.4810  -27.1930    9.8680 C   0  0  0  0  0
  -14.7500  -25.9590    9.3930 N   0  0  0  0  0
  -15.4300  -28.0150   10.3860 N   0  0  0  0  0
  -15.1390  -29.2230   10.8940 C   0  0  0  0  0
  -13.8960  -29.7260   10.9340 N   0  0  0  0  0
  -12.8470  -29.0160   10.4500 C   0  0  0  0  0
  -16.0620  -25.3510    9.5340 C   0  0  0  0  0
   -8.8955  -28.5440   15.1147 H   0  0  0  0  0
   -7.5701  -29.0206   13.2805 H   0  0  0  0  0
   -9.0252  -28.1086   12.8472 H   0  0  0  0  0
   -8.7847  -31.1177   12.8423 H   0  0  0  0  0
   -8.3030  -29.0488   10.6843 H   0  0  0  0  0
   -6.6006  -30.2377   11.4086 H   0  0  0  0  0
   -9.5474  -30.3745    9.0724 H   0  0  0  0  0
   -8.5020  -32.3056    9.5282 H   0  0  0  0  0
  -11.5219  -31.3189   10.6646 H   0  0  0  0  0
   -9.9003  -28.0451    9.5732 H   0  0  0  0  0
  -14.0108  -25.4379    8.9213 H   0  0  0  0  0
  -15.9541  -29.8258   11.2943 H   0  0  0  0  0
  -16.8049  -25.9730    9.0347 H   0  0  0  0  0
  -16.3097  -25.2656   10.5921 H   0  0  0  0  0
  -16.0523  -24.3598    9.0807 H   0  0  0  0  0
  1  2  1  0  0  0
  2  3  1  0  0  0
  3  4  1  0  0  0
  3  5  1  0  0  0
  4  9  1  0  0  0
  5  6  1  0  0  0
  5  7  1  0  0  0
  7  8  1  0  0  0
  7  9  1  0  0  0
  9 10  1  0  0  0
 10 11  4  0  0  0
 10 19  4  0  0  0
 11 12  4  0  0  0
 12 13  4  0  0  0
 13 14  4  0  0  0
 13 19  4  0  0  0
 14 15  1  0  0  0
 14 16  4  0  0  0
 15 20  1  0  0  0
 16 17  4  0  0  0
 17 18  4  0  0  0
 18 19  4  0  0  0
  1 21  1  0  0  0
  2 22  1  0  0  0
  2 23  1  0  0  0
  3 24  1  0  0  0
  5 25  1  0  0  0
  6 26  1  0  0  0
  7 27  1  0  0  0
  8 28  1  0  0  0
  9 29  1  0  0  0
 11 30  1  0  0  0
 15 31  1  0  0  0
 17 32  1  0  0  0
 20 33  1  0  0  0
 20 34  1  0  0  0
 20 35  1  0  0  0
M  END
$$$$
