5auy_ligand
  -I-interpret- 

 32 34  0  0  0  0  0  0  0  0999 V2000
  -21.3050    1.7020  -11.0580 O   0  0  0  0  0
  -22.2740    2.5620  -10.6200 C   0  0  0  0  0
  -23.3970    2.7630  -11.4160 C   0  0  0  0  0
  -23.5360    2.1770  -12.4940 O   0  0  0  0  0
  -24.3770    3.6370  -10.9460 C   0  0  0  0  0
  -25.5420    3.8740  -11.6730 C   0  0  0  0  0
  -25.6710    3.2190  -12.8560 O   0  0  0  0  0
  -26.5320    4.7360  -11.2220 C   0  0  0  0  0
  -26.3560    5.3790  -10.0090 C   0  0  0  0  0
  -27.3140    6.2270   -9.5510 O   0  0  0  0  0
  -25.2010    5.1590   -9.2670 C   0  0  0  0  0
  -24.2160    4.2930   -9.7340 C   0  0  0  0  0
  -23.0840    4.0740   -8.9960 O   0  0  0  0  0
  -22.0980    3.2060   -9.3950 C   0  0  0  0  0
  -21.0080    3.1120   -8.5060 C   0  0  0  0  0
  -20.8230    4.1940   -7.6460 C   0  0  0  0  0
  -19.7820    4.2020   -6.7200 C   0  0  0  0  0
  -18.9000    3.1360   -6.6290 C   0  0  0  0  0
  -17.8830    3.1690   -5.7140 O   0  0  0  0  0
  -19.0660    2.0420   -7.4680 C   0  0  0  0  0
  -20.1100    2.0380   -8.3920 C   0  0  0  0  0
  -20.2720    0.9740   -9.2200 O   0  0  0  0  0
  -21.5625    1.3377  -11.9081 H   0  0  0  0  0
  -26.5062    3.4589  -13.2639 H   0  0  0  0  0
  -27.4325    4.9037  -11.8129 H   0  0  0  0  0
  -27.0420    6.5879   -8.7040 H   0  0  0  0  0
  -25.0657    5.6682   -8.3128 H   0  0  0  0  0
  -21.5020    5.0450   -7.6989 H   0  0  0  0  0
  -19.6592    5.0588   -6.0574 H   0  0  0  0  0
  -17.3683    2.3613   -5.7800 H   0  0  0  0  0
  -18.3854    1.1930   -7.4047 H   0  0  0  0  0
  -19.5948    0.3194   -9.0343 H   0  0  0  0  0
  1  2  1  0  0  0
  2  3  1  0  0  0
  2 14  2  0  0  0
  3  4  2  0  0  0
  3  5  1  0  0  0
  5  6  4  0  0  0
  5 12  4  0  0  0
  6  7  1  0  0  0
  6  8  4  0  0  0
  8  9  4  0  0  0
  9 10  1  0  0  0
  9 11  4  0  0  0
 11 12  4  0  0  0
 12 13  1  0  0  0
 13 14  1  0  0  0
 14 15  1  0  0  0
 15 16  4  0  0  0
 15 21  4  0  0  0
 16 17  4  0  0  0
 17 18  4  0  0  0
 18 19  1  0  0  0
 18 20  4  0  0  0
 20 21  4  0  0  0
 21 22  1  0  0  0
  1 23  1  0  0  0
  7 24  1  0  0  0
  8 25  1  0  0  0
 10 26  1  0  0  0
 11 27  1  0  0  0
 16 28  1  0  0  0
 17 29  1  0  0  0
 19 30  1  0  0  0
 20 31  1  0  0  0
 22 32  1  0  0  0
M  END
$$$$
