5ugm_ligand
  -I-interpret- 

 52 56  0  0  0  0  0  0  0  0999 V2000
   29.6450   71.5450  -31.9120 C   0  0  0  0  0
   29.7680   64.8110  -28.4390 C   0  0  0  0  0
   26.6080   62.3510  -29.7500 C   0  0  0  0  0
   24.4210   62.1630  -28.0330 C   0  0  0  0  0
   25.5780   62.7580  -27.6000 C   0  0  0  0  0
   25.5440   63.2360  -26.2730 C   0  0  0  0  0
   22.2620   61.8650  -30.8330 C   0  0  0  0  0
   28.0190   66.5380  -26.4320 C   0  0  0  0  0
   28.6370   67.0250  -27.7410 C   0  0  0  0  0
   29.3970   66.2750  -28.6170 C   0  0  0  0  0
   29.2250   68.2570  -29.4140 C   0  0  0  0  0
   29.3650   69.3500  -30.2500 C   0  0  0  0  0
   29.0010   70.6070  -29.8030 C   0  0  0  0  0
   29.1420   71.7060  -30.6330 C   0  0  0  0  0
   30.0100   70.2880  -32.3590 C   0  0  0  0  0
   29.8700   69.1900  -31.5280 C   0  0  0  0  0
   28.7120   63.8990  -29.0530 C   0  0  0  0  0
   26.6920   62.8610  -28.4690 C   0  0  0  0  0
   25.4340   61.7500  -30.1850 C   0  0  0  0  0
   24.3370   61.6600  -29.3290 C   0  0  0  0  0
   24.3610   63.0390  -25.5940 C   0  0  0  0  0
   23.0430   60.9950  -29.7830 C   0  0  0  0  0
   21.2160   61.0300  -31.4140 C   0  0  0  0  0
   19.9390   62.8950  -30.0400 C   0  0  0  0  0
   29.7380   67.0590  -29.6190 N   0  0  0  0  0
   19.7090   61.6330  -30.9350 N   0  0  0  0  0
   28.5430   68.2550  -28.2600 O   0  0  0  0  0
   27.8720   63.4640  -28.0260 O   0  0  0  0  0
   21.3860   60.0790  -32.0950 O   0  0  0  0  0
   19.0920   63.4950  -29.4770 O   0  0  0  0  0
   23.3020   62.2320  -26.7030 S   0  0  0  0  0
   21.4550   63.2240  -30.0310 S   0  0  0  0  0
   29.7536   72.4091  -32.5675 H   0  0  0  0  0
   29.8375   64.5958  -27.3727 H   0  0  0  0  0
   30.7195   64.6289  -28.9387 H   0  0  0  0  0
   27.4646   62.4204  -30.4205 H   0  0  0  0  0
   26.4000   63.7303  -25.8135 H   0  0  0  0  0
   22.9615   62.2371  -31.5815 H   0  0  0  0  0
   27.3322   65.7173  -26.6391 H   0  0  0  0  0
   28.8090   66.1928  -25.7650 H   0  0  0  0  0
   27.4763   67.3575  -25.9609 H   0  0  0  0  0
   28.6027   70.7326  -28.7962 H   0  0  0  0  0
   28.8571   72.6969  -30.2794 H   0  0  0  0  0
   30.4080   70.1621  -33.3659 H   0  0  0  0  0
   30.1576   68.1994  -31.8804 H   0  0  0  0  0
   29.1859   63.0467  -29.5400 H   0  0  0  0  0
   28.1388   64.4388  -29.8068 H   0  0  0  0  0
   25.3701   61.3484  -31.1963 H   0  0  0  0  0
   24.1371   63.3313  -24.5681 H   0  0  0  0  0
   23.2978   60.0452  -30.2533 H   0  0  0  0  0
   22.4045   60.8657  -28.9091 H   0  0  0  0  0
   18.8026   61.2394  -31.1876 H   0  0  0  0  0
 14  1  4  0  0  0
 15  1  4  0  0  0
  2 10  1  0  0  0
 17  2  1  0  0  0
  3 18  4  0  0  0
 19  3  4  0  0  0
  4  5  4  0  0  0
 20  4  4  0  0  0
  4 31  4  0  0  0
  5  6  4  0  0  0
  5 18  4  0  0  0
  6 21  4  0  0  0
 22  7  1  0  0  0
  7 23  1  0  0  0
  7 32  1  0  0  0
  9  8  1  0  0  0
 10  9  4  0  0  0
  9 27  4  0  0  0
 10 25  4  0  0  0
 11 12  1  0  0  0
 25 11  4  0  0  0
 11 27  4  0  0  0
 12 13  4  0  0  0
 12 16  4  0  0  0
 13 14  4  0  0  0
 16 15  4  0  0  0
 28 17  1  0  0  0
 18 28  1  0  0  0
 20 19  4  0  0  0
 20 22  1  0  0  0
 21 31  4  0  0  0
 23 26  1  0  0  0
 23 29  2  0  0  0
 26 24  1  0  0  0
 24 30  2  0  0  0
 24 32  1  0  0  0
  1 33  1  0  0  0
  2 34  1  0  0  0
  2 35  1  0  0  0
  3 36  1  0  0  0
  6 37  1  0  0  0
  7 38  1  0  0  0
  8 39  1  0  0  0
  8 40  1  0  0  0
  8 41  1  0  0  0
 13 42  1  0  0  0
 14 43  1  0  0  0
 15 44  1  0  0  0
 16 45  1  0  0  0
 17 46  1  0  0  0
 17 47  1  0  0  0
 19 48  1  0  0  0
 21 49  1  0  0  0
 22 50  1  0  0  0
 22 51  1  0  0  0
 26 52  1  0  0  0
M  END
$$$$
