6i77_ligand
  -I-interpret- 

 54 57  0  0  0  0  0  0  0  0999 V2000
  -20.3220    5.3210    0.3560 C   0  0  0  0  0
  -14.1760    8.2830   -0.8280 C   0  0  0  0  0
  -11.5640    8.9740    1.9620 C   0  0  0  0  0
  -25.4310    9.8240   -5.8230 C   0  0  0  0  0
  -24.3660    9.8850   -4.7750 C   0  0  0  0  0
  -23.5840    8.7590   -4.4720 C   0  0  0  0  0
  -22.5820    8.7910   -3.4820 C   0  0  0  0  0
  -22.3180    9.9670   -2.7380 C   0  0  0  0  0
  -20.0070    8.5020   -1.5600 C   0  0  0  0  0
  -19.7000    6.2660   -0.6490 C   0  0  0  0  0
  -18.2000    6.5860   -0.4510 C   0  0  0  0  0
  -17.6920    7.6100   -1.5240 C   0  0  0  0  0
  -15.5260    8.3110   -0.4310 C   0  0  0  0  0
  -12.9550    8.7040   -0.1150 C   0  0  0  0  0
  -12.7670    8.5820    1.2740 C   0  0  0  0  0
  -10.4260    9.4860    1.3070 C   0  0  0  0  0
  -10.6030    9.5830   -0.0860 C   0  0  0  0  0
  -11.8130    9.2000   -0.7510 C   0  0  0  0  0
  -18.5000    8.9120   -1.4050 C   0  0  0  0  0
  -23.1010   11.0960   -3.0350 C   0  0  0  0  0
  -24.1060   11.0490   -4.0340 C   0  0  0  0  0
  -13.7740    8.1170    1.9500 F   0  0  0  0  0
  -11.5080    8.8170    3.2830 F   0  0  0  0  0
   -9.5840   10.0600   -0.8170 F   0  0  0  0  0
  -11.8920    9.3240   -2.0620 F   0  0  0  0  0
  -16.2640    7.7560   -1.4890 N   0  0  0  0  0
   -9.2480    9.8650    1.9570 N   0  0  0  0  0
  -14.2010    7.7140   -2.1220 N   0  0  0  0  0
  -15.3870    7.4260   -2.4960 N   0  0  0  0  0
  -20.4260    7.5430   -0.6280 O   0  0  0  0  0
  -21.6380    5.0790   -0.0520 O   0  0  0  0  0
  -17.9810    7.0200    0.8180 O   0  0  0  0  0
  -18.0990    9.7360   -2.4720 O   0  0  0  0  0
  -21.0020    9.9760   -1.4610 S   0  0  0  0  0
  -20.3071    5.7614    1.3529 H   0  0  0  0  0
  -19.7595    4.3884    0.4009 H   0  0  0  0  0
  -24.9818    9.5614   -6.7808 H   0  0  0  0  0
  -26.1679    9.0698   -5.5469 H   0  0  0  0  0
  -25.9168   10.7965   -5.9025 H   0  0  0  0  0
  -23.7573    7.8323   -5.0191 H   0  0  0  0  0
  -21.9979    7.8921   -3.2846 H   0  0  0  0  0
  -20.1286    8.0226   -2.5313 H   0  0  0  0  0
  -19.7761    5.7347   -1.5977 H   0  0  0  0  0
  -17.6221    5.6732   -0.5957 H   0  0  0  0  0
  -17.8771    7.2319   -2.5294 H   0  0  0  0  0
  -15.9209    8.6890    0.5120 H   0  0  0  0  0
  -18.3494    9.4387   -0.4627 H   0  0  0  0  0
  -22.9326   12.0236   -2.4879 H   0  0  0  0  0
  -24.6951   11.9443   -4.2330 H   0  0  0  0  0
   -9.1742    9.7781    2.9706 H   0  0  0  0  0
   -8.4622   10.2284    1.4177 H   0  0  0  0  0
  -22.0594    4.4803    0.5690 H   0  0  0  0  0
  -17.0481    7.2160    0.9314 H   0  0  0  0  0
  -17.1763    9.9761   -2.3601 H   0  0  0  0  0
 10  1  1  0  0  0
  1 31  1  0  0  0
  2 13  4  0  0  0
 14  2  1  0  0  0
  2 28  4  0  0  0
 15  3  4  0  0  0
  3 16  4  0  0  0
  3 23  1  0  0  0
  5  4  1  0  0  0
  6  5  4  0  0  0
  5 21  4  0  0  0
  7  6  4  0  0  0
  8  7  4  0  0  0
  8 20  4  0  0  0
 34  8  1  0  0  0
 19  9  1  0  0  0
  9 30  1  0  0  0
  9 34  1  0  0  0
 11 10  1  0  0  0
 10 30  1  0  0  0
 12 11  1  0  0  0
 11 32  1  0  0  0
 12 19  1  0  0  0
 26 12  1  0  0  0
 13 26  4  0  0  0
 14 15  4  0  0  0
 14 18  4  0  0  0
 15 22  1  0  0  0
 16 17  4  0  0  0
 16 27  1  0  0  0
 17 18  4  0  0  0
 17 24  1  0  0  0
 18 25  1  0  0  0
 19 33  1  0  0  0
 20 21  4  0  0  0
 26 29  4  0  0  0
 28 29  4  0  0  0
  1 35  1  0  0  0
  1 36  1  0  0  0
  4 37  1  0  0  0
  4 38  1  0  0  0
  4 39  1  0  0  0
  6 40  1  0  0  0
  7 41  1  0  0  0
  9 42  1  0  0  0
 10 43  1  0  0  0
 11 44  1  0  0  0
 12 45  1  0  0  0
 13 46  1  0  0  0
 19 47  1  0  0  0
 20 48  1  0  0  0
 21 49  1  0  0  0
 27 50  1  0  0  0
 27 51  1  0  0  0
 31 52  1  0  0  0
 32 53  1  0  0  0
 33 54  1  0  0  0
M  END
$$$$
