5c26_ligand
  -I-interpret- 

 48 51  0  0  0  0  0  0  0  0999 V2000
   -1.8760    0.2660  -13.7480 N   0  0  0  0  0
   -4.0070    1.3430  -13.4920 C   0  0  0  0  0
   -2.9260    5.1040  -10.0380 C   0  0  0  0  0
   -2.8380    3.1440  -11.5770 C   0  0  0  0  0
    1.8300   -2.8830  -15.9950 C   0  0  0  0  0
    2.6500   -2.0880  -15.2110 C   0  0  0  0  0
    2.1080   -1.0520  -14.4680 C   0  0  0  0  0
   -1.0060    3.5970  -10.0670 C   0  0  0  0  0
   -0.3450    2.4900  -10.5500 C   0  0  0  0  0
   -0.9350    1.7200  -11.5360 C   0  0  0  0  0
    0.4720   -2.6220  -16.0430 C   0  0  0  0  0
    0.7440   -0.8040  -14.5260 C   0  0  0  0  0
   -5.5230   -0.4430  -16.1050 C   0  0  0  0  0
   -5.6850    0.4970  -15.1120 C   0  0  0  0  0
   -2.1720    2.0290  -12.0650 C   0  0  0  0  0
   -2.2500    3.9090  -10.5770 C   0  0  0  0  0
   -0.0910   -1.5880  -15.3100 C   0  0  0  0  0
   -3.6330   -0.3110  -15.1450 C   0  0  0  0  0
   -2.7270    1.1750  -13.1310 C   0  0  0  0  0
   -2.2750   -0.4710  -14.7510 C   0  0  0  0  0
    4.6030   -2.8320  -16.2930 C   0  0  0  0  0
    2.3050    0.5840  -12.8090 C   0  0  0  0  0
   -4.2400   -0.9420  -16.1250 N   0  0  0  0  0
   -4.4640    0.5610  -14.5110 N   0  0  0  0  0
   -4.2970    5.0980  -10.1370 N   0  0  0  0  0
   -1.4880   -1.3990  -15.4240 N   0  0  0  0  0
   -2.2630    6.0070   -9.5450 O   0  0  0  0  0
    4.0310   -2.3040  -15.0950 O   0  0  0  0  0
    2.9970   -0.2890  -13.7000 O   0  0  0  0  0
   -4.6507    2.0690  -12.9953 H   0  0  0  0  0
   -3.8151    3.4178  -11.9750 H   0  0  0  0  0
    2.2513   -3.7078  -16.5697 H   0  0  0  0  0
   -0.5537    4.2176   -9.2935 H   0  0  0  0  0
    0.6363    2.2223  -10.1582 H   0  0  0  0  0
   -0.4066    0.8417  -11.9069 H   0  0  0  0  0
   -0.1687   -3.2420  -16.6700 H   0  0  0  0  0
    0.3223    0.0181  -13.9477 H   0  0  0  0  0
   -6.3121   -0.7534  -16.7899 H   0  0  0  0  0
   -6.5842    1.0608  -14.8636 H   0  0  0  0  0
    4.1315   -3.7859  -16.5295 H   0  0  0  0  0
    4.4392   -2.1314  -17.1118 H   0  0  0  0  0
    5.6732   -2.9802  -16.1485 H   0  0  0  0  0
    1.6754    1.2632  -13.3838 H   0  0  0  0  0
    1.6843   -0.0053  -12.1340 H   0  0  0  0  0
    3.0284    1.1589  -12.2308 H   0  0  0  0  0
   -4.8373    5.8880   -9.7842 H   0  0  0  0  0
   -4.7741    4.3036  -10.5633 H   0  0  0  0  0
   -1.9746   -2.0148  -16.0754 H   0  0  0  0  0
  1 19  4  0  0  0
 20  1  4  0  0  0
 19  2  4  0  0  0
 24  2  4  0  0  0
 16  3  1  0  0  0
  3 25  1  0  0  0
  3 27  2  0  0  0
 15  4  4  0  0  0
  4 16  4  0  0  0
  5  6  4  0  0  0
 11  5  4  0  0  0
  7  6  4  0  0  0
  6 28  1  0  0  0
 12  7  4  0  0  0
  7 29  1  0  0  0
  9  8  4  0  0  0
 16  8  4  0  0  0
 10  9  4  0  0  0
 15 10  4  0  0  0
 17 11  4  0  0  0
 17 12  4  0  0  0
 14 13  4  0  0  0
 23 13  4  0  0  0
 24 14  4  0  0  0
 19 15  1  0  0  0
 26 17  1  0  0  0
 20 18  4  0  0  0
 18 23  4  0  0  0
 18 24  4  0  0  0
 20 26  1  0  0  0
 28 21  1  0  0  0
 29 22  1  0  0  0
  2 30  1  0  0  0
  4 31  1  0  0  0
  5 32  1  0  0  0
  8 33  1  0  0  0
  9 34  1  0  0  0
 10 35  1  0  0  0
 11 36  1  0  0  0
 12 37  1  0  0  0
 13 38  1  0  0  0
 14 39  1  0  0  0
 21 40  1  0  0  0
 21 41  1  0  0  0
 21 42  1  0  0  0
 22 43  1  0  0  0
 22 44  1  0  0  0
 22 45  1  0  0  0
 25 46  1  0  0  0
 25 47  1  0  0  0
 26 48  1  0  0  0
M  END
$$$$
