1n95_ligand
  -I-interpret- 

 67 71  0  0  0  0  0  0  0  0999 V2000
   46.6010   46.4380   -3.4140 C   0  0  0  0  0
   47.9470   46.9410   -3.7430 N   0  0  0  0  0
   48.6270   46.7630   -4.8790 C   0  0  0  0  0
   49.8220   47.3410   -4.8720 N   0  0  0  0  0
   49.9430   47.9170   -3.6950 C   0  0  0  0  0
   48.7700   47.6730   -2.9740 C   0  0  0  0  0
   48.3470   48.1030   -1.5510 C   0  0  0  0  0
   49.4760   48.5780   -0.6050 C   0  0  0  0  0
   49.9860   49.8450   -1.0900 N   0  3  0  0  0
   49.6010   51.0270   -0.3570 C   0  0  0  0  0
   49.6470   52.2480   -1.1790 C   0  0  0  0  0
   50.7700   53.1130   -1.0950 C   0  0  0  0  0
   50.8120   54.2890   -1.9100 C   0  0  0  0  0
   49.7330   54.5720   -2.8010 C   0  0  0  0  0
   49.7890   55.7460   -3.6060 C   0  0  0  0  0
   49.8030   56.7240   -4.1910 N   0  0  0  0  0
   48.6040   53.7130   -2.8850 C   0  0  0  0  0
   48.5680   52.5460   -2.0700 C   0  0  0  0  0
   50.5820   47.4720   -0.4130 C   0  0  0  0  0
   50.4930   46.3350   -0.9000 O   0  0  0  0  0
   51.5930   47.7630    0.4060 N   0  0  0  0  0
   51.6850   47.0380    1.6000 C   0  0  0  0  0
   53.0210   46.9850    2.2380 C   0  0  0  0  0
   53.9880   48.0750    1.9450 C   0  0  0  0  0
   53.7510   48.9900    0.9650 C   0  0  0  0  0
   52.5430   48.8860    0.0740 C   0  0  0  0  0
   54.6850   50.0940    0.7650 C   0  0  0  0  0
   55.9610   49.8600    0.1510 C   0  0  0  0  0
   56.8750   50.9330   -0.0450 C   0  0  0  0  0
   56.5650   52.2340    0.3760 C   0  0  0  0  0
   55.3120   52.4860    0.9940 C   0  0  0  0  0
   55.0010   53.8080    1.4070 C   0  0  0  0  0
   53.7430   54.0840    2.0110 C   0  0  0  0  0
   52.7880   53.0520    2.2100 C   0  0  0  0  0
   53.0760   51.7300    1.8140 C   0  0  0  0  0
   54.3570   51.4170    1.2100 C   0  0  0  0  0
   55.1330   48.1510    2.8500 C   0  0  0  0  0
   56.1400   48.1620    3.4450 N   0  0  0  0  0
   45.8807   46.8376   -4.1279 H   0  0  0  0  0
   46.5990   45.3492   -3.4647 H   0  0  0  0  0
   46.3315   46.7566   -2.4070 H   0  0  0  0  0
   48.2391   46.1992   -5.7274 H   0  0  0  0  0
   50.8052   48.4841   -3.3441 H   0  0  0  0  0
   47.9170   47.2166   -1.0845 H   0  0  0  0  0
   47.6835   48.9581   -1.6802 H   0  0  0  0  0
   49.0814   48.7418    0.3978 H   0  0  0  0  0
   49.6018   49.9603   -2.0278 H   0  0  0  0  0
   51.0013   49.7859   -1.0116 H   0  0  0  0  0
   50.3034   51.1525    0.4670 H   0  0  0  0  0
   48.5738   50.8905   -0.0190 H   0  0  0  0  0
   51.5918   52.8838   -0.4167 H   0  0  0  0  0
   51.6644   54.9657   -1.8506 H   0  0  0  0  0
   47.7806   53.9433   -3.5610 H   0  0  0  0  0
   47.7114   51.8742   -2.1254 H   0  0  0  0  0
   51.4285   46.0087    1.3493 H   0  0  0  0  0
   51.0301   47.5418    2.3109 H   0  0  0  0  0
   53.4865   46.0784    1.8515 H   0  0  0  0  0
   52.8293   47.0532    3.3088 H   0  0  0  0  0
   51.9843   49.8140    0.1957 H   0  0  0  0  0
   52.9133   48.6944   -0.9331 H   0  0  0  0  0
   56.2319   48.8534   -0.1674 H   0  0  0  0  0
   57.8318   50.7403   -0.5304 H   0  0  0  0  0
   57.2793   53.0443    0.2302 H   0  0  0  0  0
   55.7247   54.6100    1.2616 H   0  0  0  0  0
   53.5090   55.1011    2.3253 H   0  0  0  0  0
   51.8278   53.2831    2.6711 H   0  0  0  0  0
   52.3362   50.9433    1.9617 H   0  0  0  0  0
  1  2  1  0  0  0
  2  3  4  0  0  0
  2  6  4  0  0  0
  3  4  4  0  0  0
  4  5  4  0  0  0
  5  6  4  0  0  0
  6  7  1  0  0  0
  7  8  1  0  0  0
  8  9  1  0  0  0
  8 19  1  0  0  0
  9 10  1  0  0  0
 10 11  1  0  0  0
 11 12  4  0  0  0
 11 18  4  0  0  0
 12 13  4  0  0  0
 13 14  4  0  0  0
 14 15  1  0  0  0
 14 17  4  0  0  0
 15 16  3  0  0  0
 17 18  4  0  0  0
 19 20  2  0  0  0
 19 21  1  0  0  0
 21 22  1  0  0  0
 21 26  1  0  0  0
 22 23  1  0  0  0
 23 24  1  0  0  0
 24 25  2  0  0  0
 24 37  1  0  0  0
 25 26  1  0  0  0
 25 27  1  0  0  0
 27 28  4  0  0  0
 27 36  4  0  0  0
 28 29  4  0  0  0
 29 30  4  0  0  0
 30 31  4  0  0  0
 31 32  4  0  0  0
 31 36  4  0  0  0
 32 33  4  0  0  0
 33 34  4  0  0  0
 34 35  4  0  0  0
 35 36  4  0  0  0
 37 38  3  0  0  0
  1 39  1  0  0  0
  1 40  1  0  0  0
  1 41  1  0  0  0
  3 42  1  0  0  0
  5 43  1  0  0  0
  7 44  1  0  0  0
  7 45  1  0  0  0
  8 46  1  0  0  0
  9 47  1  0  0  0
  9 48  1  0  0  0
 10 49  1  0  0  0
 10 50  1  0  0  0
 12 51  1  0  0  0
 13 52  1  0  0  0
 17 53  1  0  0  0
 18 54  1  0  0  0
 22 55  1  0  0  0
 22 56  1  0  0  0
 23 57  1  0  0  0
 23 58  1  0  0  0
 26 59  1  0  0  0
 26 60  1  0  0  0
 28 61  1  0  0  0
 29 62  1  0  0  0
 30 63  1  0  0  0
 32 64  1  0  0  0
 33 65  1  0  0  0
 34 66  1  0  0  0
 35 67  1  0  0  0
M  END
$$$$
