6cb5_ligand
  -I-interpret- 

 38 41  0  0  0  0  0  0  0  0999 V2000
  104.6000   15.5960    6.6370 C   0  0  0  0  0
  106.9580   15.3510    4.5470 C   0  0  0  0  0
  108.8820   13.4610    2.0520 C   0  0  0  0  0
  109.9660   12.5910    1.9700 C   0  0  0  0  0
  110.6110   12.2320    3.1510 C   0  0  0  0  0
  109.0950   13.6310    4.4580 C   0  0  0  0  0
  106.9820   13.0120    8.0320 C   0  0  0  0  0
  105.6970   13.6760    7.5440 C   0  0  0  0  0
  104.4940   13.0160    7.6560 C   0  0  0  0  0
  103.3300   13.6540    7.2660 C   0  0  0  0  0
  102.1310   12.9910    7.3580 C   0  0  0  0  0
  101.9600   11.6200    7.3300 C   0  0  0  0  0
  100.8770   13.5480    7.4090 C   0  0  0  0  0
  103.3820   14.9400    6.7490 C   0  0  0  0  0
  105.7640   14.9720    7.0470 C   0  0  0  0  0
  107.5630   15.0240    5.7350 C   0  0  0  0  0
  107.3940   14.8480    3.3400 C   0  0  0  0  0
  108.4600   13.9780    3.3010 C   0  0  0  0  0
  110.1900   12.7460    4.3710 C   0  0  0  0  0
  108.6470   14.1460    5.7020 C   0  0  0  0  0
  100.6650   11.3720    7.3830 N   0  0  0  0  0
   99.9890   12.5590    7.4240 N   0  0  0  0  0
  107.7160   13.6970    8.7950 O   0  0  0  0  0
  107.2970   11.8360    7.7400 O   0  0  0  0  0
  107.0240   15.5910    6.9100 O   0  0  0  0  0
  104.6391   16.6045    6.2253 H   0  0  0  0  0
  106.1055   16.0302    4.5585 H   0  0  0  0  0
  108.3518   13.7476    1.1438 H   0  0  0  0  0
  110.3005   12.2018    1.0084 H   0  0  0  0  0
  111.4537   11.5415    3.1177 H   0  0  0  0  0
  104.4589   11.9997    8.0485 H   0  0  0  0  0
  102.7541   10.8754    7.2741 H   0  0  0  0  0
  100.6497   14.6138    7.4330 H   0  0  0  0  0
  102.4652   15.4360    6.4303 H   0  0  0  0  0
  106.8945   15.1393    2.4160 H   0  0  0  0  0
  110.7173   12.4592    5.2808 H   0  0  0  0  0
  109.1468   13.8574    6.6266 H   0  0  0  0  0
  107.3294   14.5679    8.9121 H   0  0  0  0  0
  1 14  4  0  0  0
 15  1  4  0  0  0
 16  2  4  0  0  0
  2 17  4  0  0  0
  3  4  4  0  0  0
 18  3  4  0  0  0
  5  4  4  0  0  0
 19  5  4  0  0  0
  6 18  4  0  0  0
  6 19  4  0  0  0
 20  6  4  0  0  0
  8  7  1  0  0  0
  7 23  1  0  0  0
  7 24  2  0  0  0
  8  9  4  0  0  0
 15  8  4  0  0  0
  9 10  4  0  0  0
 10 11  1  0  0  0
 14 10  4  0  0  0
 11 12  4  0  0  0
 11 13  4  0  0  0
 12 21  4  0  0  0
 13 22  4  0  0  0
 25 15  1  0  0  0
 16 20  4  0  0  0
 16 25  1  0  0  0
 17 18  4  0  0  0
 21 22  4  0  0  0
  1 26  1  0  0  0
  2 27  1  0  0  0
  3 28  1  0  0  0
  4 29  1  0  0  0
  5 30  1  0  0  0
  9 31  1  0  0  0
 12 32  1  0  0  0
 13 33  1  0  0  0
 14 34  1  0  0  0
 17 35  1  0  0  0
 19 36  1  0  0  0
 20 37  1  0  0  0
 23 38  1  0  0  0
M  END
$$$$
