4f0c_ligand
  -I-interpret- 

 74 73  0  0  0  0  0  0  0  0999 V2000
    6.2020   19.7360    3.7790 N   0  3  0  0  0
    5.3000   20.2360    4.8850 C   0  0  0  0  0
    6.1280   20.9870    6.0020 C   0  0  0  0  0
    7.3010   20.5890    6.2710 O   0  0  0  0  0
    5.5860   22.0060    6.5180 O   0  0  0  0  0
    4.4940   19.0680    5.5560 C   0  0  0  0  0
    3.5730   19.5990    6.6790 C   0  0  0  0  0
    2.7080   18.4800    7.1660 C   0  0  0  0  0
    2.7560   17.3310    6.7600 O   0  0  0  0  0
    1.8190   18.8530    8.1540 N   0  0  0  0  0
    0.8640   17.8900    8.7370 C   0  0  0  0  0
   -0.5520   18.3570    8.5020 C   0  0  0  0  0
   -0.8390   19.5480    8.6540 O   0  0  0  0  0
    1.0140   17.8260   10.2750 C   0  0  0  0  0
    2.5490   16.9770   10.7080 S   0  0  0  0  0
   -1.4670   17.4090    8.2110 N   0  0  0  0  0
   -2.8390   17.7910    8.0220 C   0  0  0  0  0
   -3.4190   17.1310    6.7760 C   0  0  0  0  0
   -4.6580   17.1720    6.6150 O   0  0  0  0  0
   -2.5850   16.6600    5.9810 O   0  0  0  0  0
    4.0120   14.7950    6.3520 N   0  0  0  0  0
    5.0160   14.5110    5.3170 C   0  0  0  0  0
    6.2020   15.5030    5.5010 C   0  0  0  0  0
    6.4760   15.9030    6.6620 O   0  0  0  0  0
    6.8080   15.8160    4.4560 O   0  0  0  0  0
    3.2630   13.7850    6.9030 C   0  0  0  0  0
    3.3770   12.6000    6.5860 O   0  0  0  0  0
    2.2550   14.1560    7.9830 C   0  0  0  0  0
    1.1180   13.1930    7.9890 N   0  0  0  0  0
    2.9890   14.1350    9.3280 C   0  0  0  0  0
    1.9640   14.9140   10.6340 S   0  0  0  0  0
   -2.2180   13.3090    5.5530 C   0  0  0  0  0
   -1.9910   11.9340    4.8050 C   0  0  0  0  0
   -2.9140   11.4870    4.0900 O   0  0  0  0  0
   -0.8820   11.3820    4.9690 O   0  0  0  0  0
   -3.2960   14.0600    4.9100 N   0  3  0  0  0
   -2.5190   12.9780    7.0450 C   0  0  0  0  0
   -1.2650   12.5630    7.8300 C   0  0  0  0  0
   -0.2040   13.6550    7.7830 C   0  0  0  0  0
   -0.4200   14.8610    7.6150 O   0  0  0  0  0
    6.7059   20.5233    3.3708 H   0  0  0  0  0
    6.8688   19.0661    4.1624 H   0  0  0  0  0
    5.6376   19.2826    3.0605 H   0  0  0  0  0
    4.5988   20.9286    4.4195 H   0  0  0  0  0
    7.4948   19.7994    5.7605 H   0  0  0  0  0
    5.2011   18.3613    5.9903 H   0  0  0  0  0
    3.8764   18.5894    4.7960 H   0  0  0  0  0
    2.9495   20.4057    6.2936 H   0  0  0  0  0
    4.1776   19.9820    7.5011 H   0  0  0  0  0
    1.8220   19.8164    8.4890 H   0  0  0  0  0
    1.0675   16.9255    8.2719 H   0  0  0  0  0
    0.1699   17.2800   10.6962 H   0  0  0  0  0
    1.0378   18.8391   10.6765 H   0  0  0  0  0
   -1.1876   16.4317    8.1261 H   0  0  0  0  0
   -2.8888   18.8732    7.9016 H   0  0  0  0  0
   -3.4155   17.4705    8.8898 H   0  0  0  0  0
   -5.0653   17.5865    7.3791 H   0  0  0  0  0
    3.8698   15.7553    6.6651 H   0  0  0  0  0
    4.5769   14.6328    4.3268 H   0  0  0  0  0
    5.3695   13.4842    5.4108 H   0  0  0  0  0
    5.8591   15.5149    7.2869 H   0  0  0  0  0
    1.8410   15.1464    7.7937 H   0  0  0  0  0
    1.2925   12.1997    8.1417 H   0  0  0  0  0
    3.9209   14.6920    9.2308 H   0  0  0  0  0
    3.1885   13.1000    9.6056 H   0  0  0  0  0
   -1.3354   13.9467    5.5021 H   0  0  0  0  0
   -3.6628   12.0867    4.1242 H   0  0  0  0  0
   -3.4328   14.9437    5.4007 H   0  0  0  0  0
   -3.0475   14.2444    3.9381 H   0  0  0  0  0
   -4.1567   13.5138    4.9444 H   0  0  0  0  0
   -3.2172   12.1412    7.0661 H   0  0  0  0  0
   -2.9211   13.8776    7.5111 H   0  0  0  0  0
   -0.8553   11.6583    7.3809 H   0  0  0  0  0
   -1.5444   12.3919    8.8696 H   0  0  0  0  0
  2  1  1  0  0  0
  2  3  1  0  0  0
  6  2  1  0  0  0
  3  4  1  0  0  0
  3  5  2  0  0  0
  7  6  1  0  0  0
  8  7  1  0  0  0
  8  9  2  0  0  0
 10  8  1  0  0  0
 11 10  1  0  0  0
 11 12  1  0  0  0
 14 11  1  0  0  0
 12 13  2  0  0  0
 12 16  1  0  0  0
 15 14  1  0  0  0
 31 15  1  0  0  0
 16 17  1  0  0  0
 17 18  1  0  0  0
 18 19  1  0  0  0
 18 20  2  0  0  0
 21 22  1  0  0  0
 26 21  1  0  0  0
 22 23  1  0  0  0
 23 24  1  0  0  0
 23 25  2  0  0  0
 26 27  2  0  0  0
 28 26  1  0  0  0
 29 28  1  0  0  0
 28 30  1  0  0  0
 39 29  1  0  0  0
 30 31  1  0  0  0
 32 33  1  0  0  0
 32 36  1  0  0  0
 37 32  1  0  0  0
 33 34  1  0  0  0
 33 35  2  0  0  0
 38 37  1  0  0  0
 38 39  1  0  0  0
 39 40  2  0  0  0
  1 41  1  0  0  0
  1 42  1  0  0  0
  1 43  1  0  0  0
  2 44  1  0  0  0
  4 45  1  0  0  0
  6 46  1  0  0  0
  6 47  1  0  0  0
  7 48  1  0  0  0
  7 49  1  0  0  0
 10 50  1  0  0  0
 11 51  1  0  0  0
 14 52  1  0  0  0
 14 53  1  0  0  0
 16 54  1  0  0  0
 17 55  1  0  0  0
 17 56  1  0  0  0
 19 57  1  0  0  0
 21 58  1  0  0  0
 22 59  1  0  0  0
 22 60  1  0  0  0
 24 61  1  0  0  0
 28 62  1  0  0  0
 29 63  1  0  0  0
 30 64  1  0  0  0
 30 65  1  0  0  0
 32 66  1  0  0  0
 34 67  1  0  0  0
 36 68  1  0  0  0
 36 69  1  0  0  0
 36 70  1  0  0  0
 37 71  1  0  0  0
 37 72  1  0  0  0
 38 73  1  0  0  0
 38 74  1  0  0  0
M  END
$$$$
