4bch_ligand
  -I-interpret- 

 56 59  0  0  0  0  0  0  0  0999 V2000
   49.3510  -19.2010  -11.3300 C   0  0  0  0  0
   50.6190  -19.2770  -11.9540 N   0  0  0  0  0
   51.3050  -18.0770  -12.3950 C   0  0  0  0  0
   50.8380  -17.1700  -13.3770 N   0  0  0  0  0
   51.8330  -16.0720  -13.5630 C   0  0  0  0  0
   51.6050  -14.9380  -14.5190 C   0  0  0  0  0
   52.9730  -16.2580  -12.6990 C   0  0  0  0  0
   54.1850  -15.3490  -12.6580 C   0  0  0  0  0
   55.4360  -15.8870  -12.6920 N   0  0  0  0  0
   56.5300  -15.0800  -12.6620 C   0  0  0  0  0
   57.8580  -15.6510  -12.6560 N   0  0  0  0  0
   58.1750  -17.0420  -12.3190 C   0  0  0  0  0
   57.1690  -17.9960  -12.3130 C   0  0  0  0  0
   57.4720  -19.3500  -12.0230 C   0  0  0  0  0
   56.1260  -20.5550  -12.0120 S   0  0  0  0  0
   56.5960  -21.7600  -11.0070 N   0  0  0  0  0
   55.8360  -21.7720   -9.8850 C   0  0  0  0  0
   54.9250  -22.9760   -9.8670 C   0  0  0  0  0
   55.6360  -24.2210  -10.1620 O   0  0  0  0  0
   56.4710  -24.0820  -11.3720 C   0  0  0  0  0
   57.2980  -22.8320  -11.4500 C   0  0  0  0  0
   54.9430  -19.9590  -11.4790 O   0  0  0  0  0
   55.8210  -21.0580  -13.3300 O   0  0  0  0  0
   58.7960  -19.7370  -11.7320 C   0  0  0  0  0
   59.1410  -21.1500  -11.4210 C   0  0  0  0  0
   59.8160  -18.7990  -11.7550 C   0  0  0  0  0
   59.4990  -17.4470  -12.0550 C   0  0  0  0  0
   56.3980  -13.7400  -12.6440 N   0  0  0  0  0
   55.1630  -13.1700  -12.6170 C   0  0  0  0  0
   53.9930  -13.9820  -12.6270 C   0  0  0  0  0
   52.6190  -13.4260  -12.5600 C   0  0  0  0  0
   51.5350  -12.9940  -12.5140 N   0  0  0  0  0
   52.7730  -17.5950  -11.8280 S   0  0  0  0  0
   49.4296  -18.6034  -10.4218 H   0  0  0  0  0
   48.6392  -18.7359  -12.0120 H   0  0  0  0  0
   49.0110  -20.2053  -11.0773 H   0  0  0  0  0
   51.0564  -20.1875  -12.0956 H   0  0  0  0  0
   51.4898  -15.3330  -15.5284 H   0  0  0  0  0
   50.7016  -14.3993  -14.2329 H   0  0  0  0  0
   52.4586  -14.2609  -14.4877 H   0  0  0  0  0
   58.6346  -15.0386  -12.9056 H   0  0  0  0  0
   56.1419  -17.7039  -12.5320 H   0  0  0  0  0
   55.2256  -20.8692   -9.8644 H   0  0  0  0  0
   56.4928  -21.8153   -9.0162 H   0  0  0  0  0
   54.1638  -22.8334  -10.6341 H   0  0  0  0  0
   54.4991  -23.0606   -8.8672 H   0  0  0  0  0
   55.7856  -24.0527  -12.2190 H   0  0  0  0  0
   57.1721  -24.9165  -11.3615 H   0  0  0  0  0
   58.1814  -22.9561  -10.8236 H   0  0  0  0  0
   57.5796  -22.6619  -12.4892 H   0  0  0  0  0
   58.5872  -21.4722  -10.5392 H   0  0  0  0  0
   58.8767  -21.7822  -12.2687 H   0  0  0  0  0
   60.2110  -21.2274  -11.2280 H   0  0  0  0  0
   60.8445  -19.0937  -11.5464 H   0  0  0  0  0
   60.2979  -16.7060  -12.0816 H   0  0  0  0  0
   55.0683  -12.0845  -12.5875 H   0  0  0  0  0
  1  2  1  0  0  0
  2  3  1  0  0  0
  3  4  4  0  0  0
  3 33  4  0  0  0
  4  5  4  0  0  0
  5  6  1  0  0  0
  5  7  4  0  0  0
  7  8  1  0  0  0
  7 33  4  0  0  0
  8  9  4  0  0  0
  8 30  4  0  0  0
  9 10  4  0  0  0
 10 11  1  0  0  0
 10 28  4  0  0  0
 11 12  1  0  0  0
 12 13  4  0  0  0
 12 27  4  0  0  0
 13 14  4  0  0  0
 14 15  1  0  0  0
 14 24  4  0  0  0
 15 16  1  0  0  0
 15 22  2  0  0  0
 15 23  2  0  0  0
 16 17  1  0  0  0
 16 21  1  0  0  0
 17 18  1  0  0  0
 18 19  1  0  0  0
 19 20  1  0  0  0
 20 21  1  0  0  0
 24 25  1  0  0  0
 24 26  4  0  0  0
 26 27  4  0  0  0
 28 29  4  0  0  0
 29 30  4  0  0  0
 30 31  1  0  0  0
 31 32  3  0  0  0
  1 34  1  0  0  0
  1 35  1  0  0  0
  1 36  1  0  0  0
  2 37  1  0  0  0
  6 38  1  0  0  0
  6 39  1  0  0  0
  6 40  1  0  0  0
 11 41  1  0  0  0
 13 42  1  0  0  0
 17 43  1  0  0  0
 17 44  1  0  0  0
 18 45  1  0  0  0
 18 46  1  0  0  0
 20 47  1  0  0  0
 20 48  1  0  0  0
 21 49  1  0  0  0
 21 50  1  0  0  0
 25 51  1  0  0  0
 25 52  1  0  0  0
 25 53  1  0  0  0
 26 54  1  0  0  0
 27 55  1  0  0  0
 29 56  1  0  0  0
M  END
$$$$
