### 
### Created by X-TOOL on Mon Sep 10 21:13:05 2018
### 

@<TRIPOS>MOLECULE
3tdc_ligand
   72    76     1     0     0
SMALL
GAST_HUCK


@<TRIPOS>ATOM
      1 C1         35.9370   61.2440   46.1500 C.ar      1 0EU        -0.0305
      2 C2         35.0590   60.1460   46.1880 C.ar      1 0EU        -0.0769
      3 C3         35.4730   58.9060   45.6720 C.ar      1 0EU        -0.0803
      4 C4         36.7670   58.7710   45.1120 C.ar      1 0EU        -0.0782
      5 C5         37.6350   59.8740   45.0740 C.ar      1 0EU        -0.0581
      6 C6         37.2170   61.1120   45.5930 C.ar      1 0EU         0.0331
      7 S7         38.2440   62.4710   45.5610 S.3       1 0EU         0.0090
      8 C8         36.9790   63.3840   46.3370 C.2       1 0EU         0.1611
      9 N9         37.0770   64.7110   46.6780 N.am      1 0EU        -0.1880
     10 C10        38.1720   65.4290   46.3820 C.2       1 0EU         0.3017
     11 O10        39.1210   64.9240   45.8080 O.2       1 0EU        -0.3847
     12 N11        38.2430   66.7160   46.7170 N.am      1 0EU        -0.2655
     13 C14        35.7820   62.5700   46.6020 C.2       1 0EU         0.0619
     14 C15        34.5180   63.0480   47.2420 C.2       1 0EU         0.1675
     15 N15        34.2030   62.6710   48.4900 N.am      1 0EU        -0.2818
     16 O15        33.7900   63.7850   46.5840 O.2       1 0EU        -0.4145
     17 C16        32.9610   63.1150   49.1350 C.3       1 0EU         0.0303
     18 C17        33.3990   63.9400   50.3420 C.3       1 0EU        -0.0486
     19 C18        35.0400   61.7770   49.2950 C.3       1 0EU         0.0303
     20 C19        35.3880   62.4900   50.6000 C.3       1 0EU        -0.0486
     21 C20        34.1730   63.0710   51.3290 C.3       1 0EU        -0.0970
     22 N20        34.6120   63.8950   52.4810 N.4       1 0EU         0.4047
     23 C21        33.4490   64.5240   53.1540 C.3       1 0EU        -0.1130
     24 C22        33.9000   65.4190   54.3030 C.3       1 0EU        -0.0723
     25 C23        34.7400   64.6300   55.3140 C.3       1 0EU        -0.0436
     26 C24        35.4450   63.0930   53.4110 C.3       1 0EU        -0.0996
     27 C25        35.9030   63.8940   54.6340 C.3       1 0EU         0.0470
     28 C26        36.5620   62.9540   55.5990 C.2       1 0EU         0.2604
     29 O26        36.0920   61.9070   56.0260 O.2       1 0EU        -0.3121
     30 O27        37.8710   63.4110   55.9780 O.3       1 0EU        -0.2713
     31 C28        37.0230   64.8840   54.3390 C.3       1 0EU        -0.0087
     32 C29        38.1320   64.6760   55.3820 C.3       1 0EU         0.0914
     33 C30        38.0550   65.7460   56.4730 C.3       1 0EU        -0.0319
     34 C31        39.5130   64.6330   54.7230 C.3       1 0EU        -0.0319
     35 C35        39.3770   67.5980   46.4550 C.3       1 0EU         0.0293
     36 C36        39.2730   68.8660   47.2750 C.3       1 0EU        -0.0450
     37 H          34.0624   60.2562   46.6155 H         1 0EU         0.0498
     38 H          34.7994   58.0496   45.7027 H         1 0EU         0.0535
     39 H          37.0891   57.8103   44.7103 H         1 0EU         0.0503
     40 H          38.6308   59.7707   44.6430 H         1 0EU         0.0547
     41 H          36.3020   65.1600   47.1661 H         1 0EU         0.2444
     42 H          37.4382   67.1193   47.1966 H         1 0EU         0.1856
     43 H          32.3421   62.2689   49.4336 H         1 0EU         0.0519
     44 H          32.3451   63.7015   48.4533 H         1 0EU         0.0519
     45 H          32.5146   64.3391   50.8386 H         1 0EU         0.0267
     46 H          34.0434   64.7509   50.0024 H         1 0EU         0.0267
     47 H          35.9511   61.5279   48.7510 H         1 0EU         0.0519
     48 H          34.5030   60.8523   49.5063 H         1 0EU         0.0519
     49 H          36.0463   63.3222   50.3505 H         1 0EU         0.0267
     50 H          35.8429   61.7532   51.2620 H         1 0EU         0.0267
     51 H          33.5431   62.2641   51.7033 H         1 0EU         0.0054
     52 H          32.8093   63.7374   53.5541 H         1 0EU         0.0017
     53 H          32.9118   65.1329   52.4269 H         1 0EU         0.0017
     54 H          33.0177   65.8100   54.8098 H         1 0EU         0.0244
     55 H          34.5074   66.2288   53.8988 H         1 0EU         0.0244
     56 H          34.0975   63.8901   55.7913 H         1 0EU         0.0255
     57 H          35.1540   65.3315   56.0383 H         1 0EU         0.0255
     58 H          36.3344   62.7699   52.8700 H         1 0EU         0.0008
     59 H          34.8416   62.2571   53.7649 H         1 0EU         0.0008
     60 H          36.6450   65.9050   54.3914 H         1 0EU         0.0286
     61 H          37.4155   64.7188   53.3356 H         1 0EU         0.0286
     62 H          37.0595   65.7395   56.9169 H         1 0EU         0.0261
     63 H          38.7983   65.5337   57.2415 H         1 0EU         0.0261
     64 H          38.2526   66.7244   56.0351 H         1 0EU         0.0261
     65 H          40.2681   64.4164   55.4786 H         1 0EU         0.0261
     66 H          39.5262   63.8542   53.9605 H         1 0EU         0.0261
     67 H          39.7245   65.5979   54.2623 H         1 0EU         0.0261
     68 H          39.3793   67.8626   45.3976 H         1 0EU         0.0515
     69 H          40.2961   67.0786   46.7263 H         1 0EU         0.0515
     70 H          38.3528   69.3899   47.0165 H         1 0EU         0.0249
     71 H          39.2625   68.6119   48.3349 H         1 0EU         0.0249
     72 H          40.1291   69.5061   47.0620 H         1 0EU         0.0249
@<TRIPOS>BOND
     1    1    2 ar 
     2    1    6 ar 
     3    1   13 1  
     4    2    3 ar 
     5    3    4 ar 
     6    4    5 ar 
     7    5    6 ar 
     8    6    7 1  
     9    7    8 1  
    10    8    9 1  
    11    8   13 2  
    12    9   10 am 
    13   10   11 2  
    14   10   12 am 
    15   12   35 1  
    16   13   14 1  
    17   14   15 am 
    18   14   16 2  
    19   15   17 1  
    20   15   19 1  
    21   17   18 1  
    22   18   21 1  
    23   19   20 1  
    24   20   21 1  
    25   21   22 1  
    26   22   23 1  
    27   22   26 1  
    28   23   24 1  
    29   24   25 1  
    30   25   27 1  
    31   26   27 1  
    32   27   28 1  
    33   27   31 1  
    34   28   29 2  
    35   28   30 1  
    36   30   32 1  
    37   31   32 1  
    38   32   33 1  
    39   32   34 1  
    40   35   36 1  
    41    2   37 1  
    42    3   38 1  
    43    4   39 1  
    44    5   40 1  
    45    9   41 1  
    46   12   42 1  
    47   17   43 1  
    48   17   44 1  
    49   18   45 1  
    50   18   46 1  
    51   19   47 1  
    52   19   48 1  
    53   20   49 1  
    54   20   50 1  
    55   21   51 1  
    56   23   52 1  
    57   23   53 1  
    58   24   54 1  
    59   24   55 1  
    60   25   56 1  
    61   25   57 1  
    62   26   58 1  
    63   26   59 1  
    64   31   60 1  
    65   31   61 1  
    66   33   62 1  
    67   33   63 1  
    68   33   64 1  
    69   34   65 1  
    70   34   66 1  
    71   34   67 1  
    72   35   68 1  
    73   35   69 1  
    74   36   70 1  
    75   36   71 1  
    76   36   72 1  
@<TRIPOS>SUBSTRUCTURE
     1 0EU         1

