3tdc_ligand
  -I-interpret- 

 73 77  0  0  0  0  0  0  0  0999 V2000
   35.9370   61.2440   46.1500 C   0  0  0  0  0
   35.0590   60.1460   46.1880 C   0  0  0  0  0
   35.4730   58.9060   45.6720 C   0  0  0  0  0
   36.7670   58.7710   45.1120 C   0  0  0  0  0
   37.6350   59.8740   45.0740 C   0  0  0  0  0
   37.2170   61.1120   45.5930 C   0  0  0  0  0
   38.2440   62.4710   45.5610 S   0  0  0  0  0
   36.9790   63.3840   46.3370 C   0  0  0  0  0
   37.0770   64.7110   46.6780 N   0  0  0  0  0
   38.1720   65.4290   46.3820 C   0  0  0  0  0
   39.1210   64.9240   45.8080 O   0  0  0  0  0
   38.2430   66.7160   46.7170 N   0  0  0  0  0
   35.7820   62.5700   46.6020 C   0  0  0  0  0
   34.5180   63.0480   47.2420 C   0  0  0  0  0
   34.2030   62.6710   48.4900 N   0  0  0  0  0
   33.7900   63.7850   46.5840 O   0  0  0  0  0
   32.9610   63.1150   49.1350 C   0  0  0  0  0
   33.3990   63.9400   50.3420 C   0  0  0  0  0
   35.0400   61.7770   49.2950 C   0  0  0  0  0
   35.3880   62.4900   50.6000 C   0  0  0  0  0
   34.1730   63.0710   51.3290 C   0  0  0  0  0
   34.6120   63.8950   52.4810 N   0  3  0  0  0
   33.4490   64.5240   53.1540 C   0  0  0  0  0
   33.9000   65.4190   54.3030 C   0  0  0  0  0
   34.7400   64.6300   55.3140 C   0  0  0  0  0
   35.4450   63.0930   53.4110 C   0  0  0  0  0
   35.9030   63.8940   54.6340 C   0  0  0  0  0
   36.5620   62.9540   55.5990 C   0  0  0  0  0
   36.0920   61.9070   56.0260 O   0  0  0  0  0
   37.8710   63.4110   55.9780 O   0  0  0  0  0
   37.0230   64.8840   54.3390 C   0  0  0  0  0
   38.1320   64.6760   55.3820 C   0  0  0  0  0
   38.0550   65.7460   56.4730 C   0  0  0  0  0
   39.5130   64.6330   54.7230 C   0  0  0  0  0
   39.3770   67.5980   46.4550 C   0  0  0  0  0
   39.2730   68.8660   47.2750 C   0  0  0  0  0
   34.0624   60.2562   46.6155 H   0  0  0  0  0
   34.7994   58.0496   45.7027 H   0  0  0  0  0
   37.0891   57.8103   44.7103 H   0  0  0  0  0
   38.6308   59.7707   44.6430 H   0  0  0  0  0
   36.3020   65.1600   47.1661 H   0  0  0  0  0
   37.4382   67.1193   47.1966 H   0  0  0  0  0
   32.3421   62.2689   49.4336 H   0  0  0  0  0
   32.3451   63.7015   48.4533 H   0  0  0  0  0
   32.5146   64.3391   50.8386 H   0  0  0  0  0
   34.0434   64.7509   50.0024 H   0  0  0  0  0
   35.9511   61.5279   48.7510 H   0  0  0  0  0
   34.5030   60.8523   49.5063 H   0  0  0  0  0
   36.0463   63.3222   50.3505 H   0  0  0  0  0
   35.8429   61.7532   51.2620 H   0  0  0  0  0
   33.5431   62.2641   51.7033 H   0  0  0  0  0
   35.1987   64.6555   52.1377 H   0  0  0  0  0
   32.8093   63.7374   53.5541 H   0  0  0  0  0
   32.9118   65.1329   52.4269 H   0  0  0  0  0
   33.0177   65.8100   54.8098 H   0  0  0  0  0
   34.5074   66.2288   53.8988 H   0  0  0  0  0
   34.0975   63.8901   55.7913 H   0  0  0  0  0
   35.1540   65.3315   56.0383 H   0  0  0  0  0
   36.3344   62.7699   52.8700 H   0  0  0  0  0
   34.8416   62.2571   53.7649 H   0  0  0  0  0
   36.6450   65.9050   54.3914 H   0  0  0  0  0
   37.4155   64.7188   53.3356 H   0  0  0  0  0
   37.0595   65.7395   56.9169 H   0  0  0  0  0
   38.7983   65.5337   57.2415 H   0  0  0  0  0
   38.2526   66.7244   56.0351 H   0  0  0  0  0
   40.2681   64.4164   55.4786 H   0  0  0  0  0
   39.5262   63.8542   53.9605 H   0  0  0  0  0
   39.7245   65.5979   54.2623 H   0  0  0  0  0
   39.3793   67.8626   45.3976 H   0  0  0  0  0
   40.2961   67.0786   46.7263 H   0  0  0  0  0
   38.3528   69.3899   47.0165 H   0  0  0  0  0
   39.2625   68.6119   48.3349 H   0  0  0  0  0
   40.1291   69.5061   47.0620 H   0  0  0  0  0
  1  2  4  0  0  0
  1  6  4  0  0  0
  1 13  4  0  0  0
  2  3  4  0  0  0
  3  4  4  0  0  0
  4  5  4  0  0  0
  5  6  4  0  0  0
  6  7  4  0  0  0
  7  8  4  0  0  0
  8  9  1  0  0  0
  8 13  4  0  0  0
  9 10  1  0  0  0
 10 11  2  0  0  0
 10 12  1  0  0  0
 12 35  1  0  0  0
 13 14  1  0  0  0
 14 15  1  0  0  0
 14 16  2  0  0  0
 15 17  1  0  0  0
 15 19  1  0  0  0
 17 18  1  0  0  0
 18 21  1  0  0  0
 19 20  1  0  0  0
 20 21  1  0  0  0
 21 22  1  0  0  0
 22 23  1  0  0  0
 22 26  1  0  0  0
 23 24  1  0  0  0
 24 25  1  0  0  0
 25 27  1  0  0  0
 26 27  1  0  0  0
 27 28  1  0  0  0
 27 31  1  0  0  0
 28 29  2  0  0  0
 28 30  1  0  0  0
 30 32  1  0  0  0
 31 32  1  0  0  0
 32 33  1  0  0  0
 32 34  1  0  0  0
 35 36  1  0  0  0
  2 37  1  0  0  0
  3 38  1  0  0  0
  4 39  1  0  0  0
  5 40  1  0  0  0
  9 41  1  0  0  0
 12 42  1  0  0  0
 17 43  1  0  0  0
 17 44  1  0  0  0
 18 45  1  0  0  0
 18 46  1  0  0  0
 19 47  1  0  0  0
 19 48  1  0  0  0
 20 49  1  0  0  0
 20 50  1  0  0  0
 21 51  1  0  0  0
 22 52  1  0  0  0
 23 53  1  0  0  0
 23 54  1  0  0  0
 24 55  1  0  0  0
 24 56  1  0  0  0
 25 57  1  0  0  0
 25 58  1  0  0  0
 26 59  1  0  0  0
 26 60  1  0  0  0
 31 61  1  0  0  0
 31 62  1  0  0  0
 33 63  1  0  0  0
 33 64  1  0  0  0
 33 65  1  0  0  0
 34 66  1  0  0  0
 34 67  1  0  0  0
 34 68  1  0  0  0
 35 69  1  0  0  0
 35 70  1  0  0  0
 36 71  1  0  0  0
 36 72  1  0  0  0
 36 73  1  0  0  0
M  END
$$$$
