### 
### Created by X-TOOL on Mon Sep 10 21:13:19 2018
### 

@<TRIPOS>MOLECULE
4uub_ligand
  137   138     1     0     0
SMALL
GAST_HUCK


@<TRIPOS>ATOM
      1 C         -32.7910  -26.0390   12.5940 C.2       1 BEZ         0.2070
      2 O1        -32.1740  -27.0920   12.7290 O.2       1 BEZ        -0.3845
      3 C1        -33.7930  -25.7090   13.5060 C.ar      1 BEZ         0.0500
      4 C2        -34.9250  -24.9960   13.0860 C.ar      1 BEZ        -0.0419
      5 C3        -35.9250  -24.6820   13.9720 C.ar      1 BEZ        -0.0562
      6 C4        -35.7630  -25.0910   15.2830 C.ar      1 BEZ        -0.0575
      7 C5        -34.6440  -25.8050   15.7300 C.ar      1 BEZ        -0.0562
      8 C6        -33.6450  -26.1250   14.8300 C.ar      1 BEZ        -0.0419
      9 N         -32.5880  -25.1750   11.5680 N.am      1 GLY        -0.2676
     10 CA        -31.5400  -25.3840   10.5260 C.3       1 GLY         0.1197
     11 C         -31.8020  -24.2790    9.5400 C.2       1 GLY         0.2007
     12 O         -32.8790  -23.6490    9.5140 O.2       1 GLY        -0.3947
     13 N         -30.8000  -24.0270    8.7200 N.am      1 VAL        -0.2637
     14 CA        -30.8490  -22.8690    7.8760 C.3       1 VAL         0.1332
     15 C         -31.6320  -23.1490    6.6020 C.2       1 VAL         0.2041
     16 O         -31.3000  -24.0300    5.8380 O.2       1 VAL        -0.3944
     17 CB        -29.4540  -22.4350    7.4920 C.3       1 VAL        -0.0063
     18 CG1       -29.5330  -21.1390    6.6940 C.3       1 VAL        -0.0584
     19 CG2       -28.6180  -22.2890    8.7410 C.3       1 VAL        -0.0584
     20 N         -32.6860  -22.3980    6.3840 N.am      1 LEU        -0.2637
     21 CA        -33.3510  -22.4610    5.1150 C.3       1 LEU         0.1312
     22 C         -32.4770  -21.8680    4.0330 C.2       1 LEU         0.2039
     23 O         -31.9430  -20.7700    4.1680 O.2       1 LEU        -0.3944
     24 CB        -34.6710  -21.6880    5.1180 C.3       1 LEU        -0.0101
     25 CG        -35.8470  -22.3260    5.8370 C.3       1 LEU        -0.0425
     26 CD1       -37.1040  -21.7380    5.2270 C.3       1 LEU        -0.0625
     27 CD2       -35.8770  -23.8390    5.7380 C.3       1 LEU        -0.0625
     28 N         -32.4020  -22.5920    2.9290 N.am      1 LYS        -0.2637
     29 CA        -31.7060  -22.1390    1.7600 C.3       1 LYS         0.1310
     30 C         -32.4520  -20.9300    1.1840 C.2       1 LYS         0.2039
     31 O         -33.6640  -20.8810    1.2350 O.2       1 LYS        -0.3944
     32 CB        -31.5030  -23.3440    0.8760 C.3       1 LYS        -0.0122
     33 CG        -32.0170  -23.0460   -0.4660 C.3       1 LYS        -0.0440
     34 CD        -31.2270  -24.0310   -1.3190 C.3       1 LYS        -0.0124
     35 CE        -31.8810  -23.7370   -2.6300 C.3       1 LYS        -0.0354
     36 NZ        -31.5260  -24.8150   -3.5370 N.4       1 LYS         0.2185
     37 N         -31.6890  -19.9590    0.6770 N.am      1 GLU        -0.2636
     38 CA        -32.1480  -18.5820    0.3490 C.3       1 GLU         0.1325
     39 C         -32.7540  -17.8040    1.5430 C.2       1 GLU         0.2041
     40 O         -33.3600  -16.7280    1.3600 O.2       1 GLU        -0.3944
     41 CB        -33.1410  -18.5790   -0.8260 C.3       1 GLU        -0.0008
     42 CG        -32.6790  -19.3300   -2.0700 C.3       1 GLU         0.0044
     43 CD        -31.9030  -18.4920   -3.0760 C.2       1 GLU         0.0350
     44 OE1       -32.5200  -17.5990   -3.7030 O.co2     1 GLU        -0.5690
     45 OE2       -30.6900  -18.7650   -3.2740 O.co2     1 GLU        -0.5690
     46 N         -32.5710  -18.3370    2.7530 N.am      1 TYR        -0.2621
     47 CA        -33.3130  -17.8850    3.9310 C.3       1 TYR         0.1390
     48 C         -34.8240  -18.1530    3.8100 C.2       1 TYR         0.2055
     49 O         -35.6080  -17.6430    4.6100 O.2       1 TYR        -0.3942
     50 CB        -33.0290  -16.4010    4.2190 C.3       1 TYR         0.0163
     51 CG        -31.5320  -16.0900    4.3200 C.ar      1 TYR        -0.0493
     52 CD1       -30.7380  -16.7530    5.2620 C.ar      1 TYR        -0.0685
     53 CD2       -30.9060  -15.1500    3.4850 C.ar      1 TYR        -0.0685
     54 CE1       -29.3840  -16.4940    5.3770 C.ar      1 TYR        -0.0398
     55 CE2       -29.5570  -14.8820    3.6100 C.ar      1 TYR        -0.0398
     56 CZ        -28.7980  -15.5690    4.5600 C.ar      1 TYR         0.0805
     57 OH        -27.4360  -15.3670    4.7310 O.3       1 TYR        -0.3376
     58 N         -35.2200  -18.9800    2.8360 N.am      1 GLY        -0.2663
     59 CA        -36.6220  -19.3080    2.5760 C.3       1 GLY         0.1201
     60 C         -37.3960  -18.2480    1.8130 C.2       1 GLY         0.2003
     61 O         -38.6040  -18.3800    1.6490 O.2       1 GLY        -0.3947
     62 N         -36.7140  -17.2070    1.3330 N.am      1 VAL        -0.2670
     63 CA        -37.3850  -16.0340    0.7280 C.3       1 VAL         0.1248
     64 C         -38.0420  -16.3950   -0.6050 C.2       1 VAL         0.2152
     65 O         -37.4320  -17.0690   -1.4280 O.co2     1 VAL        -0.4120
     66 CB        -36.4050  -14.8190    0.5570 C.3       1 VAL        -0.0094
     67 CG1       -36.6490  -14.0420   -0.7490 C.3       1 VAL        -0.0589
     68 CG2       -36.4800  -13.8940    1.7810 C.3       1 VAL        -0.0589
     69 H         -35.0112  -24.6894   12.0499 H         1 BEZ         0.0669
     70 H         -36.8064  -24.1353   13.6568 H         1 BEZ         0.0629
     71 H         -36.5394  -24.8473   15.9992 H         1 BEZ         0.0653
     72 H         -34.5625  -26.1030   16.7691 H         1 BEZ         0.0629
     73 H         -32.7707  -26.6837   15.1438 H         1 BEZ         0.0669
     74 H         -33.1665  -24.3616   11.5071 H         1 GLY         0.1874
     75 H         -31.6492  -26.3698   10.0503 H         1 GLY         0.0763
     76 H         -30.5323  -25.2950   10.9580 H         1 GLY         0.0763
     77 H         -30.0107  -24.6401    8.6872 H         1 VAL         0.1883
     78 H         -31.3413  -22.0542    8.4271 H         1 VAL         0.0802
     79 H         -28.9987  -23.2086    6.8562 H         1 VAL         0.0343
     80 H         -28.5188  -20.8195    6.4123 H         1 VAL         0.0234
     81 H         -30.0060  -20.3585    7.3081 H         1 VAL         0.0234
     82 H         -30.1311  -21.3036    5.7856 H         1 VAL         0.0234
     83 H         -28.5925  -23.2480    9.2793 H         1 VAL         0.0234
     84 H         -29.0583  -21.5166    9.3887 H         1 VAL         0.0234
     85 H         -27.5943  -21.9962    8.4649 H         1 VAL         0.0234
     86 H         -33.0235  -21.7853    7.0987 H         1 LEU         0.1883
     87 H         -33.5549  -23.5163    4.8810 H         1 LEU         0.0800
     88 H         -34.9674  -21.5351    4.0698 H         1 LEU         0.0315
     89 H         -34.4827  -20.7133    5.5918 H         1 LEU         0.0315
     90 H         -35.7968  -22.0559    6.9021 H         1 LEU         0.0298
     91 H         -37.9875  -22.1720    5.7180 H         1 LEU         0.0232
     92 H         -37.1321  -21.9682    4.1517 H         1 LEU         0.0232
     93 H         -37.1047  -20.6472    5.3687 H         1 LEU         0.0232
     94 H         -34.9607  -24.2538    6.1834 H         1 LEU         0.0232
     95 H         -35.9377  -24.1362    4.6807 H         1 LEU         0.0232
     96 H         -36.7543  -24.2245    6.2782 H         1 LEU         0.0232
     97 H         -32.8466  -23.4875    2.9086 H         1 LYS         0.1883
     98 H         -30.7073  -21.7834    2.0533 H         1 LYS         0.0800
     99 H         -32.0450  -24.2043    1.2955 H         1 LYS         0.0312
    100 H         -30.4304  -23.5803    0.8157 H         1 LYS         0.0312
    101 H         -31.8070  -22.0056   -0.7550 H         1 LYS         0.0269
    102 H         -33.0987  -23.2339   -0.5330 H         1 LYS         0.0269
    103 H         -31.3789  -25.0732   -1.0015 H         1 LYS         0.0317
    104 H         -30.1507  -23.8040   -1.3296 H         1 LYS         0.0317
    105 H         -31.5184  -22.7767   -3.0254 H         1 LYS         0.0813
    106 H         -32.9730  -23.6933   -2.5053 H         1 LYS         0.0813
    107 H         -31.9508  -24.6511   -4.4363 H         1 LYS         0.1994
    108 H         -31.8569  -25.6909   -3.1638 H         1 LYS         0.1994
    109 H         -30.5240  -24.8509   -3.6403 H         1 LYS         0.1994
    110 H         -30.7283  -20.1751    0.5030 H         1 GLU         0.1883
    111 H         -31.2556  -18.0255    0.0266 H         1 GLU         0.0801
    112 H         -33.3283  -17.5330   -1.1103 H         1 GLU         0.0330
    113 H         -34.0786  -19.0385   -0.4800 H         1 GLU         0.0330
    114 H         -33.5690  -19.7327   -2.5757 H         1 GLU         0.0433
    115 H         -32.0335  -20.1602   -1.7474 H         1 GLU         0.0433
    116 H         -31.9019  -19.0727    2.8587 H         1 TYR         0.1885
    117 H         -32.9473  -18.4652    4.7910 H         1 TYR         0.0821
    118 H         -33.5089  -16.1299    5.1709 H         1 TYR         0.0453
    119 H         -33.4590  -15.7970    3.4064 H         1 TYR         0.0453
    120 H         -31.1943  -17.4865    5.9168 H         1 TYR         0.0530
    121 H         -31.4884  -14.6289    2.7338 H         1 TYR         0.0530
    122 H         -28.7898  -17.0233    6.1131 H         1 TYR         0.0525
    123 H         -29.0887  -14.1407    2.9727 H         1 TYR         0.0525
    124 H         -27.1179  -15.9320    5.4253 H         1 TYR         0.2458
    125 H         -34.5207  -19.3961    2.2547 H         1 GLY         0.1881
    126 H         -37.1212  -19.4653    3.5435 H         1 GLY         0.0763
    127 H         -36.6523  -20.2397    1.9920 H         1 GLY         0.0763
    128 H         -35.7153  -17.2192    1.3835 H         1 VAL         0.1876
    129 H         -38.1825  -15.7202    1.4175 H         1 VAL         0.0754
    130 O2        -39.2113  -15.9995   -0.8579 O.co2     1 VAL        -0.4120
    131 H         -35.3837  -15.2247    0.5082 H         1 VAL         0.0336
    132 H         -35.9377  -13.2056   -0.8164 H         1 VAL         0.0234
    133 H         -37.6770  -13.6506   -0.7562 H         1 VAL         0.0234
    134 H         -36.5066  -14.7144   -1.6078 H         1 VAL         0.0234
    135 H         -36.3015  -14.4798    2.6948 H         1 VAL         0.0234
    136 H         -37.4769  -13.4317    1.8307 H         1 VAL         0.0234
    137 H         -35.7153  -13.1081    1.6941 H         1 VAL         0.0234
@<TRIPOS>BOND
     1    1    2 2  
     2    1    3 1  
     3    1    9 am 
     4    3    4 ar 
     5    3    8 ar 
     6    4    5 ar 
     7    5    6 ar 
     8    6    7 ar 
     9    7    8 ar 
    10    9   10 1  
    11   10   11 1  
    12   11   12 2  
    13   11   13 am 
    14   13   14 1  
    15   14   15 1  
    16   14   17 1  
    17   15   16 2  
    18   15   20 am 
    19   17   18 1  
    20   17   19 1  
    21   20   21 1  
    22   21   22 1  
    23   21   24 1  
    24   22   23 2  
    25   22   28 am 
    26   24   25 1  
    27   25   26 1  
    28   25   27 1  
    29   28   29 1  
    30   29   30 1  
    31   29   32 1  
    32   30   31 2  
    33   30   37 am 
    34   32   33 1  
    35   33   34 1  
    36   34   35 1  
    37   35   36 1  
    38   37   38 1  
    39   38   39 1  
    40   38   41 1  
    41   39   40 2  
    42   39   46 am 
    43   41   42 1  
    44   42   43 1  
    45   43   44 ar 
    46   43   45 ar 
    47   46   47 1  
    48   47   48 1  
    49   47   50 1  
    50   48   49 2  
    51   48   58 am 
    52   50   51 1  
    53   51   52 ar 
    54   51   53 ar 
    55   52   54 ar 
    56   53   55 ar 
    57   54   56 ar 
    58   55   56 ar 
    59   56   57 1  
    60   58   59 1  
    61   59   60 1  
    62   60   61 2  
    63   60   62 am 
    64   62   63 1  
    65   63   64 1  
    66   63   66 1  
    67   64   65 ar 
    68   66   67 1  
    69   66   68 1  
    70    4   69 1  
    71    5   70 1  
    72    6   71 1  
    73    7   72 1  
    74    8   73 1  
    75    9   74 1  
    76   10   75 1  
    77   10   76 1  
    78   13   77 1  
    79   14   78 1  
    80   17   79 1  
    81   18   80 1  
    82   18   81 1  
    83   18   82 1  
    84   19   83 1  
    85   19   84 1  
    86   19   85 1  
    87   20   86 1  
    88   21   87 1  
    89   24   88 1  
    90   24   89 1  
    91   25   90 1  
    92   26   91 1  
    93   26   92 1  
    94   26   93 1  
    95   27   94 1  
    96   27   95 1  
    97   27   96 1  
    98   28   97 1  
    99   29   98 1  
   100   32   99 1  
   101   32  100 1  
   102   33  101 1  
   103   33  102 1  
   104   34  103 1  
   105   34  104 1  
   106   35  105 1  
   107   35  106 1  
   108   36  107 1  
   109   36  108 1  
   110   36  109 1  
   111   37  110 1  
   112   38  111 1  
   113   41  112 1  
   114   41  113 1  
   115   42  114 1  
   116   42  115 1  
   117   46  116 1  
   118   47  117 1  
   119   50  118 1  
   120   50  119 1  
   121   52  120 1  
   122   53  121 1  
   123   54  122 1  
   124   55  123 1  
   125   57  124 1  
   126   58  125 1  
   127   59  126 1  
   128   59  127 1  
   129   62  128 1  
   130   63  129 1  
   131   64  130 ar 
   132   66  131 1  
   133   67  132 1  
   134   67  133 1  
   135   67  134 1  
   136   68  135 1  
   137   68  136 1  
   138   68  137 1  
@<TRIPOS>SUBSTRUCTURE
     1 BEZ         1

