4uub_ligand
  -I-interpret- 

139140  0  0  0  0  0  0  0  0999 V2000
  -32.7910  -26.0390   12.5940 C   0  0  0  0  0
  -32.1740  -27.0920   12.7290 O   0  0  0  0  0
  -33.7930  -25.7090   13.5060 C   0  0  0  0  0
  -34.9250  -24.9960   13.0860 C   0  0  0  0  0
  -35.9250  -24.6820   13.9720 C   0  0  0  0  0
  -35.7630  -25.0910   15.2830 C   0  0  0  0  0
  -34.6440  -25.8050   15.7300 C   0  0  0  0  0
  -33.6450  -26.1250   14.8300 C   0  0  0  0  0
  -32.5880  -25.1750   11.5680 N   0  0  0  0  0
  -31.5400  -25.3840   10.5260 C   0  0  0  0  0
  -31.8020  -24.2790    9.5400 C   0  0  0  0  0
  -32.8790  -23.6490    9.5140 O   0  0  0  0  0
  -30.8000  -24.0270    8.7200 N   0  0  0  0  0
  -30.8490  -22.8690    7.8760 C   0  0  0  0  0
  -31.6320  -23.1490    6.6020 C   0  0  0  0  0
  -31.3000  -24.0300    5.8380 O   0  0  0  0  0
  -29.4540  -22.4350    7.4920 C   0  0  0  0  0
  -29.5330  -21.1390    6.6940 C   0  0  0  0  0
  -28.6180  -22.2890    8.7410 C   0  0  0  0  0
  -32.6860  -22.3980    6.3840 N   0  0  0  0  0
  -33.3510  -22.4610    5.1150 C   0  0  0  0  0
  -32.4770  -21.8680    4.0330 C   0  0  0  0  0
  -31.9430  -20.7700    4.1680 O   0  0  0  0  0
  -34.6710  -21.6880    5.1180 C   0  0  0  0  0
  -35.8470  -22.3260    5.8370 C   0  0  0  0  0
  -37.1040  -21.7380    5.2270 C   0  0  0  0  0
  -35.8770  -23.8390    5.7380 C   0  0  0  0  0
  -32.4020  -22.5920    2.9290 N   0  0  0  0  0
  -31.7060  -22.1390    1.7600 C   0  0  0  0  0
  -32.4520  -20.9300    1.1840 C   0  0  0  0  0
  -33.6640  -20.8810    1.2350 O   0  0  0  0  0
  -31.5030  -23.3440    0.8760 C   0  0  0  0  0
  -32.0170  -23.0460   -0.4660 C   0  0  0  0  0
  -31.2270  -24.0310   -1.3190 C   0  0  0  0  0
  -31.8810  -23.7370   -2.6300 C   0  0  0  0  0
  -31.5260  -24.8150   -3.5370 N   0  3  0  0  0
  -31.6890  -19.9590    0.6770 N   0  0  0  0  0
  -32.1480  -18.5820    0.3490 C   0  0  0  0  0
  -32.7540  -17.8040    1.5430 C   0  0  0  0  0
  -33.3600  -16.7280    1.3600 O   0  0  0  0  0
  -33.1410  -18.5790   -0.8260 C   0  0  0  0  0
  -32.6790  -19.3300   -2.0700 C   0  0  0  0  0
  -31.9030  -18.4920   -3.0760 C   0  0  0  0  0
  -32.5200  -17.5990   -3.7030 O   0  0  0  0  0
  -30.6900  -18.7650   -3.2740 O   0  0  0  0  0
  -32.5710  -18.3370    2.7530 N   0  0  0  0  0
  -33.3130  -17.8850    3.9310 C   0  0  0  0  0
  -34.8240  -18.1530    3.8100 C   0  0  0  0  0
  -35.6080  -17.6430    4.6100 O   0  0  0  0  0
  -33.0290  -16.4010    4.2190 C   0  0  0  0  0
  -31.5320  -16.0900    4.3200 C   0  0  0  0  0
  -30.7380  -16.7530    5.2620 C   0  0  0  0  0
  -30.9060  -15.1500    3.4850 C   0  0  0  0  0
  -29.3840  -16.4940    5.3770 C   0  0  0  0  0
  -29.5570  -14.8820    3.6100 C   0  0  0  0  0
  -28.7980  -15.5690    4.5600 C   0  0  0  0  0
  -27.4360  -15.3670    4.7310 O   0  0  0  0  0
  -35.2200  -18.9800    2.8360 N   0  0  0  0  0
  -36.6220  -19.3080    2.5760 C   0  0  0  0  0
  -37.3960  -18.2480    1.8130 C   0  0  0  0  0
  -38.6040  -18.3800    1.6490 O   0  0  0  0  0
  -36.7140  -17.2070    1.3330 N   0  0  0  0  0
  -37.3850  -16.0340    0.7280 C   0  0  0  0  0
  -38.0420  -16.3950   -0.6050 C   0  0  0  0  0
  -37.4320  -17.0690   -1.4280 O   0  0  0  0  0
  -36.4050  -14.8190    0.5570 C   0  0  0  0  0
  -36.6490  -14.0420   -0.7490 C   0  0  0  0  0
  -36.4800  -13.8940    1.7810 C   0  0  0  0  0
  -39.2113  -15.9995   -0.8579 O   0  0  0  0  0
  -35.0117  -24.6877   12.0441 H   0  0  0  0  0
  -36.8113  -24.1323   13.6550 H   0  0  0  0  0
  -36.5437  -24.8460   16.0031 H   0  0  0  0  0
  -34.5620  -26.1046   16.7748 H   0  0  0  0  0
  -32.7658  -26.6868   15.1456 H   0  0  0  0  0
  -33.1780  -24.3453   11.5059 H   0  0  0  0  0
  -31.5944  -26.3727   10.0704 H   0  0  0  0  0
  -30.5304  -25.3488   10.9352 H   0  0  0  0  0
  -29.9949  -24.6524    8.6865 H   0  0  0  0  0
  -31.3456  -22.0793    8.4398 H   0  0  0  0  0
  -28.9759  -23.1831    6.8596 H   0  0  0  0  0
  -30.1259  -21.3034    5.7942 H   0  0  0  0  0
  -30.0019  -20.3665    7.3035 H   0  0  0  0  0
  -28.5275  -20.8234    6.4155 H   0  0  0  0  0
  -29.0684  -21.5402    9.3926 H   0  0  0  0  0
  -28.5739  -23.2459    9.2611 H   0  0  0  0  0
  -27.6104  -21.9758    8.4677 H   0  0  0  0  0
  -33.0302  -21.7731    7.1130 H   0  0  0  0  0
  -33.5512  -23.5152    4.9232 H   0  0  0  0  0
  -34.9703  -21.6093    4.0729 H   0  0  0  0  0
  -34.4683  -20.7581    5.6493 H   0  0  0  0  0
  -35.7624  -22.1112    6.9023 H   0  0  0  0  0
  -37.1034  -20.6572    5.3680 H   0  0  0  0  0
  -37.1306  -21.9667    4.1616 H   0  0  0  0  0
  -37.9786  -22.1688    5.7143 H   0  0  0  0  0
  -35.9399  -24.1321    4.6900 H   0  0  0  0  0
  -34.9674  -24.2487    6.1772 H   0  0  0  0  0
  -36.7452  -24.2199    6.2759 H   0  0  0  0  0
  -32.8555  -23.5054    2.9082 H   0  0  0  0  0
  -30.7036  -21.7485    1.9355 H   0  0  0  0  0
  -32.0367  -24.1985    1.2920 H   0  0  0  0  0
  -30.4408  -23.5817    0.8178 H   0  0  0  0  0
  -31.8835  -22.0059   -0.7636 H   0  0  0  0  0
  -33.0974  -23.1601   -0.5550 H   0  0  0  0  0
  -31.2678  -25.0712   -0.9958 H   0  0  0  0  0
  -30.1440  -23.9099   -1.2960 H   0  0  0  0  0
  -31.5425  -22.7779   -3.0218 H   0  0  0  0  0
  -32.9629  -23.6729   -2.5140 H   0  0  0  0  0
  -31.9564  -24.6481   -4.4466 H   0  0  0  0  0
  -30.5119  -24.8504   -3.6407 H   0  0  0  0  0
  -31.8613  -25.7007   -3.1582 H   0  0  0  0  0
  -30.7091  -20.1795    0.4995 H   0  0  0  0  0
  -31.2371  -18.0555    0.0643 H   0  0  0  0  0
  -33.2734  -17.5380   -1.1206 H   0  0  0  0  0
  -34.0424  -19.0811   -0.4746 H   0  0  0  0  0
  -33.5776  -19.6797   -2.5783 H   0  0  0  0  0
  -32.0059  -20.1173   -1.7305 H   0  0  0  0  0
  -30.4237  -19.4772   -2.6880 H   0  0  0  0  0
  -31.8886  -19.0874    2.8608 H   0  0  0  0  0
  -32.9598  -18.4719    4.7789 H   0  0  0  0  0
  -33.4860  -16.1541    5.1773 H   0  0  0  0  0
  -33.4356  -15.8175    3.3930 H   0  0  0  0  0
  -31.1968  -17.4906    5.9204 H   0  0  0  0  0
  -31.4916  -14.6260    2.7296 H   0  0  0  0  0
  -28.7865  -17.0263    6.1171 H   0  0  0  0  0
  -29.0861  -14.1366    2.9692 H   0  0  0  0  0
  -27.1319  -14.7013    4.1097 H   0  0  0  0  0
  -34.5067  -19.4045    2.2431 H   0  0  0  0  0
  -37.1062  -19.4146    3.5467 H   0  0  0  0  0
  -36.6265  -20.2068    1.9594 H   0  0  0  0  0
  -35.6954  -17.2195    1.3845 H   0  0  0  0  0
  -38.1688  -15.7260    1.4201 H   0  0  0  0  0
  -35.3953  -15.2237    0.4875 H   0  0  0  0  0
  -36.5076  -14.7094   -1.5991 H   0  0  0  0  0
  -37.6679  -13.6547   -0.7549 H   0  0  0  0  0
  -35.9437  -13.2136   -0.8146 H   0  0  0  0  0
  -37.4973  -13.5178    1.8887 H   0  0  0  0  0
  -36.2013  -14.4526    2.6745 H   0  0  0  0  0
  -35.7944  -13.0576    1.6453 H   0  0  0  0  0
  -39.5427  -15.4888   -0.1156 H   0  0  0  0  0
  1  2  2  0  0  0
  1  3  1  0  0  0
  1  9  1  0  0  0
  3  4  4  0  0  0
  3  8  4  0  0  0
  4  5  4  0  0  0
  5  6  4  0  0  0
  6  7  4  0  0  0
  7  8  4  0  0  0
  9 10  1  0  0  0
 10 11  1  0  0  0
 11 12  2  0  0  0
 11 13  1  0  0  0
 13 14  1  0  0  0
 14 15  1  0  0  0
 14 17  1  0  0  0
 15 16  2  0  0  0
 15 20  1  0  0  0
 17 18  1  0  0  0
 17 19  1  0  0  0
 20 21  1  0  0  0
 21 22  1  0  0  0
 21 24  1  0  0  0
 22 23  2  0  0  0
 22 28  1  0  0  0
 24 25  1  0  0  0
 25 26  1  0  0  0
 25 27  1  0  0  0
 28 29  1  0  0  0
 29 30  1  0  0  0
 29 32  1  0  0  0
 30 31  2  0  0  0
 30 37  1  0  0  0
 32 33  1  0  0  0
 33 34  1  0  0  0
 34 35  1  0  0  0
 35 36  1  0  0  0
 37 38  1  0  0  0
 38 39  1  0  0  0
 38 41  1  0  0  0
 39 40  2  0  0  0
 39 46  1  0  0  0
 41 42  1  0  0  0
 42 43  1  0  0  0
 43 44  2  0  0  0
 43 45  1  0  0  0
 46 47  1  0  0  0
 47 48  1  0  0  0
 47 50  1  0  0  0
 48 49  2  0  0  0
 48 58  1  0  0  0
 50 51  1  0  0  0
 51 52  4  0  0  0
 51 53  4  0  0  0
 52 54  4  0  0  0
 53 55  4  0  0  0
 54 56  4  0  0  0
 55 56  4  0  0  0
 56 57  1  0  0  0
 58 59  1  0  0  0
 59 60  1  0  0  0
 60 61  2  0  0  0
 60 62  1  0  0  0
 62 63  1  0  0  0
 63 64  1  0  0  0
 63 66  1  0  0  0
 64 65  2  0  0  0
 66 67  1  0  0  0
 66 68  1  0  0  0
 64 69  1  0  0  0
  4 70  1  0  0  0
  5 71  1  0  0  0
  6 72  1  0  0  0
  7 73  1  0  0  0
  8 74  1  0  0  0
  9 75  1  0  0  0
 10 76  1  0  0  0
 10 77  1  0  0  0
 13 78  1  0  0  0
 14 79  1  0  0  0
 17 80  1  0  0  0
 18 81  1  0  0  0
 18 82  1  0  0  0
 18 83  1  0  0  0
 19 84  1  0  0  0
 19 85  1  0  0  0
 19 86  1  0  0  0
 20 87  1  0  0  0
 21 88  1  0  0  0
 24 89  1  0  0  0
 24 90  1  0  0  0
 25 91  1  0  0  0
 26 92  1  0  0  0
 26 93  1  0  0  0
 26 94  1  0  0  0
 27 95  1  0  0  0
 27 96  1  0  0  0
 27 97  1  0  0  0
 28 98  1  0  0  0
 29 99  1  0  0  0
 32100  1  0  0  0
 32101  1  0  0  0
 33102  1  0  0  0
 33103  1  0  0  0
 34104  1  0  0  0
 34105  1  0  0  0
 35106  1  0  0  0
 35107  1  0  0  0
 36108  1  0  0  0
 36109  1  0  0  0
 36110  1  0  0  0
 37111  1  0  0  0
 38112  1  0  0  0
 41113  1  0  0  0
 41114  1  0  0  0
 42115  1  0  0  0
 42116  1  0  0  0
 45117  1  0  0  0
 46118  1  0  0  0
 47119  1  0  0  0
 50120  1  0  0  0
 50121  1  0  0  0
 52122  1  0  0  0
 53123  1  0  0  0
 54124  1  0  0  0
 55125  1  0  0  0
 57126  1  0  0  0
 58127  1  0  0  0
 59128  1  0  0  0
 59129  1  0  0  0
 62130  1  0  0  0
 63131  1  0  0  0
 66132  1  0  0  0
 67133  1  0  0  0
 67134  1  0  0  0
 67135  1  0  0  0
 68136  1  0  0  0
 68137  1  0  0  0
 68138  1  0  0  0
 69139  1  0  0  0
M  END
$$$$
