4kup_ligand
  -I-interpret- 

 50 52  0  0  0  0  0  0  0  0999 V2000
   26.0280    7.4640   56.7940 C   0  0  0  0  0
   25.1240    8.6730   56.7550 C   0  0  0  0  0
   25.4960    9.8730   57.4150 C   0  0  0  0  0
   26.8330   10.0810   58.1650 C   0  0  0  0  0
   24.6240   10.9750   57.3800 C   0  0  0  0  0
   23.4110   10.8860   56.7140 C   0  0  0  0  0
   22.4630   12.0890   56.6830 C   0  0  0  0  0
   23.0470    9.7040   56.0700 C   0  0  0  0  0
   23.8910    8.5820   56.0810 C   0  0  0  0  0
   23.4150    7.3020   55.3600 C   0  0  0  0  0
   26.4610    7.0980   57.9260 N   0  0  0  0  0
   27.1500    5.8620   57.9970 N   0  0  0  0  0
   27.8020    5.4980   59.1010 C   0  0  0  0  0
   27.8580    6.1710   60.1200 O   0  0  0  0  0
   28.4870    4.1640   59.0350 C   0  0  0  0  0
   29.9650    4.3820   59.0310 N   0  3  0  0  0
   28.0000    3.2270   60.1630 C   0  0  0  0  0
   26.5000    3.1050   60.3240 C   0  0  0  0  0
   25.5830    4.0400   60.7040 C   0  0  0  0  0
   24.3670    3.5120   60.7450 N   0  0  0  0  0
   24.4300    2.1830   60.4290 C   0  0  0  0  0
   23.3950    1.2350   60.3480 C   0  0  0  0  0
   23.7500   -0.0690   59.9960 C   0  0  0  0  0
   25.0910   -0.4120   59.7120 C   0  0  0  0  0
   26.1240    0.5300   59.7840 C   0  0  0  0  0
   25.7520    1.8290   60.1380 C   0  0  0  0  0
   26.2970    6.9279   55.8839 H   0  0  0  0  0
   26.9122    9.3532   58.9726 H   0  0  0  0  0
   27.6624    9.9467   57.4706 H   0  0  0  0  0
   26.8632   11.0891   58.5784 H   0  0  0  0  0
   24.9025   11.9034   57.8785 H   0  0  0  0  0
   22.1852   12.3574   57.7023 H   0  0  0  0  0
   22.9637   12.9324   56.2075 H   0  0  0  0  0
   21.5680   11.8302   56.1173 H   0  0  0  0  0
   22.0910    9.6502   55.5492 H   0  0  0  0  0
   24.1274    7.0411   54.5774 H   0  0  0  0  0
   23.3477    6.4853   56.0788 H   0  0  0  0  0
   22.4351    7.4793   54.9167 H   0  0  0  0  0
   27.1470    5.2397   57.1888 H   0  0  0  0  0
   28.2258    3.6503   58.1098 H   0  0  0  0  0
   30.4403    3.4806   58.9863 H   0  0  0  0  0
   30.2224    4.9441   58.2197 H   0  0  0  0  0
   30.2379    4.8696   59.8843 H   0  0  0  0  0
   28.3742    3.6504   61.0951 H   0  0  0  0  0
   28.3625    2.2305   59.9107 H   0  0  0  0  0
   25.8170    5.0778   60.9412 H   0  0  0  0  0
   22.3591    1.5063   60.5514 H   0  0  0  0  0
   22.9782   -0.8366   59.9393 H   0  0  0  0  0
   25.3275   -1.4378   59.4292 H   0  0  0  0  0
   27.1605    0.2647   59.5755 H   0  0  0  0  0
  1  2  1  0  0  0
  1 11  2  0  0  0
  2  3  4  0  0  0
  2  9  4  0  0  0
  3  4  1  0  0  0
  3  5  4  0  0  0
  5  6  4  0  0  0
  6  7  1  0  0  0
  6  8  4  0  0  0
  8  9  4  0  0  0
  9 10  1  0  0  0
 11 12  1  0  0  0
 12 13  1  0  0  0
 13 14  2  0  0  0
 13 15  1  0  0  0
 15 16  1  0  0  0
 15 17  1  0  0  0
 17 18  1  0  0  0
 18 19  4  0  0  0
 18 26  4  0  0  0
 19 20  4  0  0  0
 20 21  4  0  0  0
 21 22  4  0  0  0
 21 26  4  0  0  0
 22 23  4  0  0  0
 23 24  4  0  0  0
 24 25  4  0  0  0
 25 26  4  0  0  0
  1 27  1  0  0  0
  4 28  1  0  0  0
  4 29  1  0  0  0
  4 30  1  0  0  0
  5 31  1  0  0  0
  7 32  1  0  0  0
  7 33  1  0  0  0
  7 34  1  0  0  0
  8 35  1  0  0  0
 10 36  1  0  0  0
 10 37  1  0  0  0
 10 38  1  0  0  0
 12 39  1  0  0  0
 15 40  1  0  0  0
 16 41  1  0  0  0
 16 42  1  0  0  0
 16 43  1  0  0  0
 17 44  1  0  0  0
 17 45  1  0  0  0
 19 46  1  0  0  0
 22 47  1  0  0  0
 23 48  1  0  0  0
 24 49  1  0  0  0
 25 50  1  0  0  0
M  END
$$$$
