4r3s_ligand
  -I-interpret- 

192192  0  0  0  0  0  0  0  0999 V2000
   10.2740   14.7270    4.1070 N   0  3  0  0  0
   10.3050   13.2840    4.2670 C   0  0  0  0  0
    9.0960   12.8620    5.0950 C   0  0  0  0  0
    8.8390   13.3160    6.2240 O   0  0  0  0  0
   11.6070   12.7710    4.9310 C   0  0  0  0  0
    8.3140   12.0080    4.4900 N   0  0  0  0  0
    7.1430   11.5030    5.1400 C   0  0  0  0  0
    7.4950   10.6160    6.3320 C   0  0  0  0  0
    8.5390   10.0090    6.3410 O   0  0  0  0  0
    6.3480   10.7510    4.1050 C   0  0  0  0  0
    5.7530   11.6770    3.0730 C   0  0  0  0  0
    4.9850   12.5920    3.4030 O   0  0  0  0  0
    6.1300   11.4690    1.8190 N   0  0  0  0  0
    6.6260   10.5480    7.3350 N   0  0  0  0  0
    6.9270    9.7980    8.5370 C   0  0  0  0  0
    5.5990    9.2750    9.1210 C   0  0  0  0  0
    4.6430   10.0090    9.1970 O   0  0  0  0  0
    7.6780   10.7190    9.4700 C   0  0  0  0  0
    7.8250   10.1770   10.7960 C   0  0  0  0  0
    6.9420   10.3720   11.6220 O   0  0  0  0  0
    8.9520    9.4880   11.0540 N   0  0  0  0  0
    5.5460    8.0190    9.5600 N   0  0  0  0  0
    4.2870    7.4550   10.0260 C   0  0  0  0  0
    3.8340    8.0190   11.3780 C   0  0  0  0  0
    2.6430    8.0200   11.6890 O   0  0  0  0  0
    4.4060    5.8960   10.1300 C   0  0  0  0  0
    4.7690    8.4710   12.2140 N   0  0  0  0  0
    4.3390    9.1300   13.4460 C   0  0  0  0  0
    3.5040   10.3480   13.0970 C   0  0  0  0  0
    2.4660   10.5730   13.6930 O   0  0  0  0  0
    5.5620    9.5400   14.2940 C   0  0  0  0  0
    5.2580   10.4120   15.5070 C   0  0  0  0  0
    5.1950    9.8530   16.7660 C   0  0  0  0  0
    5.0470   11.7790   15.3910 C   0  0  0  0  0
    4.9420   10.6520   17.8920 C   0  0  0  0  0
    4.7880   12.5820   16.5180 C   0  0  0  0  0
    4.7130   11.9900   17.7560 C   0  0  0  0  0
    4.4940   12.7570   18.8850 O   0  0  0  0  0
    3.9330   11.1250   12.0930 N   0  0  0  0  0
    3.2060   12.3580   11.7650 C   0  0  0  0  0
    1.9280   12.0960   11.0180 C   0  0  0  0  0
    0.9890   12.8610   11.1340 O   0  0  0  0  0
    4.0660   13.3120   10.9100 C   0  0  0  0  0
    5.2500   13.8460   11.6700 C   0  0  0  0  0
    5.1590   14.1080   12.8770 O   0  0  0  0  0
    6.3730   14.0370   10.9710 N   0  0  0  0  0
    1.9090   11.0630   10.1790 N   0  0  0  0  0
    0.8590   10.9920    9.1770 C   0  0  0  0  0
    0.0210    9.7030    9.1990 C   0  0  0  0  0
   -0.9620    9.6160    8.4560 O   0  0  0  0  0
    1.4730   11.1730    7.7740 C   0  0  0  0  0
    2.2940   12.4700    7.6250 C   0  0  0  0  0
    3.1370   12.6520    6.0410 S   0  0  0  0  0
    3.9500   11.1830    5.9830 C   0  0  0  0  0
    0.3490    8.7130   10.0160 N   0  0  0  0  0
   -0.5410    7.5450   10.0010 C   0  0  0  0  0
   -1.7830    7.7820   10.8890 C   0  0  0  0  0
   -2.6750    6.9410   10.8850 O   0  0  0  0  0
    0.1630    6.2470   10.4270 C   0  0  0  0  0
    0.6630    6.2900   11.7570 O   0  0  0  0  0
   -1.8000    8.8620   11.6770 N   0  0  0  0  0
   -3.0340    9.2890   12.3350 C   0  0  0  0  0
   -3.1490   10.7850   12.1470 C   0  0  0  0  0
   -2.1420   11.4460   11.9310 O   0  0  0  0  0
   -3.0920    8.9790   13.8510 C   0  0  0  0  0
   -1.9930    9.7390   14.5940 C   0  0  0  0  0
   -2.9810    7.4610   14.1040 C   0  0  0  0  0
   -2.2610    9.8350   16.0740 C   0  0  0  0  0
   -4.3700   11.3150   12.2060 N   0  0  0  0  0
   -4.5800   12.7720   12.1440 C   0  0  0  0  0
   -4.3760   13.3350   13.5230 C   0  0  0  0  0
   -4.9990   12.8640   14.4920 O   0  0  0  0  0
   -5.9930   13.1080   11.6070 C   0  0  0  0  0
   -6.3310   14.6080   11.6300 C   0  0  0  0  0
   -7.8060   14.7800   11.1120 C   0  0  0  0  0
   -8.3790   15.9720   11.7170 N   0  0  0  0  0
   -9.6310   16.3640   11.5450 C   0  0  0  0  0
  -10.4570   15.6430   10.7910 N   0  0  0  0  0
  -10.0460   17.4910   12.1240 N   0  0  0  0  0
   -3.4670   14.2920   13.6320 N   0  0  0  0  0
   -3.2110   14.8460   14.9610 C   0  0  0  0  0
   -3.8370   16.2060   15.0050 C   0  0  0  0  0
   -3.8950   16.8860   13.9780 O   0  0  0  0  0
   -1.7280   14.9430   15.2370 C   0  0  0  0  0
   -1.0330   13.5880   15.2650 C   0  0  0  0  0
    0.4270   13.7060   15.6070 C   0  0  0  0  0
    1.0650   12.3850   15.5930 N   0  0  0  0  0
    1.0950   11.5490   16.6210 C   0  0  0  0  0
    1.6520   10.3560   16.4700 N   0  0  0  0  0
    0.5170   11.8830   17.7910 N   0  0  0  0  0
   -4.2720   16.6280   16.1860 N   0  0  0  0  0
   -4.8010   17.9990   16.2970 C   0  0  0  0  0
   -4.1840   18.7490   17.4880 C   0  0  0  0  0
   -3.6190   18.1340   18.3940 O   0  0  0  0  0
   -6.3240   17.9790   16.4310 C   0  0  0  0  0
   -6.6850   17.5820   17.7560 O   0  0  0  0  0
   -4.3020   20.0730   17.4640 N   0  0  0  0  0
    9.3956   15.0002    3.6664 H   0  0  0  0  0
   10.3492   15.1711    5.0222 H   0  0  0  0  0
   11.0555   15.0197    3.5205 H   0  0  0  0  0
   10.2745   12.8387    3.2726 H   0  0  0  0  0
   11.6929   13.1922    5.9326 H   0  0  0  0  0
   11.5769   11.6833    4.9942 H   0  0  0  0  0
   12.4642   13.0778    4.3317 H   0  0  0  0  0
    8.5402   11.6980    3.5449 H   0  0  0  0  0
    6.5544   12.3250    5.5475 H   0  0  0  0  0
    5.5331   10.2320    4.6097 H   0  0  0  0  0
    7.0174   10.0569    3.5969 H   0  0  0  0  0
    5.7855   12.0763    1.0755 H   0  0  0  0  0
    6.7645   10.7016    1.5978 H   0  0  0  0  0
    5.7317   11.0323    7.2571 H   0  0  0  0  0
    7.5580    8.9283    8.3535 H   0  0  0  0  0
    7.1100   11.6458    9.5507 H   0  0  0  0  0
    8.6765   10.8669    9.0587 H   0  0  0  0  0
    9.1076    9.0937   11.9817 H   0  0  0  0  0
    9.6505    9.3602   10.3218 H   0  0  0  0  0
    6.3918    7.4489    9.5699 H   0  0  0  0  0
    3.5323    7.7355    9.2913 H   0  0  0  0  0
    4.6432    5.4847    9.1488 H   0  0  0  0  0
    5.1976    5.6395   10.8340 H   0  0  0  0  0
    3.4596    5.4831   10.4793 H   0  0  0  0  0
    5.7599    8.3597   11.9993 H   0  0  0  0  0
    3.7371    8.4368   14.0336 H   0  0  0  0  0
    6.2076   10.1291   13.6426 H   0  0  0  0  0
    5.9973    8.6170   14.6769 H   0  0  0  0  0
    5.3431    8.7800   16.8880 H   0  0  0  0  0
    5.0827   12.2414   14.4046 H   0  0  0  0  0
    4.9284   10.1995   18.8836 H   0  0  0  0  0
    4.6490   13.6577   16.4102 H   0  0  0  0  0
    4.3497   13.6703   18.6270 H   0  0  0  0  0
    4.7610   10.8611   11.5589 H   0  0  0  0  0
    2.9713   12.8171   12.7253 H   0  0  0  0  0
    3.4436   14.1568   10.6149 H   0  0  0  0  0
    4.4383   12.7544   10.0506 H   0  0  0  0  0
    7.2021   14.4134   11.4307 H   0  0  0  0  0
    6.4010   13.8064    9.9778 H   0  0  0  0  0
    2.6194   10.3335   10.2383 H   0  0  0  0  0
    0.1683   11.7983    9.4240 H   0  0  0  0  0
    0.6507   11.2217    7.0601 H   0  0  0  0  0
    2.1490   10.3355    7.6015 H   0  0  0  0  0
    3.0661   12.4464    8.3940 H   0  0  0  0  0
    1.5927   13.3003    7.7080 H   0  0  0  0  0
    4.6207   11.1064    6.8388 H   0  0  0  0  0
    3.2271   10.3677    6.0122 H   0  0  0  0  0
    4.5278   11.1251    5.0605 H   0  0  0  0  0
    1.1703    8.7593   10.6191 H   0  0  0  0  0
   -0.8540    7.4198    8.9644 H   0  0  0  0  0
    1.0122    6.0983    9.7601 H   0  0  0  0  0
   -0.5703    5.4422   10.3762 H   0  0  0  0  0
    1.0897    5.4554   11.9644 H   0  0  0  0  0
   -0.9419    9.3944   11.8209 H   0  0  0  0  0
   -3.8533    8.7314   11.8811 H   0  0  0  0  0
   -4.0563    9.3126   14.2342 H   0  0  0  0  0
   -1.9522   10.7514   14.1922 H   0  0  0  0  0
   -1.0564    9.1990   14.4551 H   0  0  0  0  0
   -3.8064    6.9500   13.6082 H   0  0  0  0  0
   -2.0343    7.0959   13.7059 H   0  0  0  0  0
   -3.0242    7.2685   15.1760 H   0  0  0  0  0
   -3.2030   10.3582   16.2382 H   0  0  0  0  0
   -2.3224    8.8321   16.4966 H   0  0  0  0  0
   -1.4507   10.3839   16.5538 H   0  0  0  0  0
   -5.1774   10.6983   12.2961 H   0  0  0  0  0
   -3.8652   13.2199   11.4537 H   0  0  0  0  0
   -6.7123   12.6047   12.2530 H   0  0  0  0  0
   -6.0287   12.7846   10.5667 H   0  0  0  0  0
   -5.6405   15.1601   10.9924 H   0  0  0  0  0
   -6.2388   14.9999   12.6429 H   0  0  0  0  0
   -8.3977   13.9062   11.3850 H   0  0  0  0  0
   -7.8071   14.8796   10.0266 H   0  0  0  0  0
   -7.7775   16.5420   12.3117 H   0  0  0  0  0
  -10.1251   14.7877   10.3453 H   0  0  0  0  0
  -11.0060   17.8091   11.9912 H   0  0  0  0  0
   -9.4035   18.0351   12.6998 H   0  0  0  0  0
   -2.9611   14.6322   12.8142 H   0  0  0  0  0
   -3.6365   14.1954   15.7250 H   0  0  0  0  0
   -1.6040   15.3982   16.2196 H   0  0  0  0  0
   -1.2800   15.5275   14.4334 H   0  0  0  0  0
   -1.1143   13.1443   14.2727 H   0  0  0  0  0
   -1.5123   12.9765   16.0295 H   0  0  0  0  0
    0.5241   14.1362   16.6038 H   0  0  0  0  0
    0.9139   14.3428   14.8684 H   0  0  0  0  0
    1.5186   12.0883   14.7290 H   0  0  0  0  0
    2.0515   10.0899   15.5700 H   0  0  0  0  0
    0.5073   11.2170   18.5635 H   0  0  0  0  0
    0.0890   12.8019   17.9044 H   0  0  0  0  0
   -4.2407   16.0152   17.0008 H   0  0  0  0  0
   -4.5277   18.5273   15.3836 H   0  0  0  0  0
   -6.7408   17.2707   15.7150 H   0  0  0  0  0
   -6.7177   18.9758   16.2322 H   0  0  0  0  0
   -7.6416   17.5707   17.8360 H   0  0  0  0  0
   -3.9137   20.6335   18.2226 H   0  0  0  0  0
   -4.7809   20.5283   16.6870 H   0  0  0  0  0
  1  2  1  0  0  0
  2  3  1  0  0  0
  2  5  1  0  0  0
  3  4  2  0  0  0
  3  6  1  0  0  0
  6  7  1  0  0  0
  7  8  1  0  0  0
  7 10  1  0  0  0
  8  9  2  0  0  0
  8 14  1  0  0  0
 10 11  1  0  0  0
 11 12  2  0  0  0
 11 13  1  0  0  0
 14 15  1  0  0  0
 15 16  1  0  0  0
 15 18  1  0  0  0
 16 17  2  0  0  0
 16 22  1  0  0  0
 18 19  1  0  0  0
 19 20  2  0  0  0
 19 21  1  0  0  0
 22 23  1  0  0  0
 23 24  1  0  0  0
 23 26  1  0  0  0
 24 25  2  0  0  0
 24 27  1  0  0  0
 27 28  1  0  0  0
 28 29  1  0  0  0
 28 31  1  0  0  0
 29 30  2  0  0  0
 29 39  1  0  0  0
 31 32  1  0  0  0
 32 33  4  0  0  0
 32 34  4  0  0  0
 33 35  4  0  0  0
 34 36  4  0  0  0
 35 37  4  0  0  0
 36 37  4  0  0  0
 37 38  1  0  0  0
 39 40  1  0  0  0
 40 41  1  0  0  0
 40 43  1  0  0  0
 41 42  2  0  0  0
 41 47  1  0  0  0
 43 44  1  0  0  0
 44 45  2  0  0  0
 44 46  1  0  0  0
 47 48  1  0  0  0
 48 49  1  0  0  0
 48 51  1  0  0  0
 49 50  2  0  0  0
 49 55  1  0  0  0
 51 52  1  0  0  0
 52 53  1  0  0  0
 53 54  1  0  0  0
 55 56  1  0  0  0
 56 57  1  0  0  0
 56 59  1  0  0  0
 57 58  2  0  0  0
 57 61  1  0  0  0
 59 60  1  0  0  0
 61 62  1  0  0  0
 62 63  1  0  0  0
 62 65  1  0  0  0
 63 64  2  0  0  0
 63 69  1  0  0  0
 65 66  1  0  0  0
 65 67  1  0  0  0
 66 68  1  0  0  0
 69 70  1  0  0  0
 70 71  1  0  0  0
 70 73  1  0  0  0
 71 72  2  0  0  0
 71 80  1  0  0  0
 73 74  1  0  0  0
 74 75  1  0  0  0
 75 76  1  0  0  0
 76 77  1  0  0  0
 77 78  2  0  0  0
 77 79  1  0  0  0
 80 81  1  0  0  0
 81 82  1  0  0  0
 81 84  1  0  0  0
 82 83  2  0  0  0
 82 91  1  0  0  0
 84 85  1  0  0  0
 85 86  1  0  0  0
 86 87  1  0  0  0
 87 88  1  0  0  0
 88 89  2  0  0  0
 88 90  1  0  0  0
 91 92  1  0  0  0
 92 93  1  0  0  0
 92 95  1  0  0  0
 93 94  2  0  0  0
 93 97  1  0  0  0
 95 96  1  0  0  0
  1 98  1  0  0  0
  1 99  1  0  0  0
  1100  1  0  0  0
  2101  1  0  0  0
  5102  1  0  0  0
  5103  1  0  0  0
  5104  1  0  0  0
  6105  1  0  0  0
  7106  1  0  0  0
 10107  1  0  0  0
 10108  1  0  0  0
 13109  1  0  0  0
 13110  1  0  0  0
 14111  1  0  0  0
 15112  1  0  0  0
 18113  1  0  0  0
 18114  1  0  0  0
 21115  1  0  0  0
 21116  1  0  0  0
 22117  1  0  0  0
 23118  1  0  0  0
 26119  1  0  0  0
 26120  1  0  0  0
 26121  1  0  0  0
 27122  1  0  0  0
 28123  1  0  0  0
 31124  1  0  0  0
 31125  1  0  0  0
 33126  1  0  0  0
 34127  1  0  0  0
 35128  1  0  0  0
 36129  1  0  0  0
 38130  1  0  0  0
 39131  1  0  0  0
 40132  1  0  0  0
 43133  1  0  0  0
 43134  1  0  0  0
 46135  1  0  0  0
 46136  1  0  0  0
 47137  1  0  0  0
 48138  1  0  0  0
 51139  1  0  0  0
 51140  1  0  0  0
 52141  1  0  0  0
 52142  1  0  0  0
 54143  1  0  0  0
 54144  1  0  0  0
 54145  1  0  0  0
 55146  1  0  0  0
 56147  1  0  0  0
 59148  1  0  0  0
 59149  1  0  0  0
 60150  1  0  0  0
 61151  1  0  0  0
 62152  1  0  0  0
 65153  1  0  0  0
 66154  1  0  0  0
 66155  1  0  0  0
 67156  1  0  0  0
 67157  1  0  0  0
 67158  1  0  0  0
 68159  1  0  0  0
 68160  1  0  0  0
 68161  1  0  0  0
 69162  1  0  0  0
 70163  1  0  0  0
 73164  1  0  0  0
 73165  1  0  0  0
 74166  1  0  0  0
 74167  1  0  0  0
 75168  1  0  0  0
 75169  1  0  0  0
 76170  1  0  0  0
 78171  1  0  0  0
 79172  1  0  0  0
 79173  1  0  0  0
 80174  1  0  0  0
 81175  1  0  0  0
 84176  1  0  0  0
 84177  1  0  0  0
 85178  1  0  0  0
 85179  1  0  0  0
 86180  1  0  0  0
 86181  1  0  0  0
 87182  1  0  0  0
 89183  1  0  0  0
 90184  1  0  0  0
 90185  1  0  0  0
 91186  1  0  0  0
 92187  1  0  0  0
 95188  1  0  0  0
 95189  1  0  0  0
 96190  1  0  0  0
 97191  1  0  0  0
 97192  1  0  0  0
M  END
$$$$
