### 
### Created by X-TOOL on Mon Sep 10 21:13:20 2018
### 

@<TRIPOS>MOLECULE
4r3s_ligand
  194   194     1     0     0
SMALL
GAST_HUCK


@<TRIPOS>ATOM
      1 N          10.2740   14.7270    4.1070 N.4       1 ILE         0.2377
      2 CA         10.3050   13.2840    4.2670 C.3       1 ILE         0.0621
      3 C           9.0960   12.8620    5.0950 C.2       1 ILE         0.2265
      4 O           8.8390   13.3160    6.2240 O.2       1 ILE        -0.3907
      5 CB         11.6070   12.7710    4.9310 C.3       1 ILE        -0.0040
      6 N           8.3140   12.0080    4.4900 N.am      1 ASN        -0.2589
      7 CA          7.1430   11.5030    5.1400 C.3       1 ASN         0.1477
      8 C           7.4950   10.6160    6.3320 C.2       1 ASN         0.2064
      9 O           8.5390   10.0090    6.3410 O.2       1 ASN        -0.3942
     10 CB          6.3480   10.7510    4.1050 C.3       1 ASN         0.0773
     11 CG          5.7530   11.6770    3.0730 C.2       1 ASN         0.1780
     12 OD1         4.9850   12.5920    3.4030 O.2       1 ASN        -0.3970
     13 ND2         6.1300   11.4690    1.8190 N.am      1 ASN        -0.3007
     14 N           6.6260   10.5480    7.3350 N.am      1 ASN        -0.2615
     15 CA          6.9270    9.7980    8.5370 C.3       1 ASN         0.1476
     16 C           5.5990    9.2750    9.1210 C.2       1 ASN         0.2062
     17 O           4.6430   10.0090    9.1970 O.2       1 ASN        -0.3942
     18 CB          7.6780   10.7190    9.4700 C.3       1 ASN         0.0773
     19 CG          7.8250   10.1770   10.7960 C.2       1 ASN         0.1780
     20 OD1         6.9420   10.3720   11.6220 O.2       1 ASN        -0.3970
     21 ND2         8.9520    9.4880   11.0540 N.am      1 ASN        -0.3007
     22 N           5.5460    8.0190    9.5600 N.am      1 ALA        -0.2639
     23 CA          4.2870    7.4550   10.0260 C.3       1 ALA         0.1282
     24 C           3.8340    8.0190   11.3780 C.2       1 ALA         0.2037
     25 O           2.6430    8.0200   11.6890 O.2       1 ALA        -0.3944
     26 CB          4.4060    5.8960   10.1300 C.3       1 ALA        -0.0244
     27 N           4.7690    8.4710   12.2140 N.am      1 TYR        -0.2621
     28 CA          4.3390    9.1300   13.4460 C.3       1 TYR         0.1390
     29 C           3.5040   10.3480   13.0970 C.2       1 TYR         0.2059
     30 O           2.4660   10.5730   13.6930 O.2       1 TYR        -0.3942
     31 CB          5.5620    9.5400   14.2940 C.3       1 TYR         0.0163
     32 CG          5.2580   10.4120   15.5070 C.ar      1 TYR        -0.0493
     33 CD1         5.1950    9.8530   16.7660 C.ar      1 TYR        -0.0685
     34 CD2         5.0470   11.7790   15.3910 C.ar      1 TYR        -0.0685
     35 CE1         4.9420   10.6520   17.8920 C.ar      1 TYR        -0.0398
     36 CE2         4.7880   12.5820   16.5180 C.ar      1 TYR        -0.0398
     37 CZ          4.7130   11.9900   17.7560 C.ar      1 TYR         0.0805
     38 OH          4.4940   12.7570   18.8850 O.3       1 TYR        -0.3376
     39 N           3.9330   11.1250   12.0930 N.am      1 ASN        -0.2615
     40 CA          3.2060   12.3580   11.7650 C.3       1 ASN         0.1476
     41 C           1.9280   12.0960   11.0180 C.2       1 ASN         0.2063
     42 O           0.9890   12.8610   11.1340 O.2       1 ASN        -0.3942
     43 CB          4.0660   13.3120   10.9100 C.3       1 ASN         0.0773
     44 CG          5.2500   13.8460   11.6700 C.2       1 ASN         0.1780
     45 OD1         5.1590   14.1080   12.8770 O.2       1 ASN        -0.3970
     46 ND2         6.3730   14.0370   10.9710 N.am      1 ASN        -0.3007
     47 N           1.9090   11.0630   10.1790 N.am      1 MET        -0.2636
     48 CA          0.8590   10.9920    9.1770 C.3       1 MET         0.1317
     49 C           0.0210    9.7030    9.1990 C.2       1 MET         0.2040
     50 O          -0.9620    9.6160    8.4560 O.2       1 MET        -0.3944
     51 CB          1.4730   11.1730    7.7740 C.3       1 MET        -0.0034
     52 CG          2.2940   12.4700    7.6250 C.3       1 MET        -0.0024
     53 SD          3.1370   12.6520    6.0410 S.3       1 MET        -0.1639
     54 CE          3.9500   11.1830    5.9830 C.3       1 MET        -0.0181
     55 N           0.3490    8.7130   10.0160 N.am      1 SER        -0.2616
     56 CA         -0.5410    7.5450   10.0010 C.3       1 SER         0.1539
     57 C          -1.7830    7.7820   10.8890 C.2       1 SER         0.2062
     58 O          -2.6750    6.9410   10.8850 O.2       1 SER        -0.3943
     59 CB          0.1630    6.2470   10.4270 C.3       1 SER         0.0843
     60 OG          0.6630    6.2900   11.7570 O.3       1 SER        -0.3903
     61 N          -1.8000    8.8620   11.6770 N.am      1 ILE        -0.2634
     62 CA         -3.0340    9.2890   12.3350 C.3       1 ILE         0.1335
     63 C          -3.1490   10.7850   12.1470 C.2       1 ILE         0.2042
     64 O          -2.1420   11.4460   11.9310 O.2       1 ILE        -0.3944
     65 CB         -3.0920    8.9790   13.8510 C.3       1 ILE        -0.0037
     66 CG1        -1.9930    9.7390   14.5940 C.3       1 ILE        -0.0491
     67 CG2        -2.9810    7.4610   14.1040 C.3       1 ILE        -0.0582
     68 CD1        -2.2610    9.8350   16.0740 C.3       1 ILE        -0.0648
     69 N          -4.3700   11.3150   12.2060 N.am      1 ARG        -0.2637
     70 CA         -4.5800   12.7720   12.1440 C.3       1 ARG         0.1311
     71 C          -4.3760   13.3350   13.5230 C.2       1 ARG         0.2039
     72 O          -4.9990   12.8640   14.4920 O.2       1 ARG        -0.3944
     73 CB         -5.9930   13.1080   11.6070 C.3       1 ARG        -0.0092
     74 CG         -6.3310   14.6080   11.6300 C.3       1 ARG        -0.0156
     75 CD         -7.8060   14.7800   11.1120 C.3       1 ARG         0.0627
     76 NE         -8.3790   15.9720   11.7170 N.pl3     1 ARG        -0.2723
     77 CZ         -9.6310   16.3640   11.5450 C.cat     1 ARG         0.2882
     78 NH1       -10.4570   15.6430   10.7910 N.pl3     1 ARG        -0.2849
     79 NH2       -10.0460   17.4910   12.1240 N.pl3     1 ARG        -0.2849
     80 N          -3.4670   14.2920   13.6320 N.am      1 ARG        -0.2637
     81 CA         -3.2110   14.8460   14.9610 C.3       1 ARG         0.1311
     82 C          -3.8370   16.2060   15.0050 C.2       1 ARG         0.2040
     83 O          -3.8950   16.8860   13.9780 O.2       1 ARG        -0.3944
     84 CB         -1.7280   14.9430   15.2370 C.3       1 ARG        -0.0092
     85 CG         -1.0330   13.5880   15.2650 C.3       1 ARG        -0.0156
     86 CD          0.4270   13.7060   15.6070 C.3       1 ARG         0.0627
     87 NE          1.0650   12.3850   15.5930 N.pl3     1 ARG        -0.2723
     88 CZ          1.0950   11.5490   16.6210 C.cat     1 ARG         0.2882
     89 NH1         1.6520   10.3560   16.4700 N.pl3     1 ARG        -0.2849
     90 NH2         0.5170   11.8830   17.7910 N.pl3     1 ARG        -0.2849
     91 N          -4.2720   16.6280   16.1860 N.am      1 SER        -0.2616
     92 CA         -4.8010   17.9990   16.2970 C.3       1 SER         0.1536
     93 C          -4.1840   18.7490   17.4880 C.2       1 SER         0.2015
     94 O          -3.6190   18.1340   18.3940 O.2       1 SER        -0.3947
     95 CB         -6.3240   17.9790   16.4310 C.3       1 SER         0.0843
     96 OG         -6.6850   17.5820   17.7560 O.3       1 SER        -0.3903
     97 N          -4.3020   20.0730   17.4640 N.am      1 NH2        -0.2989
     98 H1         11.0683   15.0216    3.5608 H         1 ILE         0.2015
     99 H2         10.3080   15.1664    5.0135 H         1 ILE         0.2015
    100 H3          9.4242   14.9946    3.6355 H         1 ILE         0.2015
    101 H4         10.2304   12.8259    3.2697 H         1 ILE         0.1095
    102 H5         11.5653   11.6755    5.0218 H         1 ILE         0.0310
    103 H6         11.7095   13.2181    5.9308 H         1 ILE         0.0310
    104 H7         12.4708   13.0549    4.3120 H         1 ILE         0.0310
    105 H8          8.5358   11.7041    3.5635 H         1 ASN         0.1886
    106 H9          6.5440   12.3492    5.5076 H         1 ASN         0.0826
    107 H10         5.5340   10.2076    4.6070 H         1 ASN         0.0551
    108 H11         7.0107   10.0334    3.5993 H         1 ASN         0.0551
    109 H12         5.7720   12.0482    1.0867 H         1 ASN         0.1814
    110 H13         6.7723   10.7329    1.6055 H         1 ASN         0.1814
    111 H14         5.7492   11.0228    7.2586 H         1 ASN         0.1885
    112 H15         7.5686    8.9385    8.2931 H         1 ASN         0.0826
    113 H16         7.1309   11.6708    9.5388 H         1 ASN         0.0551
    114 H17         8.6793   10.9009    9.0525 H         1 ASN         0.0551
    115 H18         9.0997    9.0924   11.9605 H         1 ASN         0.1814
    116 H19         9.6416    9.3717   10.3392 H         1 ASN         0.1814
    117 H20         6.3752    7.4601    9.5697 H         1 ALA         0.1883
    118 H21         3.5142    7.6984    9.2820 H         1 ALA         0.0797
    119 H22         3.4514    5.4781   10.4824 H         1 ALA         0.0277
    120 H23         5.2046    5.6358   10.8402 H         1 ALA         0.0277
    121 H24         4.6454    5.4797    9.1404 H         1 ALA         0.0277
    122 H25         5.7405    8.3619   12.0035 H         1 TYR         0.1885
    123 H26         3.7234    8.4298   14.0297 H         1 TYR         0.0821
    124 H27         6.2548   10.0941   13.6436 H         1 TYR         0.0453
    125 H28         6.0500    8.6211   14.6512 H         1 TYR         0.0453
    126 H29         5.3423    8.7859   16.8873 H         1 TYR         0.0530
    127 H30         5.0825   12.2389   14.4100 H         1 TYR         0.0530
    128 H31         4.9285   10.2020   18.8781 H         1 TYR         0.0525
    129 H32         4.6497   13.6518   16.4108 H         1 TYR         0.0525
    130 H33         4.4705   12.1936   19.6496 H         1 TYR         0.2458
    131 H34         4.7447   10.8663   11.5694 H         1 ASN         0.1885
    132 H35         2.9581   12.8613   12.7112 H         1 ASN         0.0826
    133 H36         3.4417   14.1581   10.5870 H         1 ASN         0.0551
    134 H37         4.4291   12.7660   10.0268 H         1 ASN         0.0551
    135 H38         7.1908   14.3902   11.4254 H         1 ASN         0.1814
    136 H39         6.3954   13.8267    9.9936 H         1 ASN         0.1814
    137 H40         2.6055   10.3478   10.2372 H         1 MET         0.1883
    138 H41         0.1725   11.8305    9.3658 H         1 MET         0.0800
    139 H42         0.6571   11.1906    7.0364 H         1 MET         0.0320
    140 H43         2.1335   10.3174    7.5698 H         1 MET         0.0320
    141 H44         3.0531   12.4881    8.4209 H         1 MET         0.0378
    142 H45         1.6115   13.3236    7.7497 H         1 MET         0.0378
    143 H46         4.5335   11.1234    5.0524 H         1 MET         0.0340
    144 H47         3.2215   10.3593    6.0124 H         1 MET         0.0340
    145 H48         4.6273   11.1044    6.8461 H         1 MET         0.0340
    146 H49         1.1542    8.7584   10.6073 H         1 SER         0.1884
    147 H50        -0.8860    7.4102    8.9652 H         1 SER         0.0823
    148 H51         1.0051    6.0656    9.7430 H         1 SER         0.0606
    149 H52        -0.5563    5.4183   10.3509 H         1 SER         0.0606
    150 H53         1.2929    6.9969   11.8346 H         1 SER         0.2097
    151 H54        -0.9588    9.3840   11.8180 H         1 ILE         0.1883
    152 H55        -3.8823    8.7868   11.8470 H         1 ILE         0.0803
    153 H56        -4.0649    9.3196   14.2349 H         1 ILE         0.0345
    154 H57        -1.9253   10.7561   14.1806 H         1 ILE         0.0267
    155 H58        -1.0370    9.2167   14.4413 H         1 ILE         0.0267
    156 H59        -3.7815    6.9390   13.5593 H         1 ILE         0.0235
    157 H60        -3.0795    7.2606   15.1811 H         1 ILE         0.0235
    158 H61        -2.0030    7.1011   13.7519 H         1 ILE         0.0235
    159 H62        -1.4438   10.3887   16.5594 H         1 ILE         0.0230
    160 H63        -2.3232    8.8235   16.5018 H         1 ILE         0.0230
    161 H64        -3.2115   10.3629   16.2411 H         1 ILE         0.0230
    162 H65        -5.1616   10.7104   12.2943 H         1 ARG         0.1883
    163 H66        -3.8360   13.2125   11.4640 H         1 ARG         0.0800
    164 H67        -6.7328   12.5774   12.2243 H         1 ARG         0.0313
    165 H68        -6.0612   12.7541   10.5677 H         1 ARG         0.0313
    166 H69        -5.6386   15.1571   10.9750 H         1 ARG         0.0301
    167 H70        -6.2483   14.9939   12.6567 H         1 ARG         0.0301
    168 H71        -8.4019   13.8994   11.3938 H         1 ARG         0.0689
    169 H72        -7.8034   14.8859   10.0171 H         1 ARG         0.0689
    170 H73        -7.7716   16.5476   12.3175 H         1 ARG         0.2642
    171 H74       -11.4315   15.9486   10.6575 H         1 ARG         0.2615
    172 H75       -10.1219   14.7793   10.3409 H         1 ARG         0.2615
    173 H76        -9.3972   18.0405   12.7054 H         1 ARG         0.2615
    174 H77       -11.0154   17.8122   11.9899 H         1 ARG         0.2615
    175 H78        -2.9710   14.6255   12.8303 H         1 ARG         0.1883
    176 H79        -3.6734   14.2008   15.7225 H         1 ARG         0.0800
    177 H80        -1.5851   15.4294   16.2132 H         1 ARG         0.0313
    178 H81        -1.2654   15.5569   14.4502 H         1 ARG         0.0313
    179 H82        -1.1281   13.1204   14.2739 H         1 ARG         0.0301
    180 H83        -1.5232   12.9538   16.0183 H         1 ARG         0.0301
    181 H84         0.5298   14.1473   16.6094 H         1 ARG         0.0689
    182 H85         0.9208   14.3546   14.8684 H         1 ARG         0.0689
    183 H86         1.5231   12.0853   14.7205 H         1 ARG         0.2642
    184 H87         1.6814    9.6975   17.2614 H         1 ARG         0.2615
    185 H88         2.0555   10.0873   15.5612 H         1 ARG         0.2615
    186 H89         0.0849   12.8109   17.9055 H         1 ARG         0.2615
    187 H90         0.5072   11.2105   18.5711 H         1 ARG         0.2615
    188 H91        -4.2413   16.0273   16.9849 H         1 SER         0.1884
    189 H92        -4.5399   18.5411   15.3762 H         1 SER         0.0823
    190 H93        -6.7456   17.2655   15.7077 H         1 SER         0.0606
    191 H94        -6.7223   18.9843   16.2291 H         1 SER         0.0606
    192 H95        -7.6316   17.5708   17.8352 H         1 SER         0.2097
    193 H96        -3.9227   20.6224   18.2085 H         1 NH2         0.1815
    194 H97        -4.7701   20.5195   16.7014 H         1 NH2         0.1815
@<TRIPOS>BOND
     1    1    2 1  
     2    2    3 1  
     3    2    5 1  
     4    3    4 2  
     5    3    6 am 
     6    6    7 1  
     7    7    8 1  
     8    7   10 1  
     9    8    9 2  
    10    8   14 am 
    11   10   11 1  
    12   11   12 2  
    13   11   13 am 
    14   14   15 1  
    15   15   16 1  
    16   15   18 1  
    17   16   17 2  
    18   16   22 am 
    19   18   19 1  
    20   19   20 2  
    21   19   21 am 
    22   22   23 1  
    23   23   24 1  
    24   23   26 1  
    25   24   25 2  
    26   24   27 am 
    27   27   28 1  
    28   28   29 1  
    29   28   31 1  
    30   29   30 2  
    31   29   39 am 
    32   31   32 1  
    33   32   33 ar 
    34   32   34 ar 
    35   33   35 ar 
    36   34   36 ar 
    37   35   37 ar 
    38   36   37 ar 
    39   37   38 1  
    40   39   40 1  
    41   40   41 1  
    42   40   43 1  
    43   41   42 2  
    44   41   47 am 
    45   43   44 1  
    46   44   45 2  
    47   44   46 am 
    48   47   48 1  
    49   48   49 1  
    50   48   51 1  
    51   49   50 2  
    52   49   55 am 
    53   51   52 1  
    54   52   53 1  
    55   53   54 1  
    56   55   56 1  
    57   56   57 1  
    58   56   59 1  
    59   57   58 2  
    60   57   61 am 
    61   59   60 1  
    62   61   62 1  
    63   62   63 1  
    64   62   65 1  
    65   63   64 2  
    66   63   69 am 
    67   65   66 1  
    68   65   67 1  
    69   66   68 1  
    70   69   70 1  
    71   70   71 1  
    72   70   73 1  
    73   71   72 2  
    74   71   80 am 
    75   73   74 1  
    76   74   75 1  
    77   75   76 1  
    78   76   77 ar 
    79   77   78 ar 
    80   77   79 ar 
    81   80   81 1  
    82   81   82 1  
    83   81   84 1  
    84   82   83 2  
    85   82   91 am 
    86   84   85 1  
    87   85   86 1  
    88   86   87 1  
    89   87   88 ar 
    90   88   89 ar 
    91   88   90 ar 
    92   91   92 1  
    93   92   93 1  
    94   92   95 1  
    95   93   94 2  
    96   93   97 am 
    97   95   96 1  
    98    1   98 1  
    99    1   99 1  
   100    1  100 1  
   101    2  101 1  
   102    5  102 1  
   103    5  103 1  
   104    5  104 1  
   105    6  105 1  
   106    7  106 1  
   107   10  107 1  
   108   10  108 1  
   109   13  109 1  
   110   13  110 1  
   111   14  111 1  
   112   15  112 1  
   113   18  113 1  
   114   18  114 1  
   115   21  115 1  
   116   21  116 1  
   117   22  117 1  
   118   23  118 1  
   119   26  119 1  
   120   26  120 1  
   121   26  121 1  
   122   27  122 1  
   123   28  123 1  
   124   31  124 1  
   125   31  125 1  
   126   33  126 1  
   127   34  127 1  
   128   35  128 1  
   129   36  129 1  
   130   38  130 1  
   131   39  131 1  
   132   40  132 1  
   133   43  133 1  
   134   43  134 1  
   135   46  135 1  
   136   46  136 1  
   137   47  137 1  
   138   48  138 1  
   139   51  139 1  
   140   51  140 1  
   141   52  141 1  
   142   52  142 1  
   143   54  143 1  
   144   54  144 1  
   145   54  145 1  
   146   55  146 1  
   147   56  147 1  
   148   59  148 1  
   149   59  149 1  
   150   60  150 1  
   151   61  151 1  
   152   62  152 1  
   153   65  153 1  
   154   66  154 1  
   155   66  155 1  
   156   67  156 1  
   157   67  157 1  
   158   67  158 1  
   159   68  159 1  
   160   68  160 1  
   161   68  161 1  
   162   69  162 1  
   163   70  163 1  
   164   73  164 1  
   165   73  165 1  
   166   74  166 1  
   167   74  167 1  
   168   75  168 1  
   169   75  169 1  
   170   76  170 1  
   171   78  171 1  
   172   78  172 1  
   173   79  173 1  
   174   79  174 1  
   175   80  175 1  
   176   81  176 1  
   177   84  177 1  
   178   84  178 1  
   179   85  179 1  
   180   85  180 1  
   181   86  181 1  
   182   86  182 1  
   183   87  183 1  
   184   89  184 1  
   185   89  185 1  
   186   90  186 1  
   187   90  187 1  
   188   91  188 1  
   189   92  189 1  
   190   95  190 1  
   191   95  191 1  
   192   96  192 1  
   193   97  193 1  
   194   97  194 1  
@<TRIPOS>SUBSTRUCTURE
     1 ILE         1

