3fnu_ligand
  -I-interpret- 

 86 90  0  0  0  0  0  0  0  0999 V2000
  -10.2780  -51.2260  -74.0490 O   0  0  0  0  0
   -9.8100  -50.5900  -74.9820 C   0  0  0  0  0
  -10.6480  -49.5050  -75.6120 C   0  0  0  0  0
  -10.9510  -49.8420  -76.9670 O   0  0  0  0  0
  -12.1010  -49.4320  -77.6170 C   0  0  0  0  0
  -12.2600  -48.1120  -78.0720 C   0  0  0  0  0
  -11.2010  -47.0630  -77.8660 C   0  0  0  0  0
  -13.4220  -47.7240  -78.7360 C   0  0  0  0  0
  -14.4320  -48.6510  -78.9570 C   0  0  0  0  0
  -14.2790  -49.9660  -78.5130 C   0  0  0  0  0
  -13.1190  -50.3620  -77.8460 C   0  0  0  0  0
  -12.9960  -51.7970  -77.3870 C   0  0  0  0  0
   -8.5860  -50.7910  -75.4880 N   0  0  0  0  0
   -7.6890  -51.8220  -74.9520 C   0  0  0  0  0
   -7.5060  -52.8560  -76.0630 C   0  0  0  0  0
   -8.6680  -53.8260  -76.1000 C   0  0  0  0  0
   -8.7340  -54.8810  -75.1810 C   0  0  0  0  0
   -9.8060  -55.7730  -75.2190 C   0  0  0  0  0
  -10.8070  -55.6080  -76.1780 C   0  0  0  0  0
  -10.7400  -54.5580  -77.0970 C   0  0  0  0  0
   -9.6700  -53.6650  -77.0590 C   0  0  0  0  0
   -6.3260  -51.2310  -74.5380 C   0  0  0  0  0
   -6.2370  -51.1770  -73.1030 O   0  0  0  0  0
   -5.9670  -49.8820  -75.1390 C   0  0  0  0  0
   -6.7460  -48.9360  -75.0650 O   0  0  0  0  0
   -4.7560  -49.8050  -75.7310 N   0  0  0  0  0
   -3.8070  -50.9200  -75.8190 C   0  0  0  0  0
   -2.2200  -50.1990  -75.9760 S   0  0  0  0  0
   -2.6900  -48.6150  -76.5610 C   0  0  0  0  0
   -1.9940  -47.5780  -75.6790 C   0  0  0  0  0
   -2.2110  -48.5270  -78.0110 C   0  0  0  0  0
   -4.2390  -48.5510  -76.3600 C   0  0  0  0  0
   -5.1130  -48.0910  -77.5420 C   0  0  0  0  0
   -5.9940  -48.8400  -77.9430 O   0  0  0  0  0
   -5.0240  -46.8850  -78.1420 N   0  0  0  0  0
   -4.0930  -45.7730  -77.9360 C   0  0  0  0  0
   -4.2370  -44.8150  -79.0500 C   0  0  0  0  0
   -4.2320  -45.1250  -80.4110 C   0  0  0  0  0
   -4.3830  -44.0690  -81.3160 C   0  0  0  0  0
   -4.5290  -42.7530  -80.8570 C   0  0  0  0  0
   -4.5340  -42.4610  -79.4890 C   0  0  0  0  0
   -4.3840  -43.5240  -78.6000 C   0  0  0  0  0
   -4.3670  -43.4430  -77.0910 C   0  0  0  0  0
   -4.3910  -44.9240  -76.6840 C   0  0  0  0  0
   -5.6530  -45.2570  -76.0960 O   0  0  0  0  0
  -10.0923  -48.5675  -75.5925 H   0  0  0  0  0
  -11.5779  -49.4016  -75.0529 H   0  0  0  0  0
  -11.0232  -46.9328  -76.7985 H   0  0  0  0  0
  -10.2787  -47.3790  -78.3534 H   0  0  0  0  0
  -11.5367  -46.1200  -78.2974 H   0  0  0  0  0
  -13.5378  -46.6964  -79.0807 H   0  0  0  0  0
  -15.3428  -48.3526  -79.4762 H   0  0  0  0  0
  -15.0739  -50.6907  -78.6892 H   0  0  0  0  0
  -12.1283  -52.2557  -77.8612 H   0  0  0  0  0
  -12.8752  -51.8216  -76.3040 H   0  0  0  0  0
  -13.8961  -52.3448  -77.6660 H   0  0  0  0  0
   -8.2690  -50.2125  -76.2660 H   0  0  0  0  0
   -8.1169  -52.2681  -74.0542 H   0  0  0  0  0
   -6.5901  -53.4153  -75.8721 H   0  0  0  0  0
   -7.4549  -52.3356  -77.0194 H   0  0  0  0  0
   -7.9479  -55.0050  -74.4362 H   0  0  0  0  0
   -9.8617  -56.5939  -74.5041 H   0  0  0  0  0
  -11.6462  -56.3029  -76.2099 H   0  0  0  0  0
  -11.5245  -54.4369  -77.8440 H   0  0  0  0  0
   -9.6159  -52.8447  -77.7748 H   0  0  0  0  0
   -5.5878  -51.9140  -74.9583 H   0  0  0  0  0
   -5.3874  -50.8087  -72.8498 H   0  0  0  0  0
   -4.0329  -51.5621  -76.6703 H   0  0  0  0  0
   -3.8643  -51.5555  -74.9353 H   0  0  0  0  0
   -2.3091  -47.7128  -74.6443 H   0  0  0  0  0
   -0.9141  -47.7076  -75.7511 H   0  0  0  0  0
   -2.2643  -46.5769  -76.0150 H   0  0  0  0  0
   -1.1283  -48.6488  -78.0427 H   0  0  0  0  0
   -2.6839  -49.3151  -78.5970 H   0  0  0  0  0
   -2.4807  -47.5546  -78.4230 H   0  0  0  0  0
   -4.3512  -47.7118  -75.6735 H   0  0  0  0  0
   -5.7261  -46.7195  -78.8632 H   0  0  0  0  0
   -3.1118  -46.2395  -77.8479 H   0  0  0  0  0
   -4.1147  -46.1523  -80.7560 H   0  0  0  0  0
   -4.3871  -44.2715  -82.3870 H   0  0  0  0  0
   -4.6405  -41.9433  -81.5781 H   0  0  0  0  0
   -4.6511  -41.4382  -79.1308 H   0  0  0  0  0
   -5.2009  -42.8722  -76.6825 H   0  0  0  0  0
   -3.5038  -42.9045  -76.6999 H   0  0  0  0  0
   -3.6303  -45.1285  -75.9306 H   0  0  0  0  0
   -5.7992  -44.7077  -75.3224 H   0  0  0  0  0
  1  2  2  0  0  0
  2  3  1  0  0  0
  2 13  1  0  0  0
  3  4  1  0  0  0
  4  5  1  0  0  0
  5  6  4  0  0  0
  5 11  4  0  0  0
  6  7  1  0  0  0
  6  8  4  0  0  0
  8  9  4  0  0  0
  9 10  4  0  0  0
 10 11  4  0  0  0
 11 12  1  0  0  0
 13 14  1  0  0  0
 14 15  1  0  0  0
 14 22  1  0  0  0
 15 16  1  0  0  0
 16 17  4  0  0  0
 16 21  4  0  0  0
 17 18  4  0  0  0
 18 19  4  0  0  0
 19 20  4  0  0  0
 20 21  4  0  0  0
 22 23  1  0  0  0
 22 24  1  0  0  0
 24 25  2  0  0  0
 24 26  1  0  0  0
 26 27  1  0  0  0
 26 32  1  0  0  0
 27 28  1  0  0  0
 28 29  1  0  0  0
 29 30  1  0  0  0
 29 31  1  0  0  0
 29 32  1  0  0  0
 32 33  1  0  0  0
 33 34  2  0  0  0
 33 35  1  0  0  0
 35 36  1  0  0  0
 36 37  1  0  0  0
 36 44  1  0  0  0
 37 38  4  0  0  0
 37 42  4  0  0  0
 38 39  4  0  0  0
 39 40  4  0  0  0
 40 41  4  0  0  0
 41 42  4  0  0  0
 42 43  1  0  0  0
 43 44  1  0  0  0
 44 45  1  0  0  0
  3 46  1  0  0  0
  3 47  1  0  0  0
  7 48  1  0  0  0
  7 49  1  0  0  0
  7 50  1  0  0  0
  8 51  1  0  0  0
  9 52  1  0  0  0
 10 53  1  0  0  0
 12 54  1  0  0  0
 12 55  1  0  0  0
 12 56  1  0  0  0
 13 57  1  0  0  0
 14 58  1  0  0  0
 15 59  1  0  0  0
 15 60  1  0  0  0
 17 61  1  0  0  0
 18 62  1  0  0  0
 19 63  1  0  0  0
 20 64  1  0  0  0
 21 65  1  0  0  0
 22 66  1  0  0  0
 23 67  1  0  0  0
 27 68  1  0  0  0
 27 69  1  0  0  0
 30 70  1  0  0  0
 30 71  1  0  0  0
 30 72  1  0  0  0
 31 73  1  0  0  0
 31 74  1  0  0  0
 31 75  1  0  0  0
 32 76  1  0  0  0
 35 77  1  0  0  0
 36 78  1  0  0  0
 38 79  1  0  0  0
 39 80  1  0  0  0
 40 81  1  0  0  0
 41 82  1  0  0  0
 43 83  1  0  0  0
 43 84  1  0  0  0
 44 85  1  0  0  0
 45 86  1  0  0  0
M  END
$$$$
