1c1v_ligand
  -I-interpret- 

 39 42  0  0  0  0  0  0  0  0999 V2000
   12.1640  -11.7770   22.9800 C   0  0  0  0  0
   12.5660  -10.6550   22.2230 C   0  0  0  0  0
   13.6090  -10.7610   21.2660 C   0  0  0  0  0
   14.1930  -12.0100   21.1190 C   0  0  0  0  0
   13.7970  -13.0620   21.8470 C   0  0  0  0  0
   12.8100  -13.0040   22.7690 C   0  0  0  0  0
   11.1770  -11.7600   23.9320 C   0  0  0  0  0
   15.3430  -13.7390   20.5970 C   0  0  0  0  0
   16.4040  -14.7280   19.9320 C   0  0  0  0  0
   10.4850  -12.8530   24.0440 N   0  0  0  0  0
   10.9930  -10.7000   24.6810 N   0  0  0  0  0
   15.1600  -12.4460   20.3430 N   0  0  0  0  0
   14.4980  -14.1150   21.5260 N   0  0  0  0  0
   16.6910  -13.0370   14.2030 C   0  0  0  0  0
   17.2910  -11.9340   14.8800 C   0  0  0  0  0
   17.4830  -11.9150   16.2530 C   0  0  0  0  0
   17.0610  -13.0210   16.9290 C   0  0  0  0  0
   16.4840  -14.1050   16.3550 C   0  0  0  0  0
   16.2780  -14.1630   14.9870 C   0  0  0  0  0
   16.5080  -12.9750   12.8200 C   0  0  0  0  0
   16.5740  -14.3440   18.4490 C   0  0  0  0  0
   16.1700  -14.0620   12.1630 N   0  0  0  0  0
   16.6580  -11.8150   12.2100 N   0  0  0  0  0
   17.1100  -13.1940   18.2100 N   0  0  0  0  0
   16.1850  -14.9370   17.3350 N   0  0  0  0  0
   12.0698   -9.6965   22.3752 H   0  0  0  0  0
   13.9344   -9.9039   20.6765 H   0  0  0  0  0
   12.5229  -13.8901   23.3352 H   0  0  0  0  0
   16.0519  -15.7566   20.0105 H   0  0  0  0  0
   17.3607  -14.6466   20.4480 H   0  0  0  0  0
    9.7486  -12.9207   24.7465 H   0  0  0  0  0
   10.2717  -10.7041   25.4022 H   0  0  0  0  0
   11.5711   -9.8711   24.5426 H   0  0  0  0  0
   17.6112  -11.0720   14.2947 H   0  0  0  0  0
   17.9433  -11.0675   16.7609 H   0  0  0  0  0
   15.8176  -15.0350   14.5226 H   0  0  0  0  0
   16.0434  -14.9418   12.6634 H   0  0  0  0  0
   16.5110  -11.7455   11.2030 H   0  0  0  0  0
   16.9210  -10.9875   12.7453 H   0  0  0  0  0
  7  1  1  0  0  0
  1  6  4  0  0  0
  1  2  4  0  0  0
  2  3  4  0  0  0
  3  4  4  0  0  0
  4 12  4  0  0  0
  4  5  4  0  0  0
  5 13  4  0  0  0
  6  5  4  0  0  0
 13  8  4  0  0  0
 12  8  4  0  0  0
  8  9  1  0  0  0
  9 21  1  0  0  0
 21 25  4  0  0  0
 21 24  4  0  0  0
 24 17  4  0  0  0
 17 18  4  0  0  0
 17 16  4  0  0  0
 16 15  4  0  0  0
 15 14  4  0  0  0
 14 20  1  0  0  0
 14 19  4  0  0  0
 18 19  4  0  0  0
 25 18  4  0  0  0
 20 22  2  0  0  0
 20 23  1  0  0  0
  7 11  1  0  0  0
  7 10  2  0  0  0
  2 26  1  0  0  0
  3 27  1  0  0  0
  6 28  1  0  0  0
  9 29  1  0  0  0
  9 30  1  0  0  0
 10 31  1  0  0  0
 11 32  1  0  0  0
 11 33  1  0  0  0
 15 34  1  0  0  0
 16 35  1  0  0  0
 19 36  1  0  0  0
 22 37  1  0  0  0
 23 38  1  0  0  0
 23 39  1  0  0  0
M  END
$$$$
