### 
### Created by X-TOOL on Mon Aug  2 16:10:18 2021
### 

@<TRIPOS>MOLECULE
6mny_ligand
   32    35     1     0     0
SMALL
GAST_HUCK


@<TRIPOS>ATOM
      1 C4          6.6290    8.9720    6.4560 C.ar      1 JVP        -0.6084
      2 C7          3.1430   10.1870    7.1070 C.2       1 JVP        -0.4636
      3 C6          4.4990   10.1220    6.6160 C.ar      1 JVP        -0.5697
      4 C9          0.9800   10.2700    7.4430 C.2       1 JVP        -0.2656
      5 C13         1.8640   11.3390   10.9160 C.3       1 JVP        -1.8151
      6 C21         1.5700   10.2320    5.0120 C.2       1 JVP        -0.0199
      7 C8          1.9080   10.2210    6.4230 C.2       1 JVP        -0.3566
      8 C18         0.7740    7.8230   12.7720 C.cat     1 JVP        -0.9995
      9 C26         8.2620    7.9130    4.0760 C.ar      1 JVP        -0.6131
     10 C1          5.0250   11.1760    5.8750 C.ar      1 JVP        -0.6399
     11 C2          6.3430   11.1350    5.4160 C.ar      1 JVP        -0.6084
     12 C3          7.1480   10.0370    5.7030 C.ar      1 JVP        -0.3911
     13 C5          5.3060    9.0170    6.9100 C.ar      1 JVP        -0.6399
     14 N10         1.6610   10.2750    8.6230 N.pl3     1 JVP        -0.7762
     15 N11         2.9870   10.2150    8.4340 N.2       1 JVP        -0.7124
     16 C12         1.1370   10.2940   10.0490 C.3       1 JVP        -0.9553
     17 C14         1.5800   11.1350   12.4030 C.3       1 JVP        -1.9694
     18 C15         2.1420    9.8050   12.8540 C.3       1 JVP        -1.5686
     19 N16         1.4170    8.7610   12.0980 N.pl3     1 JVP        -1.3177
     20 C17         1.2860    8.8660   10.6080 C.3       1 JVP        -1.3939
     21 N19        -0.1890    8.0810   13.6380 N.pl3     1 JVP        -0.5850
     22 N20        -0.3670   10.3170    7.4380 N.pl3     1 JVP        -0.3334
     23 O22         0.4390   10.5530    4.6670 O.2       1 JVP        -0.6034
     24 N23         2.5920    9.8710    4.1400 N.am      1 JVP        -0.1270
     25 O24         8.4430   10.1010    5.2040 O.3       1 JVP        -0.5976
     26 C25         9.0080    8.9480    4.6740 C.ar      1 JVP        -0.3522
     27 C27         8.9190    6.7790    3.5870 C.ar      1 JVP        -0.6376
     28 C28        10.3110    6.6890    3.6930 C.ar      1 JVP        -0.3810
     29 C29        11.0600    7.7230    4.2510 C.ar      1 JVP        -0.5796
     30 C30        10.4060    8.8570    4.7300 C.ar      1 JVP        -0.3082
     31 F31        11.1430    9.8330    5.2800 F         1 JVP        -0.3977
     32 F32        10.9470    5.6020    3.2490 F         1 JVP        -0.4129
@<TRIPOS>BOND
     1   12    1 ar 
     2    1   13 ar 
     3    3    2 1  
     4    2    7 1  
     5    2   15 2  
     6   10    3 ar 
     7   13    3 ar 
     8    7    4 2  
     9   14    4 1  
    10    4   22 1  
    11   16    5 1  
    12    5   17 1  
    13    7    6 1  
    14    6   23 2  
    15    6   24 am 
    16   19    8 ar 
    17    8   21 ar 
    18   26    9 ar 
    19    9   27 ar 
    20   11   10 ar 
    21   12   11 ar 
    22   25   12 1  
    23   15   14 1  
    24   14   16 1  
    25   16   20 1  
    26   17   18 1  
    27   19   18 1  
    28   20   19 1  
    29   25   26 1  
    30   26   30 ar 
    31   27   28 ar 
    32   28   29 ar 
    33   28   32 1  
    34   29   30 ar 
    35   30   31 1  
@<TRIPOS>SUBSTRUCTURE
     1 JVP         1

