6mny_ligand
  -I-interpret- 

 54 57  0  0  0  0  0  0  0  0999 V2000
    6.6290    8.9720    6.4560 C   0  0  0  0  0
    3.1430   10.1870    7.1070 C   0  0  0  0  0
    4.4990   10.1220    6.6160 C   0  0  0  0  0
    0.9800   10.2700    7.4430 C   0  0  0  0  0
    1.8640   11.3390   10.9160 C   0  0  0  0  0
    1.5700   10.2320    5.0120 C   0  0  0  0  0
    1.9080   10.2210    6.4230 C   0  0  0  0  0
    0.7740    7.8230   12.7720 C   0  0  0  0  0
    8.2620    7.9130    4.0760 C   0  0  0  0  0
    5.0250   11.1760    5.8750 C   0  0  0  0  0
    6.3430   11.1350    5.4160 C   0  0  0  0  0
    7.1480   10.0370    5.7030 C   0  0  0  0  0
    5.3060    9.0170    6.9100 C   0  0  0  0  0
    1.6610   10.2750    8.6230 N   0  0  0  0  0
    2.9870   10.2150    8.4340 N   0  0  0  0  0
    1.1370   10.2940   10.0490 C   0  0  0  0  0
    1.5800   11.1350   12.4030 C   0  0  0  0  0
    2.1420    9.8050   12.8540 C   0  0  0  0  0
    1.4170    8.7610   12.0980 N   0  0  0  0  0
    1.2860    8.8660   10.6080 C   0  0  0  0  0
   -0.1890    8.0810   13.6380 N   0  0  0  0  0
   -0.3670   10.3170    7.4380 N   0  0  0  0  0
    0.4390   10.5530    4.6670 O   0  0  0  0  0
    2.5920    9.8710    4.1400 N   0  0  0  0  0
    8.4430   10.1010    5.2040 O   0  0  0  0  0
    9.0080    8.9480    4.6740 C   0  0  0  0  0
    8.9190    6.7790    3.5870 C   0  0  0  0  0
   10.3110    6.6890    3.6930 C   0  0  0  0  0
   11.0600    7.7230    4.2510 C   0  0  0  0  0
   10.4060    8.8570    4.7300 C   0  0  0  0  0
   11.1430    9.8330    5.2800 F   0  0  0  0  0
   10.9470    5.6020    3.2490 F   0  0  0  0  0
    7.2559    8.1107    6.6869 H   0  0  0  0  0
    1.5085   12.3292   10.6310 H   0  0  0  0  0
    2.9367   11.2339   10.7535 H   0  0  0  0  0
    1.0531    6.7828   12.6043 H   0  0  0  0  0
    7.1782    7.9956    3.9948 H   0  0  0  0  0
    4.4021   12.0419    5.6508 H   0  0  0  0  0
    6.7419   11.9644    4.8320 H   0  0  0  0  0
    4.9031    8.1895    7.4940 H   0  0  0  0  0
    0.0890   10.5932   10.0637 H   0  0  0  0  0
    0.5028   11.1461   12.5691 H   0  0  0  0  0
    2.0496   11.9367   12.9730 H   0  0  0  0  0
    2.0096    9.6706   13.9276 H   0  0  0  0  0
    3.2137    9.7505   12.6626 H   0  0  0  0  0
    2.2085    8.4650   10.1881 H   0  0  0  0  0
    0.3737    8.3331   10.3402 H   0  0  0  0  0
   -0.4710    9.0452   13.8149 H   0  0  0  0  0
   -0.8739   10.3203    6.5529 H   0  0  0  0  0
   -0.8795   10.3492    8.3193 H   0  0  0  0  0
    2.4244    9.8614    3.1339 H   0  0  0  0  0
    3.5090    9.6160    4.5067 H   0  0  0  0  0
    8.3503    5.9711    3.1266 H   0  0  0  0  0
   12.1455    7.6460    4.3123 H   0  0  0  0  0
 12  1  4  0  0  0
  1 13  4  0  0  0
  3  2  1  0  0  0
  2  7  4  0  0  0
  2 15  4  0  0  0
 10  3  4  0  0  0
 13  3  4  0  0  0
  7  4  4  0  0  0
 14  4  4  0  0  0
  4 22  1  0  0  0
 16  5  1  0  0  0
  5 17  1  0  0  0
  7  6  1  0  0  0
  6 23  2  0  0  0
  6 24  1  0  0  0
 19  8  1  0  0  0
  8 21  2  0  0  0
 26  9  4  0  0  0
  9 27  4  0  0  0
 11 10  4  0  0  0
 12 11  4  0  0  0
 25 12  1  0  0  0
 15 14  4  0  0  0
 14 16  1  0  0  0
 16 20  1  0  0  0
 17 18  1  0  0  0
 19 18  1  0  0  0
 20 19  1  0  0  0
 25 26  1  0  0  0
 26 30  4  0  0  0
 27 28  4  0  0  0
 28 29  4  0  0  0
 28 32  1  0  0  0
 29 30  4  0  0  0
 30 31  1  0  0  0
  1 33  1  0  0  0
  5 34  1  0  0  0
  5 35  1  0  0  0
  8 36  1  0  0  0
  9 37  1  0  0  0
 10 38  1  0  0  0
 11 39  1  0  0  0
 13 40  1  0  0  0
 16 41  1  0  0  0
 17 42  1  0  0  0
 17 43  1  0  0  0
 18 44  1  0  0  0
 18 45  1  0  0  0
 20 46  1  0  0  0
 20 47  1  0  0  0
 21 48  1  0  0  0
 22 49  1  0  0  0
 22 50  1  0  0  0
 24 51  1  0  0  0
 24 52  1  0  0  0
 27 53  1  0  0  0
 29 54  1  0  0  0
M  END
$$$$
