3px9_ligand
  -I-interpret- 

 30 32  0  0  0  0  0  0  0  0999 V2000
    2.3470    3.3540    8.2080 C   0  0  0  0  0
    3.4230    3.0270    8.9430 N   0  0  0  0  0
   -1.0910    3.0780    8.3460 O   0  0  0  0  0
    0.0260    3.3730    7.9340 C   0  0  0  0  0
    1.1140    3.0350    8.6890 N   0  0  0  0  0
    2.0710    6.4430    2.8140 O   0  0  0  0  0
    0.2010    4.0560    6.6400 C   0  0  0  0  0
    2.5670    3.9670    7.0280 N   0  0  0  0  0
    0.4960    9.8460    2.3590 O   0  0  0  0  0
    1.5660    4.3670    6.2240 C   0  0  0  0  0
    1.7750    5.0150    5.0570 N   0  0  0  0  0
    0.6870    5.3760    4.3060 C   0  0  0  0  0
   -0.8200    4.4160    5.8540 N   0  0  0  0  0
   -0.6080    5.0930    4.7240 C   0  0  0  0  0
   -0.0900    6.7980    2.4580 N   0  0  0  0  0
    0.9080    6.2020    3.1090 C   0  0  0  0  0
    0.1450    7.5230    1.1800 C   0  0  0  0  0
   -0.0420    9.0450    1.3420 C   0  0  0  0  0
   -0.7670    9.8910    0.4730 C   0  0  0  0  0
   -0.6740   11.1850    0.9860 C   0  0  0  0  0
    0.1010   11.1670    2.1490 C   0  0  0  0  0
    3.3042    2.5516    9.8376 H   0  0  0  0  0
    3.5292    4.1338    6.7337 H   0  0  0  0  0
   -1.4555    5.4262    4.1250 H   0  0  0  0  0
   -1.0336    6.7565    2.8432 H   0  0  0  0  0
   -0.5768    7.1655    0.4457 H   0  0  0  0  0
    1.1711    7.3357    0.8637 H   0  0  0  0  0
   -1.2992    9.5892   -0.4291 H   0  0  0  0  0
   -1.1337   12.0712    0.5484 H   0  0  0  0  0
    0.3499   12.0243    2.7744 H   0  0  0  0  0
  1  2  2  0  0  0
  1  5  4  0  0  0
  8  1  1  0  0  0
  4  3  2  0  0  0
  4  5  1  0  0  0
  7  4  1  0  0  0
 16  6  2  0  0  0
 10  7  4  0  0  0
 13  7  4  0  0  0
 10  8  1  0  0  0
 18  9  4  0  0  0
  9 21  4  0  0  0
 11 10  4  0  0  0
 12 11  4  0  0  0
 12 14  4  0  0  0
 16 12  1  0  0  0
 14 13  4  0  0  0
 15 16  1  0  0  0
 17 15  1  0  0  0
 17 18  1  0  0  0
 18 19  4  0  0  0
 19 20  4  0  0  0
 20 21  4  0  0  0
  2 22  1  0  0  0
  8 23  1  0  0  0
 14 24  1  0  0  0
 15 25  1  0  0  0
 17 26  1  0  0  0
 17 27  1  0  0  0
 19 28  1  0  0  0
 20 29  1  0  0  0
 21 30  1  0  0  0
M  END
$$$$
