5opv_ligand
  -I-interpret- 

 40 43  0  0  0  0  0  0  0  0999 V2000
  -18.5160   -2.3200   19.6820 N   0  0  0  0  0
  -19.4060   -4.3630   18.7200 C   0  0  0  0  0
  -19.5410   -3.1940   19.5000 C   0  0  0  0  0
  -16.2190   -1.7300   19.2070 N   0  0  0  0  0
  -18.1260   -4.5760   18.2200 C   0  0  0  0  0
  -14.4110   -5.2640   16.6230 N   0  0  0  0  0
  -15.2230   -2.3840   18.5560 C   0  0  0  0  0
  -20.6730   -2.7570   20.1070 N   0  0  0  0  0
  -15.7430   -3.5620   18.0450 C   0  0  0  0  0
  -23.3690   -4.9680   20.0760 N   0  0  0  0  0
  -17.0850   -3.6460   18.3960 C   0  0  0  0  0
  -22.1250   -4.6590   19.6990 N   0  0  0  0  0
  -17.3080   -2.4980   19.1590 C   0  0  0  0  0
  -15.0030   -4.5100   17.2600 C   0  0  0  0  0
  -18.0290   -5.8020   17.3920 C   0  0  0  0  0
  -18.5270   -7.0520   17.7590 C   0  0  0  0  0
  -18.4430   -8.1040   16.8470 C   0  0  0  0  0
  -17.9350   -7.9370   15.5670 C   0  0  0  0  0
  -17.5090   -6.6980   15.1700 C   0  0  0  0  0
  -17.5550   -5.6490   16.0920 C   0  0  0  0  0
  -21.8380   -3.4740   20.2150 C   0  0  0  0  0
  -22.9170   -3.0190   20.9520 C   0  0  0  0  0
  -23.8900   -3.9940   20.8620 C   0  0  0  0  0
  -24.0960   -6.1770   19.7010 C   0  0  0  0  0
  -16.9110   -6.4240   13.7590 C   0  0  0  0  0
  -20.2361   -5.0422   18.5258 H   0  0  0  0  0
  -14.1933   -2.0417   18.4533 H   0  0  0  0  0
  -20.6568   -1.8223   20.5150 H   0  0  0  0  0
  -18.9741   -7.2042   18.7414 H   0  0  0  0  0
  -18.7887   -9.0921   17.1508 H   0  0  0  0  0
  -17.8756   -8.7842   14.8838 H   0  0  0  0  0
  -17.2036   -4.6658   15.7790 H   0  0  0  0  0
  -22.9852   -2.0770   21.4961 H   0  0  0  0  0
  -24.8755   -3.9830   21.3276 H   0  0  0  0  0
  -24.1921   -6.2199   18.6161 H   0  0  0  0  0
  -23.5498   -7.0519   20.0535 H   0  0  0  0  0
  -25.0871   -6.1588   20.1544 H   0  0  0  0  0
  -16.0202   -7.0362   13.6182 H   0  0  0  0  0
  -17.6498   -6.6747   12.9978 H   0  0  0  0  0
  -16.6458   -5.3700   13.6766 H   0  0  0  0  0
  3  1  4  0  0  0
  1 13  4  0  0  0
  3  2  4  0  0  0
  2  5  4  0  0  0
  8  3  1  0  0  0
  4  7  4  0  0  0
 13  4  4  0  0  0
  5 11  4  0  0  0
  5 15  1  0  0  0
 14  6  3  0  0  0
  9  7  4  0  0  0
 21  8  1  0  0  0
 11  9  4  0  0  0
  9 14  1  0  0  0
 12 10  4  0  0  0
 10 23  4  0  0  0
 10 24  1  0  0  0
 13 11  4  0  0  0
 12 21  4  0  0  0
 15 16  4  0  0  0
 15 20  4  0  0  0
 16 17  4  0  0  0
 17 18  4  0  0  0
 18 19  4  0  0  0
 19 20  4  0  0  0
 19 25  1  0  0  0
 21 22  4  0  0  0
 22 23  4  0  0  0
  2 26  1  0  0  0
  7 27  1  0  0  0
  8 28  1  0  0  0
 16 29  1  0  0  0
 17 30  1  0  0  0
 18 31  1  0  0  0
 20 32  1  0  0  0
 22 33  1  0  0  0
 23 34  1  0  0  0
 24 35  1  0  0  0
 24 36  1  0  0  0
 24 37  1  0  0  0
 25 38  1  0  0  0
 25 39  1  0  0  0
 25 40  1  0  0  0
M  END
$$$$
