### 
### Created by X-TOOL on Mon Sep 10 21:12:55 2018
### 

@<TRIPOS>MOLECULE
2cfd_ligand
   94   104     1     0     0
SMALL
GAST_HUCK


@<TRIPOS>ATOM
      1 CM2        24.9820   -1.6560    7.8910 C.3       1 R4A         0.0149
      2 NNG        23.6090   -1.1440    7.9090 N.pl3     1 R4A        -0.3171
      3 CM1        22.6790   -1.7110    8.8710 C.3       1 R4A         0.0149
      4 CNE        23.1880   -0.1120    7.0340 C.ar      1 R4A         0.0303
      5 CNF        24.0960    0.5650    6.2150 C.ar      1 R4A        -0.0169
      6 CNA        23.6590    1.5960    5.3720 C.ar      1 R4A         0.0794
      7 CNB        22.3250    1.9530    5.3400 C.ar      1 R4A        -0.0464
      8 CNC        21.4190    1.2870    6.1390 C.ar      1 R4A        -0.0821
      9 CND        21.8430    0.2700    6.9910 C.ar      1 R4A        -0.0554
     10 OL5        24.5050    2.2830    4.5400 O.3       1 R4A        -0.3214
     11 CL4        25.8680    2.5380    4.8500 C.3       1 R4A         0.0703
     12 CL3        26.0410    4.0460    4.9480 C.3       1 R4A        -0.0229
     13 CL2        27.0500    4.5430    3.9340 C.3       1 R4A        -0.0380
     14 CL1        26.4630    5.5730    2.9900 C.3       1 R4A        -0.0086
     15 CAL        26.7240    6.9900    3.4500 C.ar      1 R4A        -0.0115
     16 CAK        26.8720    8.0530    2.4290 C.ar      1 R4A         0.0167
     17 CAJ        26.7870    7.9060    1.0310 C.ar      1 R4A        -0.0444
     18 CAB        27.1320    9.3780    2.9730 C.ar      1 R4A         0.0646
     19 CAC        27.2930   10.4970    2.0600 C.ar      1 R4A         0.0694
     20 CAH        27.1930   10.2850    0.6160 C.ar      1 R4A         0.0099
     21 CAI        26.9410    8.9930    0.1480 C.ar      1 R4A        -0.0448
     22 CAG        27.3660   11.4130   -0.1820 C.ar      1 R4A        -0.0339
     23 CAF        27.6120   12.6470    0.4410 C.ar      1 R4A        -0.0318
     24 CAE        27.7020   12.7940    1.8390 C.ar      1 R4A         0.0117
     25 NAD        27.5480   11.7330    2.6500 N.ar      1 R4A        -0.2906
     26 NAA        27.2350    9.6610    4.3340 N.ar      1 R4A        -0.3013
     27 CAN        27.1000    8.6690    5.2250 C.ar      1 R4A         0.0023
     28 CAM        26.8430    7.3540    4.8080 C.ar      1 R4A        -0.0302
     29 NCL        28.1620   13.6370    4.9220 N.ar      1 R4A        -0.2878
     30 CCK        27.3010   14.6590    5.0860 C.ar      1 R4A         0.0122
     31 CCJ        27.7920   15.9630    5.2070 C.ar      1 R4A        -0.0328
     32 CCI        29.1680   16.2070    5.1480 C.ar      1 R4A        -0.0403
     33 CCG        29.5400   13.8600    4.8610 C.ar      1 R4A         0.0702
     34 CCH        30.0550   15.1510    4.9760 C.ar      1 R4A        -0.0236
     35 CCF        30.3340   12.6060    4.6630 C.ar      1 R4A         0.0702
     36 CCE        31.8030   12.5760    4.5850 C.ar      1 R4A        -0.0236
     37 CCD        32.4190   11.4130    4.4440 C.ar      1 R4A        -0.0403
     38 CCC        31.5670   10.2420    4.3540 C.ar      1 R4A        -0.0328
     39 CCB        30.2360   10.3860    4.4140 C.ar      1 R4A         0.0122
     40 NCA        29.6680   11.5170    4.5620 N.ar      1 R4A        -0.2878
     41 NBL        27.5630   11.4290    6.7720 N.ar      1 R4A        -0.2878
     42 CBK        28.6200   11.1510    7.5510 C.ar      1 R4A         0.0122
     43 CBJ        28.4480   11.0040    8.9330 C.ar      1 R4A        -0.0328
     44 CBI        27.1820   11.1450    9.4950 C.ar      1 R4A        -0.0403
     45 CBG        26.2790   11.5720    7.3120 C.ar      1 R4A         0.0702
     46 CBH        26.0870   11.4310    8.6820 C.ar      1 R4A        -0.0236
     47 CBF        25.2160   11.8780    6.3000 C.ar      1 R4A         0.0702
     48 CBE        23.7850   12.0820    6.6470 C.ar      1 R4A        -0.0236
     49 CBD        22.9420   12.3680    5.6570 C.ar      1 R4A        -0.0403
     50 CBC        23.4920   12.4460    4.3080 C.ar      1 R4A        -0.0328
     51 CBB        24.8000   12.2270    4.1100 C.ar      1 R4A         0.0122
     52 NBA        25.6010   11.9680    5.0770 N.ar      1 R4A        -0.2878
     53 RU         27.6120   11.6590    4.7190 Ru        1 R4A         6.0000
     54 H1         25.0879   -2.4481    8.6469 H         1 R4A         0.0477
     55 H2         25.6815   -0.8377    8.1169 H         1 R4A         0.0477
     56 H3         25.2072   -2.0666    6.8957 H         1 R4A         0.0477
     57 H4         21.6974   -1.2269    8.7612 H         1 R4A         0.0477
     58 H5         23.0582   -1.5440    9.8900 H         1 R4A         0.0477
     59 H6         22.5774   -2.7912    8.6900 H         1 R4A         0.0477
     60 H7         25.1447    0.2910    6.2319 H         1 R4A         0.0433
     61 H8         21.9914    2.7534    4.6895 H         1 R4A         0.0434
     62 H9         20.3698    1.5570    6.1036 H         1 R4A         0.0556
     63 H10        21.1228   -0.2310    7.6277 H         1 R4A         0.0425
     64 H11        26.5150    2.1367    4.0561 H         1 R4A         0.0614
     65 H12        26.1294    2.0671    5.8091 H         1 R4A         0.0614
     66 H13        26.3902    4.3032    5.9589 H         1 R4A         0.0293
     67 H14        25.0724    4.5323    4.7599 H         1 R4A         0.0293
     68 H15        27.4083    3.6868    3.3436 H         1 R4A         0.0293
     69 H16        27.8955    4.9977    4.4710 H         1 R4A         0.0293
     70 H17        25.3760    5.4163    2.9274 H         1 R4A         0.0469
     71 H18        26.9111    5.4363    1.9948 H         1 R4A         0.0469
     72 H19        26.5963    6.9214    0.6196 H         1 R4A         0.0664
     73 H20        26.8621    8.8229   -0.9197 H         1 R4A         0.0640
     74 H21        27.3119   11.3399   -1.2622 H         1 R4A         0.0760
     75 H22        27.7383   13.5255   -0.1814 H         1 R4A         0.0707
     76 H23        27.8972   13.7716    2.2648 H         1 R4A         0.0849
     77 H24        27.1907    8.8856    6.2833 H         1 R4A         0.0827
     78 H25        26.7309    6.5838    5.5625 H         1 R4A         0.0632
     79 H26        26.2339   14.4723    5.1240 H         1 R4A         0.0832
     80 H27        27.1031   16.7882    5.3471 H         1 R4A         0.0719
     81 H28        29.5428   17.2203    5.2365 H         1 R4A         0.0739
     82 H29        31.1237   15.3269    4.9322 H         1 R4A         0.0731
     83 H30        32.3741   13.4956    4.6423 H         1 R4A         0.0731
     84 H31        33.4995   11.3395    4.3983 H         1 R4A         0.0739
     85 H32        32.0044    9.2568    4.2389 H         1 R4A         0.0719
     86 H33        29.6151    9.5012    4.3330 H         1 R4A         0.0832
     87 H34        29.6047   11.0405    7.1114 H         1 R4A         0.0832
     88 H35        29.3000   10.7806    9.5648 H         1 R4A         0.0719
     89 H36        27.0482   11.0323   10.5648 H         1 R4A         0.0739
     90 H37        25.0982   11.5421    9.1120 H         1 R4A         0.0731
     91 H38        23.4396   12.0007    7.6713 H         1 R4A         0.0731
     92 H39        21.8879   12.5364    5.8459 H         1 R4A         0.0739
     93 H40        22.8461   12.6800    3.4694 H         1 R4A         0.0719
     94 H41        25.1925   12.2703    3.1005 H         1 R4A         0.0832
@<TRIPOS>BOND
     1    2    1 1  
     2    2    3 1  
     3    4    2 1  
     4    5    4 ar 
     5    4    9 ar 
     6    6    5 ar 
     7    6    7 ar 
     8   10    6 1  
     9    7    8 ar 
    10    8    9 ar 
    11   11   10 1  
    12   12   11 1  
    13   13   12 1  
    14   14   13 1  
    15   15   14 1  
    16   16   15 ar 
    17   28   15 ar 
    18   16   17 ar 
    19   18   16 ar 
    20   17   21 ar 
    21   18   19 ar 
    22   26   18 ar 
    23   19   20 ar 
    24   25   19 ar 
    25   20   21 ar 
    26   20   22 ar 
    27   23   22 ar 
    28   24   23 ar 
    29   25   24 ar 
    30   26   27 ar 
    31   27   28 ar 
    32   29   30 ar 
    33   29   33 ar 
    34   30   31 ar 
    35   31   32 ar 
    36   34   32 ar 
    37   33   34 ar 
    38   35   33 1  
    39   35   36 ar 
    40   40   35 ar 
    41   36   37 ar 
    42   38   37 ar 
    43   39   38 ar 
    44   40   39 ar 
    45   41   42 ar 
    46   41   45 ar 
    47   42   43 ar 
    48   43   44 ar 
    49   46   44 ar 
    50   45   46 ar 
    51   45   47 1  
    52   47   48 ar 
    53   47   52 ar 
    54   48   49 ar 
    55   49   50 ar 
    56   51   50 ar 
    57   52   51 ar 
    58   53   25 1  
    59   53   26 1  
    60   53   29 1  
    61   53   40 1  
    62   53   41 1  
    63   53   52 1  
    64    1   54 1  
    65    1   55 1  
    66    1   56 1  
    67    3   57 1  
    68    3   58 1  
    69    3   59 1  
    70    5   60 1  
    71    7   61 1  
    72    8   62 1  
    73    9   63 1  
    74   11   64 1  
    75   11   65 1  
    76   12   66 1  
    77   12   67 1  
    78   13   68 1  
    79   13   69 1  
    80   14   70 1  
    81   14   71 1  
    82   17   72 1  
    83   21   73 1  
    84   22   74 1  
    85   23   75 1  
    86   24   76 1  
    87   27   77 1  
    88   28   78 1  
    89   30   79 1  
    90   31   80 1  
    91   32   81 1  
    92   34   82 1  
    93   36   83 1  
    94   37   84 1  
    95   38   85 1  
    96   39   86 1  
    97   42   87 1  
    98   43   88 1  
    99   44   89 1  
   100   46   90 1  
   101   48   91 1  
   102   49   92 1  
   103   50   93 1  
   104   51   94 1  
@<TRIPOS>SUBSTRUCTURE
     1 R4A         1

