2cfd_ligand
  -I-interpret- 

 94104  0  0  0  0  0  0  0  0999 V2000
   24.9820   -1.6560    7.8910 C   0  0  0  0  0
   23.6090   -1.1440    7.9090 N   0  0  0  0  0
   22.6790   -1.7110    8.8710 C   0  0  0  0  0
   23.1880   -0.1120    7.0340 C   0  0  0  0  0
   24.0960    0.5650    6.2150 C   0  0  0  0  0
   23.6590    1.5960    5.3720 C   0  0  0  0  0
   22.3250    1.9530    5.3400 C   0  0  0  0  0
   21.4190    1.2870    6.1390 C   0  0  0  0  0
   21.8430    0.2700    6.9910 C   0  0  0  0  0
   24.5050    2.2830    4.5400 O   0  0  0  0  0
   25.8680    2.5380    4.8500 C   0  0  0  0  0
   26.0410    4.0460    4.9480 C   0  0  0  0  0
   27.0500    4.5430    3.9340 C   0  0  0  0  0
   26.4630    5.5730    2.9900 C   0  0  0  0  0
   26.7240    6.9900    3.4500 C   0  0  0  0  0
   26.8720    8.0530    2.4290 C   0  0  0  0  0
   26.7870    7.9060    1.0310 C   0  0  0  0  0
   27.1320    9.3780    2.9730 C   0  0  0  0  0
   27.2930   10.4970    2.0600 C   0  0  0  0  0
   27.1930   10.2850    0.6160 C   0  0  0  0  0
   26.9410    8.9930    0.1480 C   0  0  0  0  0
   27.3660   11.4130   -0.1820 C   0  0  0  0  0
   27.6120   12.6470    0.4410 C   0  0  0  0  0
   27.7020   12.7940    1.8390 C   0  0  0  0  0
   27.5480   11.7330    2.6500 N   0  0  0  0  0
   27.2350    9.6610    4.3340 N   0  0  0  0  0
   27.1000    8.6690    5.2250 C   0  0  0  0  0
   26.8430    7.3540    4.8080 C   0  0  0  0  0
   28.1620   13.6370    4.9220 N   0  0  0  0  0
   27.3010   14.6590    5.0860 C   0  0  0  0  0
   27.7920   15.9630    5.2070 C   0  0  0  0  0
   29.1680   16.2070    5.1480 C   0  0  0  0  0
   29.5400   13.8600    4.8610 C   0  0  0  0  0
   30.0550   15.1510    4.9760 C   0  0  0  0  0
   30.3340   12.6060    4.6630 C   0  0  0  0  0
   31.8030   12.5760    4.5850 C   0  0  0  0  0
   32.4190   11.4130    4.4440 C   0  0  0  0  0
   31.5670   10.2420    4.3540 C   0  0  0  0  0
   30.2360   10.3860    4.4140 C   0  0  0  0  0
   29.6680   11.5170    4.5620 N   0  0  0  0  0
   27.5630   11.4290    6.7720 N   0  0  0  0  0
   28.6200   11.1510    7.5510 C   0  0  0  0  0
   28.4480   11.0040    8.9330 C   0  0  0  0  0
   27.1820   11.1450    9.4950 C   0  0  0  0  0
   26.2790   11.5720    7.3120 C   0  0  0  0  0
   26.0870   11.4310    8.6820 C   0  0  0  0  0
   25.2160   11.8780    6.3000 C   0  0  0  0  0
   23.7850   12.0820    6.6470 C   0  0  0  0  0
   22.9420   12.3680    5.6570 C   0  0  0  0  0
   23.4920   12.4460    4.3080 C   0  0  0  0  0
   24.8000   12.2270    4.1100 C   0  0  0  0  0
   25.6010   11.9680    5.0770 N   0  0  0  0  0
   27.6120   11.6590    4.7190 Ru  0  0  0  0  0
   25.2039   -2.0625    6.9043 H   0  0  0  0  0
   25.6741   -0.8442    8.1150 H   0  0  0  0  0
   25.0856   -2.4407    8.6404 H   0  0  0  0  0
   22.3277   -0.9262    9.5409 H   0  0  0  0  0
   21.8308   -2.1454    8.3419 H   0  0  0  0  0
   23.1834   -2.4852    9.4492 H   0  0  0  0  0
   25.1505    0.2895    6.2320 H   0  0  0  0  0
   21.9896    2.7578    4.6859 H   0  0  0  0  0
   20.3640    1.5585    6.1034 H   0  0  0  0  0
   21.1188   -0.2337    7.6313 H   0  0  0  0  0
   26.5176    2.1296    4.0758 H   0  0  0  0  0
   26.1401    2.0614    5.7918 H   0  0  0  0  0
   26.3988    4.2929    5.9476 H   0  0  0  0  0
   25.0809    4.5220    4.7485 H   0  0  0  0  0
   27.3785    3.6902    3.3399 H   0  0  0  0  0
   27.8700    5.0127    4.4772 H   0  0  0  0  0
   25.3840    5.4227    2.9550 H   0  0  0  0  0
   26.9317    5.4429    2.0146 H   0  0  0  0  0
   26.5952    6.9159    0.6173 H   0  0  0  0  0
   26.8617    8.8219   -0.9256 H   0  0  0  0  0
   27.3116   11.3395   -1.2682 H   0  0  0  0  0
   27.7389   13.5303   -0.1849 H   0  0  0  0  0
   27.8983   13.7770    2.2671 H   0  0  0  0  0
   27.1912    8.8868    6.2891 H   0  0  0  0  0
   26.7303    6.5795    5.5667 H   0  0  0  0  0
   26.2280   14.4713    5.1242 H   0  0  0  0  0
   27.0993   16.7927    5.3479 H   0  0  0  0  0
   29.5448   17.2259    5.2370 H   0  0  0  0  0
   31.1296   15.3279    4.9319 H   0  0  0  0  0
   32.3772   13.5007    4.6427 H   0  0  0  0  0
   33.5055   11.3391    4.3981 H   0  0  0  0  0
   32.0068    9.2514    4.2383 H   0  0  0  0  0
   29.6116    9.4963    4.3326 H   0  0  0  0  0
   29.6101   11.0399    7.1089 H   0  0  0  0  0
   29.3047   10.7793    9.5683 H   0  0  0  0  0
   27.0474   11.0317   10.5707 H   0  0  0  0  0
   25.0927   11.5428    9.1144 H   0  0  0  0  0
   23.4377   12.0002    7.6769 H   0  0  0  0  0
   21.8821   12.5373    5.8470 H   0  0  0  0  0
   22.8426   12.6813    3.4648 H   0  0  0  0  0
   25.1947   12.2705    3.0949 H   0  0  0  0  0
  2  1  1  0  0  0
  2  3  1  0  0  0
  4  2  1  0  0  0
  5  4  4  0  0  0
  4  9  4  0  0  0
  6  5  4  0  0  0
  6  7  4  0  0  0
 10  6  1  0  0  0
  7  8  4  0  0  0
  8  9  4  0  0  0
 11 10  1  0  0  0
 12 11  1  0  0  0
 13 12  1  0  0  0
 14 13  1  0  0  0
 15 14  1  0  0  0
 16 15  4  0  0  0
 28 15  4  0  0  0
 16 17  4  0  0  0
 18 16  4  0  0  0
 17 21  4  0  0  0
 18 19  4  0  0  0
 26 18  4  0  0  0
 19 20  4  0  0  0
 25 19  4  0  0  0
 20 21  4  0  0  0
 20 22  4  0  0  0
 23 22  4  0  0  0
 24 23  4  0  0  0
 25 24  4  0  0  0
 26 27  4  0  0  0
 27 28  4  0  0  0
 29 30  4  0  0  0
 29 33  4  0  0  0
 30 31  4  0  0  0
 31 32  4  0  0  0
 34 32  4  0  0  0
 33 34  4  0  0  0
 35 33  1  0  0  0
 35 36  4  0  0  0
 40 35  4  0  0  0
 36 37  4  0  0  0
 38 37  4  0  0  0
 39 38  4  0  0  0
 40 39  4  0  0  0
 41 42  4  0  0  0
 41 45  4  0  0  0
 42 43  4  0  0  0
 43 44  4  0  0  0
 46 44  4  0  0  0
 45 46  4  0  0  0
 45 47  1  0  0  0
 47 48  4  0  0  0
 47 52  4  0  0  0
 48 49  4  0  0  0
 49 50  4  0  0  0
 51 50  4  0  0  0
 52 51  4  0  0  0
 53 25  1  0  0  0
 53 26  1  0  0  0
 53 29  1  0  0  0
 53 40  1  0  0  0
 53 41  1  0  0  0
 53 52  1  0  0  0
  1 54  1  0  0  0
  1 55  1  0  0  0
  1 56  1  0  0  0
  3 57  1  0  0  0
  3 58  1  0  0  0
  3 59  1  0  0  0
  5 60  1  0  0  0
  7 61  1  0  0  0
  8 62  1  0  0  0
  9 63  1  0  0  0
 11 64  1  0  0  0
 11 65  1  0  0  0
 12 66  1  0  0  0
 12 67  1  0  0  0
 13 68  1  0  0  0
 13 69  1  0  0  0
 14 70  1  0  0  0
 14 71  1  0  0  0
 17 72  1  0  0  0
 21 73  1  0  0  0
 22 74  1  0  0  0
 23 75  1  0  0  0
 24 76  1  0  0  0
 27 77  1  0  0  0
 28 78  1  0  0  0
 30 79  1  0  0  0
 31 80  1  0  0  0
 32 81  1  0  0  0
 34 82  1  0  0  0
 36 83  1  0  0  0
 37 84  1  0  0  0
 38 85  1  0  0  0
 39 86  1  0  0  0
 42 87  1  0  0  0
 43 88  1  0  0  0
 44 89  1  0  0  0
 46 90  1  0  0  0
 48 91  1  0  0  0
 49 92  1  0  0  0
 50 93  1  0  0  0
 51 94  1  0  0  0
M  END
$$$$
