4oc0_ligand
  -I-interpret- 

 50 51  0  0  0  0  0  0  0  0999 V2000
   15.2970   43.6630   41.3870 C   0  0  0  0  0
   14.7500   45.0580   41.1550 C   0  0  0  0  0
   16.1670   44.8730   41.1560 C   0  0  0  0  0
   17.0990   44.7220   40.0650 C   0  0  0  0  0
   16.8080   43.8550   39.1950 O   0  0  0  0  0
   18.1020   45.4510   40.0410 O   0  0  0  0  0
   16.9500   45.2590   42.3690 N   0  0  0  0  0
   18.0740   44.5970   42.7600 C   0  0  0  0  0
   18.4240   43.5100   42.2710 O   0  0  0  0  0
   18.7200   45.1500   43.8000 N   0  0  0  0  0
   19.9710   44.7070   44.3710 C   0  0  0  0  0
   20.1150   45.4360   45.7360 C   0  0  0  0  0
   20.6640   44.7280   46.6370 O   0  0  0  0  0
   19.6710   46.6550   45.8230 O   0  0  0  0  0
   20.9990   45.3150   43.3350 C   0  0  0  0  0
   22.4930   45.3110   43.6720 C   0  0  0  0  0
   23.2890   45.9600   42.4910 C   0  0  0  0  0
   23.4960   47.4960   42.6500 C   0  0  0  0  0
   23.6700   47.9020   44.0750 N   0  0  0  0  0
   23.2190   49.0610   44.5920 C   0  0  0  0  0
   22.5780   49.8730   43.9100 O   0  0  0  0  0
   23.3590   49.2830   46.1420 C   0  0  0  0  0
   23.3680   50.5890   46.6860 C   0  0  0  0  0
   23.4660   50.8090   48.0840 C   0  0  0  0  0
   23.5350   49.7620   49.0180 C   0  0  0  0  0
   23.6630   50.1400   51.1870 I   0  0  0  0  0
   23.5130   48.4640   48.4710 C   0  0  0  0  0
   23.4220   48.2220   47.0680 C   0  0  0  0  0
   15.1680   42.6356   41.0467 H   0  0  0  0  0
   15.1904   42.8131   42.0611 H   0  0  0  0  0
   14.0251   45.7260   41.6202 H   0  0  0  0  0
   14.0008   45.5339   40.5223 H   0  0  0  0  0
   15.9854   43.4236   39.4374 H   0  0  0  0  0
   16.6295   46.0506   42.9268 H   0  0  0  0  0
   18.2830   45.9652   44.2301 H   0  0  0  0  0
   20.0847   43.6347   44.5301 H   0  0  0  0  0
   19.3081   46.9234   44.9757 H   0  0  0  0  0
   20.7323   46.3695   43.2643 H   0  0  0  0  0
   20.9111   44.6825   42.4516 H   0  0  0  0  0
   22.8315   44.2857   43.8213 H   0  0  0  0  0
   22.6635   45.8815   44.5850 H   0  0  0  0  0
   22.7119   45.8000   41.5803 H   0  0  0  0  0
   24.2757   45.4974   42.4680 H   0  0  0  0  0
   22.6094   47.9977   42.2623 H   0  0  0  0  0
   24.4003   47.7723   42.1078 H   0  0  0  0  0
   24.1619   47.2609   44.6975 H   0  0  0  0  0
   23.2980   51.4457   46.0157 H   0  0  0  0  0
   23.4888   51.8356   48.4495 H   0  0  0  0  0
   23.5677   47.6105   49.1467 H   0  0  0  0  0
   23.4007   47.1947   46.7043 H   0  0  0  0  0
  1  2  1  0  0  0
  1  3  1  0  0  0
  2  3  1  0  0  0
  3  4  1  0  0  0
  3  7  1  0  0  0
  4  5  1  0  0  0
  4  6  2  0  0  0
  7  8  1  0  0  0
  8  9  2  0  0  0
  8 10  1  0  0  0
 10 11  1  0  0  0
 11 12  1  0  0  0
 11 15  1  0  0  0
 12 13  2  0  0  0
 12 14  1  0  0  0
 15 16  1  0  0  0
 16 17  1  0  0  0
 17 18  1  0  0  0
 18 19  1  0  0  0
 19 20  1  0  0  0
 20 21  2  0  0  0
 20 22  1  0  0  0
 22 23  4  0  0  0
 22 28  4  0  0  0
 23 24  4  0  0  0
 24 25  4  0  0  0
 25 26  1  0  0  0
 25 27  4  0  0  0
 27 28  4  0  0  0
  1 29  1  0  0  0
  1 30  1  0  0  0
  2 31  1  0  0  0
  2 32  1  0  0  0
  5 33  1  0  0  0
  7 34  1  0  0  0
 10 35  1  0  0  0
 11 36  1  0  0  0
 14 37  1  0  0  0
 15 38  1  0  0  0
 15 39  1  0  0  0
 16 40  1  0  0  0
 16 41  1  0  0  0
 17 42  1  0  0  0
 17 43  1  0  0  0
 18 44  1  0  0  0
 18 45  1  0  0  0
 19 46  1  0  0  0
 23 47  1  0  0  0
 24 48  1  0  0  0
 27 49  1  0  0  0
 28 50  1  0  0  0
M  END
$$$$
