6e23_ligand
  -I-interpret- 

 56 59  0  0  0  0  0  0  0  0999 V2000
    2.9490    4.1840   11.2340 N   0  0  0  0  0
    2.2020    2.6290    4.8410 N   0  0  0  0  0
    0.0480    4.3190   11.5890 C   0  0  0  0  0
   -1.3050    4.0290   11.5440 C   0  0  0  0  0
   -1.8420    3.0530   12.3660 C   0  0  0  0  0
   -1.0270    2.3630   13.2410 C   0  0  0  0  0
    0.3220    2.6570   13.2850 C   0  0  0  0  0
    4.2500    4.8170    8.7950 C   0  0  0  0  0
    6.7330    6.6230    7.1360 C   0  0  0  0  0
    6.5370    8.8660    6.7720 C   0  0  0  0  0
    4.5680    7.6520    7.1370 C   0  0  0  0  0
    3.4480    2.2120    5.4900 C   0  0  0  0  0
    1.0790    1.9110    4.6930 C   0  0  0  0  0
   -1.1190    2.2220    3.4610 C   0  0  0  0  0
    1.9970    3.8680    4.2500 C   0  0  0  0  0
    3.1520    3.1920   10.3710 C   0  0  0  0  0
    4.6880    5.1940    7.5270 C   0  0  0  0  0
    5.3410    6.5050    7.2840 C   0  0  0  0  0
    7.6570    5.4490    7.2710 C   0  0  0  0  0
    5.1620    8.8680    6.8880 C   0  0  0  0  0
    4.4060    4.3380    6.4590 C   0  0  0  0  0
    3.7620    3.1170    6.6520 C   0  0  0  0  0
    2.3460    3.9430   12.5390 C   0  0  0  0  0
    0.7680    3.8880    3.7170 C   0  0  0  0  0
    3.3590    2.7580    7.9290 C   0  0  0  0  0
    0.8730    3.6300   12.4640 C   0  0  0  0  0
    3.6220    3.5930    9.0070 C   0  0  0  0  0
    7.1730   10.0340    6.5310 F   0  0  0  0  0
    7.3040    7.8150    6.9000 N   0  0  0  0  0
    0.1880    2.6670    3.9440 N   0  0  0  0  0
    0.8630    0.6880    5.1300 N   0  0  0  0  0
    2.9220    2.0160   10.6450 O   0  0  0  0  0
   -2.3260    4.8870   10.4440 Cl  0  0  0  0  0
   -3.5340    2.6940   12.3110 Cl  0  0  0  0  0
    3.2210    5.1329   10.9771 H   0  0  0  0  0
    0.4636    5.0877   10.9375 H   0  0  0  0  0
   -1.4440    1.5936   13.8909 H   0  0  0  0  0
    0.9654    2.1144   13.9776 H   0  0  0  0  0
    4.4020    5.4931    9.6364 H   0  0  0  0  0
    3.4831    7.5871    7.2197 H   0  0  0  0  0
    4.2614    2.2675    4.7665 H   0  0  0  0  0
    3.3341    1.1913    5.8552 H   0  0  0  0  0
   -0.9894    1.3562    2.8116 H   0  0  0  0  0
   -1.7455    1.9501    4.3105 H   0  0  0  0  0
   -1.5926    3.0293    2.9023 H   0  0  0  0  0
    2.7154    4.6873    4.2239 H   0  0  0  0  0
    7.5566    5.0221    8.2689 H   0  0  0  0  0
    7.3987    4.6973    6.5251 H   0  0  0  0  0
    8.6848    5.7776    7.1168 H   0  0  0  0  0
    4.5782    9.7830    6.7878 H   0  0  0  0  0
    4.6967    4.6323    5.4506 H   0  0  0  0  0
    2.4608    4.8523   13.1289 H   0  0  0  0  0
    2.8451    3.0797   12.9791 H   0  0  0  0  0
    0.3098    4.7278    3.1946 H   0  0  0  0  0
    2.8335    1.8163    8.0876 H   0  0  0  0  0
   -0.0198    0.2209    4.9229 H   0  0  0  0  0
  1 16  1  0  0  0
 23  1  1  0  0  0
 12  2  1  0  0  0
  2 13  1  0  0  0
  2 15  1  0  0  0
  3  4  4  0  0  0
 26  3  4  0  0  0
  4  5  4  0  0  0
  4 33  1  0  0  0
  6  5  4  0  0  0
  5 34  1  0  0  0
  7  6  4  0  0  0
 26  7  4  0  0  0
  8 17  4  0  0  0
 27  8  4  0  0  0
 18  9  4  0  0  0
  9 19  1  0  0  0
  9 29  4  0  0  0
 20 10  4  0  0  0
 10 28  1  0  0  0
 29 10  4  0  0  0
 18 11  4  0  0  0
 11 20  4  0  0  0
 22 12  1  0  0  0
 13 30  1  0  0  0
 13 31  2  0  0  0
 30 14  1  0  0  0
 15 24  2  0  0  0
 16 27  1  0  0  0
 16 32  2  0  0  0
 17 18  1  0  0  0
 17 21  4  0  0  0
 21 22  4  0  0  0
 22 25  4  0  0  0
 23 26  1  0  0  0
 24 30  1  0  0  0
 25 27  4  0  0  0
  1 35  1  0  0  0
  3 36  1  0  0  0
  6 37  1  0  0  0
  7 38  1  0  0  0
  8 39  1  0  0  0
 11 40  1  0  0  0
 12 41  1  0  0  0
 12 42  1  0  0  0
 14 43  1  0  0  0
 14 44  1  0  0  0
 14 45  1  0  0  0
 15 46  1  0  0  0
 19 47  1  0  0  0
 19 48  1  0  0  0
 19 49  1  0  0  0
 20 50  1  0  0  0
 21 51  1  0  0  0
 23 52  1  0  0  0
 23 53  1  0  0  0
 24 54  1  0  0  0
 25 55  1  0  0  0
 31 56  1  0  0  0
M  END
$$$$
