4ere_ligand
  -I-interpret- 

 66 68  0  0  0  0  0  0  0  0999 V2000
    6.8170   24.5610   22.6940 Cl  0  0  0  0  0
    8.3220   25.0140   21.8320 C   0  0  0  0  0
    8.1530   25.8890   20.7410 C   0  0  0  0  0
    9.2580   26.2910   19.9530 C   0  0  0  0  0
    9.6140   24.5190   22.1620 C   0  0  0  0  0
   10.7110   24.9150   21.3830 C   0  0  0  0  0
   10.5380   25.7980   20.2830 C   0  0  0  0  0
   11.7560   26.2730   19.4860 C   0  0  0  0  0
   11.6390   25.9590   18.0710 N   0  0  0  0  0
   11.2760   24.5800   17.7880 C   0  0  0  0  0
   12.8120   24.1200   17.4490 C   0  0  0  0  0
   13.7910   24.8510   17.4610 O   0  0  0  0  0
   11.9220   26.8180   17.0340 C   0  0  0  0  0
   11.7930   26.4570   15.8880 O   0  0  0  0  0
   12.4820   28.2390   17.3520 C   0  0  0  0  0
   11.3600   29.2640   17.1030 C   0  0  0  0  0
   11.9110   30.6820   16.8340 C   0  0  0  0  0
   11.8950   31.5220   17.6840 O   0  0  0  0  0
   12.3700   30.8950   15.5950 O   0  0  0  0  0
   13.0990   28.2900   18.7360 C   0  0  0  0  0
   12.1450   27.7790   19.7870 C   0  0  0  0  0
   12.5630   28.0520   21.2290 C   0  0  0  0  0
   13.9190   27.9980   21.6120 C   0  0  0  0  0
   14.2970   28.1450   22.9560 C   0  0  0  0  0
   13.3160   28.3540   23.9370 C   0  0  0  0  0
   11.9770   28.4190   23.5650 C   0  0  0  0  0
   10.7840   28.6540   24.7730 Cl  0  0  0  0  0
   11.5900   28.2790   22.2400 C   0  0  0  0  0
   10.2490   24.3790   16.5810 C   0  0  0  0  0
    8.7940   24.7600   16.9540 C   0  0  0  0  0
   12.8170   22.7390   17.1720 O   0  0  0  0  0
   13.9950   21.9680   16.6390 C   0  0  0  0  0
   13.4470   20.5590   16.5200 C   0  0  0  0  0
   15.0750   22.0720   17.7190 C   0  0  0  0  0
   14.2290   22.5700   15.2440 C   0  0  0  0  0
    7.1574   26.2617   20.5003 H   0  0  0  0  0
    9.1228   26.9673   19.1089 H   0  0  0  0  0
    9.7493   23.8431   23.0064 H   0  0  0  0  0
   11.7064   24.5417   21.6237 H   0  0  0  0  0
   12.6106   25.6976   19.8419 H   0  0  0  0  0
   10.7299   24.0359   18.5586 H   0  0  0  0  0
   13.3075   28.4957   16.6881 H   0  0  0  0  0
   10.7367   29.3070   17.9962 H   0  0  0  0  0
   10.8003   28.9460   16.2234 H   0  0  0  0  0
   12.2888   30.0878   15.0817 H   0  0  0  0  0
   13.3431   29.3269   18.9668 H   0  0  0  0  0
   13.9877   27.6589   18.7409 H   0  0  0  0  0
   11.2358   28.3748   19.7068 H   0  0  0  0  0
   14.6852   27.8397   20.8531 H   0  0  0  0  0
   15.3492   28.0969   23.2365 H   0  0  0  0  0
   13.6009   28.4647   24.9833 H   0  0  0  0  0
   10.5351   28.3434   21.9732 H   0  0  0  0  0
   10.2568   23.3231   16.3108 H   0  0  0  0  0
   10.5639   25.0298   15.7653 H   0  0  0  0  0
    8.4577   24.1370   17.7828 H   0  0  0  0  0
    8.7585   25.8089   17.2485 H   0  0  0  0  0
    8.1459   24.6012   16.0922 H   0  0  0  0  0
   13.1253   20.2115   17.5018 H   0  0  0  0  0
   12.5980   20.5572   15.8364 H   0  0  0  0  0
   14.2252   19.8990   16.1366 H   0  0  0  0  0
   15.3253   23.1204   17.8810 H   0  0  0  0  0
   14.7020   21.6386   18.6470 H   0  0  0  0  0
   15.9640   21.5307   17.3953 H   0  0  0  0  0
   13.3357   22.4309   14.6351 H   0  0  0  0  0
   14.4425   23.6345   15.3402 H   0  0  0  0  0
   15.0742   22.0699   14.7710 H   0  0  0  0  0
  1  2  1  0  0  0
  2  3  4  0  0  0
  2  5  4  0  0  0
  3  4  4  0  0  0
  4  7  4  0  0  0
  5  6  4  0  0  0
  6  7  4  0  0  0
  7  8  1  0  0  0
  8  9  1  0  0  0
  8 21  1  0  0  0
  9 10  1  0  0  0
  9 13  1  0  0  0
 10 11  1  0  0  0
 10 29  1  0  0  0
 11 12  2  0  0  0
 11 31  1  0  0  0
 13 14  2  0  0  0
 13 15  1  0  0  0
 15 16  1  0  0  0
 15 20  1  0  0  0
 16 17  1  0  0  0
 17 18  2  0  0  0
 17 19  1  0  0  0
 20 21  1  0  0  0
 21 22  1  0  0  0
 22 23  4  0  0  0
 22 28  4  0  0  0
 23 24  4  0  0  0
 24 25  4  0  0  0
 25 26  4  0  0  0
 26 27  1  0  0  0
 26 28  4  0  0  0
 29 30  1  0  0  0
 31 32  1  0  0  0
 32 33  1  0  0  0
 32 34  1  0  0  0
 32 35  1  0  0  0
  3 36  1  0  0  0
  4 37  1  0  0  0
  5 38  1  0  0  0
  6 39  1  0  0  0
  8 40  1  0  0  0
 10 41  1  0  0  0
 15 42  1  0  0  0
 16 43  1  0  0  0
 16 44  1  0  0  0
 19 45  1  0  0  0
 20 46  1  0  0  0
 20 47  1  0  0  0
 21 48  1  0  0  0
 23 49  1  0  0  0
 24 50  1  0  0  0
 25 51  1  0  0  0
 28 52  1  0  0  0
 29 53  1  0  0  0
 29 54  1  0  0  0
 30 55  1  0  0  0
 30 56  1  0  0  0
 30 57  1  0  0  0
 33 58  1  0  0  0
 33 59  1  0  0  0
 33 60  1  0  0  0
 34 61  1  0  0  0
 34 62  1  0  0  0
 34 63  1  0  0  0
 35 64  1  0  0  0
 35 65  1  0  0  0
 35 66  1  0  0  0
M  END
$$$$
