6n9h_ligand
  -I-interpret- 

 29 31  0  0  0  0  0  0  0  0999 V2000
   24.9850  -14.4310  -34.3200 N   0  3  0  0  0
   25.0010  -14.4290  -32.8430 C   0  0  0  0  0
   24.0490  -13.3110  -32.3190 C   0  0  0  0  0
   24.0130  -13.3150  -30.7710 C   0  0  0  0  0
   24.4990  -15.8090  -32.3200 C   0  0  0  0  0
   24.5130  -15.8340  -30.7720 C   0  0  0  0  0
   23.5390  -14.7230  -30.2640 C   0  0  0  0  0
   25.9660  -15.5410  -30.2520 C   0  0  0  0  0
   26.4420  -14.1700  -32.3040 C   0  0  0  0  0
   26.4440  -14.1410  -30.7550 C   0  0  0  0  0
   25.4580  -13.0280  -30.2530 C   0  0  0  0  0
   24.0345  -14.6019  -34.6483 H   0  0  0  0  0
   25.3072  -13.5262  -34.6635 H   0  0  0  0  0
   25.6023  -15.1663  -34.6645 H   0  0  0  0  0
   23.0436  -13.4942  -32.6981 H   0  0  0  0  0
   24.4142  -12.3434  -32.6633 H   0  0  0  0  0
   23.3226  -12.5563  -30.4026 H   0  0  0  0  0
   25.1575  -16.5926  -32.6946 H   0  0  0  0  0
   23.4796  -15.9727  -32.6695 H   0  0  0  0  0
   24.2001  -16.8113  -30.4045 H   0  0  0  0  0
   22.5384  -14.9225  -30.6475 H   0  0  0  0  0
   23.5310  -14.7261  -29.1740 H   0  0  0  0  0
   26.6427  -16.3072  -30.6303 H   0  0  0  0  0
   25.9641  -15.5481  -29.1620 H   0  0  0  0  0
   26.7922  -13.2075  -32.6769 H   0  0  0  0  0
   27.0971  -14.9719  -32.6443 H   0  0  0  0  0
   27.4412  -13.9219  -30.3733 H   0  0  0  0  0
   25.4519  -13.0216  -29.1630 H   0  0  0  0  0
   25.7879  -12.0610  -30.6327 H   0  0  0  0  0
  1  2  1  0  0  0
  2  3  1  0  0  0
  2  5  1  0  0  0
  2  9  1  0  0  0
  3  4  1  0  0  0
  4  7  1  0  0  0
  4 11  1  0  0  0
  5  6  1  0  0  0
  6  7  1  0  0  0
  6  8  1  0  0  0
  8 10  1  0  0  0
  9 10  1  0  0  0
 10 11  1  0  0  0
  1 12  1  0  0  0
  1 13  1  0  0  0
  1 14  1  0  0  0
  3 15  1  0  0  0
  3 16  1  0  0  0
  4 17  1  0  0  0
  5 18  1  0  0  0
  5 19  1  0  0  0
  6 20  1  0  0  0
  7 21  1  0  0  0
  7 22  1  0  0  0
  8 23  1  0  0  0
  8 24  1  0  0  0
  9 25  1  0  0  0
  9 26  1  0  0  0
 10 27  1  0  0  0
 11 28  1  0  0  0
 11 29  1  0  0  0
M  END
$$$$
