### 
### Created by X-TOOL on Mon Sep 10 21:13:04 2018
### 

@<TRIPOS>MOLECULE
3oe0_ligand
  297   304     1     0     0
SMALL
GAST_HUCK


@<TRIPOS>ATOM
      1 N          59.4750   30.3240    8.4230 N.4       1 ARG         0.2379
      2 CA         58.0180   30.4560    8.6730 C.3       1 ARG         0.0651
      3 C          57.2900   30.0510    7.4180 C.2       1 ARG         0.2267
      4 O          57.5170   30.6360    6.3650 O.2       1 ARG        -0.3907
      5 CB         57.6540   31.8920    9.0490 C.3       1 ARG         0.0110
      6 CG         57.4620   32.1170   10.5580 C.3       1 ARG        -0.0125
      7 CD         56.9870   33.5390   10.8840 C.3       1 ARG         0.0629
      8 NE         57.5970   34.5380    9.9850 N.pl3     1 ARG        -0.2723
      9 CZ         57.9640   35.7760   10.3310 C.cat     1 ARG         0.2882
     10 NH1        58.5070   36.5780    9.4190 N.pl3     1 ARG        -0.2849
     11 NH2        57.8010   36.2240   11.5730 N.pl3     1 ARG        -0.2849
     12 N          56.4020   29.0650    7.5320 N.am      1 ARG        -0.2610
     13 CA         55.7560   28.4620    6.3620 C.3       1 ARG         0.1312
     14 C          54.5520   29.2370    5.8490 C.2       1 ARG         0.2040
     15 O          54.1180   28.9900    4.7270 O.2       1 ARG        -0.3944
     16 CB         55.3510   27.0200    6.6660 C.3       1 ARG        -0.0092
     17 CG         56.5450   26.0830    6.6960 C.3       1 ARG        -0.0156
     18 CD         56.1560   24.6230    6.8710 C.3       1 ARG         0.0627
     19 NE         55.8200   23.9210    5.6340 N.pl3     1 ARG        -0.2723
     20 CZ         56.6780   23.6510    4.6500 C.cat     1 ARG         0.2882
     21 NH1        57.9530   24.0410    4.7040 N.pl3     1 ARG        -0.2849
     22 NH2        56.2500   22.9960    3.5800 N.pl3     1 ARG        -0.2849
     23 N          53.8030   30.2350    6.3330 N.am      1 ALN        -0.2618
     24 CA         52.5750   30.6520    5.6750 C.3       1 ALN         0.1411
     25 C          52.6130   32.1420    5.5460 C.2       1 ALN         0.2062
     26 O          51.7360   32.8200    6.1170 O.2       1 ALN        -0.3942
     27 CB         51.3520   30.2180    6.4780 C.3       1 ALN         0.0237
     28 CG1        51.2570   28.7230    6.6950 C.ar      1 ALN        -0.0279
     29 CD1        51.4820   28.1970    7.9600 C.ar      1 ALN        -0.0605
     30 CE1        51.4060   26.8320    8.2320 C.ar      1 ALN        -0.0707
     31 CD2        50.9100   27.7810    5.6130 C.ar      1 ALN        -0.0119
     32 CE2        50.8420   26.3420    5.9500 C.ar      1 ALN        -0.0243
     33 CZ1        51.0860   25.9140    7.2420 C.ar      1 ALN        -0.0631
     34 CG2        50.6530   28.1910    4.3100 C.ar      1 ALN        -0.0548
     35 CD3        50.3450   27.2470    3.3410 C.ar      1 ALN        -0.0625
     36 CE3        50.2830   25.8920    3.6670 C.ar      1 ALN        -0.0629
     37 CZ2        50.5280   25.4340    4.9620 C.ar      1 ALN        -0.0569
     38 N          53.5940   32.7330    4.8670 N.am      1 CYS        -0.2627
     39 CA         53.5970   34.1930    4.7530 C.3       1 CYS         0.1406
     40 C          52.8830   34.6360    3.4950 C.2       1 CYS         0.2048
     41 O          52.6490   33.8380    2.6010 O.2       1 CYS        -0.3943
     42 CB         55.0250   34.7380    4.7640 C.3       1 CYS         0.0443
     43 SG         55.9210   34.2760    6.2510 S.3       1 CYS        -0.0882
     44 N          52.5290   35.9130    3.4320 N.am      1 TYR        -0.2621
     45 CA         51.7860   36.4200    2.2960 C.3       1 TYR         0.1390
     46 C          51.6430   37.9320    2.3010 C.2       1 TYR         0.2057
     47 O          51.9920   38.5860    3.2780 O.2       1 TYR        -0.3942
     48 CB         50.4040   35.7690    2.2490 C.3       1 TYR         0.0163
     49 CG         49.5110   36.0490    3.4370 C.ar      1 TYR        -0.0493
     50 CD1        49.7260   35.4380    4.6630 C.ar      1 TYR        -0.0685
     51 CD2        48.4180   36.8970    3.3090 C.ar      1 TYR        -0.0685
     52 CE1        48.8870   35.6850    5.7380 C.ar      1 TYR        -0.0398
     53 CE2        47.5740   37.1490    4.3710 C.ar      1 TYR        -0.0398
     54 CZ         47.8040   36.5410    5.5820 C.ar      1 TYR         0.0805
     55 OH         46.9420   36.8070    6.6290 O.3       1 TYR        -0.3376
     56 N          51.1220   38.4600    1.1930 N.am      1 GLN        -0.2634
     57 CA         50.9150   39.8940    1.0030 C.3       1 GLN         0.1330
     58 C          49.4510   40.2620    1.2340 C.2       1 GLN         0.2040
     59 O          48.5780   39.7690    0.5250 O.2       1 GLN        -0.3944
     60 CB         51.3170   40.2890   -0.4270 C.3       1 GLN         0.0045
     61 CG         51.3090   41.7900   -0.7180 C.3       1 GLN         0.0412
     62 CD         52.3940   42.5330    0.0360 C.2       1 GLN         0.1737
     63 OE1        53.5800   42.2460   -0.1200 O.2       1 GLN        -0.3973
     64 NE2        51.9930   43.4980    0.8550 N.am      1 GLN        -0.3009
     65 N          49.1920   41.1210    2.2220 N.am      1 LYS        -0.2637
     66 CA         47.8570   41.6960    2.4380 C.3       1 LYS         0.1312
     67 C          47.9080   43.2050    2.1980 C.2       1 LYS         0.2064
     68 O          48.3460   43.9540    3.0770 O.2       1 LYS        -0.3942
     69 CB         47.3520   41.4000    3.8550 C.3       1 LYS        -0.0122
     70 CG         45.8800   41.7920    4.1250 C.3       1 LYS        -0.0440
     71 CD         44.8790   40.8690    3.4200 C.3       1 LYS        -0.0124
     72 CE         43.4540   41.1010    3.9420 C.3       1 LYS        -0.0354
     73 NZ         42.3910   40.4320    3.1110 N.4       1 LYS         0.2185
     74 N          47.4800   43.6590    0.9990 N.am      1 DPR        -0.2498
     75 CA         47.6190   45.0760    0.6500 C.3       1 DPR         0.1340
     76 CB         47.1270   45.1260   -0.8030 C.3       1 DPR        -0.0104
     77 CG         47.3130   43.7420   -1.3180 C.3       1 DPR        -0.0281
     78 CD         46.9820   42.8740   -0.1480 C.3       1 DPR         0.0369
     79 C          49.0800   45.5270    0.7170 C.2       1 DPR         0.2066
     80 O          49.9320   44.9130    0.0720 O.2       1 DPR        -0.3942
     81 N          49.3740   46.5810    1.4980 N.am      1 PRO        -0.2498
     82 CA         50.7620   47.0040    1.6480 C.3       1 PRO         0.1338
     83 C          51.5360   46.1580    2.6620 C.2       1 PRO         0.2042
     84 O          52.7580   46.3040    2.7590 O.2       1 PRO        -0.3944
     85 CB         50.6280   48.4410    2.1530 C.3       1 PRO        -0.0104
     86 CG         49.3900   48.4120    2.9680 C.3       1 PRO        -0.0281
     87 CD         48.4620   47.4220    2.2950 C.3       1 PRO         0.0369
     88 N          50.8340   45.2740    3.3830 N.am      1 TYR        -0.2621
     89 CA         51.4190   44.4880    4.4790 C.3       1 TYR         0.1390
     90 C          51.9860   43.1350    4.0470 C.2       1 TYR         0.2057
     91 O          51.4860   42.5090    3.1190 O.2       1 TYR        -0.3942
     92 CB         50.3690   44.2690    5.5760 C.3       1 TYR         0.0163
     93 CG         49.8110   45.5680    6.1040 C.ar      1 TYR        -0.0493
     94 CD1        50.4660   46.2660    7.1210 C.ar      1 TYR        -0.0685
     95 CD2        48.6500   46.1220    5.5690 C.ar      1 TYR        -0.0685
     96 CE1        49.9750   47.4640    7.5970 C.ar      1 TYR        -0.0398
     97 CE2        48.1520   47.3250    6.0410 C.ar      1 TYR        -0.0398
     98 CZ         48.8200   47.9880    7.0520 C.ar      1 TYR         0.0805
     99 OH         48.3370   49.1800    7.5240 O.3       1 TYR        -0.3376
    100 N          53.0510   42.7110    4.7190 N.am      1 ARG        -0.2636
    101 CA         53.4920   41.3220    4.6850 C.3       1 ARG         0.1311
    102 C          52.9320   40.6550    5.9280 C.2       1 ARG         0.2039
    103 O          52.8910   41.2760    6.9920 O.2       1 ARG        -0.3944
    104 CB         55.0190   41.1930    4.6900 C.3       1 ARG        -0.0092
    105 CG         55.6610   41.4030    3.3340 C.3       1 ARG        -0.0156
    106 CD         57.0360   40.7440    3.2380 C.3       1 ARG         0.0627
    107 NE         57.4800   40.6450    1.8410 N.pl3     1 ARG        -0.2723
    108 CZ         58.4330   39.8230    1.3940 C.cat     1 ARG         0.2882
    109 NH1        58.7390   39.8180    0.1010 N.pl3     1 ARG        -0.2849
    110 NH2        59.0800   39.0010    2.2180 N.pl3     1 ARG        -0.2849
    111 C1         52.3740   37.4070    7.2000 C.2       1 CIR         0.2039
    112 O1         52.7100   36.9470    6.0910 O.2       1 CIR        -0.3944
    113 C2         51.7200   38.7460    7.1800 C.3       1 CIR         0.1310
    114 N2         52.2740   39.5020    6.0770 N.am      1 CIR        -0.2637
    115 C3         50.2400   38.5590    6.9340 C.3       1 CIR        -0.0106
    116 C4         49.4810   39.8500    7.1640 C.3       1 CIR        -0.0288
    117 C5         48.5320   39.7010    8.3450 C.3       1 CIR         0.0314
    118 N6         47.2000   40.1890    8.0390 N.am      1 CIR        -0.2733
    119 C7         46.2080   40.0450    8.9170 C.2       1 CIR         0.2548
    120 O7         46.3950   39.4720    9.9880 O.2       1 CIR        -0.4010
    121 N8         45.0080   40.5530    8.6070 N.am      1 CIR        -0.2870
    122 N          52.4720   36.7710    8.3610 N.am      1 CYS        -0.2629
    123 CA         52.4550   35.3150    8.2720 C.3       1 CYS         0.1406
    124 C          51.4170   34.7220    9.2250 C.2       1 CYS         0.2047
    125 O          51.0640   35.3270   10.2370 O.2       1 CYS        -0.3944
    126 CB         53.8530   34.7440    8.5540 C.3       1 CYS         0.0443
    127 SG         55.2370   35.6010    7.6660 S.3       1 CYS        -0.0882
    128 N          50.9300   33.5320    8.8880 N.am      1 ARG        -0.2637
    129 CA         49.8700   32.8860    9.6520 C.3       1 ARG         0.1311
    130 C          50.3630   32.2410   10.9500 C.2       1 ARG         0.2037
    131 O          49.5520   31.8060   11.7850 O.2       1 ARG        -0.3944
    132 CB         49.1610   31.8500    8.7880 C.3       1 ARG        -0.0092
    133 CG         47.9970   32.3900    8.0150 C.3       1 ARG        -0.0156
    134 CD         46.8600   32.7900    8.9360 C.3       1 ARG         0.0627
    135 NE         46.7000   34.2370    9.0290 N.pl3     1 ARG        -0.2723
    136 CZ         45.8280   34.8400    9.8290 C.cat     1 ARG         0.2882
    137 NH1        45.7490   36.1640    9.8450 N.pl3     1 ARG        -0.2849
    138 NH2        45.0420   34.1290   10.6260 N.pl3     1 ARG        -0.2849
    139 N          51.6760   32.1760   11.1340 N.am      1 GLY        -0.2664
    140 CA         52.2220   31.7430   12.4180 C.3       1 GLY         0.1203
    141 C          52.3900   30.2400   12.4620 C.2       1 GLY         0.2027
    142 O          51.4190   29.4940   12.3290 O.2       1 GLY        -0.3945
    143 N          53.6280   29.7940   12.6970 N.am      1 DPR        -0.2558
    144 CA         54.0890   28.5130   12.2040 C.3       1 DPR         0.0972
    145 CB         55.1280   28.0840   13.2480 C.3       1 DPR        -0.0159
    146 CG         55.2090   29.2100   14.2400 C.3       1 DPR        -0.0288
    147 CD         54.6100   30.3970   13.6080 C.3       1 DPR         0.0362
    148 C          54.7350   28.7350   10.8330 C.2       1 DPR         0.0603
    149 O          55.5060   27.9150   10.3210 O.co2     1 DPR        -0.5666
    150 OXT        54.5020   29.7720   10.1970 O.co2     1 DPR        -0.5666
    151 H1         59.9835   30.5905    9.2515 H         1 ARG         0.2015
    152 H2         59.7405   30.9245    7.6582 H         1 ARG         0.2015
    153 H3         59.6906   29.3674    8.1896 H         1 ARG         0.2015
    154 H4         57.7286   29.7875    9.4972 H         1 ARG         0.1098
    155 H5         56.7159   32.1555    8.5385 H         1 ARG         0.0347
    156 H6         58.4597   32.5550    8.7008 H         1 ARG         0.0347
    157 H7         58.4216   31.9405   11.0660 H         1 ARG         0.0302
    158 H8         56.7136   31.4013   10.9290 H         1 ARG         0.0302
    159 H9         57.2628   33.7779   11.9217 H         1 ARG         0.0689
    160 H10        55.8932   33.5830   10.7759 H         1 ARG         0.0689
    161 H11        57.7534   34.2570    9.0065 H         1 ARG         0.2642
    162 H12        58.7924   37.5333    9.6777 H         1 ARG         0.2615
    163 H13        58.6420   36.2437    8.4542 H         1 ARG         0.2615
    164 H14        57.3820   35.6142   12.2896 H         1 ARG         0.2615
    165 H15        58.0938   37.1806   11.8180 H         1 ARG         0.2615
    166 H16        56.1687   28.7256    8.4433 H         1 ARG         0.1884
    167 H17        56.5012   28.4432    5.5531 H         1 ARG         0.0800
    168 H18        54.6513   26.6774    5.8894 H         1 ARG         0.0313
    169 H19        54.8534   26.9910    7.6466 H         1 ARG         0.0313
    170 H20        57.1969   26.3739    7.5329 H         1 ARG         0.0301
    171 H21        57.0952   26.1872    5.7492 H         1 ARG         0.0301
    172 H22        55.2809   24.5803    7.5361 H         1 ARG         0.0689
    173 H23        57.0006   24.0989    7.3422 H         1 ARG         0.0689
    174 H24        54.8452   23.6110    5.5131 H         1 ARG         0.2642
    175 H25        58.5931   23.8179    3.9285 H         1 ARG         0.2615
    176 H26        58.2971   24.5651    5.5212 H         1 ARG         0.2615
    177 H27        55.2687   22.6881    3.5230 H         1 ARG         0.2615
    178 H28        56.8987   22.7949    2.8056 H         1 ARG         0.2615
    179 H29        54.0945   30.7047    7.1663 H         1 ALN         0.1885
    180 H30        52.5234   30.1975    4.6746 H         1 ALN         0.0825
    181 H31        50.4505   30.5475    5.9406 H         1 ALN         0.0486
    182 H32        51.3922   30.7084    7.4618 H         1 ALN         0.0486
    183 H33        51.7268   28.8755    8.7692 H         1 ALN         0.0530
    184 H34        51.6011   26.4801    9.2386 H         1 ALN         0.0595
    185 H35        51.0271   24.8585    7.4820 H         1 ALN         0.0542
    186 H36        50.6930   29.2431    4.0522 H         1 ALN         0.0628
    187 H37        50.1511   27.5647    2.3229 H         1 ALN         0.0601
    188 H38        50.0375   25.1746    2.8923 H         1 ALN         0.0616
    189 H39        50.4720   24.3754    5.1885 H         1 ALN         0.0609
    190 H40        54.3171   32.1887    4.4417 H         1 CYS         0.1884
    191 H41        53.0613   34.6067    5.6201 H         1 CYS         0.0808
    192 H42        54.9851   35.8355    4.7020 H         1 CYS         0.0432
    193 H43        55.5618   34.3406    3.8900 H         1 CYS         0.0432
    194 H44        52.7776   36.5324    4.1766 H         1 TYR         0.1885
    195 H45        52.3338   36.1383    1.3846 H         1 TYR         0.0821
    196 H46        50.5445   34.6802    2.1801 H         1 TYR         0.0453
    197 H47        49.8898   36.1303    1.3462 H         1 TYR         0.0453
    198 H48        50.5617   34.7579    4.7822 H         1 TYR         0.0530
    199 H49        48.2240   37.3711    2.3537 H         1 TYR         0.0530
    200 H50        49.0748   35.2128    6.6955 H         1 TYR         0.0525
    201 H51        46.7337   37.8232    4.2509 H         1 TYR         0.0525
    202 H52        47.2200   36.3226    7.3975 H         1 TYR         0.2458
    203 H53        50.8589   37.8416    0.4525 H         1 GLN         0.1883
    204 H54        51.5412   40.4440    1.7209 H         1 GLN         0.0801
    205 H55        50.6164   39.8044   -1.1229 H         1 GLN         0.0337
    206 H56        52.3344   39.9130   -0.6099 H         1 GLN         0.0337
    207 H57        50.3315   42.2009   -0.4255 H         1 GLN         0.0504
    208 H58        51.4623   41.9411   -1.7967 H         1 GLN         0.0504
    209 H59        52.6656   44.0215    1.3781 H         1 GLN         0.1814
    210 H60        51.0184   43.7014    0.9488 H         1 GLN         0.1814
    211 H61        49.9344   41.3832    2.8386 H         1 LYS         0.1883
    212 H62        47.1587   41.2454    1.7174 H         1 LYS         0.0800
    213 H63        47.9865   41.9513    4.5645 H         1 LYS         0.0312
    214 H64        47.4547   40.3196    4.0341 H         1 LYS         0.0312
    215 H65        45.7196   42.8206    3.7697 H         1 LYS         0.0269
    216 H66        45.6973   41.7457    5.2087 H         1 LYS         0.0269
    217 H67        45.1634   39.8225    3.6041 H         1 LYS         0.0317
    218 H68        44.9033   41.0709    2.3390 H         1 LYS         0.0317
    219 H69        43.2587   42.1835    3.9505 H         1 LYS         0.0813
    220 H70        43.3913   40.7090    4.9679 H         1 LYS         0.0813
    221 H71        41.4843   40.6240    3.5074 H         1 LYS         0.1994
    222 H72        42.5493   39.4366    3.1009 H         1 LYS         0.1994
    223 H73        42.4278   40.7877    2.1686 H         1 LYS         0.1994
    224 H74        47.0029   45.7084    1.3060 H         1 DPR         0.0802
    225 H75        47.7235   45.8405   -1.3892 H         1 DPR         0.0313
    226 H76        46.0662   45.4144   -0.8427 H         1 DPR         0.0313
    227 H77        48.3518   43.5817   -1.6423 H         1 DPR         0.0287
    228 H78        46.6316   43.5424   -2.1581 H         1 DPR         0.0287
    229 H79        45.8971   42.7086   -0.0728 H         1 DPR         0.0524
    230 H80        47.4968   41.9044   -0.2169 H         1 DPR         0.0524
    231 H81        51.2824   46.9713    0.6794 H         1 PRO         0.0802
    232 H82        50.5285   49.1444    1.3132 H         1 PRO         0.0313
    233 H83        51.4956   48.7236    2.7673 H         1 PRO         0.0313
    234 H84        48.9279   49.4099    2.9947 H         1 PRO         0.0287
    235 H85        49.6166   48.0853    3.9936 H         1 PRO         0.0287
    236 H86        47.9226   46.8195    3.0406 H         1 PRO         0.0524
    237 H87        47.7380   47.9391    1.6481 H         1 PRO         0.0524
    238 H88        49.8668   45.1425    3.1656 H         1 TYR         0.1885
    239 H89        52.2473   45.0756    4.9016 H         1 TYR         0.0821
    240 H90        50.8357   43.7208    6.4077 H         1 TYR         0.0453
    241 H91        49.5433   43.6724    5.1610 H         1 TYR         0.0453
    242 H92        51.3771   45.8588    7.5442 H         1 TYR         0.0530
    243 H93        48.1290   45.6040    4.7719 H         1 TYR         0.0530
    244 H94        50.4916   47.9894    8.3921 H         1 TYR         0.0525
    245 H95        47.2448   47.7432    5.6202 H         1 TYR         0.0525
    246 H96        48.9080   49.5017    8.2118 H         1 TYR         0.2458
    247 H97        53.5683   43.3680    5.2675 H         1 ARG         0.1883
    248 H98        53.0951   40.8340    3.7826 H         1 ARG         0.0800
    249 H99        55.2795   40.1844    5.0432 H         1 ARG         0.0313
    250 H100       55.4268   41.9417    5.3851 H         1 ARG         0.0313
    251 H101       55.7729   42.4831    3.1585 H         1 ARG         0.0301
    252 H102       55.0069   40.9718    2.5618 H         1 ARG         0.0301
    253 H103       56.9809   39.7337    3.6696 H         1 ARG         0.0689
    254 H104       57.7627   41.3454    3.8039 H         1 ARG         0.0689
    255 H105       57.0202   41.2576    1.1523 H         1 ARG         0.2642
    256 H106       59.4727   39.1872   -0.2522 H         1 ARG         0.2615
    257 H107       58.2425   40.4449   -0.5482 H         1 ARG         0.2615
    258 H108       58.8526   38.9947    3.2226 H         1 ARG         0.2615
    259 H109       59.8078   38.3715    1.8508 H         1 ARG         0.2615
    260 H110       51.8882   39.2713    8.1317 H         1 CIR         0.0800
    261 H111       52.1261   39.0430    5.2009 H         1 CIR         0.1883
    262 H112       49.8562   37.7896    7.6201 H         1 CIR         0.0313
    263 H113       50.0870   38.2327    5.8947 H         1 CIR         0.0313
    264 H114       48.9018   40.0963    6.2618 H         1 CIR         0.0287
    265 H115       50.1961   40.6593    7.3729 H         1 CIR         0.0287
    266 H116       48.9321   40.2717    9.1960 H         1 CIR         0.0517
    267 H117       48.4665   38.6368    8.6155 H         1 CIR         0.0517
    268 H118       47.0252   40.6369    7.1622 H         1 CIR         0.1845
    269 H119       44.2452   40.4598    9.2468 H         1 CIR         0.1808
    270 H120       44.8750   41.0254    7.7357 H         1 CIR         0.1808
    271 H121       52.5516   37.2545    9.2327 H         1 CYS         0.1884
    272 H122       52.1727   35.0376    7.2457 H         1 CYS         0.0808
    273 H123       53.8573   33.6858    8.2538 H         1 CYS         0.0432
    274 H124       54.0417   34.8193    9.6351 H         1 CYS         0.0432
    275 H125       51.3023   33.0656    8.0856 H         1 ARG         0.1883
    276 H126       49.1396   33.6617    9.9253 H         1 ARG         0.0800
    277 H127       48.7967   31.0450    9.4432 H         1 ARG         0.0313
    278 H128       49.8895   31.4396    8.0733 H         1 ARG         0.0313
    279 H129       47.6392   31.6165    7.3195 H         1 ARG         0.0301
    280 H130       48.3238   33.2725    7.4454 H         1 ARG         0.0301
    281 H131       47.0634   32.3922    9.9412 H         1 ARG         0.0689
    282 H132       45.9252   32.3556    8.5519 H         1 ARG         0.0689
    283 H133       47.3010   34.8281    8.4371 H         1 ARG         0.2642
    284 H134       45.0729   36.6321   10.4652 H         1 ARG         0.2615
    285 H135       46.3637   36.7240    9.2372 H         1 ARG         0.2615
    286 H136       45.0971   33.1005   10.6197 H         1 ARG         0.2615
    287 H137       44.3764   34.6053   11.2514 H         1 ARG         0.2615
    288 H138       52.2951   32.4249   10.3892 H         1 GLY         0.1881
    289 H139       51.5369   32.0511   13.2215 H         1 GLY         0.0763
    290 H140       53.2024   32.2182   12.5697 H         1 GLY         0.0763
    291 H141       53.2711   27.7813   12.1288 H         1 DPR         0.0728
    292 H142       56.1060   27.9244   12.7705 H         1 DPR         0.0306
    293 H143       54.8081   27.1574   13.7471 H         1 DPR         0.0306
    294 H144       56.2597   29.4104   14.4964 H         1 DPR         0.0286
    295 H145       54.6525   28.9484   15.1520 H         1 DPR         0.0286
    296 H146       54.1211   31.0425   14.3525 H         1 DPR         0.0524
    297 H147       55.3629   30.9789   13.0561 H         1 DPR         0.0524
@<TRIPOS>BOND
     1    2    1 1  
     2    3    2 1  
     3    2    5 1  
     4    3    4 2  
     5   12    3 am 
     6    5    6 1  
     7    6    7 1  
     8    7    8 1  
     9    8    9 ar 
    10    9   10 ar 
    11    9   11 ar 
    12   13   12 1  
    13   14   13 1  
    14   13   16 1  
    15   14   15 2  
    16   23   14 am 
    17   16   17 1  
    18   17   18 1  
    19   18   19 1  
    20   19   20 ar 
    21   20   21 ar 
    22   20   22 ar 
    23   24   23 1  
    24   25   24 1  
    25   24   27 1  
    26   25   26 2  
    27   38   25 am 
    28   27   28 1  
    29   28   29 ar 
    30   28   31 ar 
    31   29   30 ar 
    32   30   33 ar 
    33   31   32 ar 
    34   31   34 ar 
    35   32   33 ar 
    36   32   37 ar 
    37   34   35 ar 
    38   35   36 ar 
    39   37   36 ar 
    40   39   38 1  
    41   40   39 1  
    42   39   42 1  
    43   40   41 2  
    44   44   40 am 
    45   42   43 1  
    46   43  127 1  
    47   45   44 1  
    48   46   45 1  
    49   45   48 1  
    50   46   47 2  
    51   56   46 am 
    52   48   49 1  
    53   49   50 ar 
    54   49   51 ar 
    55   50   52 ar 
    56   51   53 ar 
    57   52   54 ar 
    58   53   54 ar 
    59   54   55 1  
    60   57   56 1  
    61   58   57 1  
    62   57   60 1  
    63   58   59 2  
    64   65   58 am 
    65   60   61 1  
    66   61   62 1  
    67   62   63 2  
    68   62   64 am 
    69   66   65 1  
    70   67   66 1  
    71   66   69 1  
    72   67   68 2  
    73   74   67 am 
    74   69   70 1  
    75   70   71 1  
    76   71   72 1  
    77   72   73 1  
    78   75   74 1  
    79   74   78 1  
    80   75   76 1  
    81   79   75 1  
    82   76   77 1  
    83   77   78 1  
    84   79   80 2  
    85   81   79 am 
    86   82   81 1  
    87   81   87 1  
    88   83   82 1  
    89   82   85 1  
    90   83   84 2  
    91   88   83 am 
    92   85   86 1  
    93   86   87 1  
    94   89   88 1  
    95   90   89 1  
    96   89   92 1  
    97   90   91 2  
    98  100   90 am 
    99   92   93 1  
   100   93   94 ar 
   101   93   95 ar 
   102   94   96 ar 
   103   95   97 ar 
   104   96   98 ar 
   105   97   98 ar 
   106   98   99 1  
   107  101  100 1  
   108  102  101 1  
   109  101  104 1  
   110  102  103 2  
   111  114  102 am 
   112  104  105 1  
   113  105  106 1  
   114  106  107 1  
   115  107  108 ar 
   116  108  109 ar 
   117  108  110 ar 
   118  111  112 2  
   119  113  111 1  
   120  111  122 am 
   121  113  114 1  
   122  113  115 1  
   123  115  116 1  
   124  116  117 1  
   125  117  118 1  
   126  118  119 am 
   127  119  120 2  
   128  119  121 am 
   129  122  123 1  
   130  123  124 1  
   131  123  126 1  
   132  124  125 2  
   133  124  128 am 
   134  126  127 1  
   135  128  129 1  
   136  129  130 1  
   137  129  132 1  
   138  130  131 2  
   139  130  139 am 
   140  132  133 1  
   141  133  134 1  
   142  134  135 1  
   143  135  136 ar 
   144  136  137 ar 
   145  136  138 ar 
   146  139  140 1  
   147  140  141 1  
   148  141  142 2  
   149  141  143 am 
   150  143  144 1  
   151  143  147 1  
   152  144  145 1  
   153  144  148 1  
   154  145  146 1  
   155  146  147 1  
   156  148  149 ar 
   157  148  150 ar 
   158    1  151 1  
   159    1  152 1  
   160    1  153 1  
   161    2  154 1  
   162    5  155 1  
   163    5  156 1  
   164    6  157 1  
   165    6  158 1  
   166    7  159 1  
   167    7  160 1  
   168    8  161 1  
   169   10  162 1  
   170   10  163 1  
   171   11  164 1  
   172   11  165 1  
   173   12  166 1  
   174   13  167 1  
   175   16  168 1  
   176   16  169 1  
   177   17  170 1  
   178   17  171 1  
   179   18  172 1  
   180   18  173 1  
   181   19  174 1  
   182   21  175 1  
   183   21  176 1  
   184   22  177 1  
   185   22  178 1  
   186   23  179 1  
   187   24  180 1  
   188   27  181 1  
   189   27  182 1  
   190   29  183 1  
   191   30  184 1  
   192   33  185 1  
   193   34  186 1  
   194   35  187 1  
   195   36  188 1  
   196   37  189 1  
   197   38  190 1  
   198   39  191 1  
   199   42  192 1  
   200   42  193 1  
   201   44  194 1  
   202   45  195 1  
   203   48  196 1  
   204   48  197 1  
   205   50  198 1  
   206   51  199 1  
   207   52  200 1  
   208   53  201 1  
   209   55  202 1  
   210   56  203 1  
   211   57  204 1  
   212   60  205 1  
   213   60  206 1  
   214   61  207 1  
   215   61  208 1  
   216   64  209 1  
   217   64  210 1  
   218   65  211 1  
   219   66  212 1  
   220   69  213 1  
   221   69  214 1  
   222   70  215 1  
   223   70  216 1  
   224   71  217 1  
   225   71  218 1  
   226   72  219 1  
   227   72  220 1  
   228   73  221 1  
   229   73  222 1  
   230   73  223 1  
   231   75  224 1  
   232   76  225 1  
   233   76  226 1  
   234   77  227 1  
   235   77  228 1  
   236   78  229 1  
   237   78  230 1  
   238   82  231 1  
   239   85  232 1  
   240   85  233 1  
   241   86  234 1  
   242   86  235 1  
   243   87  236 1  
   244   87  237 1  
   245   88  238 1  
   246   89  239 1  
   247   92  240 1  
   248   92  241 1  
   249   94  242 1  
   250   95  243 1  
   251   96  244 1  
   252   97  245 1  
   253   99  246 1  
   254  100  247 1  
   255  101  248 1  
   256  104  249 1  
   257  104  250 1  
   258  105  251 1  
   259  105  252 1  
   260  106  253 1  
   261  106  254 1  
   262  107  255 1  
   263  109  256 1  
   264  109  257 1  
   265  110  258 1  
   266  110  259 1  
   267  113  260 1  
   268  114  261 1  
   269  115  262 1  
   270  115  263 1  
   271  116  264 1  
   272  116  265 1  
   273  117  266 1  
   274  117  267 1  
   275  118  268 1  
   276  121  269 1  
   277  121  270 1  
   278  122  271 1  
   279  123  272 1  
   280  126  273 1  
   281  126  274 1  
   282  128  275 1  
   283  129  276 1  
   284  132  277 1  
   285  132  278 1  
   286  133  279 1  
   287  133  280 1  
   288  134  281 1  
   289  134  282 1  
   290  135  283 1  
   291  137  284 1  
   292  137  285 1  
   293  138  286 1  
   294  138  287 1  
   295  139  288 1  
   296  140  289 1  
   297  140  290 1  
   298  144  291 1  
   299  145  292 1  
   300  145  293 1  
   301  146  294 1  
   302  146  295 1  
   303  147  296 1  
   304  147  297 1  
@<TRIPOS>SUBSTRUCTURE
     1 ARG         1

