3oe0_ligand
  -I-interpret- 

294301  0  0  0  0  0  0  0  0999 V2000
   59.4750   30.3240    8.4230 N   0  3  0  0  0
   58.0180   30.4560    8.6730 C   0  0  0  0  0
   57.2900   30.0510    7.4180 C   0  0  0  0  0
   57.5170   30.6360    6.3650 O   0  0  0  0  0
   57.6540   31.8920    9.0490 C   0  0  0  0  0
   57.4620   32.1170   10.5580 C   0  0  0  0  0
   56.9870   33.5390   10.8840 C   0  0  0  0  0
   57.5970   34.5380    9.9850 N   0  0  0  0  0
   57.9640   35.7760   10.3310 C   0  0  0  0  0
   58.5070   36.5780    9.4190 N   0  0  0  0  0
   57.8010   36.2240   11.5730 N   0  0  0  0  0
   56.4020   29.0650    7.5320 N   0  0  0  0  0
   55.7560   28.4620    6.3620 C   0  0  0  0  0
   54.5520   29.2370    5.8490 C   0  0  0  0  0
   54.1180   28.9900    4.7270 O   0  0  0  0  0
   55.3510   27.0200    6.6660 C   0  0  0  0  0
   56.5450   26.0830    6.6960 C   0  0  0  0  0
   56.1560   24.6230    6.8710 C   0  0  0  0  0
   55.8200   23.9210    5.6340 N   0  0  0  0  0
   56.6780   23.6510    4.6500 C   0  0  0  0  0
   57.9530   24.0410    4.7040 N   0  0  0  0  0
   56.2500   22.9960    3.5800 N   0  0  0  0  0
   53.8030   30.2350    6.3330 N   0  0  0  0  0
   52.5750   30.6520    5.6750 C   0  0  0  0  0
   52.6130   32.1420    5.5460 C   0  0  0  0  0
   51.7360   32.8200    6.1170 O   0  0  0  0  0
   51.3520   30.2180    6.4780 C   0  0  0  0  0
   51.2570   28.7230    6.6950 C   0  0  0  0  0
   51.4820   28.1970    7.9600 C   0  0  0  0  0
   51.4060   26.8320    8.2320 C   0  0  0  0  0
   50.9100   27.7810    5.6130 C   0  0  0  0  0
   50.8420   26.3420    5.9500 C   0  0  0  0  0
   51.0860   25.9140    7.2420 C   0  0  0  0  0
   50.6530   28.1910    4.3100 C   0  0  0  0  0
   50.3450   27.2470    3.3410 C   0  0  0  0  0
   50.2830   25.8920    3.6670 C   0  0  0  0  0
   50.5280   25.4340    4.9620 C   0  0  0  0  0
   53.5940   32.7330    4.8670 N   0  0  0  0  0
   53.5970   34.1930    4.7530 C   0  0  0  0  0
   52.8830   34.6360    3.4950 C   0  0  0  0  0
   52.6490   33.8380    2.6010 O   0  0  0  0  0
   55.0250   34.7380    4.7640 C   0  0  0  0  0
   55.9210   34.2760    6.2510 S   0  0  0  0  0
   52.5290   35.9130    3.4320 N   0  0  0  0  0
   51.7860   36.4200    2.2960 C   0  0  0  0  0
   51.6430   37.9320    2.3010 C   0  0  0  0  0
   51.9920   38.5860    3.2780 O   0  0  0  0  0
   50.4040   35.7690    2.2490 C   0  0  0  0  0
   49.5110   36.0490    3.4370 C   0  0  0  0  0
   49.7260   35.4380    4.6630 C   0  0  0  0  0
   48.4180   36.8970    3.3090 C   0  0  0  0  0
   48.8870   35.6850    5.7380 C   0  0  0  0  0
   47.5740   37.1490    4.3710 C   0  0  0  0  0
   47.8040   36.5410    5.5820 C   0  0  0  0  0
   46.9420   36.8070    6.6290 O   0  0  0  0  0
   51.1220   38.4600    1.1930 N   0  0  0  0  0
   50.9150   39.8940    1.0030 C   0  0  0  0  0
   49.4510   40.2620    1.2340 C   0  0  0  0  0
   48.5780   39.7690    0.5250 O   0  0  0  0  0
   51.3170   40.2890   -0.4270 C   0  0  0  0  0
   51.3090   41.7900   -0.7180 C   0  0  0  0  0
   52.3940   42.5330    0.0360 C   0  0  0  0  0
   53.5800   42.2460   -0.1200 O   0  0  0  0  0
   51.9930   43.4980    0.8550 N   0  0  0  0  0
   49.1920   41.1210    2.2220 N   0  0  0  0  0
   47.8570   41.6960    2.4380 C   0  0  0  0  0
   47.9080   43.2050    2.1980 C   0  0  0  0  0
   48.3460   43.9540    3.0770 O   0  0  0  0  0
   47.3520   41.4000    3.8550 C   0  0  0  0  0
   45.8800   41.7920    4.1250 C   0  0  0  0  0
   44.8790   40.8690    3.4200 C   0  0  0  0  0
   43.4540   41.1010    3.9420 C   0  0  0  0  0
   42.3910   40.4320    3.1110 N   0  3  0  0  0
   47.4800   43.6590    0.9990 N   0  0  0  0  0
   47.6190   45.0760    0.6500 C   0  0  0  0  0
   47.1270   45.1260   -0.8030 C   0  0  0  0  0
   47.3130   43.7420   -1.3180 C   0  0  0  0  0
   46.9820   42.8740   -0.1480 C   0  0  0  0  0
   49.0800   45.5270    0.7170 C   0  0  0  0  0
   49.9320   44.9130    0.0720 O   0  0  0  0  0
   49.3740   46.5810    1.4980 N   0  0  0  0  0
   50.7620   47.0040    1.6480 C   0  0  0  0  0
   51.5360   46.1580    2.6620 C   0  0  0  0  0
   52.7580   46.3040    2.7590 O   0  0  0  0  0
   50.6280   48.4410    2.1530 C   0  0  0  0  0
   49.3900   48.4120    2.9680 C   0  0  0  0  0
   48.4620   47.4220    2.2950 C   0  0  0  0  0
   50.8340   45.2740    3.3830 N   0  0  0  0  0
   51.4190   44.4880    4.4790 C   0  0  0  0  0
   51.9860   43.1350    4.0470 C   0  0  0  0  0
   51.4860   42.5090    3.1190 O   0  0  0  0  0
   50.3690   44.2690    5.5760 C   0  0  0  0  0
   49.8110   45.5680    6.1040 C   0  0  0  0  0
   50.4660   46.2660    7.1210 C   0  0  0  0  0
   48.6500   46.1220    5.5690 C   0  0  0  0  0
   49.9750   47.4640    7.5970 C   0  0  0  0  0
   48.1520   47.3250    6.0410 C   0  0  0  0  0
   48.8200   47.9880    7.0520 C   0  0  0  0  0
   48.3370   49.1800    7.5240 O   0  0  0  0  0
   53.0510   42.7110    4.7190 N   0  0  0  0  0
   53.4920   41.3220    4.6850 C   0  0  0  0  0
   52.9320   40.6550    5.9280 C   0  0  0  0  0
   52.8910   41.2760    6.9920 O   0  0  0  0  0
   55.0190   41.1930    4.6900 C   0  0  0  0  0
   55.6610   41.4030    3.3340 C   0  0  0  0  0
   57.0360   40.7440    3.2380 C   0  0  0  0  0
   57.4800   40.6450    1.8410 N   0  0  0  0  0
   58.4330   39.8230    1.3940 C   0  0  0  0  0
   58.7390   39.8180    0.1010 N   0  0  0  0  0
   59.0800   39.0010    2.2180 N   0  0  0  0  0
   52.3740   37.4070    7.2000 C   0  0  0  0  0
   52.7100   36.9470    6.0910 O   0  0  0  0  0
   51.7200   38.7460    7.1800 C   0  0  0  0  0
   52.2740   39.5020    6.0770 N   0  0  0  0  0
   50.2400   38.5590    6.9340 C   0  0  0  0  0
   49.4810   39.8500    7.1640 C   0  0  0  0  0
   48.5320   39.7010    8.3450 C   0  0  0  0  0
   47.2000   40.1890    8.0390 N   0  0  0  0  0
   46.2080   40.0450    8.9170 C   0  0  0  0  0
   46.3950   39.4720    9.9880 O   0  0  0  0  0
   45.0080   40.5530    8.6070 N   0  0  0  0  0
   52.4720   36.7710    8.3610 N   0  0  0  0  0
   52.4550   35.3150    8.2720 C   0  0  0  0  0
   51.4170   34.7220    9.2250 C   0  0  0  0  0
   51.0640   35.3270   10.2370 O   0  0  0  0  0
   53.8530   34.7440    8.5540 C   0  0  0  0  0
   55.2370   35.6010    7.6660 S   0  0  0  0  0
   50.9300   33.5320    8.8880 N   0  0  0  0  0
   49.8700   32.8860    9.6520 C   0  0  0  0  0
   50.3630   32.2410   10.9500 C   0  0  0  0  0
   49.5520   31.8060   11.7850 O   0  0  0  0  0
   49.1610   31.8500    8.7880 C   0  0  0  0  0
   47.9970   32.3900    8.0150 C   0  0  0  0  0
   46.8600   32.7900    8.9360 C   0  0  0  0  0
   46.7000   34.2370    9.0290 N   0  0  0  0  0
   45.8280   34.8400    9.8290 C   0  0  0  0  0
   45.7490   36.1640    9.8450 N   0  0  0  0  0
   45.0420   34.1290   10.6260 N   0  0  0  0  0
   51.6760   32.1760   11.1340 N   0  0  0  0  0
   52.2220   31.7430   12.4180 C   0  0  0  0  0
   52.3900   30.2400   12.4620 C   0  0  0  0  0
   51.4190   29.4940   12.3290 O   0  0  0  0  0
   53.6280   29.7940   12.6970 N   0  0  0  0  0
   54.0890   28.5130   12.2040 C   0  0  0  0  0
   55.1280   28.0840   13.2480 C   0  0  0  0  0
   55.2090   29.2100   14.2400 C   0  0  0  0  0
   54.6100   30.3970   13.6080 C   0  0  0  0  0
   54.7350   28.7350   10.8330 C   0  0  0  0  0
   55.5060   27.9150   10.3210 O   0  0  0  0  0
   54.5020   29.7720   10.1970 O   0  0  0  0  0
   59.6900   29.3583    8.1747 H   0  0  0  0  0
   59.7447   30.9414    7.6572 H   0  0  0  0  0
   59.9881   30.5819    9.2660 H   0  0  0  0  0
   57.7310   29.8145    9.5062 H   0  0  0  0  0
   56.7042   32.1209    8.5656 H   0  0  0  0  0
   58.4803   32.5278    8.7309 H   0  0  0  0  0
   58.4245   31.9637   11.0461 H   0  0  0  0  0
   56.7009   31.4196   10.9079 H   0  0  0  0  0
   57.2809   33.7731   11.9072 H   0  0  0  0  0
   55.9052   33.5774   10.7563 H   0  0  0  0  0
   57.7519   34.2598    9.0160 H   0  0  0  0  0
   58.6407   36.2469    8.4635 H   0  0  0  0  0
   58.0910   37.1713   11.8156 H   0  0  0  0  0
   57.3860   35.6202   12.2826 H   0  0  0  0  0
   56.1641   28.7188    8.4615 H   0  0  0  0  0
   56.4997   28.4894    5.5656 H   0  0  0  0  0
   54.6762   26.6842    5.8786 H   0  0  0  0  0
   54.8797   27.0002    7.6486 H   0  0  0  0  0
   57.1646   26.3643    7.5475 H   0  0  0  0  0
   57.0615   26.1752    5.7406 H   0  0  0  0  0
   55.2619   24.6080    7.4942 H   0  0  0  0  0
   57.0220   24.1153    7.2958 H   0  0  0  0  0
   54.8547   23.6140    5.5143 H   0  0  0  0  0
   58.5829   23.8342    3.9288 H   0  0  0  0  0
   58.2977   24.5460    5.5204 H   0  0  0  0  0
   55.2745   22.7049    3.5166 H   0  0  0  0  0
   54.1003   30.7141    7.1830 H   0  0  0  0  0
   52.4997   30.1846    4.6932 H   0  0  0  0  0
   50.4702   30.5194    5.9125 H   0  0  0  0  0
   51.4286   30.6832    7.4608 H   0  0  0  0  0
   51.7281   28.8793    8.7737 H   0  0  0  0  0
   51.6022   26.4782    9.2441 H   0  0  0  0  0
   51.0268   24.8527    7.4834 H   0  0  0  0  0
   50.6932   29.2490    4.0507 H   0  0  0  0  0
   50.1500   27.5665    2.3173 H   0  0  0  0  0
   50.0362   25.1707    2.8880 H   0  0  0  0  0
   50.4717   24.3696    5.1898 H   0  0  0  0  0
   54.3316   32.1778    4.4332 H   0  0  0  0  0
   53.0652   34.5946    5.6156 H   0  0  0  0  0
   54.9716   35.8260    4.7261 H   0  0  0  0  0
   55.5531   34.3189    3.9075 H   0  0  0  0  0
   52.7826   36.5448    4.1915 H   0  0  0  0  0
   52.3580   36.1612    1.4049 H   0  0  0  0  0
   50.5690   34.6917    2.2321 H   0  0  0  0  0
   49.8970   36.1802    1.3761 H   0  0  0  0  0
   50.5663   34.7542    4.7829 H   0  0  0  0  0
   48.2229   37.3738    2.3484 H   0  0  0  0  0
   49.0758   35.2102    6.7008 H   0  0  0  0  0
   46.7290   37.8269    4.2502 H   0  0  0  0  0
   46.2604   37.4154    6.3342 H   0  0  0  0  0
   50.8536   37.8292    0.4377 H   0  0  0  0  0
   51.5318   40.4308    1.7238 H   0  0  0  0  0
   50.5815   39.8383   -1.0933 H   0  0  0  0  0
   52.3433   39.9497   -0.5673 H   0  0  0  0  0
   50.3455   42.1890   -0.4009 H   0  0  0  0  0
   51.4866   41.9268   -1.7847 H   0  0  0  0  0
   52.6793   44.0348    1.3853 H   0  0  0  0  0
   50.9986   43.7025    0.9539 H   0  0  0  0  0
   49.9492   41.3885    2.8509 H   0  0  0  0  0
   47.1618   41.2389    1.7339 H   0  0  0  0  0
   47.9635   41.9927    4.5353 H   0  0  0  0  0
   47.4186   40.3207    3.9919 H   0  0  0  0  0
   45.7285   42.8016    3.7432 H   0  0  0  0  0
   45.7060   41.7147    5.1982 H   0  0  0  0  0
   45.1592   39.8342    3.6168 H   0  0  0  0  0
   44.8989   41.0830    2.3514 H   0  0  0  0  0
   43.2655   42.1741    3.9114 H   0  0  0  0  0
   43.4002   40.6768    4.9446 H   0  0  0  0  0
   41.4741   40.6269    3.5130 H   0  0  0  0  0
   42.4292   40.7927    2.1577 H   0  0  0  0  0
   42.5523   39.4249    3.1015 H   0  0  0  0  0
   47.0689   45.7283    1.3282 H   0  0  0  0  0
   47.6815   45.8555   -1.3933 H   0  0  0  0  0
   46.0869   45.4455   -0.8674 H   0  0  0  0  0
   48.3243   43.5706   -1.6868 H   0  0  0  0  0
   46.6794   43.5331   -2.1800 H   0  0  0  0  0
   45.9178   42.6495   -0.0761 H   0  0  0  0  0
   47.4370   41.8857   -0.2130 H   0  0  0  0  0
   51.3200   46.9024    0.7172 H   0  0  0  0  0
   50.5740   49.1646    1.3396 H   0  0  0  0  0
   51.4968   48.7631    2.7271 H   0  0  0  0  0
   48.9345   49.4006    3.0248 H   0  0  0  0  0
   49.6031   48.1145    3.9947 H   0  0  0  0  0
   47.8790   46.8430    3.0112 H   0  0  0  0  0
   47.7031   47.9103    1.6837 H   0  0  0  0  0
   49.8475   45.1399    3.1613 H   0  0  0  0  0
   52.2617   45.0716    4.8497 H   0  0  0  0  0
   50.8490   43.7465    6.4035 H   0  0  0  0  0
   49.5460   43.6977    5.1466 H   0  0  0  0  0
   51.3822   45.8565    7.5465 H   0  0  0  0  0
   48.1261   45.6012    4.7675 H   0  0  0  0  0
   50.4945   47.9923    8.3965 H   0  0  0  0  0
   47.2397   47.7455    5.6178 H   0  0  0  0  0
   47.5350   49.4096    7.0490 H   0  0  0  0  0
   53.5786   43.3811    5.2784 H   0  0  0  0  0
   53.1387   40.8553    3.7655 H   0  0  0  0  0
   55.2561   40.1770    5.0055 H   0  0  0  0  0
   55.4061   41.9662    5.3537 H   0  0  0  0  0
   55.7872   42.4748    3.1809 H   0  0  0  0  0
   55.0157   40.9525    2.5799 H   0  0  0  0  0
   56.9705   39.7390    3.6548 H   0  0  0  0  0
   57.7531   41.3523    3.7892 H   0  0  0  0  0
   57.0247   41.2516    1.1590 H   0  0  0  0  0
   58.2473   40.4388   -0.5418 H   0  0  0  0  0
   59.8008   38.3776    1.8543 H   0  0  0  0  0
   58.8548   38.9948    3.2128 H   0  0  0  0  0
   51.8831   39.2643    8.1249 H   0  0  0  0  0
   52.1232   39.0339    5.1834 H   0  0  0  0  0
   49.8640   37.8055    7.6261 H   0  0  0  0  0
   50.0950   38.2490    5.8991 H   0  0  0  0  0
   48.9033   40.0874    6.2707 H   0  0  0  0  0
   50.1922   40.6480    7.3772 H   0  0  0  0  0
   48.9268   40.2872    9.1748 H   0  0  0  0  0
   48.4582   38.6416    8.5906 H   0  0  0  0  0
   47.0217   40.6459    7.1447 H   0  0  0  0  0
   44.2326   40.4672    9.2642 H   0  0  0  0  0
   44.8696   41.0257    7.7138 H   0  0  0  0  0
   52.5532   37.2642    9.2502 H   0  0  0  0  0
   52.1712   35.0361    7.2572 H   0  0  0  0  0
   53.8480   33.7101    8.2089 H   0  0  0  0  0
   54.0364   34.8690    9.6212 H   0  0  0  0  0
   51.3098   33.0562    8.0696 H   0  0  0  0  0
   49.1726   33.6717    9.9425 H   0  0  0  0  0
   48.7743   31.0821    9.4580 H   0  0  0  0  0
   49.8875   31.4840    8.0625 H   0  0  0  0  0
   47.6389   31.6129    7.3398 H   0  0  0  0  0
   48.3251   33.2726    7.4660 H   0  0  0  0  0
   47.0855   32.4116    9.9330 H   0  0  0  0  0
   45.9371   32.3747    8.5313 H   0  0  0  0  0
   47.2951   34.8224    8.4429 H   0  0  0  0  0
   45.0872   36.6279   10.4672 H   0  0  0  0  0
   46.3500   36.7182    9.2351 H   0  0  0  0  0
   45.1043   33.1109   10.6278 H   0  0  0  0  0
   52.3075   32.4299   10.3743 H   0  0  0  0  0
   51.5313   32.0392   13.2075 H   0  0  0  0  0
   53.1990   32.2065   12.5548 H   0  0  0  0  0
   53.3083   27.7629   12.0780 H   0  0  0  0  0
   56.0969   27.8950   12.7858 H   0  0  0  0  0
   54.8386   27.1515   13.7325 H   0  0  0  0  0
   56.2461   29.4048   14.5131 H   0  0  0  0  0
   54.6742   28.9530   15.1543 H   0  0  0  0  0
   54.1672   31.0902   14.3232 H   0  0  0  0  0
   55.3380   31.0302   13.1008 H   0  0  0  0  0
   53.8944   30.3226   10.6963 H   0  0  0  0  0
  2  1  1  0  0  0
  3  2  1  0  0  0
  2  5  1  0  0  0
  3  4  2  0  0  0
 12  3  1  0  0  0
  5  6  1  0  0  0
  6  7  1  0  0  0
  7  8  1  0  0  0
  8  9  1  0  0  0
  9 10  2  0  0  0
  9 11  1  0  0  0
 13 12  1  0  0  0
 14 13  1  0  0  0
 13 16  1  0  0  0
 14 15  2  0  0  0
 23 14  1  0  0  0
 16 17  1  0  0  0
 17 18  1  0  0  0
 18 19  1  0  0  0
 19 20  1  0  0  0
 20 21  1  0  0  0
 20 22  2  0  0  0
 24 23  1  0  0  0
 25 24  1  0  0  0
 24 27  1  0  0  0
 25 26  2  0  0  0
 38 25  1  0  0  0
 27 28  1  0  0  0
 28 29  4  0  0  0
 28 31  4  0  0  0
 29 30  4  0  0  0
 30 33  4  0  0  0
 31 32  4  0  0  0
 31 34  4  0  0  0
 32 33  4  0  0  0
 32 37  4  0  0  0
 34 35  4  0  0  0
 35 36  4  0  0  0
 37 36  4  0  0  0
 39 38  1  0  0  0
 40 39  1  0  0  0
 39 42  1  0  0  0
 40 41  2  0  0  0
 44 40  1  0  0  0
 42 43  1  0  0  0
 43127  1  0  0  0
 45 44  1  0  0  0
 46 45  1  0  0  0
 45 48  1  0  0  0
 46 47  2  0  0  0
 56 46  1  0  0  0
 48 49  1  0  0  0
 49 50  4  0  0  0
 49 51  4  0  0  0
 50 52  4  0  0  0
 51 53  4  0  0  0
 52 54  4  0  0  0
 53 54  4  0  0  0
 54 55  1  0  0  0
 57 56  1  0  0  0
 58 57  1  0  0  0
 57 60  1  0  0  0
 58 59  2  0  0  0
 65 58  1  0  0  0
 60 61  1  0  0  0
 61 62  1  0  0  0
 62 63  2  0  0  0
 62 64  1  0  0  0
 66 65  1  0  0  0
 67 66  1  0  0  0
 66 69  1  0  0  0
 67 68  2  0  0  0
 74 67  1  0  0  0
 69 70  1  0  0  0
 70 71  1  0  0  0
 71 72  1  0  0  0
 72 73  1  0  0  0
 75 74  1  0  0  0
 74 78  1  0  0  0
 75 76  1  0  0  0
 79 75  1  0  0  0
 76 77  1  0  0  0
 77 78  1  0  0  0
 79 80  2  0  0  0
 81 79  1  0  0  0
 82 81  1  0  0  0
 81 87  1  0  0  0
 83 82  1  0  0  0
 82 85  1  0  0  0
 83 84  2  0  0  0
 88 83  1  0  0  0
 85 86  1  0  0  0
 86 87  1  0  0  0
 89 88  1  0  0  0
 90 89  1  0  0  0
 89 92  1  0  0  0
 90 91  2  0  0  0
100 90  1  0  0  0
 92 93  1  0  0  0
 93 94  4  0  0  0
 93 95  4  0  0  0
 94 96  4  0  0  0
 95 97  4  0  0  0
 96 98  4  0  0  0
 97 98  4  0  0  0
 98 99  1  0  0  0
101100  1  0  0  0
102101  1  0  0  0
101104  1  0  0  0
102103  2  0  0  0
114102  1  0  0  0
104105  1  0  0  0
105106  1  0  0  0
106107  1  0  0  0
107108  1  0  0  0
108109  2  0  0  0
108110  1  0  0  0
111112  2  0  0  0
113111  1  0  0  0
111122  1  0  0  0
113114  1  0  0  0
113115  1  0  0  0
115116  1  0  0  0
116117  1  0  0  0
117118  1  0  0  0
118119  1  0  0  0
119120  2  0  0  0
119121  1  0  0  0
122123  1  0  0  0
123124  1  0  0  0
123126  1  0  0  0
124125  2  0  0  0
124128  1  0  0  0
126127  1  0  0  0
128129  1  0  0  0
129130  1  0  0  0
129132  1  0  0  0
130131  2  0  0  0
130139  1  0  0  0
132133  1  0  0  0
133134  1  0  0  0
134135  1  0  0  0
135136  1  0  0  0
136137  1  0  0  0
136138  2  0  0  0
139140  1  0  0  0
140141  1  0  0  0
141142  2  0  0  0
141143  1  0  0  0
143144  1  0  0  0
143147  1  0  0  0
144145  1  0  0  0
144148  1  0  0  0
145146  1  0  0  0
146147  1  0  0  0
148149  2  0  0  0
148150  1  0  0  0
  1151  1  0  0  0
  1152  1  0  0  0
  1153  1  0  0  0
  2154  1  0  0  0
  5155  1  0  0  0
  5156  1  0  0  0
  6157  1  0  0  0
  6158  1  0  0  0
  7159  1  0  0  0
  7160  1  0  0  0
  8161  1  0  0  0
 10162  1  0  0  0
 11163  1  0  0  0
 11164  1  0  0  0
 12165  1  0  0  0
 13166  1  0  0  0
 16167  1  0  0  0
 16168  1  0  0  0
 17169  1  0  0  0
 17170  1  0  0  0
 18171  1  0  0  0
 18172  1  0  0  0
 19173  1  0  0  0
 21174  1  0  0  0
 21175  1  0  0  0
 22176  1  0  0  0
 23177  1  0  0  0
 24178  1  0  0  0
 27179  1  0  0  0
 27180  1  0  0  0
 29181  1  0  0  0
 30182  1  0  0  0
 33183  1  0  0  0
 34184  1  0  0  0
 35185  1  0  0  0
 36186  1  0  0  0
 37187  1  0  0  0
 38188  1  0  0  0
 39189  1  0  0  0
 42190  1  0  0  0
 42191  1  0  0  0
 44192  1  0  0  0
 45193  1  0  0  0
 48194  1  0  0  0
 48195  1  0  0  0
 50196  1  0  0  0
 51197  1  0  0  0
 52198  1  0  0  0
 53199  1  0  0  0
 55200  1  0  0  0
 56201  1  0  0  0
 57202  1  0  0  0
 60203  1  0  0  0
 60204  1  0  0  0
 61205  1  0  0  0
 61206  1  0  0  0
 64207  1  0  0  0
 64208  1  0  0  0
 65209  1  0  0  0
 66210  1  0  0  0
 69211  1  0  0  0
 69212  1  0  0  0
 70213  1  0  0  0
 70214  1  0  0  0
 71215  1  0  0  0
 71216  1  0  0  0
 72217  1  0  0  0
 72218  1  0  0  0
 73219  1  0  0  0
 73220  1  0  0  0
 73221  1  0  0  0
 75222  1  0  0  0
 76223  1  0  0  0
 76224  1  0  0  0
 77225  1  0  0  0
 77226  1  0  0  0
 78227  1  0  0  0
 78228  1  0  0  0
 82229  1  0  0  0
 85230  1  0  0  0
 85231  1  0  0  0
 86232  1  0  0  0
 86233  1  0  0  0
 87234  1  0  0  0
 87235  1  0  0  0
 88236  1  0  0  0
 89237  1  0  0  0
 92238  1  0  0  0
 92239  1  0  0  0
 94240  1  0  0  0
 95241  1  0  0  0
 96242  1  0  0  0
 97243  1  0  0  0
 99244  1  0  0  0
100245  1  0  0  0
101246  1  0  0  0
104247  1  0  0  0
104248  1  0  0  0
105249  1  0  0  0
105250  1  0  0  0
106251  1  0  0  0
106252  1  0  0  0
107253  1  0  0  0
109254  1  0  0  0
110255  1  0  0  0
110256  1  0  0  0
113257  1  0  0  0
114258  1  0  0  0
115259  1  0  0  0
115260  1  0  0  0
116261  1  0  0  0
116262  1  0  0  0
117263  1  0  0  0
117264  1  0  0  0
118265  1  0  0  0
121266  1  0  0  0
121267  1  0  0  0
122268  1  0  0  0
123269  1  0  0  0
126270  1  0  0  0
126271  1  0  0  0
128272  1  0  0  0
129273  1  0  0  0
132274  1  0  0  0
132275  1  0  0  0
133276  1  0  0  0
133277  1  0  0  0
134278  1  0  0  0
134279  1  0  0  0
135280  1  0  0  0
137281  1  0  0  0
137282  1  0  0  0
138283  1  0  0  0
139284  1  0  0  0
140285  1  0  0  0
140286  1  0  0  0
144287  1  0  0  0
145288  1  0  0  0
145289  1  0  0  0
146290  1  0  0  0
146291  1  0  0  0
147292  1  0  0  0
147293  1  0  0  0
150294  1  0  0  0
M  END
$$$$
