### 
### Created by X-TOOL on Mon Aug  2 16:17:02 2021
### 

@<TRIPOS>MOLECULE
5ok6_ligand
  226   228     1     0     0
SMALL
GAST_HUCK


@<TRIPOS>ATOM
      1 N          30.3210    5.5920    9.9970 N.4       1 GLY         0.2357
      2 CA         30.6140    6.3090    8.7650 C.3       1 GLY         0.0545
      3 C          31.8420    7.2250    8.7230 C.2       1 GLY         0.2236
      4 O          32.0970    7.8270    7.6880 O.2       1 GLY        -0.3910
      5 N          32.5500    7.3970    9.8540 N.am      1 GLY        -0.2612
      6 CA         33.6110    8.4130    9.9270 C.3       1 GLY         0.1326
      7 C          34.6930    8.2180    8.8690 C.2       1 GLY         0.2041
      8 O          35.2060    9.1990    8.3250 O.2       1 GLY        -0.3944
      9 CB         34.2680    8.4770   11.2990 C.3       1 GLY        -0.0008
     10 CG         33.4120    8.7570   12.4780 C.3       1 GLY         0.0044
     11 CD         34.2440    8.5970   13.7480 C.2       1 GLY         0.0350
     12 OE1        34.9060    9.5840   14.1440 O.co2     1 GLY        -0.5690
     13 OE2        34.2900    7.4730   14.3140 O.co2     1 GLY        -0.5690
     14 N          35.1160    6.9660    8.6070 N.am      1 GLY        -0.2619
     15 CA         36.1730    6.7180    7.6430 C.3       1 GLY         0.1404
     16 C          35.8380    7.3700    6.3060 C.2       1 GLY         0.2061
     17 O          36.7340    7.9240    5.6450 O.2       1 GLY        -0.3942
     18 CB         36.3030    5.2010    7.4570 C.3       1 GLY         0.0214
     19 CG         37.3150    4.7650    6.4510 C.ar      1 GLY        -0.0386
     20 CD1        38.6640    4.8590    6.7300 C.ar      1 GLY        -0.0601
     21 CD2        36.9130    4.1510    5.2540 C.ar      1 GLY        -0.0601
     22 CE1        39.6000    4.3730    5.8530 C.ar      1 GLY        -0.0686
     23 CE2        37.8470    3.6930    4.3710 C.ar      1 GLY        -0.0686
     24 CZ         39.1870    3.7890    4.6640 C.ar      1 GLY        -0.0687
     25 N          34.5520    7.3320    5.8940 N.am      1 GLY        -0.2620
     26 CA         34.2110    7.8060    4.5570 C.3       1 GLY         0.1390
     27 C          34.2520    9.3110    4.4370 C.2       1 GLY         0.2057
     28 O          34.2680    9.8340    3.3040 O.2       1 GLY        -0.3942
     29 CB         32.8270    7.2550    4.1890 C.3       1 GLY         0.0163
     30 CG         32.8880    5.7440    4.2230 C.ar      1 GLY        -0.0493
     31 CD1        33.4200    5.0250    3.1370 C.ar      1 GLY        -0.0685
     32 CD2        32.4770    5.0200    5.3570 C.ar      1 GLY        -0.0685
     33 CE1        33.5080    3.6460    3.1780 C.ar      1 GLY        -0.0398
     34 CE2        32.6090    3.6260    5.4110 C.ar      1 GLY        -0.0398
     35 CZ         33.1110    2.9590    4.3100 C.ar      1 GLY         0.0805
     36 OH         33.2280    1.5890    4.3890 O.3       1 GLY        -0.3376
     37 N          34.3350   10.0290    5.5620 N.am      1 GLY        -0.2636
     38 CA         34.4950   11.4710    5.5420 C.3       1 GLY         0.1310
     39 C          35.9560   11.9010    5.5020 C.2       1 GLY         0.2039
     40 O          36.2120   13.0960    5.3820 O.2       1 GLY        -0.3944
     41 CB         33.8250   12.1000    6.7590 C.3       1 GLY        -0.0122
     42 CG         32.3060   11.8990    6.7660 C.3       1 GLY        -0.0440
     43 CD         31.6550   12.5010    8.0080 C.3       1 GLY        -0.0124
     44 CE         30.1660   12.3900    7.9230 C.3       1 GLY        -0.0354
     45 NZ         29.5920   12.7730    9.2360 N.4       1 GLY         0.2185
     46 N          36.9130   10.9880    5.6920 N.am      1 GLY        -0.2637
     47 CA         38.3220   11.3610    5.7280 C.3       1 GLY         0.1312
     48 C          38.9010   11.4890    4.3310 C.2       1 GLY         0.2039
     49 O          38.5200   10.7570    3.4020 O.2       1 GLY        -0.3944
     50 CB         39.0900   10.2730    6.4760 C.3       1 GLY        -0.0101
     51 CG         38.6780   10.1170    7.9600 C.3       1 GLY        -0.0425
     52 CD1        39.4360    8.9110    8.6310 C.3       1 GLY        -0.0625
     53 CD2        38.9800   11.4180    8.7090 C.3       1 GLY        -0.0625
     54 N          39.8290   12.4350    4.1670 N.am      1 GLY        -0.2637
     55 CA         40.5040   12.6350    2.8970 C.3       1 GLY         0.1310
     56 C          41.7650   11.8120    2.8610 C.2       1 GLY         0.2039
     57 O          42.3800   11.5360    3.9060 O.2       1 GLY        -0.3944
     58 CB         40.9030   14.0940    2.7530 C.3       1 GLY        -0.0122
     59 CG         39.6860   14.9940    2.7250 C.3       1 GLY        -0.0440
     60 CD         40.0370   16.3470    2.1450 C.3       1 GLY        -0.0124
     61 CE         38.8170   17.2230    1.9880 C.3       1 GLY        -0.0354
     62 NZ         38.2720   17.5610    3.3200 N.4       1 GLY         0.2185
     63 N          42.1390   11.3560    1.6810 N.am      1 GLY        -0.2635
     64 CA         43.3530   10.6170    1.4420 C.3       1 GLY         0.1335
     65 C          44.3500   11.5850    0.8760 C.2       1 GLY         0.2042
     66 O          44.0650   12.2450   -0.1380 O.2       1 GLY        -0.3944
     67 CB         43.0990    9.4610    0.4770 C.3       1 GLY        -0.0037
     68 CG1        42.2430    8.4260    1.2400 C.3       1 GLY        -0.0491
     69 CG2        44.4650    8.8880    0.0030 C.3       1 GLY        -0.0582
     70 CD1        41.5770    7.4080    0.3860 C.3       1 GLY        -0.0648
     71 N          45.4990   11.7020    1.5410 N.am      1 GLY        -0.2637
     72 CA         46.5860   12.5480    1.0620 C.3       1 GLY         0.1311
     73 C          47.2940   11.7720   -0.0280 C.2       1 GLY         0.2040
     74 O          47.8730   10.7110    0.2140 O.2       1 GLY        -0.3944
     75 CB         47.5030   12.9290    2.2380 C.3       1 GLY        -0.0092
     76 CG         48.6730   13.7660    1.7560 C.3       1 GLY        -0.0156
     77 CD         49.2460   14.5630    2.8940 C.3       1 GLY         0.0627
     78 NE         49.8540   13.6960    3.9020 N.pl3     1 GLY        -0.2723
     79 CZ         50.6300   14.1820    4.8580 C.cat     1 GLY         0.2882
     80 NH1        50.9130   15.4860    4.8610 N.pl3     1 GLY        -0.2849
     81 NH2        51.2130   13.3820    5.7400 N.pl3     1 GLY        -0.2849
     82 N          47.1910   12.2860   -1.2460 N.am      1 GLY        -0.2613
     83 CA         47.8140   11.6410   -2.3810 C.3       1 GLY         0.1567
     84 C          49.3150   11.6500   -2.1400 C.2       1 GLY         0.2090
     85 O          49.8600   12.6840   -1.7300 O.2       1 GLY        -0.3941
     86 CB         47.4890   12.4600   -3.6250 C.3       1 GLY         0.0924
     87 OG1        46.0630   12.5610   -3.7590 O.3       1 GLY        -0.3874
     88 CG2        48.0970   11.8220   -4.8740 C.3       1 GLY        -0.0346
     89 N          50.0140   10.5240   -2.3490 N.am      1 GLY        -0.2498
     90 CA         51.4630   10.5270   -2.1380 C.3       1 GLY         0.1338
     91 C          52.1590   11.3640   -3.1900 C.2       1 GLY         0.2041
     92 O          51.6000   11.6340   -4.2480 O.2       1 GLY        -0.3944
     93 CB         51.8510    9.0550   -2.2630 C.3       1 GLY        -0.0104
     94 CG         50.7350    8.4190   -3.0070 C.3       1 GLY        -0.0281
     95 CD         49.4960    9.2030   -2.7690 C.3       1 GLY         0.0369
     96 N          53.3590   11.8230   -2.8790 N.am      1 GLY        -0.2637
     97 CA         54.1460   12.5450   -3.8530 C.3       1 GLY         0.1307
     98 CB         55.1800   13.4290   -3.1500 C.3       1 GLY        -0.0092
     99 CG         54.5770   14.7620   -2.6830 C.3       1 GLY        -0.0156
    100 CD         53.2310   15.0240   -3.3560 C.3       1 GLY         0.0627
    101 NE         53.3150   16.2250   -4.1620 N.pl3     1 GLY        -0.2723
    102 CZ         52.9150   17.5160   -3.6470 C.cat     1 GLY         0.2882
    103 NH1        52.4060   17.6310   -2.2900 N.pl3     1 GLY        -0.2849
    104 NH2        53.0070   18.5260   -4.3860 N.pl3     1 GLY        -0.2849
    105 C          54.8370   11.4540   -4.6580 C.2       1 GLY         0.1992
    106 O          55.1380   10.4290   -4.1350 O.2       1 GLY        -0.3947
    107 NT         55.0910   11.6610   -6.0660 N.am      1 GLY        -0.2990
    108 H1         29.4903    5.0349    9.8721 H         1 GLY         0.2012
    109 H2         30.1731    6.2530   10.7435 H         1 GLY         0.2012
    110 H3         31.0966    4.9914   10.2288 H         1 GLY         0.2012
    111 H4         29.7369    6.9321    8.5361 H         1 GLY         0.1061
    112 H5         30.7447    5.5553    7.9745 H         1 GLY         0.1061
    113 H6         32.3530    6.8286   10.6528 H         1 GLY         0.1884
    114 H7         33.1343    9.3865    9.7398 H         1 GLY         0.0801
    115 H8         35.0325    9.2668   11.2571 H         1 GLY         0.0330
    116 H9         34.7536    7.5054   11.4729 H         1 GLY         0.0330
    117 H10        32.5696    8.0500   12.4980 H         1 GLY         0.0433
    118 H11        33.0263    9.7854   12.4174 H         1 GLY         0.0433
    119 H12        34.6950    6.1947    9.0844 H         1 GLY         0.1885
    120 H13        37.1208    7.1290    8.0208 H         1 GLY         0.0823
    121 H14        35.3230    4.8121    7.1433 H         1 GLY         0.0474
    122 H15        36.5781    4.7622    8.4275 H         1 GLY         0.0474
    123 H16        38.9877    5.3231    7.6546 H         1 GLY         0.0557
    124 H17        35.8580    4.0405    5.0308 H         1 GLY         0.0557
    125 H18        40.6559    4.4447    6.0874 H         1 GLY         0.0599
    126 H19        37.5308    3.2509    3.4331 H         1 GLY         0.0599
    127 H20        39.9223    3.4077    3.9647 H         1 GLY         0.0559
    128 H21        33.8389    6.9815    6.5011 H         1 GLY         0.1885
    129 H22        34.9480    7.3968    3.8504 H         1 GLY         0.0821
    130 H23        32.5495    7.5926    3.1795 H         1 GLY         0.0453
    131 H24        32.0805    7.6127    4.9134 H         1 GLY         0.0453
    132 H25        33.7647    5.5582    2.2584 H         1 GLY         0.0530
    133 H26        32.0515    5.5488    6.2023 H         1 GLY         0.0530
    134 H27        33.8890    3.1024    2.3210 H         1 GLY         0.0525
    135 H28        32.3219    3.0797    6.3022 H         1 GLY         0.0525
    136 H29        33.5826    1.2550    3.5734 H         1 GLY         0.2458
    137 H30        34.2853    9.5584    6.4429 H         1 GLY         0.1883
    138 H31        34.0018   11.8516    4.6354 H         1 GLY         0.0800
    139 H32        34.0374   13.1793    6.7594 H         1 GLY         0.0312
    140 H33        34.2448   11.6434    7.6674 H         1 GLY         0.0312
    141 H34        32.0904   10.8207    6.7395 H         1 GLY         0.0269
    142 H35        31.8800   12.3802    5.8733 H         1 GLY         0.0269
    143 H36        31.9353   13.5618    8.0859 H         1 GLY         0.0317
    144 H37        32.0081   11.9620    8.8995 H         1 GLY         0.0317
    145 H38        29.8838   11.3545    7.6821 H         1 GLY         0.0813
    146 H39        29.7872   13.0646    7.1411 H         1 GLY         0.0813
    147 H40        28.5872   12.7037    9.1965 H         1 GLY         0.1994
    148 H41        29.8551   13.7213    9.4540 H         1 GLY         0.1994
    149 H42        29.9436   12.1542    9.9498 H         1 GLY         0.1994
    150 H43        36.6574   10.0287    5.8120 H         1 GLY         0.1883
    151 H44        38.4292   12.3215    6.2533 H         1 GLY         0.0800
    152 H45        40.1616   10.5185    6.4388 H         1 GLY         0.0315
    153 H46        38.9155    9.3140    5.9662 H         1 GLY         0.0315
    154 H47        37.5966    9.9213    8.0082 H         1 GLY         0.0298
    155 H48        39.1258    8.8224    9.6826 H         1 GLY         0.0232
    156 H49        40.5207    9.0869    8.5823 H         1 GLY         0.0232
    157 H50        39.1910    7.9811    8.0969 H         1 GLY         0.0232
    158 H51        38.4441   12.2502    8.2291 H         1 GLY         0.0232
    159 H52        40.0620   11.6143    8.6815 H         1 GLY         0.0232
    160 H53        38.6508   11.3242    9.7544 H         1 GLY         0.0232
    161 H54        40.0659   13.0225    4.9408 H         1 GLY         0.1883
    162 H55        39.8373   12.3424    2.0724 H         1 GLY         0.0800
    163 H56        41.4652   14.2215    1.8162 H         1 GLY         0.0312
    164 H57        41.5395   14.3777    3.6041 H         1 GLY         0.0312
    165 H58        39.3109   15.1267    3.7505 H         1 GLY         0.0269
    166 H59        38.9053   14.5271    2.1065 H         1 GLY         0.0269
    167 H60        40.5007   16.2020    1.1581 H         1 GLY         0.0317
    168 H61        40.7509   16.8476    2.8156 H         1 GLY         0.0317
    169 H62        38.0535   16.6859    1.4061 H         1 GLY         0.0813
    170 H63        39.0960   18.1477    1.4617 H         1 GLY         0.0813
    171 H64        37.4580   18.1456    3.2115 H         1 GLY         0.1994
    172 H65        38.9708   18.0537    3.8538 H         1 GLY         0.1994
    173 H66        38.0155   16.7142    3.8029 H         1 GLY         0.1994
    174 H67        41.5403   11.5350    0.9003 H         1 GLY         0.1883
    175 H68        43.7320   10.2105    2.3913 H         1 GLY         0.0803
    176 H69        42.5402    9.8177   -0.4008 H         1 GLY         0.0345
    177 H70        41.4632    8.9698    1.7933 H         1 GLY         0.0267
    178 H71        42.8973    7.8997    1.9505 H         1 GLY         0.0267
    179 H72        45.0250    9.6697   -0.5311 H         1 GLY         0.0235
    180 H73        44.2913    8.0361   -0.6708 H         1 GLY         0.0235
    181 H74        45.0448    8.5530    0.8757 H         1 GLY         0.0235
    182 H75        40.9955    6.7218    1.0193 H         1 GLY         0.0230
    183 H76        42.3383    6.8393   -0.1680 H         1 GLY         0.0230
    184 H77        40.9042    7.9094   -0.3253 H         1 GLY         0.0230
    185 H78        45.6194   11.1944    2.3941 H         1 GLY         0.1883
    186 H79        46.1738   13.4724    0.6312 H         1 GLY         0.0800
    187 H80        47.8853   12.0118    2.7098 H         1 GLY         0.0313
    188 H81        46.9249   13.5066    2.9743 H         1 GLY         0.0313
    189 H82        48.3283   14.4529    0.9690 H         1 GLY         0.0301
    190 H83        49.4507   13.1029    1.3493 H         1 GLY         0.0301
    191 H84        48.4402   15.1464    3.3634 H         1 GLY         0.0689
    192 H85        50.0128   15.2468    2.5012 H         1 GLY         0.0689
    193 H86        49.6742   12.6824    3.8675 H         1 GLY         0.2642
    194 H87        51.5152   15.8806    5.5976 H         1 GLY         0.2615
    195 H88        50.5292   16.0980    4.1268 H         1 GLY         0.2615
    196 H89        50.9983   12.3746    5.7423 H         1 GLY         0.2615
    197 H90        51.8806   13.7679    6.4229 H         1 GLY         0.2615
    198 H91        46.6751   13.1318   -1.3819 H         1 GLY         0.1884
    199 H92        47.4481   10.6099   -2.4949 H         1 GLY         0.0826
    200 H93        47.9098   13.4694   -3.5064 H         1 GLY         0.0639
    201 H94        45.7033   12.9883   -2.9906 H         1 GLY         0.2101
    202 H95        47.8480   12.4315   -5.7552 H         1 GLY         0.0257
    203 H96        47.6905   10.8080   -5.0028 H         1 GLY         0.0257
    204 H97        49.1900   11.7675   -4.7629 H         1 GLY         0.0257
    205 H98        51.7126   10.9136   -1.1389 H         1 GLY         0.0802
    206 H99        51.9601    8.5992   -1.2679 H         1 GLY         0.0313
    207 H100       52.7941    8.9508   -2.8195 H         1 GLY         0.0313
    208 H101       50.5941    7.3874   -2.6522 H         1 GLY         0.0287
    209 H102       50.9655    8.4087   -4.0825 H         1 GLY         0.0287
    210 H103       48.8984    9.2868   -3.6887 H         1 GLY         0.0524
    211 H104       48.8859    8.7470   -1.9754 H         1 GLY         0.0524
    212 H105       53.7257   11.6693   -1.9614 H         1 GLY         0.1883
    213 H106       53.5047   13.1637   -4.4979 H         1 GLY         0.0800
    214 H107       56.0029   13.6375   -3.8495 H         1 GLY         0.0313
    215 H108       55.5708   12.8902   -2.2743 H         1 GLY         0.0313
    216 H109       55.2699   15.5779   -2.9364 H         1 GLY         0.0301
    217 H110       54.4329   14.7286   -1.5930 H         1 GLY         0.0301
    218 H111       52.4561   15.1535   -2.5862 H         1 GLY         0.0689
    219 H112       52.9707   14.1698   -3.9983 H         1 GLY         0.0689
    220 H113       53.6688   16.1577   -5.1270 H         1 GLY         0.2642
    221 H114       52.1211   18.5503   -1.9230 H         1 GLY         0.2615
    222 H115       52.3303   16.7932   -1.6956 H         1 GLY         0.2615
    223 H116       53.3693   18.4308   -5.3455 H         1 GLY         0.2615
    224 H117       52.7202   19.4502   -4.0331 H         1 GLY         0.2615
    225 H118       55.5446   10.9491   -6.6022 H         1 GLY         0.1815
    226 H119       54.8131   12.5161   -6.5038 H         1 GLY         0.1815
@<TRIPOS>BOND
     1    1    2 1  
     2    2    3 1  
     3    3    4 2  
     4    3    5 am 
     5    5    6 1  
     6    6    7 1  
     7    6    9 1  
     8    7    8 2  
     9    7   14 am 
    10    9   10 1  
    11   10   11 1  
    12   11   12 ar 
    13   11   13 ar 
    14   14   15 1  
    15   15   16 1  
    16   15   18 1  
    17   16   17 2  
    18   16   25 am 
    19   18   19 1  
    20   19   20 ar 
    21   19   21 ar 
    22   20   22 ar 
    23   21   23 ar 
    24   22   24 ar 
    25   23   24 ar 
    26   25   26 1  
    27   26   27 1  
    28   26   29 1  
    29   27   28 2  
    30   27   37 am 
    31   29   30 1  
    32   30   31 ar 
    33   30   32 ar 
    34   31   33 ar 
    35   32   34 ar 
    36   33   35 ar 
    37   34   35 ar 
    38   35   36 1  
    39   37   38 1  
    40   38   39 1  
    41   38   41 1  
    42   39   40 2  
    43   39   46 am 
    44   41   42 1  
    45   42   43 1  
    46   43   44 1  
    47   44   45 1  
    48   46   47 1  
    49   47   48 1  
    50   47   50 1  
    51   48   49 2  
    52   48   54 am 
    53   50   51 1  
    54   51   52 1  
    55   51   53 1  
    56   54   55 1  
    57   55   56 1  
    58   55   58 1  
    59   56   57 2  
    60   56   63 am 
    61   58   59 1  
    62   59   60 1  
    63   60   61 1  
    64   61   62 1  
    65   63   64 1  
    66   64   65 1  
    67   64   67 1  
    68   65   66 2  
    69   65   71 am 
    70   67   68 1  
    71   67   69 1  
    72   68   70 1  
    73   71   72 1  
    74   72   73 1  
    75   72   75 1  
    76   73   74 2  
    77   73   82 am 
    78   75   76 1  
    79   76   77 1  
    80   77   78 1  
    81   78   79 ar 
    82   79   80 ar 
    83   79   81 ar 
    84   82   83 1  
    85   83   84 1  
    86   83   86 1  
    87   84   85 2  
    88   84   89 am 
    89   86   87 1  
    90   86   88 1  
    91   89   90 1  
    92   89   95 1  
    93   90   91 1  
    94   90   93 1  
    95   91   92 2  
    96   91   96 am 
    97   93   94 1  
    98   94   95 1  
    99   96   97 1  
   100   97   98 1  
   101   97  105 1  
   102   98   99 1  
   103   99  100 1  
   104  100  101 1  
   105  101  102 ar 
   106  102  103 ar 
   107  102  104 ar 
   108  105  106 2  
   109  105  107 am 
   110    1  108 1  
   111    1  109 1  
   112    1  110 1  
   113    2  111 1  
   114    2  112 1  
   115    5  113 1  
   116    6  114 1  
   117    9  115 1  
   118    9  116 1  
   119   10  117 1  
   120   10  118 1  
   121   14  119 1  
   122   15  120 1  
   123   18  121 1  
   124   18  122 1  
   125   20  123 1  
   126   21  124 1  
   127   22  125 1  
   128   23  126 1  
   129   24  127 1  
   130   25  128 1  
   131   26  129 1  
   132   29  130 1  
   133   29  131 1  
   134   31  132 1  
   135   32  133 1  
   136   33  134 1  
   137   34  135 1  
   138   36  136 1  
   139   37  137 1  
   140   38  138 1  
   141   41  139 1  
   142   41  140 1  
   143   42  141 1  
   144   42  142 1  
   145   43  143 1  
   146   43  144 1  
   147   44  145 1  
   148   44  146 1  
   149   45  147 1  
   150   45  148 1  
   151   45  149 1  
   152   46  150 1  
   153   47  151 1  
   154   50  152 1  
   155   50  153 1  
   156   51  154 1  
   157   52  155 1  
   158   52  156 1  
   159   52  157 1  
   160   53  158 1  
   161   53  159 1  
   162   53  160 1  
   163   54  161 1  
   164   55  162 1  
   165   58  163 1  
   166   58  164 1  
   167   59  165 1  
   168   59  166 1  
   169   60  167 1  
   170   60  168 1  
   171   61  169 1  
   172   61  170 1  
   173   62  171 1  
   174   62  172 1  
   175   62  173 1  
   176   63  174 1  
   177   64  175 1  
   178   67  176 1  
   179   68  177 1  
   180   68  178 1  
   181   69  179 1  
   182   69  180 1  
   183   69  181 1  
   184   70  182 1  
   185   70  183 1  
   186   70  184 1  
   187   71  185 1  
   188   72  186 1  
   189   75  187 1  
   190   75  188 1  
   191   76  189 1  
   192   76  190 1  
   193   77  191 1  
   194   77  192 1  
   195   78  193 1  
   196   80  194 1  
   197   80  195 1  
   198   81  196 1  
   199   81  197 1  
   200   82  198 1  
   201   83  199 1  
   202   86  200 1  
   203   87  201 1  
   204   88  202 1  
   205   88  203 1  
   206   88  204 1  
   207   90  205 1  
   208   93  206 1  
   209   93  207 1  
   210   94  208 1  
   211   94  209 1  
   212   95  210 1  
   213   95  211 1  
   214   96  212 1  
   215   97  213 1  
   216   98  214 1  
   217   98  215 1  
   218   99  216 1  
   219   99  217 1  
   220  100  218 1  
   221  100  219 1  
   222  101  220 1  
   223  103  221 1  
   224  103  222 1  
   225  104  223 1  
   226  104  224 1  
   227  107  225 1  
   228  107  226 1  
@<TRIPOS>SUBSTRUCTURE
     1 GLY         1

