5ok6_ligand
  -I-interpret- 

225227  0  0  0  0  0  0  0  0999 V2000
   30.3210    5.5920    9.9970 N   0  3  0  0  0
   30.6140    6.3090    8.7650 C   0  0  0  0  0
   31.8420    7.2250    8.7230 C   0  0  0  0  0
   32.0970    7.8270    7.6880 O   0  0  0  0  0
   32.5500    7.3970    9.8540 N   0  0  0  0  0
   33.6110    8.4130    9.9270 C   0  0  0  0  0
   34.6930    8.2180    8.8690 C   0  0  0  0  0
   35.2060    9.1990    8.3250 O   0  0  0  0  0
   34.2680    8.4770   11.2990 C   0  0  0  0  0
   33.4120    8.7570   12.4780 C   0  0  0  0  0
   34.2440    8.5970   13.7480 C   0  0  0  0  0
   34.9060    9.5840   14.1440 O   0  0  0  0  0
   34.2900    7.4730   14.3140 O   0  0  0  0  0
   35.1160    6.9660    8.6070 N   0  0  0  0  0
   36.1730    6.7180    7.6430 C   0  0  0  0  0
   35.8380    7.3700    6.3060 C   0  0  0  0  0
   36.7340    7.9240    5.6450 O   0  0  0  0  0
   36.3030    5.2010    7.4570 C   0  0  0  0  0
   37.3150    4.7650    6.4510 C   0  0  0  0  0
   38.6640    4.8590    6.7300 C   0  0  0  0  0
   36.9130    4.1510    5.2540 C   0  0  0  0  0
   39.6000    4.3730    5.8530 C   0  0  0  0  0
   37.8470    3.6930    4.3710 C   0  0  0  0  0
   39.1870    3.7890    4.6640 C   0  0  0  0  0
   34.5520    7.3320    5.8940 N   0  0  0  0  0
   34.2110    7.8060    4.5570 C   0  0  0  0  0
   34.2520    9.3110    4.4370 C   0  0  0  0  0
   34.2680    9.8340    3.3040 O   0  0  0  0  0
   32.8270    7.2550    4.1890 C   0  0  0  0  0
   32.8880    5.7440    4.2230 C   0  0  0  0  0
   33.4200    5.0250    3.1370 C   0  0  0  0  0
   32.4770    5.0200    5.3570 C   0  0  0  0  0
   33.5080    3.6460    3.1780 C   0  0  0  0  0
   32.6090    3.6260    5.4110 C   0  0  0  0  0
   33.1110    2.9590    4.3100 C   0  0  0  0  0
   33.2280    1.5890    4.3890 O   0  0  0  0  0
   34.3350   10.0290    5.5620 N   0  0  0  0  0
   34.4950   11.4710    5.5420 C   0  0  0  0  0
   35.9560   11.9010    5.5020 C   0  0  0  0  0
   36.2120   13.0960    5.3820 O   0  0  0  0  0
   33.8250   12.1000    6.7590 C   0  0  0  0  0
   32.3060   11.8990    6.7660 C   0  0  0  0  0
   31.6550   12.5010    8.0080 C   0  0  0  0  0
   30.1660   12.3900    7.9230 C   0  0  0  0  0
   29.5920   12.7730    9.2360 N   0  3  0  0  0
   36.9130   10.9880    5.6920 N   0  0  0  0  0
   38.3220   11.3610    5.7280 C   0  0  0  0  0
   38.9010   11.4890    4.3310 C   0  0  0  0  0
   38.5200   10.7570    3.4020 O   0  0  0  0  0
   39.0900   10.2730    6.4760 C   0  0  0  0  0
   38.6780   10.1170    7.9600 C   0  0  0  0  0
   39.4360    8.9110    8.6310 C   0  0  0  0  0
   38.9800   11.4180    8.7090 C   0  0  0  0  0
   39.8290   12.4350    4.1670 N   0  0  0  0  0
   40.5040   12.6350    2.8970 C   0  0  0  0  0
   41.7650   11.8120    2.8610 C   0  0  0  0  0
   42.3800   11.5360    3.9060 O   0  0  0  0  0
   40.9030   14.0940    2.7530 C   0  0  0  0  0
   39.6860   14.9940    2.7250 C   0  0  0  0  0
   40.0370   16.3470    2.1450 C   0  0  0  0  0
   38.8170   17.2230    1.9880 C   0  0  0  0  0
   38.2720   17.5610    3.3200 N   0  3  0  0  0
   42.1390   11.3560    1.6810 N   0  0  0  0  0
   43.3530   10.6170    1.4420 C   0  0  0  0  0
   44.3500   11.5850    0.8760 C   0  0  0  0  0
   44.0650   12.2450   -0.1380 O   0  0  0  0  0
   43.0990    9.4610    0.4770 C   0  0  0  0  0
   42.2430    8.4260    1.2400 C   0  0  0  0  0
   44.4650    8.8880    0.0030 C   0  0  0  0  0
   41.5770    7.4080    0.3860 C   0  0  0  0  0
   45.4990   11.7020    1.5410 N   0  0  0  0  0
   46.5860   12.5480    1.0620 C   0  0  0  0  0
   47.2940   11.7720   -0.0280 C   0  0  0  0  0
   47.8730   10.7110    0.2140 O   0  0  0  0  0
   47.5030   12.9290    2.2380 C   0  0  0  0  0
   48.6730   13.7660    1.7560 C   0  0  0  0  0
   49.2460   14.5630    2.8940 C   0  0  0  0  0
   49.8540   13.6960    3.9020 N   0  0  0  0  0
   50.6300   14.1820    4.8580 C   0  0  0  0  0
   50.9130   15.4860    4.8610 N   0  0  0  0  0
   51.2130   13.3820    5.7400 N   0  0  0  0  0
   47.1910   12.2860   -1.2460 N   0  0  0  0  0
   47.8140   11.6410   -2.3810 C   0  0  0  0  0
   49.3150   11.6500   -2.1400 C   0  0  0  0  0
   49.8600   12.6840   -1.7300 O   0  0  0  0  0
   47.4890   12.4600   -3.6250 C   0  0  0  0  0
   46.0630   12.5610   -3.7590 O   0  0  0  0  0
   48.0970   11.8220   -4.8740 C   0  0  0  0  0
   50.0140   10.5240   -2.3490 N   0  0  0  0  0
   51.4630   10.5270   -2.1380 C   0  0  0  0  0
   52.1590   11.3640   -3.1900 C   0  0  0  0  0
   51.6000   11.6340   -4.2480 O   0  0  0  0  0
   51.8510    9.0550   -2.2630 C   0  0  0  0  0
   50.7350    8.4190   -3.0070 C   0  0  0  0  0
   49.4960    9.2030   -2.7690 C   0  0  0  0  0
   53.3590   11.8230   -2.8790 N   0  0  0  0  0
   54.1460   12.5450   -3.8530 C   0  0  0  0  0
   55.1800   13.4290   -3.1500 C   0  0  0  0  0
   54.5770   14.7620   -2.6830 C   0  0  0  0  0
   53.2310   15.0240   -3.3560 C   0  0  0  0  0
   53.3150   16.2250   -4.1620 N   0  0  0  0  0
   52.9150   17.5160   -3.6470 C   0  0  0  0  0
   52.4060   17.6310   -2.2900 N   0  0  0  0  0
   53.0070   18.5260   -4.3860 N   0  0  0  0  0
   54.8370   11.4540   -4.6580 C   0  0  0  0  0
   55.1380   10.4290   -4.1350 O   0  0  0  0  0
   55.0910   11.6610   -6.0660 N   0  0  0  0  0
   29.4803    5.0287    9.8694 H   0  0  0  0  0
   31.1065    4.9847   10.2305 H   0  0  0  0  0
   30.1716    6.2619   10.7515 H   0  0  0  0  0
   29.7612    6.9702    8.6116 H   0  0  0  0  0
   30.8129    5.5333    8.0255 H   0  0  0  0  0
   32.3490    6.8172   10.6688 H   0  0  0  0  0
   33.1013    9.3571    9.7348 H   0  0  0  0  0
   34.9630    9.3149   11.2446 H   0  0  0  0  0
   34.6722    7.4792   11.4695 H   0  0  0  0  0
   32.5748    8.0593   12.4975 H   0  0  0  0  0
   33.0263    9.7747   12.4179 H   0  0  0  0  0
   33.7110    6.8606   13.8544 H   0  0  0  0  0
   34.6866    6.1793    9.0939 H   0  0  0  0  0
   37.1095    7.1418    8.0056 H   0  0  0  0  0
   35.3360    4.8468    7.0999 H   0  0  0  0  0
   36.6231    4.7957    8.4169 H   0  0  0  0  0
   38.9895    5.3257    7.6597 H   0  0  0  0  0
   35.8522    4.0399    5.0296 H   0  0  0  0  0
   40.6618    4.4451    6.0887 H   0  0  0  0  0
   37.5290    3.2485    3.4279 H   0  0  0  0  0
   39.9263    3.4056    3.9608 H   0  0  0  0  0
   33.8246    6.9745    6.5133 H   0  0  0  0  0
   34.9622    7.4398    3.8573 H   0  0  0  0  0
   32.5444    7.5938    3.1923 H   0  0  0  0  0
   32.0825    7.6136    4.8998 H   0  0  0  0  0
   33.7666    5.5612    2.2536 H   0  0  0  0  0
   32.0492    5.5517    6.2069 H   0  0  0  0  0
   33.8911    3.0994    2.3163 H   0  0  0  0  0
   32.3203    3.0767    6.3071 H   0  0  0  0  0
   32.9049    1.2900    5.2421 H   0  0  0  0  0
   34.2844    9.5489    6.4605 H   0  0  0  0  0
   34.0177   11.8197    4.6262 H   0  0  0  0  0
   34.0211   13.1719    6.7329 H   0  0  0  0  0
   34.2306   11.6207    7.6500 H   0  0  0  0  0
   32.1040   10.8279    6.7607 H   0  0  0  0  0
   31.8924   12.3971    5.8891 H   0  0  0  0  0
   31.9288   13.5538    8.0770 H   0  0  0  0  0
   32.0014   11.9591    8.8880 H   0  0  0  0  0
   29.8818   11.3671    7.6759 H   0  0  0  0  0
   29.7867   13.0505    7.1433 H   0  0  0  0  0
   28.5753   12.7025    9.1948 H   0  0  0  0  0
   29.9485   12.1462    9.9574 H   0  0  0  0  0
   29.8589   13.7327    9.4555 H   0  0  0  0  0
   36.6523   10.0095    5.8144 H   0  0  0  0  0
   38.4117   12.3266    6.2257 H   0  0  0  0  0
   40.1434   10.5528    6.4610 H   0  0  0  0  0
   38.8748    9.3266    5.9799 H   0  0  0  0  0
   37.6093    9.9083    8.0091 H   0  0  0  0  0
   39.1924    7.9903    8.1009 H   0  0  0  0  0
   40.5107    9.0865    8.5821 H   0  0  0  0  0
   39.1278    8.8243    9.6729 H   0  0  0  0  0
   40.0469   11.6324    8.6466 H   0  0  0  0  0
   38.4170   12.2348    8.2574 H   0  0  0  0  0
   38.6904   11.3096    9.7542 H   0  0  0  0  0
   40.0706   13.0342    4.9563 H   0  0  0  0  0
   39.8289   12.3414    2.0932 H   0  0  0  0  0
   41.4470   14.2152    1.8163 H   0  0  0  0  0
   41.5215   14.3715    3.6066 H   0  0  0  0  0
   39.3238   15.1299    3.7440 H   0  0  0  0  0
   38.9191   14.5316    2.1035 H   0  0  0  0  0
   40.4780   16.1937    1.1600 H   0  0  0  0  0
   40.7294   16.8425    2.8255 H   0  0  0  0  0
   38.0605   16.6894    1.4127 H   0  0  0  0  0
   39.0948   18.1397    1.4679 H   0  0  0  0  0
   37.4485   18.1525    3.2090 H   0  0  0  0  0
   38.0129   16.7034    3.8076 H   0  0  0  0  0
   38.9799   18.0595    3.8592 H   0  0  0  0  0
   41.5283   11.5386    0.8847 H   0  0  0  0  0
   43.7300   10.1779    2.3656 H   0  0  0  0  0
   42.5628    9.7687   -0.4207 H   0  0  0  0  0
   41.4510    8.9819    1.7418 H   0  0  0  0  0
   42.9193    7.8863    1.9028 H   0  0  0  0  0
   45.0308    9.6713   -0.5015 H   0  0  0  0  0
   45.0268    8.5306    0.8660 H   0  0  0  0  0
   44.2914    8.0619   -0.6866 H   0  0  0  0  0
   40.9107    7.9061   -0.3183 H   0  0  0  0  0
   42.3324    6.8452   -0.1624 H   0  0  0  0  0
   41.0012    6.7287    1.0146 H   0  0  0  0  0
   45.6218   11.1842    2.4112 H   0  0  0  0  0
   46.2311   13.4911    0.6464 H   0  0  0  0  0
   47.8868   12.0171    2.6955 H   0  0  0  0  0
   46.9281   13.5094    2.9596 H   0  0  0  0  0
   48.3268   14.4496    0.9809 H   0  0  0  0  0
   49.4442   13.1056    1.3595 H   0  0  0  0  0
   48.4384   15.1249    3.3633 H   0  0  0  0  0
   50.0158   15.2256    2.4985 H   0  0  0  0  0
   49.6759   12.6922    3.8678 H   0  0  0  0  0
   51.5749   15.8627    5.5396 H   0  0  0  0  0
   50.4674   16.1061    4.1847 H   0  0  0  0  0
   51.0669   12.3738    5.6888 H   0  0  0  0  0
   46.6648   13.1487   -1.3846 H   0  0  0  0  0
   47.4591   10.6188   -2.5124 H   0  0  0  0  0
   47.9194   13.4558   -3.5187 H   0  0  0  0  0
   45.8519   13.0760   -4.5412 H   0  0  0  0  0
   49.1800   11.7685   -4.7626 H   0  0  0  0  0
   47.6934   10.8174   -5.0004 H   0  0  0  0  0
   47.8496   12.4268   -5.7464 H   0  0  0  0  0
   51.7503   10.9572   -1.1786 H   0  0  0  0  0
   51.9970    8.5937   -1.2863 H   0  0  0  0  0
   52.8013    8.9328   -2.7826 H   0  0  0  0  0
   50.5967    7.3943   -2.6622 H   0  0  0  0  0
   50.9630    8.4014   -4.0727 H   0  0  0  0  0
   48.8566    9.2605   -3.6499 H   0  0  0  0  0
   48.8447    8.7478   -2.0229 H   0  0  0  0  0
   53.7330   11.6662   -1.9431 H   0  0  0  0  0
   53.5424   13.2047   -4.4763 H   0  0  0  0  0
   55.9794   13.6467   -3.8583 H   0  0  0  0  0
   55.5446   12.8945   -2.2728 H   0  0  0  0  0
   55.2622   15.5667   -2.9496 H   0  0  0  0  0
   54.4243   14.7165   -1.6047 H   0  0  0  0  0
   52.4639   15.1536   -2.5925 H   0  0  0  0  0
   52.9744   14.1778   -3.9933 H   0  0  0  0  0
   53.6654   16.1583   -5.1176 H   0  0  0  0  0
   52.1187   18.5405   -1.9284 H   0  0  0  0  0
   52.3362   16.8022   -1.6995 H   0  0  0  0  0
   53.3606   18.4309   -5.3380 H   0  0  0  0  0
   55.5313   10.9252   -6.6184 H   0  0  0  0  0
   54.8299   12.5429   -6.5071 H   0  0  0  0  0
  1  2  1  0  0  0
  2  3  1  0  0  0
  3  4  2  0  0  0
  3  5  1  0  0  0
  5  6  1  0  0  0
  6  7  1  0  0  0
  6  9  1  0  0  0
  7  8  2  0  0  0
  7 14  1  0  0  0
  9 10  1  0  0  0
 10 11  1  0  0  0
 11 12  2  0  0  0
 11 13  1  0  0  0
 14 15  1  0  0  0
 15 16  1  0  0  0
 15 18  1  0  0  0
 16 17  2  0  0  0
 16 25  1  0  0  0
 18 19  1  0  0  0
 19 20  4  0  0  0
 19 21  4  0  0  0
 20 22  4  0  0  0
 21 23  4  0  0  0
 22 24  4  0  0  0
 23 24  4  0  0  0
 25 26  1  0  0  0
 26 27  1  0  0  0
 26 29  1  0  0  0
 27 28  2  0  0  0
 27 37  1  0  0  0
 29 30  1  0  0  0
 30 31  4  0  0  0
 30 32  4  0  0  0
 31 33  4  0  0  0
 32 34  4  0  0  0
 33 35  4  0  0  0
 34 35  4  0  0  0
 35 36  1  0  0  0
 37 38  1  0  0  0
 38 39  1  0  0  0
 38 41  1  0  0  0
 39 40  2  0  0  0
 39 46  1  0  0  0
 41 42  1  0  0  0
 42 43  1  0  0  0
 43 44  1  0  0  0
 44 45  1  0  0  0
 46 47  1  0  0  0
 47 48  1  0  0  0
 47 50  1  0  0  0
 48 49  2  0  0  0
 48 54  1  0  0  0
 50 51  1  0  0  0
 51 52  1  0  0  0
 51 53  1  0  0  0
 54 55  1  0  0  0
 55 56  1  0  0  0
 55 58  1  0  0  0
 56 57  2  0  0  0
 56 63  1  0  0  0
 58 59  1  0  0  0
 59 60  1  0  0  0
 60 61  1  0  0  0
 61 62  1  0  0  0
 63 64  1  0  0  0
 64 65  1  0  0  0
 64 67  1  0  0  0
 65 66  2  0  0  0
 65 71  1  0  0  0
 67 68  1  0  0  0
 67 69  1  0  0  0
 68 70  1  0  0  0
 71 72  1  0  0  0
 72 73  1  0  0  0
 72 75  1  0  0  0
 73 74  2  0  0  0
 73 82  1  0  0  0
 75 76  1  0  0  0
 76 77  1  0  0  0
 77 78  1  0  0  0
 78 79  1  0  0  0
 79 80  1  0  0  0
 79 81  2  0  0  0
 82 83  1  0  0  0
 83 84  1  0  0  0
 83 86  1  0  0  0
 84 85  2  0  0  0
 84 89  1  0  0  0
 86 87  1  0  0  0
 86 88  1  0  0  0
 89 90  1  0  0  0
 89 95  1  0  0  0
 90 91  1  0  0  0
 90 93  1  0  0  0
 91 92  2  0  0  0
 91 96  1  0  0  0
 93 94  1  0  0  0
 94 95  1  0  0  0
 96 97  1  0  0  0
 97 98  1  0  0  0
 97105  1  0  0  0
 98 99  1  0  0  0
 99100  1  0  0  0
100101  1  0  0  0
101102  1  0  0  0
102103  1  0  0  0
102104  2  0  0  0
105106  2  0  0  0
105107  1  0  0  0
  1108  1  0  0  0
  1109  1  0  0  0
  1110  1  0  0  0
  2111  1  0  0  0
  2112  1  0  0  0
  5113  1  0  0  0
  6114  1  0  0  0
  9115  1  0  0  0
  9116  1  0  0  0
 10117  1  0  0  0
 10118  1  0  0  0
 13119  1  0  0  0
 14120  1  0  0  0
 15121  1  0  0  0
 18122  1  0  0  0
 18123  1  0  0  0
 20124  1  0  0  0
 21125  1  0  0  0
 22126  1  0  0  0
 23127  1  0  0  0
 24128  1  0  0  0
 25129  1  0  0  0
 26130  1  0  0  0
 29131  1  0  0  0
 29132  1  0  0  0
 31133  1  0  0  0
 32134  1  0  0  0
 33135  1  0  0  0
 34136  1  0  0  0
 36137  1  0  0  0
 37138  1  0  0  0
 38139  1  0  0  0
 41140  1  0  0  0
 41141  1  0  0  0
 42142  1  0  0  0
 42143  1  0  0  0
 43144  1  0  0  0
 43145  1  0  0  0
 44146  1  0  0  0
 44147  1  0  0  0
 45148  1  0  0  0
 45149  1  0  0  0
 45150  1  0  0  0
 46151  1  0  0  0
 47152  1  0  0  0
 50153  1  0  0  0
 50154  1  0  0  0
 51155  1  0  0  0
 52156  1  0  0  0
 52157  1  0  0  0
 52158  1  0  0  0
 53159  1  0  0  0
 53160  1  0  0  0
 53161  1  0  0  0
 54162  1  0  0  0
 55163  1  0  0  0
 58164  1  0  0  0
 58165  1  0  0  0
 59166  1  0  0  0
 59167  1  0  0  0
 60168  1  0  0  0
 60169  1  0  0  0
 61170  1  0  0  0
 61171  1  0  0  0
 62172  1  0  0  0
 62173  1  0  0  0
 62174  1  0  0  0
 63175  1  0  0  0
 64176  1  0  0  0
 67177  1  0  0  0
 68178  1  0  0  0
 68179  1  0  0  0
 69180  1  0  0  0
 69181  1  0  0  0
 69182  1  0  0  0
 70183  1  0  0  0
 70184  1  0  0  0
 70185  1  0  0  0
 71186  1  0  0  0
 72187  1  0  0  0
 75188  1  0  0  0
 75189  1  0  0  0
 76190  1  0  0  0
 76191  1  0  0  0
 77192  1  0  0  0
 77193  1  0  0  0
 78194  1  0  0  0
 80195  1  0  0  0
 80196  1  0  0  0
 81197  1  0  0  0
 82198  1  0  0  0
 83199  1  0  0  0
 86200  1  0  0  0
 87201  1  0  0  0
 88202  1  0  0  0
 88203  1  0  0  0
 88204  1  0  0  0
 90205  1  0  0  0
 93206  1  0  0  0
 93207  1  0  0  0
 94208  1  0  0  0
 94209  1  0  0  0
 95210  1  0  0  0
 95211  1  0  0  0
 96212  1  0  0  0
 97213  1  0  0  0
 98214  1  0  0  0
 98215  1  0  0  0
 99216  1  0  0  0
 99217  1  0  0  0
100218  1  0  0  0
100219  1  0  0  0
101220  1  0  0  0
103221  1  0  0  0
103222  1  0  0  0
104223  1  0  0  0
107224  1  0  0  0
107225  1  0  0  0
M  END
$$$$
