5afx_ligand
  -I-interpret- 

 54 54  0  0  0  0  0  0  0  0999 V2000
   31.3350    8.2690   15.2260 C   0  0  0  0  0
   30.3040    7.8520   14.1720 C   0  0  0  0  0
   29.1670    8.8720   13.9880 C   0  0  0  0  0
   27.9470    8.2830   13.2250 C   0  0  0  0  0
   26.9370    7.6420   14.1850 C   0  0  0  0  0
   27.5600    6.7390   15.2860 C   0  0  0  0  0
   27.5170    5.2320   14.9210 C   0  0  0  0  0
   26.7320    4.2920   15.8750 C   0  0  0  0  0
   27.1540    2.8080   15.6820 C   0  0  0  0  0
   26.2740    1.9240   16.4530 N   0  3  0  0  0
   26.6020    0.7680   17.0320 C   0  0  0  0  0
   25.4810    0.2700   17.6750 C   0  0  0  0  0
   24.4810    1.1390   17.4500 N   0  0  0  0  0
   24.9610    2.1600   16.6950 C   0  0  0  0  0
   23.0940    1.0910   17.8810 C   0  0  0  0  0
   22.3380   -0.0950   17.3340 C   0  0  0  0  0
   22.9570   -1.2500   17.8570 O   0  0  0  0  0
   22.2620   -0.3430   15.5090 P   0  0  0  0  0
   21.3440    0.6760   14.8280 O   0  0  0  0  0
   21.6520   -1.7400   15.4350 O   0  0  0  0  0
   23.6800   -0.3440   14.9190 O   0  0  0  0  0
   20.6450   -0.0580   17.9690 P   0  0  0  0  0
   20.1690   -1.4650   18.3060 O   0  0  0  0  0
   19.6100    0.6220   17.0920 O   0  0  0  0  0
   20.7930    0.6690   19.2730 O   0  0  0  0  0
   31.7893    9.2156   14.9334 H   0  0  0  0  0
   30.8404    8.3846   16.1904 H   0  0  0  0  0
   32.1062    7.5024   15.3013 H   0  0  0  0  0
   29.8542    6.9169   14.5058 H   0  0  0  0  0
   30.8259    7.7678   13.2188 H   0  0  0  0  0
   29.5569    9.7045   13.4023 H   0  0  0  0  0
   28.8269    9.1751   14.9782 H   0  0  0  0  0
   28.3069    7.5150   12.5404 H   0  0  0  0  0
   27.4496    9.0936   12.6925 H   0  0  0  0  0
   26.2911    7.0035   13.5823 H   0  0  0  0  0
   26.4282    8.4582   14.6978 H   0  0  0  0  0
   26.9817    6.8783   16.1994 H   0  0  0  0  0
   28.6054    7.0253   15.4012 H   0  0  0  0  0
   28.5515    4.8902   14.9544 H   0  0  0  0  0
   27.0035    5.1749   13.9612 H   0  0  0  0  0
   25.6688    4.3816   15.6521 H   0  0  0  0  0
   26.9482    4.5827   16.9030 H   0  0  0  0  0
   28.1791    2.6815   16.0303 H   0  0  0  0  0
   27.0789    2.5513   14.6253 H   0  0  0  0  0
   27.5841    0.2961   17.0039 H   0  0  0  0  0
   25.4212   -0.6518   18.2537 H   0  0  0  0  0
   24.3902    3.0198   16.3444 H   0  0  0  0  0
   22.6037    1.9920   17.5123 H   0  0  0  0  0
   23.0900    1.0106   18.9680 H   0  0  0  0  0
   23.0221   -1.1724   18.8116 H   0  0  0  0  0
   21.7404    1.5487   14.8825 H   0  0  0  0  0
   24.0486    0.5408   14.9733 H   0  0  0  0  0
   20.0606   -1.9677   17.4953 H   0  0  0  0  0
   19.5297    0.1432   16.2638 H   0  0  0  0  0
  1  2  1  0  0  0
  2  3  1  0  0  0
  3  4  1  0  0  0
  4  5  1  0  0  0
  5  6  1  0  0  0
  6  7  1  0  0  0
  7  8  1  0  0  0
  8  9  1  0  0  0
  9 10  1  0  0  0
 10 11  4  0  0  0
 10 14  4  0  0  0
 11 12  4  0  0  0
 12 13  4  0  0  0
 13 14  4  0  0  0
 13 15  1  0  0  0
 15 16  1  0  0  0
 16 17  1  0  0  0
 16 18  1  0  0  0
 16 22  1  0  0  0
 18 19  1  0  0  0
 18 20  2  0  0  0
 18 21  1  0  0  0
 22 23  1  0  0  0
 22 24  1  0  0  0
 22 25  2  0  0  0
  1 26  1  0  0  0
  1 27  1  0  0  0
  1 28  1  0  0  0
  2 29  1  0  0  0
  2 30  1  0  0  0
  3 31  1  0  0  0
  3 32  1  0  0  0
  4 33  1  0  0  0
  4 34  1  0  0  0
  5 35  1  0  0  0
  5 36  1  0  0  0
  6 37  1  0  0  0
  6 38  1  0  0  0
  7 39  1  0  0  0
  7 40  1  0  0  0
  8 41  1  0  0  0
  8 42  1  0  0  0
  9 43  1  0  0  0
  9 44  1  0  0  0
 11 45  1  0  0  0
 12 46  1  0  0  0
 14 47  1  0  0  0
 15 48  1  0  0  0
 15 49  1  0  0  0
 17 50  1  0  0  0
 19 51  1  0  0  0
 21 52  1  0  0  0
 23 53  1  0  0  0
 24 54  1  0  0  0
M  END
$$$$
