### 
### Created by X-TOOL on Mon Sep 10 21:13:25 2018
### 

@<TRIPOS>MOLECULE
5afx_ligand
   50    50     1     0     0
SMALL
GAST_HUCK


@<TRIPOS>ATOM
      1 C01        31.3350    8.2690   15.2260 C.3       1 PVZ        -0.0653
      2 C02        30.3040    7.8520   14.1720 C.3       1 PVZ        -0.0559
      3 C03        29.1670    8.8720   13.9880 C.3       1 PVZ        -0.0533
      4 C04        27.9470    8.2830   13.2250 C.3       1 PVZ        -0.0531
      5 C05        26.9370    7.6420   14.1850 C.3       1 PVZ        -0.0531
      6 C06        27.5600    6.7390   15.2860 C.3       1 PVZ        -0.0530
      7 C07        27.5170    5.2320   14.9210 C.3       1 PVZ        -0.0521
      8 C08        26.7320    4.2920   15.8750 C.3       1 PVZ        -0.0405
      9 C09        27.1540    2.8080   15.6820 C.3       1 PVZ         0.0206
     10 N10        26.2740    1.9240   16.4530 N.2       1 PVZ        -0.2706
     11 C11        26.6020    0.7680   17.0320 C.2       1 PVZ         0.1184
     12 C12        25.4810    0.2700   17.6750 C.2       1 PVZ         0.1818
     13 N13        24.4810    1.1390   17.4500 N.pl3     1 PVZ        -0.1323
     14 C14        24.9610    2.1600   16.6950 C.2       1 PVZ         0.1886
     15 C15        23.0940    1.0910   17.8810 C.3       1 PVZ         0.1476
     16 C16        22.3380   -0.0950   17.3340 C.3       1 PVZ         0.2357
     17 O17        22.9570   -1.2500   17.8570 O.3       1 PVZ        -0.3573
     18 P18        22.2620   -0.3430   15.5090 P.3       1 PVZ         0.1132
     19 O19        21.3440    0.6760   14.8280 O.co2     1 PVZ        -0.5593
     20 O20        21.6520   -1.7400   15.4350 O.co2     1 PVZ        -0.5593
     21 O21        23.6800   -0.3440   14.9190 O.co2     1 PVZ        -0.5593
     22 P22        20.6450   -0.0580   17.9690 P.3       1 PVZ         0.1132
     23 O23        20.1690   -1.4650   18.3060 O.co2     1 PVZ        -0.5593
     24 O24        19.6100    0.6220   17.0920 O.co2     1 PVZ        -0.5593
     25 O25        20.7930    0.6690   19.2730 O.co2     1 PVZ        -0.5593
     26 H1         32.1139    7.4960   15.3029 H         1 PVZ         0.0230
     27 H2         30.8371    8.3860   16.1998 H         1 PVZ         0.0230
     28 H3         31.7943    9.2243   14.9319 H         1 PVZ         0.0230
     29 H4         29.8637    6.8912   14.4768 H         1 PVZ         0.0263
     30 H5         30.8209    7.7294   13.2088 H         1 PVZ         0.0263
     31 H6         29.5542    9.7316   13.4214 H         1 PVZ         0.0265
     32 H7         28.8320    9.2078   14.9805 H         1 PVZ         0.0265
     33 H8         28.3028    7.5186   12.5186 H         1 PVZ         0.0265
     34 H9         27.4486    9.0915   12.6701 H         1 PVZ         0.0265
     35 H10        26.2442    7.0276   13.5913 H         1 PVZ         0.0265
     36 H11        26.3781    8.4490   14.6813 H         1 PVZ         0.0265
     37 H12        27.0024    6.8902   16.2220 H         1 PVZ         0.0265
     38 H13        28.6091    7.0356   15.4322 H         1 PVZ         0.0265
     39 H14        28.5555    4.8714   14.8821 H         1 PVZ         0.0266
     40 H15        27.0614    5.1462   13.9235 H         1 PVZ         0.0266
     41 H16        25.6561    4.3882   15.6671 H         1 PVZ         0.0276
     42 H17        26.9325    4.5888   16.9150 H         1 PVZ         0.0276
     43 H18        28.1907    2.6779   16.0261 H         1 PVZ         0.0418
     44 H19        27.0861    2.5472   14.6155 H         1 PVZ         0.0418
     45 H20        27.5832    0.2965   17.0039 H         1 PVZ         0.1406
     46 H21        25.4213   -0.6509   18.2531 H         1 PVZ         0.2017
     47 H22        24.3907    3.0191   16.3447 H         1 PVZ         0.1987
     48 H23        22.5921    2.0101   17.5443 H         1 PVZ         0.0718
     49 H24        23.0716    1.0424   18.9797 H         1 PVZ         0.0718
     50 H25        22.4381   -2.0141   17.6350 H         1 PVZ         0.2134
@<TRIPOS>BOND
     1    1    2 1  
     2    2    3 1  
     3    3    4 1  
     4    4    5 1  
     5    5    6 1  
     6    6    7 1  
     7    7    8 1  
     8    8    9 1  
     9    9   10 1  
    10   10   11 1  
    11   10   14 2  
    12   11   12 2  
    13   12   13 1  
    14   13   14 1  
    15   13   15 1  
    16   15   16 1  
    17   16   17 1  
    18   16   18 1  
    19   16   22 1  
    20   18   19 ar 
    21   18   20 ar 
    22   18   21 ar 
    23   22   23 ar 
    24   22   24 ar 
    25   22   25 ar 
    26    1   26 1  
    27    1   27 1  
    28    1   28 1  
    29    2   29 1  
    30    2   30 1  
    31    3   31 1  
    32    3   32 1  
    33    4   33 1  
    34    4   34 1  
    35    5   35 1  
    36    5   36 1  
    37    6   37 1  
    38    6   38 1  
    39    7   39 1  
    40    7   40 1  
    41    8   41 1  
    42    8   42 1  
    43    9   43 1  
    44    9   44 1  
    45   11   45 1  
    46   12   46 1  
    47   14   47 1  
    48   15   48 1  
    49   15   49 1  
    50   17   50 1  
@<TRIPOS>SUBSTRUCTURE
     1 PVZ         1

