6itq_ligand
  -I-interpret- 

 58 61  0  0  0  0  0  0  0  0999 V2000
   14.7790    1.4360   14.4920 C   0  0  0  0  0
   13.2950    1.6700   14.0340 C   0  0  0  0  0
   12.3690    2.0480   15.2120 C   0  0  0  0  0
   12.9950    2.8130   16.3890 C   0  0  0  0  0
   14.4110    3.3070   16.1960 C   0  0  0  0  0
   15.0390    4.4690   17.0800 C   0  0  0  0  0
   16.4510    4.0150   17.7230 C   0  0  0  0  0
   17.4320    3.3280   16.7730 C   0  0  0  0  0
   16.6680    2.1450   15.9380 C   0  0  0  0  0
   15.4020    2.6420   15.1810 C   0  0  0  0  0
   18.9320    0.7920   15.9420 C   0  0  0  0  0
   17.5880    1.3010   15.1070 C   0  0  0  0  0
   19.5500    1.8520   16.8060 C   0  0  0  0  0
   18.5400    2.7080   17.6060 C   0  0  0  0  0
   19.4460    3.6010   18.6010 C   0  0  0  0  0
   20.7220    2.7340   18.9540 C   0  0  0  0  0
   20.5900    1.3640   17.9910 C   0  0  0  0  0
   20.3080    2.8500   15.8610 C   0  0  0  0  0
   15.7360    3.7150   14.1170 C   0  0  0  0  0
   21.7590    0.8920   17.5180 C   0  0  0  0  0
   21.8910   -0.6220   17.2080 C   0  0  0  0  0
   11.2050    1.7900   15.2190 O   0  0  0  0  0
   18.0710    1.9150   13.9940 O   0  0  0  0  0
   19.9330    0.3330   18.7480 O   0  0  0  0  0
   22.6930    1.5850   17.3460 O   0  0  0  0  0
   23.2420   -0.9580   17.0070 O   0  0  0  0  0
   15.3680    1.2300   13.5983 H   0  0  0  0  0
   14.7738    0.6161   15.2102 H   0  0  0  0  0
   12.9256    0.7416   13.5985 H   0  0  0  0  0
   13.2877    2.4942   13.3207 H   0  0  0  0  0
   13.0315    2.1096   17.2209 H   0  0  0  0  0
   12.3817    3.7028   16.5310 H   0  0  0  0  0
   13.4176    3.5255   15.8041 H   0  0  0  0  0
   14.3473    4.7036   17.8891 H   0  0  0  0  0
   15.2093    5.3374   16.4436 H   0  0  0  0  0
   16.2136    3.2852   18.4971 H   0  0  0  0  0
   16.9410    4.9285   18.0599 H   0  0  0  0  0
   17.8361    4.0552   16.0687 H   0  0  0  0  0
   16.2869    1.4605   16.6958 H   0  0  0  0  0
   19.6794    0.4988   15.2048 H   0  0  0  0  0
   18.6171   -0.0185   16.5993 H   0  0  0  0  0
   16.9414    0.4692   14.8275 H   0  0  0  0  0
   17.8603    2.1355   18.2371 H   0  0  0  0  0
   18.8917    3.8618   19.5026 H   0  0  0  0  0
   19.7329    4.5401   18.1278 H   0  0  0  0  0
   20.7612    2.4827   20.0139 H   0  0  0  0  0
   21.6473    3.2772   18.7621 H   0  0  0  0  0
   21.0782    2.3115   15.3088 H   0  0  0  0  0
   19.6003    3.2939   15.1608 H   0  0  0  0  0
   20.7700    3.6352   16.4594 H   0  0  0  0  0
   16.1985    4.5744   14.6023 H   0  0  0  0  0
   16.4251    3.2957   13.3839 H   0  0  0  0  0
   14.8188    4.0279   13.6180 H   0  0  0  0  0
   21.3267   -0.8528   16.3045 H   0  0  0  0  0
   21.5012   -1.1948   18.0494 H   0  0  0  0  0
   18.6478    1.3105   13.5212 H   0  0  0  0  0
   20.5169    0.0292   19.4468 H   0  0  0  0  0
   23.3123   -1.8962   16.8161 H   0  0  0  0  0
  1  2  1  0  0  0
  1 10  1  0  0  0
  2  3  1  0  0  0
  3  4  1  0  0  0
  3 22  2  0  0  0
  4  5  1  0  0  0
  5  6  1  0  0  0
  5 10  1  0  0  0
  6  7  1  0  0  0
  7  8  1  0  0  0
  8  9  1  0  0  0
  8 14  1  0  0  0
  9 10  1  0  0  0
  9 12  1  0  0  0
 10 19  1  0  0  0
 12 11  1  0  0  0
 11 13  1  0  0  0
 12 23  1  0  0  0
 13 14  1  0  0  0
 13 17  1  0  0  0
 13 18  1  0  0  0
 14 15  1  0  0  0
 15 16  1  0  0  0
 16 17  1  0  0  0
 17 20  1  0  0  0
 17 24  1  0  0  0
 20 21  1  0  0  0
 20 25  2  0  0  0
 21 26  1  0  0  0
  1 27  1  0  0  0
  1 28  1  0  0  0
  2 29  1  0  0  0
  2 30  1  0  0  0
  4 31  1  0  0  0
  4 32  1  0  0  0
  5 33  1  0  0  0
  6 34  1  0  0  0
  6 35  1  0  0  0
  7 36  1  0  0  0
  7 37  1  0  0  0
  8 38  1  0  0  0
  9 39  1  0  0  0
 11 40  1  0  0  0
 11 41  1  0  0  0
 12 42  1  0  0  0
 14 43  1  0  0  0
 15 44  1  0  0  0
 15 45  1  0  0  0
 16 46  1  0  0  0
 16 47  1  0  0  0
 18 48  1  0  0  0
 18 49  1  0  0  0
 18 50  1  0  0  0
 19 51  1  0  0  0
 19 52  1  0  0  0
 19 53  1  0  0  0
 21 54  1  0  0  0
 21 55  1  0  0  0
 23 56  1  0  0  0
 24 57  1  0  0  0
 26 58  1  0  0  0
M  END
$$$$
