2xcg_ligand
  -I-interpret- 

 24 26  0  0  0  0  0  0  0  0999 V2000
   50.1560  161.2080   32.4370 C   0  0  0  0  0
   49.0500  160.8430   31.7560 C   0  0  0  0  0
   47.7280  160.5860   32.1500 C   0  0  0  0  0
   46.7660  160.2340   31.1960 C   0  0  0  0  0
   47.1050  160.1550   29.8380 C   0  0  0  0  0
   48.4310  160.4100   29.4440 C   0  0  0  0  0
   49.3840  160.7550   30.4080 C   0  0  0  0  0
   50.7160  161.0670   30.3110 O   0  0  0  0  0
   51.1880  161.3300   31.5680 C   0  0  0  0  0
   52.5510  161.6680   31.7170 C   0  0  0  0  0
   53.2290  161.9300   32.8500 N   0  0  0  0  0
   54.6490  162.2570   32.5830 C   0  0  0  0  0
   54.7760  162.0760   31.0530 C   0  0  0  0  0
   53.3620  161.7630   30.6670 N   0  0  0  0  0
   50.2104  161.3773   33.5124 H   0  0  0  0  0
   47.4496  160.6606   33.2012 H   0  0  0  0  0
   45.7450  160.0196   31.5116 H   0  0  0  0  0
   46.3493  159.8988   29.0955 H   0  0  0  0  0
   48.7142  160.3392   28.3938 H   0  0  0  0  0
   52.8143  161.9062   33.7816 H   0  0  0  0  0
   55.3372  161.6202   33.1388 H   0  0  0  0  0
   54.9160  163.2621   32.9096 H   0  0  0  0  0
   55.4872  161.3022   30.7641 H   0  0  0  0  0
   55.1826  162.9498   30.5439 H   0  0  0  0  0
  1  2  4  0  0  0
  1  9  4  0  0  0
  2  3  4  0  0  0
  2  7  4  0  0  0
  3  4  4  0  0  0
  4  5  4  0  0  0
  5  6  4  0  0  0
  6  7  4  0  0  0
  7  8  4  0  0  0
  8  9  4  0  0  0
  9 10  1  0  0  0
 10 11  1  0  0  0
 10 14  2  0  0  0
 11 12  1  0  0  0
 12 13  1  0  0  0
 13 14  1  0  0  0
  1 15  1  0  0  0
  3 16  1  0  0  0
  4 17  1  0  0  0
  5 18  1  0  0  0
  6 19  1  0  0  0
 11 20  1  0  0  0
 12 21  1  0  0  0
 12 22  1  0  0  0
 13 23  1  0  0  0
 13 24  1  0  0  0
M  END
$$$$
