5zg3_ligand
  -I-interpret- 

 43 46  0  0  0  0  0  0  0  0999 V2000
   34.6330  -59.9890   20.1760 N   0  0  0  0  0
   33.9600  -60.8770   19.2880 C   0  0  0  0  0
   34.2660  -58.6070   20.1000 C   0  0  0  0  0
   35.0980  -59.6260   22.6890 C   0  0  0  0  0
   34.9720  -60.5730   21.5050 C   0  0  0  0  0
   33.0190  -56.7260   18.9290 C   0  0  0  0  0
   31.1390  -55.2290   18.9080 C   0  0  0  0  0
   33.9280  -55.6540   18.9190 C   0  0  0  0  0
   32.1100  -50.7870   19.5340 C   0  0  0  0  0
   33.1560  -49.3440   17.9050 C   0  0  0  0  0
   35.1360  -57.2450   23.3090 O   0  0  0  0  0
   35.5420  -58.0770   22.2260 S   0  0  0  0  0
   36.9870  -58.0400   22.0350 O   0  0  0  0  0
   33.0950  -60.4490   18.2800 C   0  0  0  0  0
   32.7930  -59.0970   18.1460 C   0  0  0  0  0
   34.8240  -57.6760   20.9340 N   0  0  0  0  0
   33.3840  -58.1550   18.9980 C   0  0  0  0  0
   33.3990  -54.3560   18.8880 C   0  0  0  0  0
   32.0140  -54.1650   18.8850 C   0  0  0  0  0
   31.6500  -56.5040   18.9270 C   0  0  0  0  0
   31.4130  -52.9330   18.8860 O   0  0  0  0  0
   32.0020  -51.7640   18.5490 C   0  0  0  0  0
   32.4340  -51.5400   17.2380 C   0  0  0  0  0
   33.0200  -50.3190   16.9170 C   0  0  0  0  0
   32.7060  -49.5770   19.2050 C   0  0  0  0  0
   34.1298  -61.9476   19.4020 H   0  0  0  0  0
   33.5731  -58.8081   20.9170 H   0  0  0  0  0
   35.8724  -60.0148   23.3503 H   0  0  0  0  0
   34.1252  -59.5658   23.1770 H   0  0  0  0  0
   35.9601  -61.0167   21.3827 H   0  0  0  0  0
   34.1415  -61.2348   21.7507 H   0  0  0  0  0
   30.0618  -55.0623   18.9111 H   0  0  0  0  0
   35.0043  -55.8255   18.9348 H   0  0  0  0  0
   31.7350  -50.9677   20.5414 H   0  0  0  0  0
   33.6193  -48.3886   17.6586 H   0  0  0  0  0
   32.6550  -61.1750   17.5963 H   0  0  0  0  0
   32.0945  -58.7701   17.3757 H   0  0  0  0  0
   34.7599  -56.6881   20.6883 H   0  0  0  0  0
   34.0677  -53.4955   18.8662 H   0  0  0  0  0
   30.9687  -57.3547   18.9407 H   0  0  0  0  0
   32.3134  -52.3115   16.4775 H   0  0  0  0  0
   33.3695  -50.1265   15.9026 H   0  0  0  0  0
   32.8229  -48.8054   19.9659 H   0  0  0  0  0
  1  2  1  0  0  0
  3  1  1  0  0  0
  1  5  1  0  0  0
 14  2  2  0  0  0
  3 16  1  0  0  0
 17  3  1  0  0  0
  5  4  1  0  0  0
 12  4  1  0  0  0
  8  6  4  0  0  0
  6 17  1  0  0  0
 20  6  4  0  0  0
 19  7  4  0  0  0
  7 20  4  0  0  0
 18  8  4  0  0  0
 22  9  4  0  0  0
  9 25  4  0  0  0
 10 24  4  0  0  0
 25 10  4  0  0  0
 12 11  2  0  0  0
 12 13  2  0  0  0
 16 12  1  0  0  0
 15 14  1  0  0  0
 17 15  2  0  0  0
 19 18  4  0  0  0
 21 19  1  0  0  0
 21 22  1  0  0  0
 22 23  4  0  0  0
 23 24  4  0  0  0
  2 26  1  0  0  0
  3 27  1  0  0  0
  4 28  1  0  0  0
  4 29  1  0  0  0
  5 30  1  0  0  0
  5 31  1  0  0  0
  7 32  1  0  0  0
  8 33  1  0  0  0
  9 34  1  0  0  0
 10 35  1  0  0  0
 14 36  1  0  0  0
 15 37  1  0  0  0
 16 38  1  0  0  0
 18 39  1  0  0  0
 20 40  1  0  0  0
 23 41  1  0  0  0
 24 42  1  0  0  0
 25 43  1  0  0  0
M  END
$$$$
