### 
### Created by X-TOOL on Mon Sep 10 21:13:17 2018
### 

@<TRIPOS>MOLECULE
4q3r_ligand
   57    58     1     0     0
SMALL
GAST_HUCK


@<TRIPOS>ATOM
      1 O01       -64.3550    5.5860   -0.8130 O.3       1 XA2        -0.8710
      2 B02       -64.7810    4.2250   -1.6260 B         1 XA2         3.0000
      3 O03       -64.3850    2.9490   -0.7210 O.3       1 XA2        -0.8710
      4 O04       -66.4370    4.2880   -1.7940 O.3       1 XA2        -0.8710
      5 C05       -63.9760    4.2170   -3.1390 C.3       1 XA2        -0.3457
      6 C06       -64.5040    3.0870   -4.0120 C.3       1 XA2        -0.1826
      7 C07       -63.3090    2.4450   -4.8100 C.3       1 XA2        -0.0753
      8 C08       -63.8600    1.4660   -5.8950 C.3       1 XA2        -0.0037
      9 C09       -62.7720    0.9420   -6.8880 C.3       1 XA2         0.0355
     10 N10       -61.8030    0.1550   -6.2090 N.4       1 XA2         0.2231
     11 C11       -63.5220    0.1000   -7.9280 C.3       1 XA2         0.0196
     12 C12       -62.5790   -0.3040   -8.9910 C.3       1 XA2        -0.0045
     13 C13       -63.2670   -1.2210   -9.9740 C.3       1 XA2        -0.0301
     14 N14       -63.8130   -2.4050   -9.2930 N.4       1 XA2         0.2472
     15 C15       -64.3230   -3.3670  -10.2540 C.3       1 XA2         0.0021
     16 C16       -63.2390   -3.7200  -11.2840 C.ar      1 XA2         0.0021
     17 C17       -62.1570   -4.4930  -10.9160 C.ar      1 XA2        -0.0545
     18 C18       -61.1770   -4.8060  -11.8510 C.ar      1 XA2        -0.0539
     19 C19       -61.2840   -4.3530  -13.1470 C.ar      1 XA2         0.0469
     20 CL1       -60.0620   -4.7350  -14.3500 Cl        1 XA2        -0.0764
     21 C21       -62.3680   -3.5780  -13.5220 C.ar      1 XA2         0.0479
     22 CL2       -62.4780   -3.0130  -15.1790 Cl        1 XA2        -0.0718
     23 C23       -63.3470   -3.2660  -12.5970 C.ar      1 XA2        -0.0409
     24 C24       -64.8190   -1.9980   -8.2730 C.3       1 XA2        -0.0301
     25 C25       -64.1890   -1.0630   -7.2700 C.3       1 XA2        -0.0045
     26 C26       -62.0590    2.1240   -7.5480 C.2       1 XA2         0.0962
     27 O27       -62.6810    2.9830   -8.2060 O.co2     1 XA2        -0.5422
     28 O28       -60.8170    2.2160   -7.4230 O.co2     1 XA2        -0.5422
     29 H1        -64.5817    6.3481   -1.3329 H         1 XA2        -0.1290
     30 H4        -63.4486    2.9539   -0.5612 H         1 XA2        -0.1290
     31 H6        -66.6753    5.0678   -2.2814 H         1 XA2        -0.1290
     32 H7        -63.3255    3.8015   -2.3553 H         1 XA2        -0.2101
     33 H9        -63.4004    4.9206   -3.7584 H         1 XA2        -0.2101
     34 H10       -65.2464    3.4851   -4.7193 H         1 XA2        -0.0084
     35 H11       -64.9754    2.3219   -3.3776 H         1 XA2        -0.0084
     36 H12       -62.6614    1.8914   -4.1143 H         1 XA2         0.0242
     37 H13       -62.7272    3.2406   -5.2983 H         1 XA2         0.0242
     38 H14       -64.6333    1.9913   -6.4746 H         1 XA2         0.0315
     39 H15       -64.3085    0.6008   -5.3849 H         1 XA2         0.0315
     40 H16       -61.1134   -0.1711   -6.8679 H         1 XA2         0.1999
     41 H17       -62.2551   -0.6356   -5.7769 H         1 XA2         0.1999
     42 H18       -61.3531    0.7134   -5.5006 H         1 XA2         0.1999
     43 H19       -64.3051    0.7228   -8.3850 H         1 XA2         0.0355
     44 H20       -61.7250   -0.8299   -8.5392 H         1 XA2         0.0321
     45 H21       -62.2203    0.5919   -9.5189 H         1 XA2         0.0321
     46 H22       -62.5403   -1.5454  -10.7334 H         1 XA2         0.0815
     47 H23       -64.0882   -0.6753  -10.4617 H         1 XA2         0.0815
     48 H24       -63.0549   -2.8517   -8.8014 H         1 XA2         0.2048
     49 H25       -65.1905   -2.9348  -10.7743 H         1 XA2         0.0981
     50 H26       -64.6309   -4.2805   -9.7242 H         1 XA2         0.0981
     51 H27       -62.0711   -4.8561   -9.8982 H         1 XA2         0.0561
     52 H28       -60.3251   -5.4092  -11.5587 H         1 XA2         0.0606
     53 H29       -64.2003   -2.6670  -12.8937 H         1 XA2         0.0564
     54 H30       -65.1923   -2.8923   -7.7526 H         1 XA2         0.0815
     55 H31       -65.6563   -1.4872   -8.7710 H         1 XA2         0.0815
     56 H32       -64.9719   -0.6875   -6.5947 H         1 XA2         0.0321
     57 H33       -63.4392   -1.6195   -6.6885 H         1 XA2         0.0321
@<TRIPOS>BOND
     1    1    2 1  
     2    2    3 1  
     3    2    4 1  
     4    5    6 1  
     5    6    7 1  
     6    7    8 1  
     7    8    9 1  
     8    9   10 1  
     9    9   11 1  
    10    9   26 1  
    11   11   12 1  
    12   11   25 1  
    13   12   13 1  
    14   13   14 1  
    15   14   15 1  
    16   14   24 1  
    17   15   16 1  
    18   16   17 ar 
    19   16   23 ar 
    20   17   18 ar 
    21   18   19 ar 
    22   19   20 1  
    23   19   21 ar 
    24   21   22 1  
    25   21   23 ar 
    26   24   25 1  
    27   26   27 ar 
    28   26   28 ar 
    29    2    5 du 
    30    1   29 1  
    31    3   30 1  
    32    4   31 1  
    33    5   32 1  
    34    5   33 1  
    35    6   34 1  
    36    6   35 1  
    37    7   36 1  
    38    7   37 1  
    39    8   38 1  
    40    8   39 1  
    41   10   40 1  
    42   10   41 1  
    43   10   42 1  
    44   11   43 1  
    45   12   44 1  
    46   12   45 1  
    47   13   46 1  
    48   13   47 1  
    49   14   48 1  
    50   15   49 1  
    51   15   50 1  
    52   17   51 1  
    53   18   52 1  
    54   23   53 1  
    55   24   54 1  
    56   24   55 1  
    57   25   56 1  
    58   25   57 1  
@<TRIPOS>SUBSTRUCTURE
     1 XA2         1

