4q3r_ligand
  -I-interpret- 

 58 59  0  0  0  0  0  0  0  0999 V2000
  -64.3550    5.5860   -0.8130 O   0  0  0  0  0
  -64.7810    4.2250   -1.6260 B   0  0  0  0  0
  -64.3850    2.9490   -0.7210 O   0  0  0  0  0
  -66.4370    4.2880   -1.7940 O   0  0  0  0  0
  -63.9760    4.2170   -3.1390 C   0  0  0  0  0
  -64.5040    3.0870   -4.0120 C   0  0  0  0  0
  -63.3090    2.4450   -4.8100 C   0  0  0  0  0
  -63.8600    1.4660   -5.8950 C   0  0  0  0  0
  -62.7720    0.9420   -6.8880 C   0  0  0  0  0
  -61.8030    0.1550   -6.2090 N   0  3  0  0  0
  -63.5220    0.1000   -7.9280 C   0  0  0  0  0
  -62.5790   -0.3040   -8.9910 C   0  0  0  0  0
  -63.2670   -1.2210   -9.9740 C   0  0  0  0  0
  -63.8130   -2.4050   -9.2930 N   0  3  0  0  0
  -64.3230   -3.3670  -10.2540 C   0  0  0  0  0
  -63.2390   -3.7200  -11.2840 C   0  0  0  0  0
  -62.1570   -4.4930  -10.9160 C   0  0  0  0  0
  -61.1770   -4.8060  -11.8510 C   0  0  0  0  0
  -61.2840   -4.3530  -13.1470 C   0  0  0  0  0
  -60.0620   -4.7350  -14.3500 Cl  0  0  0  0  0
  -62.3680   -3.5780  -13.5220 C   0  0  0  0  0
  -62.4780   -3.0130  -15.1790 Cl  0  0  0  0  0
  -63.3470   -3.2660  -12.5970 C   0  0  0  0  0
  -64.8190   -1.9980   -8.2730 C   0  0  0  0  0
  -64.1890   -1.0630   -7.2700 C   0  0  0  0  0
  -62.0590    2.1240   -7.5480 C   0  0  0  0  0
  -62.6810    2.9830   -8.2060 O   0  0  0  0  0
  -60.8170    2.2160   -7.4230 O   0  0  0  0  0
  -64.8002    5.6020    0.0374 H   0  0  0  0  0
  -64.8560    2.9921    0.1144 H   0  0  0  0  0
  -66.8458    4.2906   -0.9254 H   0  0  0  0  0
  -64.1533    5.1678   -3.6416 H   0  0  0  0  0
  -62.9087    4.0701   -2.9736 H   0  0  0  0  0
  -65.2410    3.4804   -4.7121 H   0  0  0  0  0
  -64.9727    2.3292   -3.3842 H   0  0  0  0  0
  -62.6702    1.8941   -4.1196 H   0  0  0  0  0
  -62.7356    3.2345   -5.2958 H   0  0  0  0  0
  -64.5968    2.0145   -6.4819 H   0  0  0  0  0
  -64.2663    0.5996   -5.3731 H   0  0  0  0  0
  -61.1058   -0.1744   -6.8767 H   0  0  0  0  0
  -61.3485    0.7210   -5.4924 H   0  0  0  0  0
  -62.2616   -0.6446   -5.7722 H   0  0  0  0  0
  -64.3148    0.6862   -8.3927 H   0  0  0  0  0
  -61.7365   -0.8293   -8.5411 H   0  0  0  0  0
  -62.2291    0.5851   -9.5157 H   0  0  0  0  0
  -62.5395   -1.5481  -10.7169 H   0  0  0  0  0
  -64.0865   -0.6785  -10.4453 H   0  0  0  0  0
  -63.0636   -2.8804   -8.7902 H   0  0  0  0  0
  -65.1777   -2.9324  -10.7724 H   0  0  0  0  0
  -64.6201   -4.2732   -9.7261 H   0  0  0  0  0
  -62.0706   -4.8581   -9.8926 H   0  0  0  0  0
  -60.3204   -5.4125  -11.5570 H   0  0  0  0  0
  -64.2051   -2.6637  -12.8954 H   0  0  0  0  0
  -65.1840   -2.8853   -7.7557 H   0  0  0  0  0
  -65.6454   -1.4882   -8.7683 H   0  0  0  0  0
  -64.9763   -0.6806   -6.6204 H   0  0  0  0  0
  -63.4334   -1.6189   -6.7148 H   0  0  0  0  0
  -60.4947    1.4834   -6.8929 H   0  0  0  0  0
  1  2  1  0  0  0
  2  3  1  0  0  0
  2  4  1  0  0  0
  5  6  1  0  0  0
  6  7  1  0  0  0
  7  8  1  0  0  0
  8  9  1  0  0  0
  9 10  1  0  0  0
  9 11  1  0  0  0
  9 26  1  0  0  0
 11 12  1  0  0  0
 11 25  1  0  0  0
 12 13  1  0  0  0
 13 14  1  0  0  0
 14 15  1  0  0  0
 14 24  1  0  0  0
 15 16  1  0  0  0
 16 17  4  0  0  0
 16 23  4  0  0  0
 17 18  4  0  0  0
 18 19  4  0  0  0
 19 20  1  0  0  0
 19 21  4  0  0  0
 21 22  1  0  0  0
 21 23  4  0  0  0
 24 25  1  0  0  0
 26 27  2  0  0  0
 26 28  1  0  0  0
  2  5  1  0  0  0
  1 29  1  0  0  0
  3 30  1  0  0  0
  4 31  1  0  0  0
  5 32  1  0  0  0
  5 33  1  0  0  0
  6 34  1  0  0  0
  6 35  1  0  0  0
  7 36  1  0  0  0
  7 37  1  0  0  0
  8 38  1  0  0  0
  8 39  1  0  0  0
 10 40  1  0  0  0
 10 41  1  0  0  0
 10 42  1  0  0  0
 11 43  1  0  0  0
 12 44  1  0  0  0
 12 45  1  0  0  0
 13 46  1  0  0  0
 13 47  1  0  0  0
 14 48  1  0  0  0
 15 49  1  0  0  0
 15 50  1  0  0  0
 17 51  1  0  0  0
 18 52  1  0  0  0
 23 53  1  0  0  0
 24 54  1  0  0  0
 24 55  1  0  0  0
 25 56  1  0  0  0
 25 57  1  0  0  0
 28 58  1  0  0  0
M  END
$$$$
