### 
### Created by X-TOOL on Mon Sep 10 21:12:57 2018
### 

@<TRIPOS>MOLECULE
3dsu_ligand
   49    48     1     0     0
SMALL
GAST_HUCK


@<TRIPOS>ATOM
      1 C1          8.1360   17.4420   20.3000 C.3       1 FPP         0.0917
      2 O1          8.0570   17.6070   21.7260 O.3       1 FPP        -0.2411
      3 C2          8.2990   18.6840   19.6740 C.2       1 FPP        -0.0782
      4 C3          7.3200   19.6640   19.4770 C.2       1 FPP        -0.0804
      5 C4          5.8590   19.4600   19.9340 C.3       1 FPP        -0.0402
      6 C5          7.6880   20.9740   18.7570 C.3       1 FPP        -0.0253
      7 C6          7.2420   22.1960   19.5750 C.3       1 FPP        -0.0388
      8 C7          7.4330   23.3870   18.8710 C.2       1 FPP        -0.1070
      9 C8          7.9830   24.5740   19.3460 C.2       1 FPP        -0.0827
     10 C10         8.4360   24.6940   20.8020 C.3       1 FPP        -0.0402
     11 C9          8.0920   25.7760   18.3970 C.3       1 FPP        -0.0254
     12 C11         7.1440   26.9510   18.7700 C.3       1 FPP        -0.0388
     13 C12         5.7810   26.6360   18.7700 C.2       1 FPP        -0.1074
     14 C13         4.7180   27.4100   18.2630 C.2       1 FPP        -0.0870
     15 C14         4.9260   28.7580   17.5680 C.3       1 FPP        -0.0406
     16 C15         3.2710   26.9060   18.3730 C.3       1 FPP        -0.0406
     17 PA          7.6410   16.4310   22.7790 P.3       1 FPP         0.3288
     18 O1A         6.8020   17.0590   23.8230 O.co2     1 FPP        -0.5555
     19 O2A         8.8690   15.7050   23.1570 O.co2     1 FPP        -0.5555
     20 O3A         6.7120   15.4310   21.8810 O.3       1 FPP        -0.1547
     21 PB          5.7820   14.2130   22.4600 P.3       1 FPP         0.2070
     22 O1B         4.3920   14.2920   21.9420 O.co2     1 FPP        -0.5891
     23 O2B         6.5420   12.8430   22.0320 O.co2     1 FPP        -0.5891
     24 O3B         5.8270   14.2270   24.0820 O.co2     1 FPP        -0.5891
     25 H           7.2099   16.9720   19.9375 H         1 FPP         0.0696
     26 H           8.9938   16.7979   20.0564 H         1 FPP         0.0696
     27 H           9.2960   18.9118   19.2999 H         1 FPP         0.0268
     28 H           5.2674   20.3519   19.6799 H         1 FPP         0.0375
     29 H           5.8339   19.3012   21.0222 H         1 FPP         0.0375
     30 H           5.4349   18.5817   19.4254 H         1 FPP         0.0375
     31 H           7.1911   20.9971   17.7759 H         1 FPP         0.0425
     32 H           8.7783   21.0135   18.6169 H         1 FPP         0.0425
     33 H           7.8268   22.2346   20.5058 H         1 FPP         0.0361
     34 H           6.1740   22.0924   19.8170 H         1 FPP         0.0361
     35 H           7.1146   23.3869   17.8296 H         1 FPP         0.0244
     36 H           8.8391   25.7021   20.9787 H         1 FPP         0.0375
     37 H           9.2164   23.9461   21.0061 H         1 FPP         0.0375
     38 H           7.5783   24.5202   21.4684 H         1 FPP         0.0375
     39 H           7.8449   25.4393   17.3794 H         1 FPP         0.0425
     40 H           9.1282   26.1444   18.4199 H         1 FPP         0.0425
     41 H           7.3062   27.7629   18.0458 H         1 FPP         0.0361
     42 H           7.4133   27.2995   19.7780 H         1 FPP         0.0361
     43 H           5.5092   25.6796   19.2143 H         1 FPP         0.0244
     44 H           3.9517   29.1671   17.2624 H         1 FPP         0.0375
     45 H           5.5600   28.6187   16.6800 H         1 FPP         0.0375
     46 H           5.4156   29.4568   18.2622 H         1 FPP         0.0375
     47 H           3.2593   25.9346   18.8890 H         1 FPP         0.0375
     48 H           2.8451   26.7910   17.3653 H         1 FPP         0.0375
     49 H           2.6724   27.6314   18.9435 H         1 FPP         0.0375
@<TRIPOS>BOND
     1    1    2 1  
     2    1    3 1  
     3    2   17 1  
     4    3    4 2  
     5    4    5 1  
     6    4    6 1  
     7    6    7 1  
     8    7    8 1  
     9    8    9 2  
    10    9   10 1  
    11    9   11 1  
    12   11   12 1  
    13   12   13 1  
    14   13   14 2  
    15   14   15 1  
    16   14   16 1  
    17   17   18 ar 
    18   17   19 ar 
    19   17   20 1  
    20   20   21 1  
    21   21   22 ar 
    22   21   23 ar 
    23   21   24 ar 
    24    1   25 1  
    25    1   26 1  
    26    3   27 1  
    27    5   28 1  
    28    5   29 1  
    29    5   30 1  
    30    6   31 1  
    31    6   32 1  
    32    7   33 1  
    33    7   34 1  
    34    8   35 1  
    35   10   36 1  
    36   10   37 1  
    37   10   38 1  
    38   11   39 1  
    39   11   40 1  
    40   12   41 1  
    41   12   42 1  
    42   13   43 1  
    43   15   44 1  
    44   15   45 1  
    45   15   46 1  
    46   16   47 1  
    47   16   48 1  
    48   16   49 1  
@<TRIPOS>SUBSTRUCTURE
     1 FPP         1

