3dsu_ligand
  -I-interpret- 

 52 51  0  0  0  0  0  0  0  0999 V2000
    8.1360   17.4420   20.3000 C   0  0  0  0  0
    8.0570   17.6070   21.7260 O   0  0  0  0  0
    8.2990   18.6840   19.6740 C   0  0  0  0  0
    7.3200   19.6640   19.4770 C   0  0  0  0  0
    5.8590   19.4600   19.9340 C   0  0  0  0  0
    7.6880   20.9740   18.7570 C   0  0  0  0  0
    7.2420   22.1960   19.5750 C   0  0  0  0  0
    7.4330   23.3870   18.8710 C   0  0  0  0  0
    7.9830   24.5740   19.3460 C   0  0  0  0  0
    8.4360   24.6940   20.8020 C   0  0  0  0  0
    8.0920   25.7760   18.3970 C   0  0  0  0  0
    7.1440   26.9510   18.7700 C   0  0  0  0  0
    5.7810   26.6360   18.7700 C   0  0  0  0  0
    4.7180   27.4100   18.2630 C   0  0  0  0  0
    4.9260   28.7580   17.5680 C   0  0  0  0  0
    3.2710   26.9060   18.3730 C   0  0  0  0  0
    7.6410   16.4310   22.7790 P   0  0  0  0  0
    6.8020   17.0590   23.8230 O   0  0  0  0  0
    8.8690   15.7050   23.1570 O   0  0  0  0  0
    6.7120   15.4310   21.8810 O   0  0  0  0  0
    5.7820   14.2130   22.4600 P   0  0  0  0  0
    4.3920   14.2920   21.9420 O   0  0  0  0  0
    6.5420   12.8430   22.0320 O   0  0  0  0  0
    5.8270   14.2270   24.0820 O   0  0  0  0  0
    7.2138   16.9828   19.9438 H   0  0  0  0  0
    8.9912   16.8093   20.0623 H   0  0  0  0  0
    9.2969   18.9120   19.2995 H   0  0  0  0  0
    5.4400   18.5894   19.4294 H   0  0  0  0  0
    5.8356   19.3028   21.0123 H   0  0  0  0  0
    5.2739   20.3444   19.6817 H   0  0  0  0  0
    7.1827   20.9962   17.7914 H   0  0  0  0  0
    8.7702   21.0125   18.6325 H   0  0  0  0  0
    7.8394   22.2360   20.4858 H   0  0  0  0  0
    6.1792   22.0933   19.7939 H   0  0  0  0  0
    7.1144   23.3869   17.8286 H   0  0  0  0  0
    7.5853   24.5215   21.4612 H   0  0  0  0  0
    9.2092   23.9525   21.0029 H   0  0  0  0  0
    8.8352   25.6933   20.9758 H   0  0  0  0  0
    7.8114   25.4329   17.4012 H   0  0  0  0  0
    9.1144   26.1489   18.4577 H   0  0  0  0  0
    7.2879   27.7228   18.0139 H   0  0  0  0  0
    7.3976   27.2482   19.7876 H   0  0  0  0  0
    5.5090   25.6787   19.2147 H   0  0  0  0  0
    5.4112   29.4495   18.2569 H   0  0  0  0  0
    5.5544   28.6187   16.6883 H   0  0  0  0  0
    3.9600   29.1623   17.2657 H   0  0  0  0  0
    3.1773   25.9565   17.8459 H   0  0  0  0  0
    3.0149   26.7668   19.4233 H   0  0  0  0  0
    2.5977   27.6383   17.9275 H   0  0  0  0  0
    6.0476   17.4868   23.4113 H   0  0  0  0  0
    7.4318   12.8460   22.3923 H   0  0  0  0  0
    6.7393   14.1747   24.3761 H   0  0  0  0  0
  1  2  1  0  0  0
  1  3  1  0  0  0
  2 17  1  0  0  0
  3  4  2  0  0  0
  4  5  1  0  0  0
  4  6  1  0  0  0
  6  7  1  0  0  0
  7  8  1  0  0  0
  8  9  2  0  0  0
  9 10  1  0  0  0
  9 11  1  0  0  0
 11 12  1  0  0  0
 12 13  1  0  0  0
 13 14  2  0  0  0
 14 15  1  0  0  0
 14 16  1  0  0  0
 17 18  1  0  0  0
 17 19  2  0  0  0
 17 20  1  0  0  0
 20 21  1  0  0  0
 21 22  2  0  0  0
 21 23  1  0  0  0
 21 24  1  0  0  0
  1 25  1  0  0  0
  1 26  1  0  0  0
  3 27  1  0  0  0
  5 28  1  0  0  0
  5 29  1  0  0  0
  5 30  1  0  0  0
  6 31  1  0  0  0
  6 32  1  0  0  0
  7 33  1  0  0  0
  7 34  1  0  0  0
  8 35  1  0  0  0
 10 36  1  0  0  0
 10 37  1  0  0  0
 10 38  1  0  0  0
 11 39  1  0  0  0
 11 40  1  0  0  0
 12 41  1  0  0  0
 12 42  1  0  0  0
 13 43  1  0  0  0
 15 44  1  0  0  0
 15 45  1  0  0  0
 15 46  1  0  0  0
 16 47  1  0  0  0
 16 48  1  0  0  0
 16 49  1  0  0  0
 18 50  1  0  0  0
 23 51  1  0  0  0
 24 52  1  0  0  0
M  END
$$$$
