4z07_ligand
  -I-interpret- 

 35 38  0  0  0  0  0  0  0  0999 V2000
   25.9040  -21.9010  -27.5290 P   0  0  0  0  0
   25.0040  -23.0690  -26.8030 O   0  0  0  0  0
   26.1440  -22.0020  -28.9630 O   0  0  0  0  0
   25.1600  -20.5930  -27.2600 O   0  0  0  0  0
   24.9860  -20.4560  -25.7420 C   0  0  0  0  0
   26.3270  -20.1890  -25.1650 C   0  0  0  0  0
   26.5650  -19.8220  -23.7900 O   0  0  0  0  0
   27.1830  -21.4220  -25.3110 C   0  0  0  0  0
   27.3240  -21.8830  -26.6970 O   0  0  0  0  0
   28.4640  -21.1260  -24.5610 C   0  0  0  0  0
   29.5400  -20.8110  -25.3730 O   0  0  0  0  0
   27.9780  -20.1060  -23.5090 C   0  0  0  0  0
   28.1000  -20.6180  -22.1170 N   0  0  0  0  0
   28.7590  -19.9530  -20.9860 C   0  0  0  0  0
   28.7550  -20.8870  -19.8700 N   0  0  0  0  0
   27.8540  -21.9900  -20.2480 C   0  0  0  0  0
   27.3360  -23.1590  -19.4620 C   0  0  0  0  0
   27.7410  -23.3080  -18.1380 O   0  0  0  0  0
   26.4710  -24.0660  -20.0390 N   0  0  0  0  0
   26.0720  -23.9060  -21.3890 C   0  0  0  0  0
   25.1950  -24.8920  -22.0000 N   0  0  0  0  0
   26.5840  -22.7370  -22.1900 N   0  0  0  0  0
   27.4470  -21.8350  -21.6000 C   0  0  0  0  0
   24.9279  -22.8764  -25.8656 H   0  0  0  0  0
   24.5636  -21.3686  -25.3216 H   0  0  0  0  0
   24.2999  -19.6421  -25.5076 H   0  0  0  0  0
   26.5354  -19.2833  -25.7346 H   0  0  0  0  0
   26.7123  -22.3000  -24.8686 H   0  0  0  0  0
   28.9354  -21.9767  -24.0690 H   0  0  0  0  0
   30.3108  -20.6372  -24.8278 H   0  0  0  0  0
   28.6000  -19.2136  -23.5778 H   0  0  0  0  0
   29.1747  -18.9454  -20.9828 H   0  0  0  0  0
   26.1185  -24.8523  -19.4932 H   0  0  0  0  0
   24.9219  -24.7952  -22.9780 H   0  0  0  0  0
   24.8529  -25.6804  -21.4506 H   0  0  0  0  0
  1  2  1  0  0  0
  1  3  2  0  0  0
  1  4  1  0  0  0
  1  9  1  0  0  0
  4  5  1  0  0  0
  5  6  1  0  0  0
  6  7  1  0  0  0
  6  8  1  0  0  0
  7 12  1  0  0  0
  8  9  1  0  0  0
  8 10  1  0  0  0
 10 11  1  0  0  0
 10 12  1  0  0  0
 12 13  1  0  0  0
 13 14  4  0  0  0
 13 23  4  0  0  0
 14 15  4  0  0  0
 15 16  4  0  0  0
 16 17  1  0  0  0
 16 23  4  0  0  0
 17 18  2  0  0  0
 17 19  1  0  0  0
 19 20  1  0  0  0
 20 21  1  0  0  0
 20 22  2  0  0  0
 22 23  1  0  0  0
  2 24  1  0  0  0
  5 25  1  0  0  0
  5 26  1  0  0  0
  6 27  1  0  0  0
  8 28  1  0  0  0
 10 29  1  0  0  0
 11 30  1  0  0  0
 12 31  1  0  0  0
 14 32  1  0  0  0
 19 33  1  0  0  0
 21 34  1  0  0  0
 21 35  1  0  0  0
M  END
$$$$
