1p5e_ligand
  -I-interpret- 

 13 14  0  0  0  0  0  0  0  0999 V2000
    7.5360   44.8230   50.5680 C   0  0  0  0  0
    8.5410   45.5200   51.1720 C   0  0  0  0  0
    8.2050   46.4620   52.1060 C   0  0  0  0  0
    6.2100   45.0570   50.8820 C   0  0  0  0  0
    4.6190   46.4150   52.2920 N   0  0  0  0  0
    5.8490   46.0040   51.8170 C   0  0  0  0  0
    6.9050   46.7440   52.4640 C   0  0  0  0  0
    6.3710   47.6480   53.3620 N   0  0  0  0  0
    4.9620   47.4310   53.2410 N   0  0  0  0  0
    4.8580   44.0860   50.0300 Br  0  0  0  0  0
    8.0720   43.5450   49.3110 Br  0  0  0  0  0
   10.3490   45.1570   50.7170 Br  0  0  0  0  0
    9.5980   47.3860   52.9010 Br  0  0  0  0  0
  1  2  4  0  0  0
  1  4  4  0  0  0
  1 11  1  0  0  0
  2  3  4  0  0  0
  2 12  1  0  0  0
  3  7  4  0  0  0
  3 13  1  0  0  0
  4  6  4  0  0  0
  4 10  1  0  0  0
  6  7  4  0  0  0
  7  8  4  0  0  0
  8  9  4  0  0  0
  9  5  4  0  0  0
  6  5  4  0  0  0
M  END
$$$$
