3el5_ligand
  -I-interpret- 

 86 89  0  0  0  0  0  0  0  0999 V2000
    8.0680    1.6420   13.0990 C   0  0  0  0  0
    7.3920    2.5160   11.9440 C   0  0  0  0  0
    8.3000    2.7520   10.6490 C   0  0  0  0  0
    8.8580    1.3450   10.2510 C   0  0  0  0  0
    9.5000    0.5200   11.4490 C   0  0  0  0  0
    8.4450    0.1750   12.6270 C   0  0  0  0  0
    5.7880    0.8040   13.9290 N   0  3  0  0  0
    5.1110    1.6050   12.8130 C   0  0  0  0  0
    6.0200    1.7870   11.5090 C   0  0  0  0  0
    7.0900    1.4590   14.3850 C   0  0  0  0  0
    3.9190    0.8840   12.3480 C   0  0  0  0  0
    2.8630    1.7710   12.0750 N   0  0  0  0  0
    1.4880    1.3700   11.5770 C   0  0  0  0  0
    0.8440    0.4770   12.6190 C   0  0  0  0  0
    1.5610    0.5430   10.2110 C   0  0  0  0  0
    0.6580    2.7160   11.4010 C   0  0  0  0  0
    4.0060   -0.4000   12.2330 O   0  0  0  0  0
    4.9850    0.6910   15.1750 C   0  0  0  0  0
    5.5050   -0.5480   15.9080 C   0  0  0  0  0
    4.8080   -1.8970   15.5500 C   0  0  0  0  0
    5.3240   -0.2360   17.2750 O   0  0  0  0  0
    5.5480   -2.9200   16.3070 N   0  0  0  0  0
    3.3400   -2.0610   15.9620 C   0  0  0  0  0
    6.5700   -3.6200   15.6020 C   0  0  0  0  0
    6.8660   -3.4170   14.4020 O   0  0  0  0  0
    7.2820   -4.5580   16.3950 C   0  0  0  0  0
    6.5130   -5.4890   17.2530 C   0  0  0  0  0
    7.1580   -6.4340   18.1000 C   0  0  0  0  0
    8.5780   -6.4760   18.1050 C   0  0  0  0  0
    9.3520   -5.5660   17.2650 C   0  0  0  0  0
    8.7400   -4.5910   16.3950 C   0  0  0  0  0
   10.7200   -5.6190   17.2940 O   0  0  0  0  0
    9.6630   -3.6860   15.5700 C   0  0  0  0  0
    2.5340   -3.3020   14.8320 S   0  0  0  0  0
    2.6710   -4.7690   15.7810 C   0  0  0  0  0
    2.9230   -5.9450   15.0430 C   0  0  0  0  0
    3.0470   -7.1760   15.7750 C   0  0  0  0  0
    2.9240   -7.2320   17.2140 C   0  0  0  0  0
    2.6630   -6.0340   17.9680 C   0  0  0  0  0
    2.5380   -4.7880   17.2250 C   0  0  0  0  0
    8.9660    2.2017   13.3606 H   0  0  0  0  0
    7.2281    3.5098   12.3607 H   0  0  0  0  0
    9.1085    3.4531   10.8562 H   0  0  0  0  0
    7.7218    3.1917    9.8363 H   0  0  0  0  0
    9.6505    1.5132    9.5218 H   0  0  0  0  0
    8.0140    0.7624    9.8817 H   0  0  0  0  0
   10.2905    1.1318   11.8837 H   0  0  0  0  0
    9.8601   -0.4250   11.0423 H   0  0  0  0  0
    7.5946   -0.4273   12.3073 H   0  0  0  0  0
    8.8439   -0.4629   13.4157 H   0  0  0  0  0
    5.9236   -0.1124   13.5021 H   0  0  0  0  0
    4.8959    2.5803   13.2496 H   0  0  0  0  0
    6.2376    0.8148   11.0668 H   0  0  0  0  0
    5.4947    2.3907   10.7689 H   0  0  0  0  0
    6.8771    2.4324   14.8268 H   0  0  0  0  0
    7.5766    0.8304   15.1308 H   0  0  0  0  0
    3.0358    2.7652   12.2240 H   0  0  0  0  0
    1.4609   -0.4093   12.7674 H   0  0  0  0  0
    0.7568    1.0220   13.5589 H   0  0  0  0  0
   -0.1471    0.1784   12.2773 H   0  0  0  0  0
    2.0362    1.1534    9.4431 H   0  0  0  0  0
    2.1440   -0.3645   10.3679 H   0  0  0  0  0
    0.5524    0.2781    9.8938 H   0  0  0  0  0
    0.5903    3.2278   12.3610 H   0  0  0  0  0
    1.1609    3.3597   10.6793 H   0  0  0  0  0
   -0.3438    2.4794   11.0425 H   0  0  0  0  0
    3.9225    0.5973   14.9504 H   0  0  0  0  0
    5.0884    1.5841   15.7912 H   0  0  0  0  0
    6.5384   -0.7349   15.6159 H   0  0  0  0  0
    4.8164   -1.9645   14.4621 H   0  0  0  0  0
    5.6289   -0.9704   17.8128 H   0  0  0  0  0
    5.3400   -3.1177   17.2858 H   0  0  0  0  0
    2.8257   -1.1030   15.8850 H   0  0  0  0  0
    3.2827   -2.4090   16.9934 H   0  0  0  0  0
    5.4239   -5.4494   17.2353 H   0  0  0  0  0
    6.5769   -7.1085   18.7289 H   0  0  0  0  0
    9.0947   -7.1941   18.7417 H   0  0  0  0  0
   11.0774   -4.9629   16.6912 H   0  0  0  0  0
    9.4571   -3.8294   14.5093 H   0  0  0  0  0
    9.4839   -2.6449   15.8387 H   0  0  0  0  0
   10.7018   -3.9426   15.7777 H   0  0  0  0  0
    3.0201   -5.9209   13.9576 H   0  0  0  0  0
    3.2402   -8.0979   15.2265 H   0  0  0  0  0
    3.0294   -8.1860   17.7307 H   0  0  0  0  0
    2.5628   -6.0586   19.0531 H   0  0  0  0  0
    2.3422   -3.8589   17.7603 H   0  0  0  0  0
  1  2  1  0  0  0
  1  6  1  0  0  0
 10  1  1  0  0  0
  2  3  1  0  0  0
  2  9  1  0  0  0
  3  4  1  0  0  0
  5  4  1  0  0  0
  6  5  1  0  0  0
  7  8  1  0  0  0
  7 10  1  0  0  0
  7 18  1  0  0  0
  8  9  1  0  0  0
  8 11  1  0  0  0
 11 12  1  0  0  0
 11 17  2  0  0  0
 12 13  1  0  0  0
 13 14  1  0  0  0
 13 15  1  0  0  0
 13 16  1  0  0  0
 18 19  1  0  0  0
 19 20  1  0  0  0
 19 21  1  0  0  0
 20 22  1  0  0  0
 20 23  1  0  0  0
 22 24  1  0  0  0
 23 34  1  0  0  0
 24 25  2  0  0  0
 24 26  1  0  0  0
 26 27  4  0  0  0
 26 31  4  0  0  0
 27 28  4  0  0  0
 28 29  4  0  0  0
 29 30  4  0  0  0
 30 31  4  0  0  0
 30 32  1  0  0  0
 31 33  1  0  0  0
 34 35  1  0  0  0
 35 36  4  0  0  0
 35 40  4  0  0  0
 36 37  4  0  0  0
 37 38  4  0  0  0
 38 39  4  0  0  0
 39 40  4  0  0  0
  1 41  1  0  0  0
  2 42  1  0  0  0
  3 43  1  0  0  0
  3 44  1  0  0  0
  4 45  1  0  0  0
  4 46  1  0  0  0
  5 47  1  0  0  0
  5 48  1  0  0  0
  6 49  1  0  0  0
  6 50  1  0  0  0
  7 51  1  0  0  0
  8 52  1  0  0  0
  9 53  1  0  0  0
  9 54  1  0  0  0
 10 55  1  0  0  0
 10 56  1  0  0  0
 12 57  1  0  0  0
 14 58  1  0  0  0
 14 59  1  0  0  0
 14 60  1  0  0  0
 15 61  1  0  0  0
 15 62  1  0  0  0
 15 63  1  0  0  0
 16 64  1  0  0  0
 16 65  1  0  0  0
 16 66  1  0  0  0
 18 67  1  0  0  0
 18 68  1  0  0  0
 19 69  1  0  0  0
 20 70  1  0  0  0
 21 71  1  0  0  0
 22 72  1  0  0  0
 23 73  1  0  0  0
 23 74  1  0  0  0
 27 75  1  0  0  0
 28 76  1  0  0  0
 29 77  1  0  0  0
 32 78  1  0  0  0
 33 79  1  0  0  0
 33 80  1  0  0  0
 33 81  1  0  0  0
 36 82  1  0  0  0
 37 83  1  0  0  0
 38 84  1  0  0  0
 39 85  1  0  0  0
 40 86  1  0  0  0
M  END
$$$$
