5n69_ligand
  -I-interpret- 

 68 70  0  0  0  0  0  0  0  0999 V2000
    0.7520    1.4040   18.0890 C   0  0  0  0  0
    1.0440   -1.4060   17.0140 C   0  0  0  0  0
   -1.1250   -5.8720   20.6030 C   0  0  0  0  0
   -2.8650   -7.1380   21.7740 C   0  0  0  0  0
   -3.8740   -6.3280   20.9200 C   0  0  0  0  0
    0.1160    0.2520   18.8700 C   0  0  0  0  0
    3.2520    2.7330   20.0060 C   0  0  0  0  0
    5.6450    2.9530   24.3520 C   0  0  0  0  0
    5.7380    1.7110   23.6320 O   0  0  0  0  0
    4.4740    1.1170   23.3620 C   0  0  0  0  0
    4.1110    0.1560   23.9780 O   0  0  0  0  0
    3.6020    1.7630   22.3360 N   0  0  0  0  0
    2.1840    1.9010   22.5900 C   0  0  0  0  0
    1.2970    2.3430   21.4010 C   0  0  0  0  0
    1.8900    2.1800   20.0910 N   0  3  0  0  0
    1.0090    2.6310   19.0200 C   0  0  0  0  0
    2.0150    1.0590   17.2860 C   0  0  0  0  0
    2.1350   -0.3680   16.7020 C   0  0  0  0  0
    0.2200   -1.1370   18.2730 C   0  0  0  0  0
   -1.0160   -1.9420   18.3680 N   0  3  0  0  0
   -0.7590   -3.0650   19.2710 C   0  0  0  0  0
    0.3560   -3.7620   18.8160 O   0  0  0  0  0
   -1.8560   -4.0210   19.1370 N   0  3  0  0  0
   -2.0640   -4.7040   20.4280 C   0  0  0  0  0
   -1.5740   -6.9490   21.5620 N   0  0  0  0  0
   -3.3800   -8.3000   22.6320 C   0  0  0  0  0
   -3.4910   -4.9490   20.5560 C   0  0  0  0  0
   -1.1230    0.5340   19.3560 F   0  0  0  0  0
    4.2080    2.2790   21.1370 C   0  0  0  0  0
    0.0098    1.6530   17.3306 H   0  0  0  0  0
    1.5556   -2.3550   17.1749 H   0  0  0  0  0
    0.3468   -1.3846   16.1764 H   0  0  0  0  0
   -0.2025   -5.4625   21.0146 H   0  0  0  0  0
   -1.0451   -6.3480   19.6257 H   0  0  0  0  0
   -4.7726   -6.2356   21.5300 H   0  0  0  0  0
   -3.9675   -6.8688   19.9782 H   0  0  0  0  0
    0.7848    0.1837   19.7280 H   0  0  0  0  0
    3.1596    3.8162   20.0850 H   0  0  0  0  0
    3.6799    2.3786   19.0682 H   0  0  0  0  0
    5.0654    3.6677   23.7677 H   0  0  0  0  0
    5.1530    2.7806   25.3093 H   0  0  0  0  0
    6.6463    3.3484   24.5227 H   0  0  0  0  0
    2.0910    2.6873   23.3391 H   0  0  0  0  0
    1.8336    0.9074   22.8695 H   0  0  0  0  0
    1.1131    3.4097   21.5292 H   0  0  0  0  0
    0.4097    1.7103   21.4222 H   0  0  0  0  0
    2.0019    1.1762   19.9487 H   0  0  0  0  0
    0.0708    3.0082   19.4269 H   0  0  0  0  0
    1.4681    3.4474   18.4624 H   0  0  0  0  0
    2.8412    1.1541   17.9906 H   0  0  0  0  0
    2.0005    1.7248   16.4231 H   0  0  0  0  0
    2.0863   -0.2306   15.6218 H   0  0  0  0  0
    3.0416   -0.7755   17.1495 H   0  0  0  0  0
    0.9410   -1.5233   18.9934 H   0  0  0  0  0
   -1.2830   -2.2864   17.4458 H   0  0  0  0  0
   -1.7810   -1.3705   18.7265 H   0  0  0  0  0
   -0.6366   -2.6850   20.2853 H   0  0  0  0  0
    0.5316   -4.5009   19.4032 H   0  0  0  0  0
   -1.6257   -4.7081   18.4192 H   0  0  0  0  0
   -2.7082   -3.5290   18.8687 H   0  0  0  0  0
   -1.7850   -4.0912   21.2852 H   0  0  0  0  0
   -3.0615   -9.2446   22.1910 H   0  0  0  0  0
   -2.9746   -8.2132   23.6401 H   0  0  0  0  0
   -4.4687   -8.2653   22.6726 H   0  0  0  0  0
   -3.8430   -4.3075   21.3639 H   0  0  0  0  0
   -3.9264   -4.7564   19.5755 H   0  0  0  0  0
    4.7555    3.1714   21.4403 H   0  0  0  0  0
    4.7922    1.4580   20.7215 H   0  0  0  0  0
  6  1  1  0  0  0
  1 16  1  0  0  0
  1 17  1  0  0  0
  2 18  1  0  0  0
 19  2  1  0  0  0
 24  3  1  0  0  0
  3 25  1  0  0  0
  4  5  1  0  0  0
 25  4  2  0  0  0
  4 26  1  0  0  0
  5 27  1  0  0  0
 19  6  1  0  0  0
  6 28  1  0  0  0
 15  7  1  0  0  0
  7 29  1  0  0  0
  9  8  1  0  0  0
 10  9  1  0  0  0
 10 11  2  0  0  0
 12 10  1  0  0  0
 13 12  1  0  0  0
 29 12  1  0  0  0
 14 13  1  0  0  0
 15 14  1  0  0  0
 16 15  1  0  0  0
 18 17  1  0  0  0
 20 19  1  0  0  0
 21 20  1  0  0  0
 21 22  1  0  0  0
 23 21  1  0  0  0
 23 24  1  0  0  0
 24 27  1  0  0  0
  1 30  1  0  0  0
  2 31  1  0  0  0
  2 32  1  0  0  0
  3 33  1  0  0  0
  3 34  1  0  0  0
  5 35  1  0  0  0
  5 36  1  0  0  0
  6 37  1  0  0  0
  7 38  1  0  0  0
  7 39  1  0  0  0
  8 40  1  0  0  0
  8 41  1  0  0  0
  8 42  1  0  0  0
 13 43  1  0  0  0
 13 44  1  0  0  0
 14 45  1  0  0  0
 14 46  1  0  0  0
 15 47  1  0  0  0
 16 48  1  0  0  0
 16 49  1  0  0  0
 17 50  1  0  0  0
 17 51  1  0  0  0
 18 52  1  0  0  0
 18 53  1  0  0  0
 19 54  1  0  0  0
 20 55  1  0  0  0
 20 56  1  0  0  0
 21 57  1  0  0  0
 22 58  1  0  0  0
 23 59  1  0  0  0
 23 60  1  0  0  0
 24 61  1  0  0  0
 26 62  1  0  0  0
 26 63  1  0  0  0
 26 64  1  0  0  0
 27 65  1  0  0  0
 27 66  1  0  0  0
 29 67  1  0  0  0
 29 68  1  0  0  0
M  END
$$$$
