3rx7_ligand
  -I-interpret- 

 87 90  0  0  0  0  0  0  0  0999 V2000
   -0.3980   33.6830  -18.9230 O   0  0  0  0  0
    0.2450   34.7880  -19.7090 C   0  0  0  0  0
    1.2790   35.6600  -18.9470 C   0  0  0  0  0
    2.2940   34.8700  -18.4560 O   0  0  0  0  0
    2.0680   36.6240  -19.8220 C   0  0  0  0  0
    2.6800   37.4870  -18.8490 O   0  0  0  0  0
    1.2300   37.3820  -20.9320 C   0  0  0  0  0
    2.1750   37.6480  -22.1000 C   0  0  0  0  0
    1.5910   37.3240  -23.4270 O   0  0  0  0  0
   -0.0340   36.7190  -21.3400 O   0  0  0  0  0
   -0.6880   35.6950  -20.5350 C   0  0  0  0  0
   -1.4330   34.7460  -21.3390 O   0  0  0  0  0
   -2.7220   35.1590  -21.6850 C   0  0  0  0  0
   -3.7600   34.0550  -21.0900 C   0  0  0  0  0
   -5.0530   34.2810  -21.6790 O   0  0  0  0  0
   -4.0320   34.0050  -19.5180 C   0  0  0  0  0
   -5.0180   33.0440  -19.2570 O   0  0  0  0  0
   -2.6890   35.1460  -23.2590 C   0  0  0  0  0
   -1.9600   36.3370  -23.5970 O   0  0  0  0  0
   -4.1320   35.1840  -23.7950 C   0  0  0  0  0
   -4.2410   35.2260  -25.1320 O   0  0  0  0  0
   -5.1630   34.1920  -23.1380 C   0  0  0  0  0
   -6.5260   34.3920  -23.5570 O   0  0  0  0  0
   -7.2810   33.2300  -23.4830 C   0  0  0  0  0
   -8.2600   33.5990  -24.6210 C   0  0  0  0  0
   -9.3640   32.7570  -24.5680 O   0  0  0  0  0
   -7.8100   33.5750  -26.1210 C   0  0  0  0  0
   -6.9850   32.4480  -26.2780 O   0  0  0  0  0
   -8.0880   33.3700  -22.0910 C   0  0  0  0  0
   -7.3440   33.2290  -20.8500 O   0  0  0  0  0
   -9.3670   32.5770  -22.1070 C   0  0  0  0  0
  -10.1990   32.9710  -21.0380 O   0  0  0  0  0
  -10.1390   32.9720  -23.3930 C   0  0  0  0  0
  -11.2340   32.0970  -23.5080 O   0  0  0  0  0
  -12.2560   32.4750  -24.3920 C   0  0  0  0  0
  -12.6080   31.1800  -25.2070 C   0  0  0  0  0
  -11.4750   30.8360  -26.0060 O   0  0  0  0  0
  -13.9450   31.2970  -26.0300 C   0  0  0  0  0
  -15.1070   31.7380  -25.0870 N   0  3  0  0  0
  -14.6520   33.0960  -24.5850 C   0  0  0  0  0
  -13.5270   32.9110  -23.5410 C   0  0  0  0  0
  -13.4240   34.1700  -22.6970 C   0  0  0  0  0
  -12.7360   35.2110  -23.4540 O   0  0  0  0  0
    0.2788   33.1902  -18.4532 H   0  0  0  0  0
    0.7927   34.1716  -20.4218 H   0  0  0  0  0
    0.6670   36.1814  -18.2110 H   0  0  0  0  0
    1.9249   34.2019  -17.8738 H   0  0  0  0  0
    2.7868   36.1086  -20.4591 H   0  0  0  0  0
    3.1671   36.9568  -18.2140 H   0  0  0  0  0
    0.8605   38.3163  -20.5094 H   0  0  0  0  0
    3.0485   37.0103  -21.9640 H   0  0  0  0  0
    2.4051   38.7134  -22.0967 H   0  0  0  0  0
    2.2346   37.5137  -24.1136 H   0  0  0  0  0
   -1.3053   36.3126  -19.8826 H   0  0  0  0  0
   -3.0255   36.1331  -21.3015 H   0  0  0  0  0
   -3.2576   33.1191  -21.3345 H   0  0  0  0  0
   -4.3694   34.9819  -19.1717 H   0  0  0  0  0
   -3.1134   33.7414  -18.9938 H   0  0  0  0  0
   -5.1867   33.0086  -18.3126 H   0  0  0  0  0
   -2.2247   34.2580  -23.6880 H   0  0  0  0  0
   -1.8917   36.4089  -24.5519 H   0  0  0  0  0
   -4.4475   36.1624  -23.4328 H   0  0  0  0  0
   -5.1693   35.2474  -25.3757 H   0  0  0  0  0
   -4.9018   33.1919  -23.4840 H   0  0  0  0  0
   -6.7893   32.2591  -23.5434 H   0  0  0  0  0
   -8.4147   34.6542  -24.3960 H   0  0  0  0  0
   -7.2735   34.4878  -26.3799 H   0  0  0  0  0
   -8.6732   33.5195  -26.7843 H   0  0  0  0  0
   -6.6860   32.3961  -27.1888 H   0  0  0  0  0
   -8.3296   34.4325  -22.0628 H   0  0  0  0  0
   -7.9417   33.3341  -20.1062 H   0  0  0  0  0
   -9.1291   31.5150  -22.0462 H   0  0  0  0  0
  -11.0103   32.4583  -21.0597 H   0  0  0  0  0
  -10.4089   34.0250  -23.3132 H   0  0  0  0  0
  -11.9596   33.2990  -25.0411 H   0  0  0  0  0
  -12.8157   30.3668  -24.5115 H   0  0  0  0  0
  -11.6708   30.0447  -26.5131 H   0  0  0  0  0
  -14.1844   30.3286  -26.4694 H   0  0  0  0  0
  -13.8194   32.0382  -26.8192 H   0  0  0  0  0
  -15.2722   31.0745  -24.3301 H   0  0  0  0  0
  -16.0074   31.7772  -25.5647 H   0  0  0  0  0
  -15.4936   33.6128  -24.1237 H   0  0  0  0  0
  -14.2769   33.6850  -25.4219 H   0  0  0  0  0
  -13.6867   32.1375  -22.7898 H   0  0  0  0  0
  -12.8632   33.9522  -21.7880 H   0  0  0  0  0
  -14.4247   34.5137  -22.4350 H   0  0  0  0  0
  -12.6722   36.0053  -22.9186 H   0  0  0  0  0
  1  2  1  0  0  0
  2  3  1  0  0  0
  2 11  1  0  0  0
  3  4  1  0  0  0
  3  5  1  0  0  0
  5  6  1  0  0  0
  5  7  1  0  0  0
  7  8  1  0  0  0
  7 10  1  0  0  0
  8  9  1  0  0  0
 10 11  1  0  0  0
 11 12  1  0  0  0
 12 13  1  0  0  0
 13 14  1  0  0  0
 13 18  1  0  0  0
 14 15  1  0  0  0
 14 16  1  0  0  0
 15 22  1  0  0  0
 16 17  1  0  0  0
 18 19  1  0  0  0
 18 20  1  0  0  0
 20 21  1  0  0  0
 20 22  1  0  0  0
 22 23  1  0  0  0
 23 24  1  0  0  0
 24 25  1  0  0  0
 24 29  1  0  0  0
 25 26  1  0  0  0
 25 27  1  0  0  0
 26 33  1  0  0  0
 27 28  1  0  0  0
 29 30  1  0  0  0
 29 31  1  0  0  0
 31 32  1  0  0  0
 31 33  1  0  0  0
 33 34  1  0  0  0
 34 35  1  0  0  0
 35 36  1  0  0  0
 35 41  1  0  0  0
 36 37  1  0  0  0
 36 38  1  0  0  0
 38 39  1  0  0  0
 39 40  1  0  0  0
 40 41  1  0  0  0
 41 42  1  0  0  0
 42 43  1  0  0  0
  1 44  1  0  0  0
  2 45  1  0  0  0
  3 46  1  0  0  0
  4 47  1  0  0  0
  5 48  1  0  0  0
  6 49  1  0  0  0
  7 50  1  0  0  0
  8 51  1  0  0  0
  8 52  1  0  0  0
  9 53  1  0  0  0
 11 54  1  0  0  0
 13 55  1  0  0  0
 14 56  1  0  0  0
 16 57  1  0  0  0
 16 58  1  0  0  0
 17 59  1  0  0  0
 18 60  1  0  0  0
 19 61  1  0  0  0
 20 62  1  0  0  0
 21 63  1  0  0  0
 22 64  1  0  0  0
 24 65  1  0  0  0
 25 66  1  0  0  0
 27 67  1  0  0  0
 27 68  1  0  0  0
 28 69  1  0  0  0
 29 70  1  0  0  0
 30 71  1  0  0  0
 31 72  1  0  0  0
 32 73  1  0  0  0
 33 74  1  0  0  0
 35 75  1  0  0  0
 36 76  1  0  0  0
 37 77  1  0  0  0
 38 78  1  0  0  0
 38 79  1  0  0  0
 39 80  1  0  0  0
 39 81  1  0  0  0
 40 82  1  0  0  0
 40 83  1  0  0  0
 41 84  1  0  0  0
 42 85  1  0  0  0
 42 86  1  0  0  0
 43 87  1  0  0  0
M  END
$$$$
