4bde_ligand
  -I-interpret- 

 21 22  0  0  0  0  0  0  0  0999 V2000
  -37.8500   34.5170    5.0430 N   0  0  0  0  0
  -38.6020   33.4710    4.7200 C   0  0  0  0  0
  -38.9000   32.3980    5.4580 N   0  0  0  0  0
  -38.3890   32.3740    6.7370 C   0  0  0  0  0
  -36.9540   33.5380    8.5280 C   0  0  0  0  0
  -36.1370   34.5900    8.8800 C   0  0  0  0  0
  -35.9200   35.6030    7.9440 C   0  0  0  0  0
  -36.4670   35.5620    6.6950 C   0  0  0  0  0
  -37.5550   33.4480    7.2390 C   0  0  0  0  0
  -37.3110   34.4950    6.3070 C   0  0  0  0  0
  -35.4280   34.6140   10.2140 C   0  0  0  0  0
  -38.7080   31.3080    7.5030 N   0  0  0  0  0
  -39.0336   33.4906    3.7193 H   0  0  0  0  0
  -37.1464   32.7510    9.2572 H   0  0  0  0  0
  -35.2947   36.4522    8.2196 H   0  0  0  0  0
  -36.2510   36.3618    5.9867 H   0  0  0  0  0
  -36.1652   34.5860   11.0164 H   0  0  0  0  0
  -34.7721   33.7468   10.2911 H   0  0  0  0  0
  -34.8370   35.5264   10.2935 H   0  0  0  0  0
  -39.3018   30.5690    7.1267 H   0  0  0  0  0
  -38.3551   31.2421    8.4577 H   0  0  0  0  0
  2  1  4  0  0  0
  1 10  4  0  0  0
  3  2  4  0  0  0
  4  3  4  0  0  0
  9  4  4  0  0  0
  4 12  1  0  0  0
  5  6  4  0  0  0
  5  9  4  0  0  0
  6  7  4  0  0  0
  6 11  1  0  0  0
  7  8  4  0  0  0
  8 10  4  0  0  0
  9 10  4  0  0  0
  2 13  1  0  0  0
  5 14  1  0  0  0
  7 15  1  0  0  0
  8 16  1  0  0  0
 11 17  1  0  0  0
 11 18  1  0  0  0
 11 19  1  0  0  0
 12 20  1  0  0  0
 12 21  1  0  0  0
M  END
$$$$
