4m7c_ligand
  -I-interpret- 

212215  0  0  0  0  0  0  0  0999 V2000
  -32.5500  -19.1270  -41.0150 N   0  3  0  0  0
  -31.3050  -18.5660  -41.6000 C   0  0  0  0  0
  -30.2670  -18.2930  -40.5240 C   0  0  0  0  0
  -30.6050  -17.9380  -39.3950 O   0  0  0  0  0
  -31.6070  -17.2840  -42.3620 C   0  0  0  0  0
  -32.3650  -17.5590  -43.5240 O   0  0  0  0  0
  -29.0010  -18.4560  -40.8910 N   0  0  0  0  0
  -27.8960  -18.2280  -39.9720 C   0  0  0  0  0
  -27.3090  -16.8420  -40.1770 C   0  0  0  0  0
  -27.2040  -16.3590  -41.3060 O   0  0  0  0  0
  -26.8230  -19.3000  -40.1550 C   0  0  0  0  0
  -27.2690  -20.6980  -39.7450 C   0  0  0  0  0
  -27.5550  -20.7730  -38.2540 C   0  0  0  0  0
  -26.3850  -20.3770  -37.4720 N   0  0  0  0  0
  -26.3710  -20.2250  -36.1530 C   0  0  0  0  0
  -27.4740  -20.4150  -35.4410 N   0  0  0  0  0
  -25.2520  -19.8630  -35.5450 N   0  0  0  0  0
  -26.9230  -16.2120  -39.0730 N   0  0  0  0  0
  -26.4590  -14.8320  -39.0860 C   0  0  0  0  0
  -25.0400  -14.6180  -39.5750 C   0  0  0  0  0
  -24.4140  -15.5160  -40.1460 O   0  0  0  0  0
  -24.5380  -13.4100  -39.3260 N   0  0  0  0  0
  -23.2380  -12.9570  -39.8190 C   0  0  0  0  0
  -22.0830  -13.8410  -39.3970 C   0  0  0  0  0
  -21.1610  -14.0740  -40.1780 O   0  0  0  0  0
  -22.9480  -11.5300  -39.3470 C   0  0  0  0  0
  -23.4220  -10.3480  -40.1850 C   0  0  0  0  0
  -22.8850   -9.0580  -39.5910 C   0  0  0  0  0
  -22.9800  -10.4990  -41.6370 C   0  0  0  0  0
  -22.1280  -14.3170  -38.1560 N   0  0  0  0  0
  -21.0520  -15.1320  -37.6100 C   0  0  0  0  0
  -20.8810  -16.4250  -38.3970 C   0  0  0  0  0
  -19.8350  -17.0660  -38.3280 O   0  0  0  0  0
  -21.2930  -15.4350  -36.1270 C   0  0  0  0  0
  -22.3100  -16.5340  -35.8450 C   0  0  0  0  0
  -23.7530  -16.0530  -35.8710 C   0  0  0  0  0
  -24.6190  -16.7850  -35.3500 O   0  0  0  0  0
  -24.0300  -14.9550  -36.4020 O   0  0  0  0  0
  -21.9130  -16.8010  -39.1440 N   0  0  0  0  0
  -21.8520  -17.9880  -39.9770 C   0  0  0  0  0
  -21.5850  -17.5970  -41.4260 C   0  0  0  0  0
  -20.6530  -18.1110  -42.0420 O   0  0  0  0  0
  -23.1340  -18.8360  -39.8550 C   0  0  0  0  0
  -23.0990  -20.0210  -40.8140 C   0  0  0  0  0
  -23.3060  -19.3190  -38.4230 C   0  0  0  0  0
  -22.3830  -16.6770  -41.9610 N   0  0  0  0  0
  -22.2910  -16.3280  -43.3820 C   0  0  0  0  0
  -21.0320  -15.5380  -43.7390 C   0  0  0  0  0
  -20.5600  -15.5930  -44.8750 O   0  0  0  0  0
  -23.5400  -15.5790  -43.8510 C   0  0  0  0  0
  -23.6030  -14.2760  -43.2940 O   0  0  0  0  0
  -20.5040  -14.7960  -42.7690 N   0  0  0  0  0
  -19.2740  -14.0350  -42.9660 C   0  0  0  0  0
  -18.2050  -14.5440  -42.0120 C   0  0  0  0  0
  -17.3470  -13.7850  -41.5510 O   0  0  0  0  0
  -19.5280  -12.5310  -42.7830 C   0  0  0  0  0
  -20.4060  -11.9320  -43.8400 C   0  0  0  0  0
  -21.6710  -12.4070  -44.1150 N   0  0  0  0  0
  -20.2030  -10.8930  -44.6870 C   0  0  0  0  0
  -22.2100  -11.6900  -45.0850 C   0  0  0  0  0
  -21.3390  -10.7650  -45.4510 N   0  0  0  0  0
  -18.2700  -15.8440  -41.7340 N   0  0  0  0  0
  -17.3830  -16.4940  -40.7780 C   0  0  0  0  0
  -15.9260  -16.2300  -41.1110 C   0  0  0  0  0
  -15.4900  -16.4460  -42.2430 O   0  0  0  0  0
  -17.6570  -17.9980  -40.7250 C   0  0  0  0  0
  -16.6120  -18.7830  -39.9590 C   0  0  0  0  0
  -17.2370  -19.6650  -38.8990 C   0  0  0  0  0
  -16.2300  -20.2260  -38.0020 N   0  0  0  0  0
  -16.4040  -20.4120  -36.6960 C   0  0  0  0  0
  -17.5490  -20.0730  -36.1160 N   0  0  0  0  0
  -15.4240  -20.9310  -35.9640 N   0  0  0  0  0
  -15.1850  -15.7600  -40.1110 N   0  0  0  0  0
  -13.7860  -15.3810  -40.2840 C   0  0  0  0  0
  -12.8280  -16.4840  -39.8480 C   0  0  0  0  0
  -11.8490  -16.7660  -40.5400 O   0  0  0  0  0
  -13.4820  -14.0980  -39.5100 C   0  0  0  0  0
  -14.3690  -12.8790  -39.7700 C   0  0  0  0  0
  -13.9560  -11.7620  -38.8270 C   0  0  0  0  0
  -14.2730  -12.4210  -41.2200 C   0  0  0  0  0
  -13.1160  -17.0990  -38.7030 N   0  0  0  0  0
  -12.2770  -18.1570  -38.1430 C   0  0  0  0  0
  -12.6680  -19.5160  -38.7100 C   0  0  0  0  0
  -13.8210  -19.7140  -39.0820 O   0  0  0  0  0
  -12.3990  -18.1710  -36.6290 C   0  0  0  0  0
  -11.7110  -20.4630  -38.7820 N   0  0  0  0  0
  -12.0910  -21.8040  -39.2420 C   0  0  0  0  0
  -13.0400  -22.4980  -38.2600 C   0  0  0  0  0
  -13.0270  -22.1810  -37.0680 O   0  0  0  0  0
  -10.7510  -22.5470  -39.3180 C   0  0  0  0  0
   -9.8320  -21.7900  -38.4190 C   0  0  0  0  0
  -10.2650  -20.3590  -38.5070 C   0  0  0  0  0
  -13.8620  -23.4200  -38.7610 N   0  0  0  0  0
  -14.7890  -24.1650  -37.9080 C   0  0  0  0  0
  -14.0340  -25.0700  -36.9460 C   0  0  0  0  0
  -13.0130  -25.6570  -37.3010 O   0  0  0  0  0
  -15.7630  -25.0050  -38.7390 C   0  0  0  0  0
  -16.7910  -24.2140  -39.4990 C   0  0  0  0  0
  -16.8780  -24.0790  -40.8510 C   0  0  0  0  0
  -17.8850  -23.4620  -38.9490 C   0  0  0  0  0
  -17.9500  -23.2860  -41.1840 N   0  0  0  0  0
  -18.5870  -22.8950  -40.0360 C   0  0  0  0  0
  -18.3380  -23.2110  -37.6480 C   0  0  0  0  0
  -19.7180  -22.0910  -39.8610 C   0  0  0  0  0
  -19.4650  -22.4100  -37.4760 C   0  0  0  0  0
  -20.1400  -21.8600  -38.5780 C   0  0  0  0  0
  -14.4270  -25.2380  -35.7920 O   0  0  0  0  0
  -32.3299  -19.9846  -40.5086 H   0  0  0  0  0
  -32.9591  -18.4475  -40.3737 H   0  0  0  0  0
  -33.2128  -19.3327  -41.7625 H   0  0  0  0  0
  -30.8992  -19.3059  -42.2899 H   0  0  0  0  0
  -30.6660  -16.8199  -42.6572 H   0  0  0  0  0
  -32.1802  -16.6179  -41.7172 H   0  0  0  0  0
  -32.5444  -16.7387  -43.9893 H   0  0  0  0  0
  -28.7970  -18.7500  -41.8462 H   0  0  0  0  0
  -28.2751  -18.2902  -38.9520 H   0  0  0  0  0
  -25.9819  -19.0284  -39.5171 H   0  0  0  0  0
  -26.5794  -19.3363  -41.2168 H   0  0  0  0  0
  -26.4688  -21.3998  -39.9800 H   0  0  0  0  0
  -28.1832  -20.9426  -40.2859 H   0  0  0  0  0
  -27.8121  -21.8013  -37.9999 H   0  0  0  0  0
  -28.3753  -20.0937  -38.0220 H   0  0  0  0  0
  -25.5155  -20.2048  -37.9767 H   0  0  0  0  0
  -27.4575  -20.2822  -34.4298 H   0  0  0  0  0
  -28.3386  -20.6939  -35.9047 H   0  0  0  0  0
  -24.4048  -19.7019  -36.0897 H   0  0  0  0  0
  -26.9527  -16.7127  -38.1849 H   0  0  0  0  0
  -26.4833  -14.4892  -38.0516 H   0  0  0  0  0
  -27.1076  -14.2955  -39.7786 H   0  0  0  0  0
  -25.0905  -12.7655  -38.7605 H   0  0  0  0  0
  -23.3122  -13.0025  -40.9055 H   0  0  0  0  0
  -21.8607  -11.4535  -39.3528 H   0  0  0  0  0
  -23.4899  -11.4355  -38.4060 H   0  0  0  0  0
  -24.5116  -10.3198  -40.1724 H   0  0  0  0  0
  -23.2507   -8.9498  -38.5699 H   0  0  0  0  0
  -21.7954   -9.0873  -39.5869 H   0  0  0  0  0
  -23.2248   -8.2140  -40.1913 H   0  0  0  0  0
  -21.8920  -10.5470  -41.6811 H   0  0  0  0  0
  -23.4024  -11.4147  -42.0507 H   0  0  0  0  0
  -23.3309   -9.6428  -42.2132 H   0  0  0  0  0
  -22.9370  -14.1057  -37.5717 H   0  0  0  0  0
  -20.1291  -14.5590  -37.6994 H   0  0  0  0  0
  -21.6880  -14.5219  -35.6817 H   0  0  0  0  0
  -20.3418  -15.7774  -35.7194 H   0  0  0  0  0
  -22.1108  -16.9131  -34.8427 H   0  0  0  0  0
  -22.2028  -17.2857  -36.6270 H   0  0  0  0  0
  -23.2267  -14.5527  -36.7403 H   0  0  0  0  0
  -22.7670  -16.2434  -39.1319 H   0  0  0  0  0
  -21.0269  -18.6075  -39.6255 H   0  0  0  0  0
  -23.9854  -18.2104  -40.1231 H   0  0  0  0  0
  -23.0169  -19.6559  -41.8378 H   0  0  0  0  0
  -22.2398  -20.6500  -40.5811 H   0  0  0  0  0
  -24.0154  -20.6012  -40.7062 H   0  0  0  0  0
  -22.4461  -19.9262  -38.1399 H   0  0  0  0  0
  -23.3801  -18.4591  -37.7573 H   0  0  0  0  0
  -24.2145  -19.9167  -38.3492 H   0  0  0  0  0
  -23.0706  -16.2064  -41.3727 H   0  0  0  0  0
  -22.2225  -17.2777  -43.9125 H   0  0  0  0  0
  -24.4192  -16.1362  -43.5275 H   0  0  0  0  0
  -23.5022  -15.4895  -44.9367 H   0  0  0  0  0
  -24.3955  -13.8335  -43.6066 H   0  0  0  0  0
  -20.9714  -14.7579  -41.8632 H   0  0  0  0  0
  -18.9207  -14.1774  -43.9873 H   0  0  0  0  0
  -18.5621  -12.0292  -42.8403 H   0  0  0  0  0
  -20.0357  -12.4013  -41.8272 H   0  0  0  0  0
  -19.3073  -10.2751  -44.7504 H   0  0  0  0  0
  -23.2028  -11.8360  -45.5107 H   0  0  0  0  0
  -18.9716  -16.4101  -42.2111 H   0  0  0  0  0
  -17.5843  -16.0692  -39.7946 H   0  0  0  0  0
  -17.6524  -18.3657  -41.7511 H   0  0  0  0  0
  -18.6087  -18.1372  -40.2123 H   0  0  0  0  0
  -15.9448  -18.0756  -39.4665 H   0  0  0  0  0
  -16.0774  -19.4202  -40.6635 H   0  0  0  0  0
  -17.7515  -20.4876  -39.3957 H   0  0  0  0  0
  -17.9240  -19.0588  -38.3085 H   0  0  0  0  0
  -15.3317  -20.4936  -38.4044 H   0  0  0  0  0
  -18.3018  -19.6673  -36.6720 H   0  0  0  0  0
  -15.5535  -21.0672  -34.9615 H   0  0  0  0  0
  -14.5422  -21.1932  -36.4046 H   0  0  0  0  0
  -15.6103  -15.6608  -39.1892 H   0  0  0  0  0
  -13.6324  -15.2125  -41.3499 H   0  0  0  0  0
  -12.4810  -13.8006  -39.8226 H   0  0  0  0  0
  -13.6343  -14.3492  -38.4603 H   0  0  0  0  0
  -15.4086  -13.1507  -39.5871 H   0  0  0  0  0
  -14.0779  -12.0948  -37.7962 H   0  0  0  0  0
  -12.9121  -11.5045  -39.0060 H   0  0  0  0  0
  -14.5827  -10.8880  -39.0045 H   0  0  0  0  0
  -13.2411  -12.1537  -41.4477 H   0  0  0  0  0
  -14.5937  -13.2294  -41.8770 H   0  0  0  0  0
  -14.9158  -11.5534  -41.3690 H   0  0  0  0  0
  -13.9561  -16.8207  -38.1959 H   0  0  0  0  0
  -11.2416  -17.9553  -38.4175 H   0  0  0  0  0
  -12.0769  -17.2088  -36.2309 H   0  0  0  0  0
  -13.4374  -18.3514  -36.3511 H   0  0  0  0  0
  -11.7699  -18.9629  -36.2224 H   0  0  0  0  0
  -12.6283  -21.7791  -40.1900 H   0  0  0  0  0
  -10.3713  -22.5877  -40.3389 H   0  0  0  0  0
  -10.8500  -23.5873  -39.0079 H   0  0  0  0  0
   -8.7919  -21.9096  -38.7224 H   0  0  0  0  0
   -9.8855  -22.1588  -37.3947 H   0  0  0  0  0
  -10.0482  -19.7966  -37.5988 H   0  0  0  0  0
   -9.7288  -19.8031  -39.2761 H   0  0  0  0  0
  -13.8445  -23.6109  -39.7628 H   0  0  0  0  0
  -15.3595  -23.4317  -37.3380 H   0  0  0  0  0
  -16.3069  -25.6409  -38.0405 H   0  0  0  0  0
  -15.1670  -25.5406  -39.4780 H   0  0  0  0  0
  -16.1947  -24.5350  -41.5674 H   0  0  0  0  0
  -17.8195  -23.6336  -36.7874 H   0  0  0  0  0
  -20.2446  -21.6637  -40.7143 H   0  0  0  0  0
  -19.8290  -22.2067  -36.4689 H   0  0  0  0  0
  -21.0179  -21.2364  -38.4091 H   0  0  0  0  0
  -15.2264  -24.7259  -35.6496 H   0  0  0  0  0
  1  2  1  0  0  0
  2  3  1  0  0  0
  2  5  1  0  0  0
  3  4  2  0  0  0
  3  7  1  0  0  0
  5  6  1  0  0  0
  7  8  1  0  0  0
  8  9  1  0  0  0
  8 11  1  0  0  0
  9 10  2  0  0  0
  9 18  1  0  0  0
 11 12  1  0  0  0
 12 13  1  0  0  0
 13 14  1  0  0  0
 14 15  1  0  0  0
 15 16  1  0  0  0
 15 17  2  0  0  0
 18 19  1  0  0  0
 19 20  1  0  0  0
 20 21  2  0  0  0
 20 22  1  0  0  0
 22 23  1  0  0  0
 23 24  1  0  0  0
 23 26  1  0  0  0
 24 25  2  0  0  0
 24 30  1  0  0  0
 26 27  1  0  0  0
 27 28  1  0  0  0
 27 29  1  0  0  0
 30 31  1  0  0  0
 31 32  1  0  0  0
 31 34  1  0  0  0
 32 33  2  0  0  0
 32 39  1  0  0  0
 34 35  1  0  0  0
 35 36  1  0  0  0
 36 37  2  0  0  0
 36 38  1  0  0  0
 39 40  1  0  0  0
 40 41  1  0  0  0
 40 43  1  0  0  0
 41 42  2  0  0  0
 41 46  1  0  0  0
 43 44  1  0  0  0
 43 45  1  0  0  0
 46 47  1  0  0  0
 47 48  1  0  0  0
 47 50  1  0  0  0
 48 49  2  0  0  0
 48 52  1  0  0  0
 50 51  1  0  0  0
 52 53  1  0  0  0
 53 54  1  0  0  0
 53 56  1  0  0  0
 54 55  2  0  0  0
 54 62  1  0  0  0
 56 57  1  0  0  0
 57 58  4  0  0  0
 57 59  4  0  0  0
 58 60  4  0  0  0
 59 61  4  0  0  0
 60 61  4  0  0  0
 62 63  1  0  0  0
 63 64  1  0  0  0
 63 66  1  0  0  0
 64 65  2  0  0  0
 64 73  1  0  0  0
 66 67  1  0  0  0
 67 68  1  0  0  0
 68 69  1  0  0  0
 69 70  1  0  0  0
 70 71  2  0  0  0
 70 72  1  0  0  0
 73 74  1  0  0  0
 74 75  1  0  0  0
 74 77  1  0  0  0
 75 76  2  0  0  0
 75 81  1  0  0  0
 77 78  1  0  0  0
 78 79  1  0  0  0
 78 80  1  0  0  0
 81 82  1  0  0  0
 82 83  1  0  0  0
 82 85  1  0  0  0
 83 84  2  0  0  0
 83 86  1  0  0  0
 86 87  1  0  0  0
 86 92  1  0  0  0
 87 88  1  0  0  0
 87 90  1  0  0  0
 88 89  2  0  0  0
 88 93  1  0  0  0
 90 91  1  0  0  0
 91 92  1  0  0  0
 93 94  1  0  0  0
 94 95  1  0  0  0
 94 97  1  0  0  0
 95 96  2  0  0  0
 95107  1  0  0  0
 97 98  1  0  0  0
 98 99  4  0  0  0
 98100  4  0  0  0
 99101  4  0  0  0
100102  4  0  0  0
100103  4  0  0  0
101102  4  0  0  0
102104  4  0  0  0
103105  4  0  0  0
104106  4  0  0  0
105106  4  0  0  0
  1108  1  0  0  0
  1109  1  0  0  0
  1110  1  0  0  0
  2111  1  0  0  0
  5112  1  0  0  0
  5113  1  0  0  0
  6114  1  0  0  0
  7115  1  0  0  0
  8116  1  0  0  0
 11117  1  0  0  0
 11118  1  0  0  0
 12119  1  0  0  0
 12120  1  0  0  0
 13121  1  0  0  0
 13122  1  0  0  0
 14123  1  0  0  0
 16124  1  0  0  0
 16125  1  0  0  0
 17126  1  0  0  0
 18127  1  0  0  0
 19128  1  0  0  0
 19129  1  0  0  0
 22130  1  0  0  0
 23131  1  0  0  0
 26132  1  0  0  0
 26133  1  0  0  0
 27134  1  0  0  0
 28135  1  0  0  0
 28136  1  0  0  0
 28137  1  0  0  0
 29138  1  0  0  0
 29139  1  0  0  0
 29140  1  0  0  0
 30141  1  0  0  0
 31142  1  0  0  0
 34143  1  0  0  0
 34144  1  0  0  0
 35145  1  0  0  0
 35146  1  0  0  0
 38147  1  0  0  0
 39148  1  0  0  0
 40149  1  0  0  0
 43150  1  0  0  0
 44151  1  0  0  0
 44152  1  0  0  0
 44153  1  0  0  0
 45154  1  0  0  0
 45155  1  0  0  0
 45156  1  0  0  0
 46157  1  0  0  0
 47158  1  0  0  0
 50159  1  0  0  0
 50160  1  0  0  0
 51161  1  0  0  0
 52162  1  0  0  0
 53163  1  0  0  0
 56164  1  0  0  0
 56165  1  0  0  0
 59166  1  0  0  0
 60167  1  0  0  0
 62168  1  0  0  0
 63169  1  0  0  0
 66170  1  0  0  0
 66171  1  0  0  0
 67172  1  0  0  0
 67173  1  0  0  0
 68174  1  0  0  0
 68175  1  0  0  0
 69176  1  0  0  0
 71177  1  0  0  0
 72178  1  0  0  0
 72179  1  0  0  0
 73180  1  0  0  0
 74181  1  0  0  0
 77182  1  0  0  0
 77183  1  0  0  0
 78184  1  0  0  0
 79185  1  0  0  0
 79186  1  0  0  0
 79187  1  0  0  0
 80188  1  0  0  0
 80189  1  0  0  0
 80190  1  0  0  0
 81191  1  0  0  0
 82192  1  0  0  0
 85193  1  0  0  0
 85194  1  0  0  0
 85195  1  0  0  0
 87196  1  0  0  0
 90197  1  0  0  0
 90198  1  0  0  0
 91199  1  0  0  0
 91200  1  0  0  0
 92201  1  0  0  0
 92202  1  0  0  0
 93203  1  0  0  0
 94204  1  0  0  0
 97205  1  0  0  0
 97206  1  0  0  0
 99207  1  0  0  0
103208  1  0  0  0
104209  1  0  0  0
105210  1  0  0  0
106211  1  0  0  0
107212  1  0  0  0
M  END
$$$$
