### 
### Created by X-TOOL on Mon Sep 10 21:13:15 2018
### 

@<TRIPOS>MOLECULE
4m7c_ligand
  214   217     1     0     0
SMALL
GAST_HUCK


@<TRIPOS>ATOM
      1 N         -32.5500  -19.1270  -41.0150 N.4       1 SER         0.2396
      2 CA        -31.3050  -18.5660  -41.6000 C.3       1 SER         0.0885
      3 C         -30.2670  -18.2930  -40.5240 C.2       1 SER         0.2290
      4 O         -30.6050  -17.9380  -39.3950 O.2       1 SER        -0.3906
      5 CB        -31.6070  -17.2840  -42.3620 C.3       1 SER         0.1041
      6 OG        -32.3650  -17.5590  -43.5240 O.3       1 SER        -0.3870
      7 N         -29.0010  -18.4560  -40.8910 N.am      1 ARG        -0.2609
      8 CA        -27.8960  -18.2280  -39.9720 C.3       1 ARG         0.1312
      9 C         -27.3090  -16.8420  -40.1770 C.2       1 ARG         0.2037
     10 O         -27.2040  -16.3590  -41.3060 O.2       1 ARG        -0.3944
     11 CB        -26.8230  -19.3000  -40.1550 C.3       1 ARG        -0.0092
     12 CG        -27.2690  -20.6980  -39.7450 C.3       1 ARG        -0.0156
     13 CD        -27.5550  -20.7730  -38.2540 C.3       1 ARG         0.0627
     14 NE        -26.3850  -20.3770  -37.4720 N.pl3     1 ARG        -0.2723
     15 CZ        -26.3710  -20.2250  -36.1530 C.cat     1 ARG         0.2882
     16 NH1       -27.4740  -20.4150  -35.4410 N.pl3     1 ARG        -0.2849
     17 NH2       -25.2520  -19.8630  -35.5450 N.pl3     1 ARG        -0.2849
     18 N         -26.9230  -16.2120  -39.0730 N.am      1 GLY        -0.2664
     19 CA        -26.4590  -14.8320  -39.0860 C.3       1 GLY         0.1201
     20 C         -25.0400  -14.6180  -39.5750 C.2       1 GLY         0.2007
     21 O         -24.4140  -15.5160  -40.1460 O.2       1 GLY        -0.3947
     22 N         -24.5380  -13.4100  -39.3260 N.am      1 LEU        -0.2640
     23 CA        -23.2380  -12.9570  -39.8190 C.3       1 LEU         0.1312
     24 C         -22.0830  -13.8410  -39.3970 C.2       1 LEU         0.2039
     25 O         -21.1610  -14.0740  -40.1780 O.2       1 LEU        -0.3944
     26 CB        -22.9480  -11.5300  -39.3470 C.3       1 LEU        -0.0101
     27 CG        -23.4220  -10.3480  -40.1850 C.3       1 LEU        -0.0425
     28 CD1       -22.8850   -9.0580  -39.5910 C.3       1 LEU        -0.0625
     29 CD2       -22.9800  -10.4990  -41.6370 C.3       1 LEU        -0.0625
     30 N         -22.1280  -14.3170  -38.1560 N.am      1 GLU        -0.2636
     31 CA        -21.0520  -15.1320  -37.6100 C.3       1 GLU         0.1325
     32 C         -20.8810  -16.4250  -38.3970 C.2       1 GLU         0.2040
     33 O         -19.8350  -17.0660  -38.3280 O.2       1 GLU        -0.3944
     34 CB        -21.2930  -15.4350  -36.1270 C.3       1 GLU        -0.0008
     35 CG        -22.3100  -16.5340  -35.8450 C.3       1 GLU         0.0044
     36 CD        -23.7530  -16.0530  -35.8710 C.2       1 GLU         0.0350
     37 OE1       -24.6190  -16.7850  -35.3500 O.co2     1 GLU        -0.5690
     38 OE2       -24.0300  -14.9550  -36.4020 O.co2     1 GLU        -0.5690
     39 N         -21.9130  -16.8010  -39.1440 N.am      1 VAL        -0.2635
     40 CA        -21.8520  -17.9880  -39.9770 C.3       1 VAL         0.1333
     41 C         -21.5850  -17.5970  -41.4260 C.2       1 VAL         0.2042
     42 O         -20.6530  -18.1110  -42.0420 O.2       1 VAL        -0.3944
     43 CB        -23.1340  -18.8360  -39.8550 C.3       1 VAL        -0.0063
     44 CG1       -23.0990  -20.0210  -40.8140 C.3       1 VAL        -0.0584
     45 CG2       -23.3060  -19.3190  -38.4230 C.3       1 VAL        -0.0584
     46 N         -22.3830  -16.6770  -41.9610 N.am      1 SER        -0.2616
     47 CA        -22.2910  -16.3280  -43.3820 C.3       1 SER         0.1539
     48 C         -21.0320  -15.5380  -43.7390 C.2       1 SER         0.2063
     49 O         -20.5600  -15.5930  -44.8750 O.2       1 SER        -0.3943
     50 CB        -23.5400  -15.5790  -43.8510 C.3       1 SER         0.0843
     51 OG        -23.6030  -14.2760  -43.2940 O.3       1 SER        -0.3903
     52 N         -20.5040  -14.7960  -42.7690 N.am      1 HIS        -0.2624
     53 CA        -19.2740  -14.0350  -42.9660 C.3       1 HIS         0.1369
     54 C         -18.2050  -14.5440  -42.0120 C.2       1 HIS         0.2054
     55 O         -17.3470  -13.7850  -41.5510 O.2       1 HIS        -0.3942
     56 CB        -19.5280  -12.5310  -42.7830 C.3       1 HIS         0.0145
     57 CG        -20.4060  -11.9320  -43.8400 C.2       1 HIS        -0.0027
     58 ND1       -21.6710  -12.4070  -44.1150 N.2       1 HIS        -0.3252
     59 CD2       -20.2030  -10.8930  -44.6870 C.2       1 HIS         0.0291
     60 CE1       -22.2100  -11.6900  -45.0850 C.2       1 HIS         0.0907
     61 NE2       -21.3390  -10.7650  -45.4510 N.pl3     1 HIS        -0.2752
     62 N         -18.2700  -15.8440  -41.7340 N.am      1 ARG        -0.2636
     63 CA        -17.3830  -16.4940  -40.7780 C.3       1 ARG         0.1311
     64 C         -15.9260  -16.2300  -41.1110 C.2       1 ARG         0.2039
     65 O         -15.4900  -16.4460  -42.2430 O.2       1 ARG        -0.3944
     66 CB        -17.6570  -17.9980  -40.7250 C.3       1 ARG        -0.0092
     67 CG        -16.6120  -18.7830  -39.9590 C.3       1 ARG        -0.0156
     68 CD        -17.2370  -19.6650  -38.8990 C.3       1 ARG         0.0627
     69 NE        -16.2300  -20.2260  -38.0020 N.pl3     1 ARG        -0.2723
     70 CZ        -16.4040  -20.4120  -36.6960 C.cat     1 ARG         0.2882
     71 NH1       -17.5490  -20.0730  -36.1160 N.pl3     1 ARG        -0.2849
     72 NH2       -15.4240  -20.9310  -35.9640 N.pl3     1 ARG        -0.2849
     73 N         -15.1850  -15.7600  -40.1110 N.am      1 LEU        -0.2637
     74 CA        -13.7860  -15.3810  -40.2840 C.3       1 LEU         0.1312
     75 C         -12.8280  -16.4840  -39.8480 C.2       1 LEU         0.2039
     76 O         -11.8490  -16.7660  -40.5400 O.2       1 LEU        -0.3944
     77 CB        -13.4820  -14.0980  -39.5100 C.3       1 LEU        -0.0101
     78 CG        -14.3690  -12.8790  -39.7700 C.3       1 LEU        -0.0425
     79 CD1       -13.9560  -11.7620  -38.8270 C.3       1 LEU        -0.0625
     80 CD2       -14.2730  -12.4210  -41.2200 C.3       1 LEU        -0.0625
     81 N         -13.1160  -17.0990  -38.7030 N.am      1 ALA        -0.2640
     82 CA        -12.2770  -18.1570  -38.1430 C.3       1 ALA         0.1284
     83 C         -12.6680  -19.5160  -38.7100 C.2       1 ALA         0.2061
     84 O         -13.8210  -19.7140  -39.0820 O.2       1 ALA        -0.3942
     85 CB        -12.3990  -18.1710  -36.6290 C.3       1 ALA        -0.0244
     86 N         -11.7110  -20.4630  -38.7820 N.am      1 PRO        -0.2498
     87 CA        -12.0910  -21.8040  -39.2420 C.3       1 PRO         0.1337
     88 C         -13.0400  -22.4980  -38.2600 C.2       1 PRO         0.2036
     89 O         -13.0270  -22.1810  -37.0680 O.2       1 PRO        -0.3944
     90 CB        -10.7510  -22.5470  -39.3180 C.3       1 PRO        -0.0104
     91 CG         -9.8320  -21.7900  -38.4190 C.3       1 PRO        -0.0281
     92 CD        -10.2650  -20.3590  -38.5070 C.3       1 PRO         0.0369
     93 N         -13.8620  -23.4200  -38.7610 N.am      1 TRP        -0.2684
     94 CA        -14.7890  -24.1650  -37.9080 C.3       1 TRP         0.0986
     95 C         -14.0340  -25.0700  -36.9460 C.2       1 TRP         0.0613
     96 O         -13.0130  -25.6570  -37.3010 O.co2     1 TRP        -0.5665
     97 CB        -15.7630  -25.0050  -38.7390 C.3       1 TRP        -0.0013
     98 CG        -16.7910  -24.2140  -39.4990 C.2       1 TRP        -0.0424
     99 CD1       -16.8780  -24.0790  -40.8510 C.2       1 TRP         0.0166
    100 CD2       -17.8850  -23.4620  -38.9490 C.ar      1 TRP        -0.0214
    101 NE1       -17.9500  -23.2860  -41.1840 N.pl3     1 TRP        -0.2891
    102 CE2       -18.5870  -22.8950  -40.0360 C.ar      1 TRP         0.0603
    103 CE3       -18.3380  -23.2110  -37.6480 C.ar      1 TRP        -0.0747
    104 CZ2       -19.7180  -22.0910  -39.8610 C.ar      1 TRP        -0.0443
    105 CZ3       -19.4650  -22.4100  -37.4760 C.ar      1 TRP        -0.0792
    106 CH2       -20.1400  -21.8600  -38.5780 C.ar      1 TRP        -0.0768
    107 OXT       -14.4270  -25.2380  -35.7920 O.co2     1 TRP        -0.5665
    108 H1        -33.2190  -19.2979  -41.7494 H         1 SER         0.2016
    109 H2        -32.9364  -18.4708  -40.3546 H         1 SER         0.2016
    110 H3        -32.3395  -19.9930  -40.5442 H         1 SER         0.2016
    111 H4        -30.8910  -19.3030  -42.3038 H         1 SER         0.1122
    112 H5        -30.6603  -16.8058  -42.6535 H         1 SER         0.0640
    113 H6        -32.1767  -16.6035  -41.7121 H         1 SER         0.0640
    114 H7        -32.5425  -16.7472  -43.9844 H         1 SER         0.2099
    115 H8        -28.8010  -18.7442  -41.8275 H         1 ARG         0.1884
    116 H9        -28.2801  -18.2931  -38.9433 H         1 ARG         0.0800
    117 H10       -25.9496  -19.0230  -39.5464 H         1 ARG         0.0313
    118 H11       -26.5368  -19.3256  -41.2168 H         1 ARG         0.0313
    119 H12       -26.4727  -21.4151  -39.9933 H         1 ARG         0.0301
    120 H13       -28.1831  -20.9589  -40.2984 H         1 ARG         0.0301
    121 H14       -27.8289  -21.8057  -37.9924 H         1 ARG         0.0689
    122 H15       -28.3914  -20.0999  -38.0145 H         1 ARG         0.0689
    123 H16       -25.5070  -20.2031  -37.9817 H         1 ARG         0.2642
    124 H17       -27.4538  -20.2949  -34.4182 H         1 ARG         0.2615
    125 H18       -28.3506  -20.6827  -35.9109 H         1 ARG         0.2615
    126 H19       -24.3929  -19.7142  -36.0933 H         1 ARG         0.2615
    127 H20       -25.2406  -19.7302  -34.5237 H         1 ARG         0.2615
    128 H21       -26.9521  -16.7029  -38.2023 H         1 GLY         0.1881
    129 H22       -26.5241  -14.4443  -38.0587 H         1 GLY         0.0763
    130 H23       -27.1314  -14.2559  -39.7386 H         1 GLY         0.0763
    131 H24       -25.0796  -12.7781  -38.7716 H         1 LEU         0.1883
    132 H25       -23.2825  -12.9598  -40.9181 H         1 LEU         0.0800
    133 H26       -21.8555  -11.4394  -39.2564 H         1 LEU         0.0315
    134 H27       -23.4085  -11.4223  -38.3539 H         1 LEU         0.0315
    135 H28       -24.5212  -10.3168  -40.1585 H         1 LEU         0.0298
    136 H29       -23.2273   -8.2054  -40.1960 H         1 LEU         0.0232
    137 H30       -21.7854   -9.0863  -39.5863 H         1 LEU         0.0232
    138 H31       -23.2534   -8.9476  -38.5604 H         1 LEU         0.0232
    139 H32       -23.3797  -11.4386  -42.0461 H         1 LEU         0.0232
    140 H33       -21.8812  -10.5159  -41.6860 H         1 LEU         0.0232
    141 H34       -23.3603   -9.6515  -42.2261 H         1 LEU         0.0232
    142 H35       -22.9211  -14.1099  -37.5832 H         1 GLU         0.1883
    143 H36       -20.1175  -14.5577  -37.6933 H         1 GLU         0.0801
    144 H37       -21.6472  -14.5121  -35.6445 H         1 GLU         0.0330
    145 H38       -20.3337  -15.7370  -35.6813 H         1 GLU         0.0330
    146 H39       -22.1015  -16.9530  -34.8495 H         1 GLU         0.0433
    147 H40       -22.1921  -17.3198  -36.6057 H         1 GLU         0.0433
    148 H41       -22.7502  -16.2543  -39.1322 H         1 VAL         0.1883
    149 H42       -21.0091  -18.6033  -39.6293 H         1 VAL         0.0802
    150 H43       -23.9952  -18.2037  -40.1168 H         1 VAL         0.0343
    151 H44       -24.0234  -20.6074  -40.7062 H         1 VAL         0.0234
    152 H45       -22.2323  -20.6566  -40.5800 H         1 VAL         0.0234
    153 H46       -23.0162  -19.6539  -41.8476 H         1 VAL         0.0234
    154 H47       -23.3293  -18.4535  -37.7445 H         1 VAL         0.0234
    155 H48       -22.4643  -19.9738  -38.1533 H         1 VAL         0.0234
    156 H49       -24.2488  -19.8789  -38.3356 H         1 VAL         0.0234
    157 H50       -23.0571  -16.2156  -41.3842 H         1 SER         0.1884
    158 H51       -22.2451  -17.2749  -43.9398 H         1 SER         0.0823
    159 H52       -24.4324  -16.1433  -43.5426 H         1 SER         0.0606
    160 H53       -23.5180  -15.4984  -44.9478 H         1 SER         0.0606
    161 H54       -22.8368  -13.7815  -43.5605 H         1 SER         0.2097
    162 H55       -20.9622  -14.7586  -41.8809 H         1 HIS         0.1885
    163 H56       -18.9240  -14.1985  -43.9959 H         1 HIS         0.0817
    164 H57       -18.5589  -12.0109  -42.8017 H         1 HIS         0.0420
    165 H58       -20.0081  -12.3769  -41.8054 H         1 HIS         0.0420
    166 H59       -19.3081  -10.2757  -44.7504 H         1 HIS         0.0729
    167 H60       -23.2019  -11.8359  -45.5103 H         1 HIS         0.1199
    168 H61       -21.4875  -10.0621  -46.1891 H         1 HIS         0.2361
    169 H62       -18.9578  -16.3990  -42.2018 H         1 ARG         0.1883
    170 H63       -17.5872  -16.0725  -39.7827 H         1 ARG         0.0800
    171 H64       -17.6918  -18.3808  -41.7557 H         1 ARG         0.0313
    172 H65       -18.6325  -18.1561  -40.2420 H         1 ARG         0.0313
    173 H66       -15.9216  -18.0775  -39.4735 H         1 ARG         0.0301
    174 H67       -16.0536  -19.4156  -40.6647 H         1 ARG         0.0301
    175 H68       -17.7743  -20.4887  -39.3917 H         1 ARG         0.0689
    176 H69       -17.9460  -19.0658  -38.3090 H         1 ARG         0.0689
    177 H70       -15.3229  -20.4962  -38.4083 H         1 ARG         0.2642
    178 H71       -17.6772  -20.2196  -35.1046 H         1 ARG         0.2615
    179 H72       -18.3092  -19.6633  -36.6774 H         1 ARG         0.2615
    180 H73       -14.5336  -21.1958  -36.4089 H         1 ARG         0.2615
    181 H74       -15.5547  -21.0686  -34.9516 H         1 ARG         0.2615
    182 H75       -15.6019  -15.6628  -39.2073 H         1 LEU         0.1883
    183 H76       -13.6184  -15.1886  -41.3540 H         1 LEU         0.0800
    184 H77       -12.4482  -13.8080  -39.7492 H         1 LEU         0.0315
    185 H78       -13.5576  -14.3358  -38.4387 H         1 LEU         0.0315
    186 H79       -15.4140  -13.1521  -39.5616 H         1 LEU         0.0298
    187 H80       -14.5878  -10.8794  -39.0052 H         1 LEU         0.0232
    188 H81       -12.9026  -11.5011  -39.0066 H         1 LEU         0.0232
    189 H82       -14.0786  -12.0966  -37.7863 H         1 LEU         0.0232
    190 H83       -14.5758  -13.2432  -41.8850 H         1 LEU         0.0232
    191 H84       -13.2362  -12.1305  -41.4449 H         1 LEU         0.0232
    192 H85       -14.9377  -11.5587  -41.3770 H         1 LEU         0.0232
    193 H86       -13.9397  -16.8262  -38.2058 H         1 ALA         0.1883
    194 H87       -11.2299  -17.9532  -38.4114 H         1 ALA         0.0797
    195 H88       -11.7646  -18.9698  -36.2174 H         1 ALA         0.0277
    196 H89       -13.4466  -18.3530  -36.3472 H         1 ALA         0.0277
    197 H90       -12.0741  -17.2004  -36.2259 H         1 ALA         0.0277
    198 H91       -12.5681  -21.7535  -40.2318 H         1 PRO         0.0802
    199 H92       -10.3681  -22.5472  -40.3492 H         1 PRO         0.0313
    200 H93       -10.8646  -23.5839  -38.9688 H         1 PRO         0.0313
    201 H94        -8.7908  -21.8969  -38.7572 H         1 PRO         0.0287
    202 H95        -9.9209  -22.1545  -37.3850 H         1 PRO         0.0287
    203 H96       -10.0802  -19.8316  -37.5595 H         1 PRO         0.0524
    204 H97        -9.7441  -19.8384  -39.3241 H         1 PRO         0.0524
    205 H98       -13.8449  -23.6071  -39.7432 H         1 TRP         0.1876
    206 H99       -15.3707  -23.4394  -37.3205 H         1 TRP         0.0741
    207 H100      -16.2921  -25.6881  -38.0583 H         1 TRP         0.0390
    208 H101      -15.1776  -25.5900  -39.4636 H         1 TRP         0.0390
    209 H102      -16.1953  -24.5346  -41.5667 H         1 TRP         0.0795
    210 H103      -18.2291  -23.0277  -42.1412 H         1 TRP         0.2216
    211 H104      -17.8224  -23.6313  -36.7921 H         1 TRP         0.0540
    212 H105      -20.2417  -21.6660  -40.7096 H         1 TRP         0.0541
    213 H106      -19.8270  -22.2079  -36.4744 H         1 TRP         0.0510
    214 H107      -21.0131  -21.2398  -38.4101 H         1 TRP         0.0530
@<TRIPOS>BOND
     1    1    2 1  
     2    2    3 1  
     3    2    5 1  
     4    3    4 2  
     5    3    7 am 
     6    5    6 1  
     7    7    8 1  
     8    8    9 1  
     9    8   11 1  
    10    9   10 2  
    11    9   18 am 
    12   11   12 1  
    13   12   13 1  
    14   13   14 1  
    15   14   15 ar 
    16   15   16 ar 
    17   15   17 ar 
    18   18   19 1  
    19   19   20 1  
    20   20   21 2  
    21   20   22 am 
    22   22   23 1  
    23   23   24 1  
    24   23   26 1  
    25   24   25 2  
    26   24   30 am 
    27   26   27 1  
    28   27   28 1  
    29   27   29 1  
    30   30   31 1  
    31   31   32 1  
    32   31   34 1  
    33   32   33 2  
    34   32   39 am 
    35   34   35 1  
    36   35   36 1  
    37   36   37 ar 
    38   36   38 ar 
    39   39   40 1  
    40   40   41 1  
    41   40   43 1  
    42   41   42 2  
    43   41   46 am 
    44   43   44 1  
    45   43   45 1  
    46   46   47 1  
    47   47   48 1  
    48   47   50 1  
    49   48   49 2  
    50   48   52 am 
    51   50   51 1  
    52   52   53 1  
    53   53   54 1  
    54   53   56 1  
    55   54   55 2  
    56   54   62 am 
    57   56   57 1  
    58   57   58 1  
    59   57   59 2  
    60   58   60 2  
    61   59   61 1  
    62   60   61 1  
    63   62   63 1  
    64   63   64 1  
    65   63   66 1  
    66   64   65 2  
    67   64   73 am 
    68   66   67 1  
    69   67   68 1  
    70   68   69 1  
    71   69   70 ar 
    72   70   71 ar 
    73   70   72 ar 
    74   73   74 1  
    75   74   75 1  
    76   74   77 1  
    77   75   76 2  
    78   75   81 am 
    79   77   78 1  
    80   78   79 1  
    81   78   80 1  
    82   81   82 1  
    83   82   83 1  
    84   82   85 1  
    85   83   84 2  
    86   83   86 am 
    87   86   87 1  
    88   86   92 1  
    89   87   88 1  
    90   87   90 1  
    91   88   89 2  
    92   88   93 am 
    93   90   91 1  
    94   91   92 1  
    95   93   94 1  
    96   94   95 1  
    97   94   97 1  
    98   95   96 ar 
    99   95  107 ar 
   100   97   98 1  
   101   98   99 2  
   102   98  100 1  
   103   99  101 1  
   104  100  102 ar 
   105  100  103 ar 
   106  101  102 1  
   107  102  104 ar 
   108  103  105 ar 
   109  104  106 ar 
   110  105  106 ar 
   111    1  108 1  
   112    1  109 1  
   113    1  110 1  
   114    2  111 1  
   115    5  112 1  
   116    5  113 1  
   117    6  114 1  
   118    7  115 1  
   119    8  116 1  
   120   11  117 1  
   121   11  118 1  
   122   12  119 1  
   123   12  120 1  
   124   13  121 1  
   125   13  122 1  
   126   14  123 1  
   127   16  124 1  
   128   16  125 1  
   129   17  126 1  
   130   17  127 1  
   131   18  128 1  
   132   19  129 1  
   133   19  130 1  
   134   22  131 1  
   135   23  132 1  
   136   26  133 1  
   137   26  134 1  
   138   27  135 1  
   139   28  136 1  
   140   28  137 1  
   141   28  138 1  
   142   29  139 1  
   143   29  140 1  
   144   29  141 1  
   145   30  142 1  
   146   31  143 1  
   147   34  144 1  
   148   34  145 1  
   149   35  146 1  
   150   35  147 1  
   151   39  148 1  
   152   40  149 1  
   153   43  150 1  
   154   44  151 1  
   155   44  152 1  
   156   44  153 1  
   157   45  154 1  
   158   45  155 1  
   159   45  156 1  
   160   46  157 1  
   161   47  158 1  
   162   50  159 1  
   163   50  160 1  
   164   51  161 1  
   165   52  162 1  
   166   53  163 1  
   167   56  164 1  
   168   56  165 1  
   169   59  166 1  
   170   60  167 1  
   171   61  168 1  
   172   62  169 1  
   173   63  170 1  
   174   66  171 1  
   175   66  172 1  
   176   67  173 1  
   177   67  174 1  
   178   68  175 1  
   179   68  176 1  
   180   69  177 1  
   181   71  178 1  
   182   71  179 1  
   183   72  180 1  
   184   72  181 1  
   185   73  182 1  
   186   74  183 1  
   187   77  184 1  
   188   77  185 1  
   189   78  186 1  
   190   79  187 1  
   191   79  188 1  
   192   79  189 1  
   193   80  190 1  
   194   80  191 1  
   195   80  192 1  
   196   81  193 1  
   197   82  194 1  
   198   85  195 1  
   199   85  196 1  
   200   85  197 1  
   201   87  198 1  
   202   90  199 1  
   203   90  200 1  
   204   91  201 1  
   205   91  202 1  
   206   92  203 1  
   207   92  204 1  
   208   93  205 1  
   209   94  206 1  
   210   97  207 1  
   211   97  208 1  
   212   99  209 1  
   213  101  210 1  
   214  103  211 1  
   215  104  212 1  
   216  105  213 1  
   217  106  214 1  
@<TRIPOS>SUBSTRUCTURE
     1 SER         1

