5mtw_ligand
  -I-interpret- 

211215  0  0  0  0  0  0  0  0999 V2000
   -3.1170  104.2920  181.9710 N   0  3  0  0  0
   -2.8190  105.1550  183.1410 C   0  0  0  0  0
   -1.8050  104.4890  184.0790 C   0  0  0  0  0
   -2.1390  104.0760  185.1860 O   0  0  0  0  0
   -4.1200  105.5220  183.8940 C   0  0  0  0  0
   -3.9980  106.7250  184.8120 C   0  0  0  0  0
   -3.0860  107.7980  184.2400 C   0  0  0  0  0
   -1.8510  107.7330  184.4510 O   0  0  0  0  0
   -3.6030  108.7130  183.5700 O   0  0  0  0  0
   -0.5610  104.4020  183.6260 N   0  0  0  0  0
    0.5340  103.8480  184.4370 C   0  0  0  0  0
    1.1340  105.0120  185.2800 C   0  0  0  0  0
    1.3850  106.0660  184.7400 O   0  0  0  0  0
    1.5890  103.2000  183.5040 C   0  0  0  0  0
    2.7650  102.6210  184.2960 C   0  0  0  0  0
    0.9260  102.1230  182.6580 C   0  0  0  0  0
    1.3070  104.8400  186.6010 N   0  0  0  0  0
    1.8540  105.9490  187.3750 C   0  0  0  0  0
    3.4200  106.0700  187.2080 C   0  0  0  0  0
    4.1890  105.7260  188.1040 O   0  0  0  0  0
    1.4310  105.6100  188.7830 C   0  0  0  0  0
    1.4480  104.1000  188.8170 C   0  0  0  0  0
    1.2470  103.6100  187.4070 C   0  0  0  0  0
    3.8230  106.5710  186.0450 N   0  0  0  0  0
    5.2280  106.8290  185.6930 C   0  0  0  0  0
    5.6020  108.1500  186.3620 C   0  0  0  0  0
    4.7360  108.8900  186.8200 O   0  0  0  0  0
    5.3770  107.0680  184.1710 C   0  0  0  0  0
    4.4500  108.0790  183.7910 O   0  0  0  0  0
    5.1060  105.8020  183.3590 C   0  0  0  0  0
    6.8770  108.4780  186.3940 N   0  0  0  0  0
    7.2780  109.7850  186.9220 C   0  0  0  0  0
    8.5310  110.1590  186.1880 C   0  0  0  0  0
    9.1020  109.3340  185.5140 O   0  0  0  0  0
    7.5200  109.7170  188.4200 C   0  0  0  0  0
    8.6490  108.7900  188.8090 C   0  0  0  0  0
    9.9900  109.1300  188.9990 C   0  0  0  0  0
    8.5730  107.3700  189.0100 C   0  0  0  0  0
   10.7030  108.0130  189.3240 N   0  0  0  0  0
    9.8750  106.9240  189.3480 C   0  0  0  0  0
    7.5410  106.4380  188.9510 C   0  0  0  0  0
   10.1460  105.6110  189.6440 C   0  0  0  0  0
    7.8180  105.1460  189.2760 C   0  0  0  0  0
    9.0990  104.7370  189.6020 C   0  0  0  0  0
    8.8940  111.4240  186.2280 N   0  0  0  0  0
   10.1330  111.8530  185.6280 C   0  0  0  0  0
   10.8740  112.5770  186.7550 C   0  0  0  0  0
   10.3140  113.4450  187.4070 O   0  0  0  0  0
    9.9040  112.7680  184.4300 C   0  0  0  0  0
    8.8540  113.7960  184.6550 C   0  0  0  0  0
    7.5150  113.5510  184.4430 N   0  0  0  0  0
    8.9400  115.0790  185.0750 C   0  0  0  0  0
    6.8220  114.6440  184.7120 C   0  0  0  0  0
    7.6650  115.5860  185.0990 N   0  0  0  0  0
   12.1050  112.1520  187.0360 N   0  0  0  0  0
   12.9530  112.8360  188.0050 C   0  0  0  0  0
   13.6670  114.0170  187.2680 C   0  0  0  0  0
   14.2540  113.8390  186.2120 O   0  0  0  0  0
   13.9380  111.8050  188.6160 C   0  0  0  0  0
   14.8800  112.3970  189.6120 C   0  0  0  0  0
   15.8340  111.4250  190.2200 C   0  0  0  0  0
   15.2760  110.0980  190.6370 N   0  0  0  0  0
   15.0800  109.7160  191.9020 C   0  0  0  0  0
   15.2790  110.5270  192.9490 N   0  0  0  0  0
   14.6460  108.5460  192.1240 N   0  0  0  0  0
   13.6210  115.2300  187.7880 N   0  0  0  0  0
   14.3240  116.3290  187.0910 C   0  0  0  0  0
   15.7960  116.3100  187.4650 C   0  0  0  0  0
   16.1190  115.9430  188.5670 O   0  0  0  0  0
   13.7000  117.6940  187.3770 C   0  0  0  0  0
   13.1100  118.2790  186.0830 C   0  0  0  0  0
   12.0710  119.3420  186.3850 C   0  0  0  0  0
   14.2080  118.8330  185.1620 C   0  0  0  0  0
   16.6670  116.6580  186.5300 N   0  0  0  0  0
   18.1040  116.7390  186.8000 C   0  0  0  0  0
   18.6920  117.9760  186.1560 C   0  0  0  0  0
   18.2960  118.3500  185.0600 O   0  0  0  0  0
   18.8520  115.5120  186.3070 C   0  0  0  0  0
   20.2160  115.5790  186.7210 O   0  0  0  0  0
   19.6290  118.6270  186.8440 N   0  0  0  0  0
   20.4510  119.6670  186.2050 C   0  0  0  0  0
   21.6440  119.1580  185.4440 C   0  0  0  0  0
   22.3770  119.9840  184.9160 O   0  0  0  0  0
   20.9830  120.7160  187.1910 C   0  0  0  0  0
   19.9890  121.1160  188.0480 O   0  0  0  0  0
   21.8600  117.8390  185.4120 N   0  0  0  0  0
   23.0240  117.2310  184.7940 C   0  0  0  0  0
   22.6800  116.5640  183.4130 C   0  0  0  0  0
   21.6250  116.0400  183.2330 O   0  0  0  0  0
   23.6550  116.1410  185.7060 C   0  0  0  0  0
   24.1790  116.6750  187.0150 C   0  0  0  0  0
   23.3070  117.0230  188.0480 C   0  0  0  0  0
   25.5470  116.8920  187.1980 C   0  0  0  0  0
   23.7890  117.5460  189.2350 C   0  0  0  0  0
   26.0380  117.4380  188.3750 C   0  0  0  0  0
   25.1820  117.7240  189.4070 C   0  0  0  0  0
   25.7130  118.3120  190.5230 O   0  0  0  0  0
   23.6020  116.6020  182.4750 N   0  0  0  0  0
   23.4400  115.9370  181.1980 C   0  0  0  0  0
   24.3650  114.7470  181.2480 C   0  0  0  0  0
   25.3310  114.7320  181.9970 O   0  0  0  0  0
   23.8150  116.8630  180.0220 C   0  0  0  0  0
   22.8640  118.0290  179.7270 C   0  0  0  0  0
   22.1760  117.8860  178.3630 C   0  0  0  0  0
   22.1980  119.0900  177.5130 N   0  0  0  0  0
   21.3100  119.3400  176.5470 C   0  0  0  0  0
   20.3320  118.4990  176.2990 N   0  0  0  0  0
   21.3830  120.4340  175.8330 N   0  0  0  0  0
   24.1710  113.7690  180.5410 O   0  0  0  0  0
   -2.2477  104.0620  181.4895 H   0  0  0  0  0
   -3.5682  103.4342  182.2889 H   0  0  0  0  0
   -3.7392  104.7887  181.3333 H   0  0  0  0  0
   -2.3685  106.0772  182.7739 H   0  0  0  0  0
   -4.3780  104.6678  184.5200 H   0  0  0  0  0
   -4.8660  105.7710  183.1393 H   0  0  0  0  0
   -3.5714  106.3874  185.7565 H   0  0  0  0  0
   -4.9910  107.1569  184.9368 H   0  0  0  0  0
   -1.6590  106.9584  184.9847 H   0  0  0  0  0
   -0.3568  104.7308  182.6823 H   0  0  0  0  0
    0.1795  103.0691  185.1121 H   0  0  0  0  0
    1.9928  103.9741  182.8515 H   0  0  0  0  0
    3.2486  103.4180  184.8608 H   0  0  0  0  0
    2.3984  101.8581  184.9828 H   0  0  0  0  0
    3.4821  102.1762  183.6061 H   0  0  0  0  0
    0.5006  101.3607  183.3107 H   0  0  0  0  0
    0.1349  102.5709  182.0566 H   0  0  0  0  0
    1.6692  101.6686  182.0028 H   0  0  0  0  0
    1.4923  106.9263  187.0555 H   0  0  0  0  0
    0.4504  106.0175  189.0289 H   0  0  0  0  0
    2.0937  106.0473  189.5298 H   0  0  0  0  0
    0.6564  103.7255  189.4660 H   0  0  0  0  0
    2.3974  103.7394  189.2130 H   0  0  0  0  0
    1.9987  102.8792  187.1087 H   0  0  0  0  0
    0.3054  103.0753  187.2819 H   0  0  0  0  0
    3.1102  106.7915  185.3495 H   0  0  0  0  0
    5.8432  105.9831  185.9997 H   0  0  0  0  0
    6.4038  107.3705  183.9656 H   0  0  0  0  0
    4.5259  108.2432  182.8482 H   0  0  0  0  0
    5.8133  105.0259  183.6515 H   0  0  0  0  0
    4.0891  105.4596  183.5508 H   0  0  0  0  0
    5.2230  106.0207  182.2976 H   0  0  0  0  0
    7.5825  107.8251  186.0527 H   0  0  0  0  0
    6.4961  110.5299  186.7741 H   0  0  0  0  0
    6.6094  109.3346  188.8812 H   0  0  0  0  0
    7.7902  110.7190  188.7533 H   0  0  0  0  0
   10.4037  110.1338  188.9025 H   0  0  0  0  0
    6.5360  106.7356  188.6519 H   0  0  0  0  0
   11.1527  105.2815  189.9011 H   0  0  0  0  0
    7.0100  104.4144  189.2796 H   0  0  0  0  0
    9.2769  103.6865  189.8319 H   0  0  0  0  0
    8.2927  112.1074  186.6881 H   0  0  0  0  0
   10.7023  111.0127  185.2307 H   0  0  0  0  0
    9.5750  112.1423  183.6003 H   0  0  0  0  0
   10.8392  113.2940  184.2383 H   0  0  0  0  0
    9.8524  115.6112  185.3443 H   0  0  0  0  0
    5.7404  114.7504  184.6289 H   0  0  0  0  0
   12.4644  111.3247  186.5598 H   0  0  0  0  0
   12.3840  113.2589  188.8330 H   0  0  0  0  0
   14.5366  111.4009  187.7996 H   0  0  0  0  0
   13.3439  111.0526  189.1347 H   0  0  0  0  0
   14.2733  112.7972  190.4243 H   0  0  0  0  0
   15.4771  113.1393  189.0824 H   0  0  0  0  0
   16.1985  111.8958  191.1330 H   0  0  0  0  0
   16.5726  111.2090  189.4480 H   0  0  0  0  0
   15.0275  109.4377  189.9004 H   0  0  0  0  0
   15.0820  110.1975  193.8940 H   0  0  0  0  0
   15.6276  111.4742  192.8014 H   0  0  0  0  0
   14.4536  107.9170  191.3445 H   0  0  0  0  0
   13.1106  115.4056  188.6535 H   0  0  0  0  0
   14.2227  116.1655  186.0181 H   0  0  0  0  0
   14.4667  118.3675  187.7600 H   0  0  0  0  0
   12.9063  117.5797  188.1153 H   0  0  0  0  0
   12.6153  117.4639  185.5549 H   0  0  0  0  0
   11.2623  118.9023  186.9688 H   0  0  0  0  0
   12.5335  120.1493  186.9529 H   0  0  0  0  0
   11.6732  119.7356  185.4496 H   0  0  0  0  0
   14.7517  119.6223  185.6810 H   0  0  0  0  0
   14.8961  118.0307  184.8957 H   0  0  0  0  0
   13.7524  119.2376  184.2582 H   0  0  0  0  0
   16.3266  116.8762  185.5936 H   0  0  0  0  0
   18.2204  116.7919  187.8825 H   0  0  0  0  0
   18.8070  115.4756  185.2185 H   0  0  0  0  0
   18.3918  114.6169  186.7255 H   0  0  0  0  0
   20.6832  114.8015  186.4067 H   0  0  0  0  0
   19.7787  118.4014  187.8274 H   0  0  0  0  0
   19.7400  120.1094  185.5072 H   0  0  0  0  0
   21.3378  121.5812  186.6310 H   0  0  0  0  0
   21.7957  120.2780  187.7704 H   0  0  0  0  0
   20.3376  121.7710  188.6571 H   0  0  0  0  0
   21.1691  117.2266  185.8456 H   0  0  0  0  0
   23.7326  118.0448  184.6400 H   0  0  0  0  0
   24.5003  115.7139  185.1664 H   0  0  0  0  0
   22.8732  115.4180  185.9385 H   0  0  0  0  0
   22.2341  116.8811  187.9181 H   0  0  0  0  0
   26.2417  116.6273  186.4008 H   0  0  0  0  0
   23.0991  117.8194  190.0333 H   0  0  0  0  0
   27.1041  117.6396  188.4793 H   0  0  0  0  0
   26.6695  118.3374  190.4456 H   0  0  0  0  0
   24.4630  117.1190  182.6536 H   0  0  0  0  0
   22.4019  115.6475  181.0346 H   0  0  0  0  0
   25.3648  115.5548  182.4903 H   0  0  0  0  0
   23.8022  116.2347  179.1314 H   0  0  0  0  0
   24.7688  117.3166  180.2916 H   0  0  0  0  0
   23.4487  118.9489  179.7168 H   0  0  0  0  0
   22.0920  118.0396  180.4964 H   0  0  0  0  0
   21.1274  117.6675  178.5652 H   0  0  0  0  0
   22.7195  117.1126  177.8204 H   0  0  0  0  0
   22.9371  119.7747  177.6723 H   0  0  0  0  0
   19.6543  118.7068  175.5656 H   0  0  0  0  0
   20.2502  117.6381  176.8399 H   0  0  0  0  0
   22.1256  121.1103  176.0106 H   0  0  0  0  0
  1  2  1  0  0  0
  2  3  1  0  0  0
  2  5  1  0  0  0
  3  4  2  0  0  0
  3 10  1  0  0  0
  5  6  1  0  0  0
  6  7  1  0  0  0
  7  8  1  0  0  0
  7  9  2  0  0  0
 10 11  1  0  0  0
 11 12  1  0  0  0
 11 14  1  0  0  0
 12 13  2  0  0  0
 12 17  1  0  0  0
 14 15  1  0  0  0
 14 16  1  0  0  0
 17 18  1  0  0  0
 17 23  1  0  0  0
 18 19  1  0  0  0
 18 21  1  0  0  0
 19 20  2  0  0  0
 19 24  1  0  0  0
 21 22  1  0  0  0
 22 23  1  0  0  0
 24 25  1  0  0  0
 25 26  1  0  0  0
 25 28  1  0  0  0
 26 27  2  0  0  0
 26 31  1  0  0  0
 28 29  1  0  0  0
 28 30  1  0  0  0
 31 32  1  0  0  0
 32 33  1  0  0  0
 32 35  1  0  0  0
 33 34  2  0  0  0
 33 45  1  0  0  0
 35 36  1  0  0  0
 36 37  4  0  0  0
 36 38  4  0  0  0
 37 39  4  0  0  0
 38 40  4  0  0  0
 38 41  4  0  0  0
 39 40  4  0  0  0
 40 42  4  0  0  0
 41 43  4  0  0  0
 42 44  4  0  0  0
 43 44  4  0  0  0
 45 46  1  0  0  0
 46 47  1  0  0  0
 46 49  1  0  0  0
 47 48  2  0  0  0
 47 55  1  0  0  0
 49 50  1  0  0  0
 50 51  4  0  0  0
 50 52  4  0  0  0
 51 53  4  0  0  0
 52 54  4  0  0  0
 53 54  4  0  0  0
 55 56  1  0  0  0
 56 57  1  0  0  0
 56 59  1  0  0  0
 57 58  2  0  0  0
 57 66  1  0  0  0
 59 60  1  0  0  0
 60 61  1  0  0  0
 61 62  1  0  0  0
 62 63  1  0  0  0
 63 64  1  0  0  0
 63 65  2  0  0  0
 66 67  1  0  0  0
 67 68  1  0  0  0
 67 70  1  0  0  0
 68 69  2  0  0  0
 68 74  1  0  0  0
 70 71  1  0  0  0
 71 72  1  0  0  0
 71 73  1  0  0  0
 74 75  1  0  0  0
 75 76  1  0  0  0
 75 78  1  0  0  0
 76 77  2  0  0  0
 76 80  1  0  0  0
 78 79  1  0  0  0
 80 81  1  0  0  0
 81 82  1  0  0  0
 81 84  1  0  0  0
 82 83  2  0  0  0
 82 86  1  0  0  0
 84 85  1  0  0  0
 86 87  1  0  0  0
 87 88  1  0  0  0
 87 90  1  0  0  0
 88 89  2  0  0  0
 88 98  1  0  0  0
 90 91  1  0  0  0
 91 92  4  0  0  0
 91 93  4  0  0  0
 92 94  4  0  0  0
 93 95  4  0  0  0
 94 96  4  0  0  0
 95 96  4  0  0  0
 96 97  1  0  0  0
 98 99  1  0  0  0
 99100  1  0  0  0
 99102  1  0  0  0
100101  1  0  0  0
100109  2  0  0  0
102103  1  0  0  0
103104  1  0  0  0
104105  1  0  0  0
105106  1  0  0  0
106107  1  0  0  0
106108  2  0  0  0
  1110  1  0  0  0
  1111  1  0  0  0
  1112  1  0  0  0
  2113  1  0  0  0
  5114  1  0  0  0
  5115  1  0  0  0
  6116  1  0  0  0
  6117  1  0  0  0
  8118  1  0  0  0
 10119  1  0  0  0
 11120  1  0  0  0
 14121  1  0  0  0
 15122  1  0  0  0
 15123  1  0  0  0
 15124  1  0  0  0
 16125  1  0  0  0
 16126  1  0  0  0
 16127  1  0  0  0
 18128  1  0  0  0
 21129  1  0  0  0
 21130  1  0  0  0
 22131  1  0  0  0
 22132  1  0  0  0
 23133  1  0  0  0
 23134  1  0  0  0
 24135  1  0  0  0
 25136  1  0  0  0
 28137  1  0  0  0
 29138  1  0  0  0
 30139  1  0  0  0
 30140  1  0  0  0
 30141  1  0  0  0
 31142  1  0  0  0
 32143  1  0  0  0
 35144  1  0  0  0
 35145  1  0  0  0
 37146  1  0  0  0
 41147  1  0  0  0
 42148  1  0  0  0
 43149  1  0  0  0
 44150  1  0  0  0
 45151  1  0  0  0
 46152  1  0  0  0
 49153  1  0  0  0
 49154  1  0  0  0
 52155  1  0  0  0
 53156  1  0  0  0
 55157  1  0  0  0
 56158  1  0  0  0
 59159  1  0  0  0
 59160  1  0  0  0
 60161  1  0  0  0
 60162  1  0  0  0
 61163  1  0  0  0
 61164  1  0  0  0
 62165  1  0  0  0
 64166  1  0  0  0
 64167  1  0  0  0
 65168  1  0  0  0
 66169  1  0  0  0
 67170  1  0  0  0
 70171  1  0  0  0
 70172  1  0  0  0
 71173  1  0  0  0
 72174  1  0  0  0
 72175  1  0  0  0
 72176  1  0  0  0
 73177  1  0  0  0
 73178  1  0  0  0
 73179  1  0  0  0
 74180  1  0  0  0
 75181  1  0  0  0
 78182  1  0  0  0
 78183  1  0  0  0
 79184  1  0  0  0
 80185  1  0  0  0
 81186  1  0  0  0
 84187  1  0  0  0
 84188  1  0  0  0
 85189  1  0  0  0
 86190  1  0  0  0
 87191  1  0  0  0
 90192  1  0  0  0
 90193  1  0  0  0
 92194  1  0  0  0
 93195  1  0  0  0
 94196  1  0  0  0
 95197  1  0  0  0
 97198  1  0  0  0
 98199  1  0  0  0
 99200  1  0  0  0
101201  1  0  0  0
102202  1  0  0  0
102203  1  0  0  0
103204  1  0  0  0
103205  1  0  0  0
104206  1  0  0  0
104207  1  0  0  0
105208  1  0  0  0
107209  1  0  0  0
107210  1  0  0  0
108211  1  0  0  0
M  END
$$$$
