### 
### Created by X-TOOL on Mon Aug  2 16:11:40 2021
### 

@<TRIPOS>MOLECULE
5mtw_ligand
  213   217     1     0     0
SMALL
GAST_HUCK


@<TRIPOS>ATOM
      1 N          -3.1170  104.2920  181.9710 N.4       1 GLU         0.2380
      2 CA         -2.8190  105.1550  183.1410 C.3       1 GLU         0.0665
      3 C          -1.8050  104.4890  184.0790 C.2       1 GLU         0.2268
      4 O          -2.1390  104.0760  185.1860 O.2       1 GLU        -0.3907
      5 CB         -4.1200  105.5220  183.8940 C.3       1 GLU         0.0194
      6 CG         -3.9980  106.7250  184.8120 C.3       1 GLU         0.0075
      7 CD         -3.0860  107.7980  184.2400 C.2       1 GLU         0.0351
      8 OE1        -1.8510  107.7330  184.4510 O.co2     1 GLU        -0.5690
      9 OE2        -3.6030  108.7130  183.5700 O.co2     1 GLU        -0.5690
     10 N          -0.5610  104.4020  183.6260 N.am      1 GLU        -0.2608
     11 CA          0.5340  103.8480  184.4370 C.3       1 GLU         0.1336
     12 C           1.1340  105.0120  185.2800 C.2       1 GLU         0.2067
     13 O           1.3850  106.0660  184.7400 O.2       1 GLU        -0.3942
     14 CB          1.5890  103.2000  183.5040 C.3       1 GLU        -0.0062
     15 CG1         2.7650  102.6210  184.2960 C.3       1 GLU        -0.0584
     16 CG2         0.9260  102.1230  182.6580 C.3       1 GLU        -0.0584
     17 N           1.3070  104.8400  186.6010 N.am      1 GLU        -0.2498
     18 CA          1.8540  105.9490  187.3750 C.3       1 GLU         0.1338
     19 C           3.4200  106.0700  187.2080 C.2       1 GLU         0.2042
     20 O           4.1890  105.7260  188.1040 O.2       1 GLU        -0.3944
     21 CB          1.4310  105.6100  188.7830 C.3       1 GLU        -0.0104
     22 CG          1.4480  104.1000  188.8170 C.3       1 GLU        -0.0281
     23 CD          1.2470  103.6100  187.4070 C.3       1 GLU         0.0369
     24 N           3.8230  106.5710  186.0450 N.am      1 GLU        -0.2613
     25 CA          5.2280  106.8290  185.6930 C.3       1 GLU         0.1565
     26 C           5.6020  108.1500  186.3620 C.2       1 GLU         0.2066
     27 O           4.7360  108.8900  186.8200 O.2       1 GLU        -0.3943
     28 CB          5.3770  107.0680  184.1710 C.3       1 GLU         0.0924
     29 OG1         4.4500  108.0790  183.7910 O.3       1 GLU        -0.3874
     30 CG2         5.1060  105.8020  183.3590 C.3       1 GLU        -0.0346
     31 N           6.8770  108.4780  186.3940 N.am      1 GLU        -0.2626
     32 CA          7.2780  109.7850  186.9220 C.3       1 GLU         0.1352
     33 C           8.5310  110.1590  186.1880 C.2       1 GLU         0.2053
     34 O           9.1020  109.3340  185.5140 O.2       1 GLU        -0.3942
     35 CB          7.5200  109.7170  188.4200 C.3       1 GLU         0.0042
     36 CG          8.6490  108.7900  188.8090 C.2       1 GLU        -0.0418
     37 CD1         9.9900  109.1300  188.9990 C.2       1 GLU         0.0167
     38 CD2         8.5730  107.3700  189.0100 C.ar      1 GLU        -0.0214
     39 NE1        10.7030  108.0130  189.3240 N.pl3     1 GLU        -0.2890
     40 CE2         9.8750  106.9240  189.3480 C.ar      1 GLU         0.0603
     41 CE3         7.5410  106.4380  188.9510 C.ar      1 GLU        -0.0747
     42 CZ2        10.1460  105.6110  189.6440 C.ar      1 GLU        -0.0443
     43 CZ3         7.8180  105.1460  189.2760 C.ar      1 GLU        -0.0792
     44 CH2         9.0990  104.7370  189.6020 C.ar      1 GLU        -0.0768
     45 N           8.8940  111.4240  186.2280 N.am      1 GLU        -0.2624
     46 CA         10.1330  111.8530  185.6280 C.3       1 GLU         0.1369
     47 C          10.8740  112.5770  186.7550 C.2       1 GLU         0.2054
     48 O          10.3140  113.4450  187.4070 O.2       1 GLU        -0.3942
     49 CB          9.9040  112.7680  184.4300 C.3       1 GLU         0.0145
     50 CG          8.8540  113.7960  184.6550 C.2       1 GLU        -0.0027
     51 ND1         7.5150  113.5510  184.4430 N.2       1 GLU        -0.3252
     52 CD2         8.9400  115.0790  185.0750 C.2       1 GLU         0.0291
     53 CE1         6.8220  114.6440  184.7120 C.2       1 GLU         0.0907
     54 NE2         7.6650  115.5860  185.0990 N.pl3     1 GLU        -0.2752
     55 N          12.1050  112.1520  187.0360 N.am      1 GLU        -0.2636
     56 CA         12.9530  112.8360  188.0050 C.3       1 GLU         0.1311
     57 C          13.6670  114.0170  187.2680 C.2       1 GLU         0.2039
     58 O          14.2540  113.8390  186.2120 O.2       1 GLU        -0.3944
     59 CB         13.9380  111.8050  188.6160 C.3       1 GLU        -0.0092
     60 CG         14.8800  112.3970  189.6120 C.3       1 GLU        -0.0156
     61 CD         15.8340  111.4250  190.2200 C.3       1 GLU         0.0627
     62 NE         15.2760  110.0980  190.6370 N.pl3     1 GLU        -0.2723
     63 CZ         15.0800  109.7160  191.9020 C.cat     1 GLU         0.2882
     64 NH1        15.2790  110.5270  192.9490 N.pl3     1 GLU        -0.2849
     65 NH2        14.6460  108.5460  192.1240 N.pl3     1 GLU        -0.2849
     66 N          13.6210  115.2300  187.7880 N.am      1 GLU        -0.2637
     67 CA         14.3240  116.3290  187.0910 C.3       1 GLU         0.1312
     68 C          15.7960  116.3100  187.4650 C.2       1 GLU         0.2040
     69 O          16.1190  115.9430  188.5670 O.2       1 GLU        -0.3944
     70 CB         13.7000  117.6940  187.3770 C.3       1 GLU        -0.0101
     71 CG         13.1100  118.2790  186.0830 C.3       1 GLU        -0.0425
     72 CD1        12.0710  119.3420  186.3850 C.3       1 GLU        -0.0625
     73 CD2        14.2080  118.8330  185.1620 C.3       1 GLU        -0.0625
     74 N          16.6670  116.6580  186.5300 N.am      1 GLU        -0.2616
     75 CA         18.1040  116.7390  186.8000 C.3       1 GLU         0.1539
     76 C          18.6920  117.9760  186.1560 C.2       1 GLU         0.2062
     77 O          18.2960  118.3500  185.0600 O.2       1 GLU        -0.3943
     78 CB         18.8520  115.5120  186.3070 C.3       1 GLU         0.0843
     79 OG         20.2160  115.5790  186.7210 O.3       1 GLU        -0.3903
     80 N          19.6290  118.6270  186.8440 N.am      1 GLU        -0.2615
     81 CA         20.4510  119.6670  186.2050 C.3       1 GLU         0.1539
     82 C          21.6440  119.1580  185.4440 C.2       1 GLU         0.2063
     83 O          22.3770  119.9840  184.9160 O.2       1 GLU        -0.3943
     84 CB         20.9830  120.7160  187.1910 C.3       1 GLU         0.0843
     85 OG         19.9890  121.1160  188.0480 O.3       1 GLU        -0.3903
     86 N          21.8600  117.8390  185.4120 N.am      1 GLU        -0.2621
     87 CA         23.0240  117.2310  184.7940 C.3       1 GLU         0.1390
     88 C          22.6800  116.5640  183.4130 C.2       1 GLU         0.2052
     89 O          21.6250  116.0400  183.2330 O.2       1 GLU        -0.3943
     90 CB         23.6550  116.1410  185.7060 C.3       1 GLU         0.0163
     91 CG         24.1790  116.6750  187.0150 C.ar      1 GLU        -0.0493
     92 CD1        23.3070  117.0230  188.0480 C.ar      1 GLU        -0.0685
     93 CD2        25.5470  116.8920  187.1980 C.ar      1 GLU        -0.0685
     94 CE1        23.7890  117.5460  189.2350 C.ar      1 GLU        -0.0398
     95 CE2        26.0380  117.4380  188.3750 C.ar      1 GLU        -0.0398
     96 CZ         25.1820  117.7240  189.4070 C.ar      1 GLU         0.0805
     97 OH         25.7130  118.3120  190.5230 O.3       1 GLU        -0.3376
     98 N          23.6020  116.6020  182.4750 N.am      1 GLU        -0.2694
     99 CA         23.4400  115.9370  181.1980 C.3       1 GLU         0.0945
    100 C          24.3650  114.7470  181.2480 C.2       1 GLU         0.0601
    101 O          25.3310  114.7320  181.9970 O.co2     1 GLU        -0.5666
    102 CB         23.8150  116.8630  180.0220 C.3       1 GLU        -0.0148
    103 CG         22.8640  118.0290  179.7270 C.3       1 GLU        -0.0162
    104 CD         22.1760  117.8860  178.3630 C.3       1 GLU         0.0627
    105 NE         22.1980  119.0900  177.5130 N.pl3     1 GLU        -0.2723
    106 CZ         21.3100  119.3400  176.5470 C.cat     1 GLU         0.2882
    107 NH1        20.3320  118.4990  176.2990 N.pl3     1 GLU        -0.2849
    108 NH2        21.3830  120.4340  175.8330 N.pl3     1 GLU        -0.2849
    109 OXT        24.1710  113.7690  180.5410 O.co2     1 GLU        -0.5666
    110 H1         -3.7845  104.7544  181.3738 H         1 GLU         0.2015
    111 H2         -3.5009  103.4159  182.2888 H         1 GLU         0.2015
    112 H3         -2.2680  104.1196  181.4557 H         1 GLU         0.2015
    113 H4         -2.3698  106.0872  182.7678 H         1 GLU         0.1099
    114 H5         -4.4216  104.6558  184.5011 H         1 GLU         0.0363
    115 H6         -4.8997  105.7365  183.1484 H         1 GLU         0.0363
    116 H7         -3.5903  106.3927  185.7781 H         1 GLU         0.0434
    117 H8         -4.9984  107.1560  184.9649 H         1 GLU         0.0434
    118 H9         -0.3608  104.7244  182.7008 H         1 GLU         0.1885
    119 H10         0.1395  103.0773  185.1154 H         1 GLU         0.0803
    120 H11         1.9807  103.9784  182.8327 H         1 GLU         0.0343
    121 H12         3.4895  102.1717  183.6008 H         1 GLU         0.0234
    122 H13         2.3963  101.8509  184.9895 H         1 GLU         0.0234
    123 H14         3.2539  103.4244  184.8664 H         1 GLU         0.0234
    124 H15         0.0859  102.5611  182.0992 H         1 GLU         0.0234
    125 H16         0.5529  101.3210  183.3119 H         1 GLU         0.0234
    126 H17         1.6599  101.7083  181.9513 H         1 GLU         0.0234
    127 H18         1.3975  106.8990  187.0602 H         1 GLU         0.0802
    128 H19         0.4215  105.9942  188.9911 H         1 GLU         0.0313
    129 H20         2.1395  106.0254  189.5147 H         1 GLU         0.0313
    130 H21         0.6370  103.7302  189.4616 H         1 GLU         0.0287
    131 H22         2.4146  103.7444  189.2033 H         1 GLU         0.0287
    132 H23         2.0452  102.9109  187.1167 H         1 GLU         0.0524
    133 H24         0.2699  103.1166  187.2983 H         1 GLU         0.0524
    134 H25         3.1242  106.7872  185.3632 H         1 GLU         0.1884
    135 H26         5.8737  106.0034  186.0267 H         1 GLU         0.0826
    136 H27         6.4012  107.4097  183.9610 H         1 GLU         0.0639
    137 H28         4.6405  108.8776  184.2690 H         1 GLU         0.2101
    138 H29         5.2238  106.0214  182.2876 H         1 GLU         0.0257
    139 H30         4.0800  105.4554  183.5516 H         1 GLU         0.0257
    140 H31         5.8192  105.0180  183.6532 H         1 GLU         0.0257
    141 H32         7.5687  107.8379  186.0594 H         1 GLU         0.1884
    142 H33         6.4913  110.5273  186.7219 H         1 GLU         0.0815
    143 H34         6.5980  109.3649  188.9056 H         1 GLU         0.0397
    144 H35         7.7608  110.7283  188.7797 H         1 GLU         0.0397
    145 H36        10.4033  110.1329  188.9026 H         1 GLU         0.0795
    146 H37        11.7136  107.9926  189.5217 H         1 GLU         0.2216
    147 H38         6.5415  106.7340  188.6536 H         1 GLU         0.0540
    148 H39        11.1471  105.2833  189.8997 H         1 GLU         0.0541
    149 H40         7.0144  104.4185  189.2796 H         1 GLU         0.0510
    150 H41         9.2759  103.6922  189.8306 H         1 GLU         0.0530
    151 H42         8.3044  112.0941  186.6791 H         1 GLU         0.1885
    152 H43        10.7120  110.9788  185.2957 H         1 GLU         0.0817
    153 H44         9.6049  112.1482  183.5719 H         1 GLU         0.0420
    154 H45        10.8490  113.2816  184.1997 H         1 GLU         0.0420
    155 H46         9.8515  115.6107  185.3440 H         1 GLU         0.0729
    156 H47         5.7414  114.7503  184.6290 H         1 GLU         0.1199
    157 H48         7.4068  116.5445  185.3738 H         1 GLU         0.2361
    158 H49        12.4574  111.3409  186.5691 H         1 GLU         0.1883
    159 H50        12.3323  113.2488  188.8139 H         1 GLU         0.0800
    160 H51        14.5278  111.3615  187.8003 H         1 GLU         0.0313
    161 H52        13.3531  111.0185  189.1152 H         1 GLU         0.0313
    162 H53        14.2856  112.8460  190.4214 H         1 GLU         0.0301
    163 H54        15.4641  113.1809  189.1077 H         1 GLU         0.0301
    164 H55        16.2672  111.8988  191.1132 H         1 GLU         0.0689
    165 H56        16.6289  111.2347  189.4839 H         1 GLU         0.0689
    166 H57        15.0251  109.4312  189.8932 H         1 GLU         0.2642
    167 H58        15.1132  110.1831  193.9056 H         1 GLU         0.2615
    168 H59        15.5979  111.4946  192.7976 H         1 GLU         0.2615
    169 H60        14.4832  107.8995  191.3389 H         1 GLU         0.2615
    170 H61        14.4561  108.2417  193.0895 H         1 GLU         0.2615
    171 H62        13.1206  115.4022  188.6365 H         1 GLU         0.1883
    172 H63        14.2438  116.1479  186.0090 H         1 GLU         0.0800
    173 H64        14.4720  118.3740  187.7663 H         1 GLU         0.0315
    174 H65        12.9006  117.5807  188.1241 H         1 GLU         0.0315
    175 H66        12.6064  117.4608  185.5474 H         1 GLU         0.0298
    176 H67        11.6688  119.7400  185.4417 H         1 GLU         0.0232
    177 H68        12.5365  120.1574  186.9581 H         1 GLU         0.0232
    178 H69        11.2542  118.8995  186.9741 H         1 GLU         0.0232
    179 H70        14.9478  118.0448  184.9582 H         1 GLU         0.0232
    180 H71        14.7040  119.6832  185.6530 H         1 GLU         0.0232
    181 H72        13.7584  119.1674  184.2154 H         1 GLU         0.0232
    182 H73        16.3333  116.8719  185.6119 H         1 GLU         0.1884
    183 H74        18.2419  116.8112  187.8889 H         1 GLU         0.0823
    184 H75        18.8052  115.4725  185.2087 H         1 GLU         0.0606
    185 H76        18.3870  114.6077  186.7266 H         1 GLU         0.0606
    186 H77        20.2566  115.6123  187.6695 H         1 GLU         0.2097
    187 H78        19.7758  118.4058  187.8081 H         1 GLU         0.1884
    188 H79        19.7937  120.1801  185.4876 H         1 GLU         0.0823
    189 H80        21.3496  121.5879  186.6294 H         1 GLU         0.0606
    190 H81        21.8090  120.2806  187.7725 H         1 GLU         0.0606
    191 H82        20.3340  121.7642  188.6508 H         1 GLU         0.2097
    192 H83        21.1826  117.2386  185.8371 H         1 GLU         0.1885
    193 H84        23.7683  118.0231  184.6251 H         1 GLU         0.0821
    194 H85        24.4895  115.6739  185.1625 H         1 GLU         0.0453
    195 H86        22.8881  115.3827  185.9224 H         1 GLU         0.0453
    196 H87        22.2400  116.8819  187.9188 H         1 GLU         0.0530
    197 H88        26.2378  116.6287  186.4052 H         1 GLU         0.0530
    198 H89        23.1029  117.8179  190.0289 H         1 GLU         0.0525
    199 H90        27.0983  117.6385  188.4787 H         1 GLU         0.0525
    200 H91        25.0242  118.4581  191.1607 H         1 GLU         0.2458
    201 H92        24.4461  117.1088  182.6501 H         1 GLU         0.1875
    202 H93        22.3984  115.6054  181.0752 H         1 GLU         0.0726
    203 H94        23.8714  116.2426  179.1154 H         1 GLU         0.0307
    204 H95        24.8061  117.2888  180.2372 H         1 GLU         0.0307
    205 H96        23.4394  118.9664  179.7368 H         1 GLU         0.0301
    206 H97        22.0928  118.0639  180.5106 H         1 GLU         0.0301
    207 H98        21.1247  117.6152  178.5402 H         1 GLU         0.0689
    208 H99        22.6762  117.0744  177.8143 H         1 GLU         0.0689
    209 H100       22.9443  119.7814  177.6739 H         1 GLU         0.2642
    210 H101       19.6539  118.7037  175.5512 H         1 GLU         0.2615
    211 H102       20.2432  117.6348  176.8523 H         1 GLU         0.2615
    212 H103       22.1392  121.1118  176.0052 H         1 GLU         0.2615
    213 H104       20.6843  120.6174  175.0988 H         1 GLU         0.2615
@<TRIPOS>BOND
     1    1    2 1  
     2    2    3 1  
     3    2    5 1  
     4    3    4 2  
     5    3   10 am 
     6    5    6 1  
     7    6    7 1  
     8    7    8 ar 
     9    7    9 ar 
    10   10   11 1  
    11   11   12 1  
    12   11   14 1  
    13   12   13 2  
    14   12   17 am 
    15   14   15 1  
    16   14   16 1  
    17   17   18 1  
    18   17   23 1  
    19   18   19 1  
    20   18   21 1  
    21   19   20 2  
    22   19   24 am 
    23   21   22 1  
    24   22   23 1  
    25   24   25 1  
    26   25   26 1  
    27   25   28 1  
    28   26   27 2  
    29   26   31 am 
    30   28   29 1  
    31   28   30 1  
    32   31   32 1  
    33   32   33 1  
    34   32   35 1  
    35   33   34 2  
    36   33   45 am 
    37   35   36 1  
    38   36   37 2  
    39   36   38 1  
    40   37   39 1  
    41   38   40 ar 
    42   38   41 ar 
    43   39   40 1  
    44   40   42 ar 
    45   41   43 ar 
    46   42   44 ar 
    47   43   44 ar 
    48   45   46 1  
    49   46   47 1  
    50   46   49 1  
    51   47   48 2  
    52   47   55 am 
    53   49   50 1  
    54   50   51 1  
    55   50   52 2  
    56   51   53 2  
    57   52   54 1  
    58   53   54 1  
    59   55   56 1  
    60   56   57 1  
    61   56   59 1  
    62   57   58 2  
    63   57   66 am 
    64   59   60 1  
    65   60   61 1  
    66   61   62 1  
    67   62   63 ar 
    68   63   64 ar 
    69   63   65 ar 
    70   66   67 1  
    71   67   68 1  
    72   67   70 1  
    73   68   69 2  
    74   68   74 am 
    75   70   71 1  
    76   71   72 1  
    77   71   73 1  
    78   74   75 1  
    79   75   76 1  
    80   75   78 1  
    81   76   77 2  
    82   76   80 am 
    83   78   79 1  
    84   80   81 1  
    85   81   82 1  
    86   81   84 1  
    87   82   83 2  
    88   82   86 am 
    89   84   85 1  
    90   86   87 1  
    91   87   88 1  
    92   87   90 1  
    93   88   89 2  
    94   88   98 am 
    95   90   91 1  
    96   91   92 ar 
    97   91   93 ar 
    98   92   94 ar 
    99   93   95 ar 
   100   94   96 ar 
   101   95   96 ar 
   102   96   97 1  
   103   98   99 1  
   104   99  100 1  
   105   99  102 1  
   106  100  101 ar 
   107  100  109 ar 
   108  102  103 1  
   109  103  104 1  
   110  104  105 1  
   111  105  106 ar 
   112  106  107 ar 
   113  106  108 ar 
   114    1  110 1  
   115    1  111 1  
   116    1  112 1  
   117    2  113 1  
   118    5  114 1  
   119    5  115 1  
   120    6  116 1  
   121    6  117 1  
   122   10  118 1  
   123   11  119 1  
   124   14  120 1  
   125   15  121 1  
   126   15  122 1  
   127   15  123 1  
   128   16  124 1  
   129   16  125 1  
   130   16  126 1  
   131   18  127 1  
   132   21  128 1  
   133   21  129 1  
   134   22  130 1  
   135   22  131 1  
   136   23  132 1  
   137   23  133 1  
   138   24  134 1  
   139   25  135 1  
   140   28  136 1  
   141   29  137 1  
   142   30  138 1  
   143   30  139 1  
   144   30  140 1  
   145   31  141 1  
   146   32  142 1  
   147   35  143 1  
   148   35  144 1  
   149   37  145 1  
   150   39  146 1  
   151   41  147 1  
   152   42  148 1  
   153   43  149 1  
   154   44  150 1  
   155   45  151 1  
   156   46  152 1  
   157   49  153 1  
   158   49  154 1  
   159   52  155 1  
   160   53  156 1  
   161   54  157 1  
   162   55  158 1  
   163   56  159 1  
   164   59  160 1  
   165   59  161 1  
   166   60  162 1  
   167   60  163 1  
   168   61  164 1  
   169   61  165 1  
   170   62  166 1  
   171   64  167 1  
   172   64  168 1  
   173   65  169 1  
   174   65  170 1  
   175   66  171 1  
   176   67  172 1  
   177   70  173 1  
   178   70  174 1  
   179   71  175 1  
   180   72  176 1  
   181   72  177 1  
   182   72  178 1  
   183   73  179 1  
   184   73  180 1  
   185   73  181 1  
   186   74  182 1  
   187   75  183 1  
   188   78  184 1  
   189   78  185 1  
   190   79  186 1  
   191   80  187 1  
   192   81  188 1  
   193   84  189 1  
   194   84  190 1  
   195   85  191 1  
   196   86  192 1  
   197   87  193 1  
   198   90  194 1  
   199   90  195 1  
   200   92  196 1  
   201   93  197 1  
   202   94  198 1  
   203   95  199 1  
   204   97  200 1  
   205   98  201 1  
   206   99  202 1  
   207  102  203 1  
   208  102  204 1  
   209  103  205 1  
   210  103  206 1  
   211  104  207 1  
   212  104  208 1  
   213  105  209 1  
   214  107  210 1  
   215  107  211 1  
   216  108  212 1  
   217  108  213 1  
@<TRIPOS>SUBSTRUCTURE
     1 GLU         1

