4qtd_ligand
  -I-interpret- 

 77 83  0  0  0  0  0  0  0  0999 V2000
   23.4260   11.1210   31.5850 O   0  0  0  0  0
   22.6130   12.0430   31.8140 C   0  0  0  0  0
   21.3980   11.8900   32.3640 N   0  0  0  0  0
   20.7420   10.6900   32.7010 C   0  0  0  0  0
   21.2340    9.4360   32.3640 C   0  0  0  0  0
   20.4870    8.3190   32.6590 C   0  0  0  0  0
   20.6450    6.8610   32.4830 C   0  0  0  0  0
   21.7570    6.1170   31.8430 C   0  0  0  0  0
   22.6560    6.7600   31.0010 C   0  0  0  0  0
   23.7160    6.0390   30.4850 C   0  0  0  0  0
   23.9330    4.7470   30.7510 N   0  0  0  0  0
   23.0560    4.1360   31.5470 C   0  0  0  0  0
   21.9770    4.7770   32.1340 C   0  0  0  0  0
   19.5740    6.3060   32.9980 N   0  0  0  0  0
   18.7490    7.2430   33.4910 N   0  0  0  0  0
   19.2480    8.4770   33.3170 C   0  0  0  0  0
   18.7620    9.7180   33.6780 C   0  0  0  0  0
   19.5260   10.8230   33.3620 C   0  0  0  0  0
   22.9490   13.4910   31.6190 C   0  0  0  0  0
   22.1070   14.1410   30.4870 C   0  0  0  0  0
   24.4120   13.6690   31.2570 C   0  0  0  0  0
   24.1360   13.7990   29.8120 N   0  3  0  0  0
   23.1470   14.8430   29.6730 C   0  0  0  0  0
   24.4390   12.9340   28.7070 C   0  0  0  0  0
   25.4870   13.5120   27.7720 C   0  0  0  0  0
   25.3170   14.6310   27.2780 O   0  0  0  0  0
   26.5160   12.7170   27.4280 N   0  0  0  0  0
   26.8380   11.4500   28.0900 C   0  0  0  0  0
   26.8480   10.3410   27.0870 C   0  0  0  0  0
   27.8630   10.6100   26.0730 N   0  0  0  0  0
   27.6100   11.8820   25.3890 C   0  0  0  0  0
   27.4890   13.0410   26.3780 C   0  0  0  0  0
   28.4010    9.5410   25.3720 C   0  0  0  0  0
   28.2620    8.2320   25.8340 C   0  0  0  0  0
   28.7950    7.1740   25.1220 C   0  0  0  0  0
   29.4770    7.3800   23.9270 C   0  0  0  0  0
   29.6260    8.6860   23.4810 C   0  0  0  0  0
   29.1010    9.7510   24.1850 C   0  0  0  0  0
   30.0290    6.2400   23.1480 C   0  0  0  0  0
   29.8200    5.0080   23.6330 N   0  0  0  0  0
   30.2820    3.9960   22.8810 C   0  0  0  0  0
   30.9430    4.1760   21.6900 C   0  0  0  0  0
   31.1200    5.4800   21.3020 C   0  0  0  0  0
   30.6700    6.5310   22.0070 N   0  0  0  0  0
   20.8862   12.7497   32.5625 H   0  0  0  0  0
   22.2013    9.3377   31.8712 H   0  0  0  0  0
   22.5276    7.8134   30.7521 H   0  0  0  0  0
   24.4143    6.5525   29.8241 H   0  0  0  0  0
   23.1952    3.0736   31.7472 H   0  0  0  0  0
   21.3133    4.2397   32.8114 H   0  0  0  0  0
   17.8078    9.8213   34.1947 H   0  0  0  0  0
   19.1703   11.8165   33.6351 H   0  0  0  0  0
   22.7248   13.9784   32.5678 H   0  0  0  0  0
   21.3331   14.8112   30.8612 H   0  0  0  0  0
   21.5321   13.4153   29.9117 H   0  0  0  0  0
   25.1139   12.8982   31.5752 H   0  0  0  0  0
   24.9646   14.4717   31.7453 H   0  0  0  0  0
   25.0803   13.6934   29.4412 H   0  0  0  0  0
   23.4333   15.8466   29.9875 H   0  0  0  0  0
   22.8725   15.1386   28.6604 H   0  0  0  0  0
   23.5227   12.7942   28.1334 H   0  0  0  0  0
   24.8332   12.0022   29.1127 H   0  0  0  0  0
   26.0862   11.2403   28.8509 H   0  0  0  0  0
   27.8220   11.5256   28.5527 H   0  0  0  0  0
   25.8694   10.2724   26.6118 H   0  0  0  0  0
   27.0760    9.4003   27.5882 H   0  0  0  0  0
   26.6707   11.7973   24.8424 H   0  0  0  0  0
   28.4475   12.0858   24.7218 H   0  0  0  0  0
   28.4613   13.2192   26.8373 H   0  0  0  0  0
   27.1530   13.9300   25.8442 H   0  0  0  0  0
   27.7281    8.0418   26.7651 H   0  0  0  0  0
   28.6789    6.1597   25.5037 H   0  0  0  0  0
   30.1692    8.8746   22.5550 H   0  0  0  0  0
   29.2350   10.7654   23.8093 H   0  0  0  0  0
   30.1242    2.9770   23.2344 H   0  0  0  0  0
   31.3030    3.3382   21.0929 H   0  0  0  0  0
   31.6544    5.6735   20.3719 H   0  0  0  0  0
  1  2  2  0  0  0
  2  3  1  0  0  0
  2 19  1  0  0  0
  3  4  1  0  0  0
  4  5  4  0  0  0
  4 18  4  0  0  0
  5  6  4  0  0  0
  6  7  4  0  0  0
  6 16  4  0  0  0
  7  8  1  0  0  0
  7 14  4  0  0  0
  8  9  4  0  0  0
  8 13  4  0  0  0
  9 10  4  0  0  0
 10 11  4  0  0  0
 11 12  4  0  0  0
 12 13  4  0  0  0
 14 15  4  0  0  0
 15 16  4  0  0  0
 16 17  4  0  0  0
 17 18  4  0  0  0
 19 20  1  0  0  0
 19 21  1  0  0  0
 20 23  1  0  0  0
 21 22  1  0  0  0
 22 23  1  0  0  0
 22 24  1  0  0  0
 24 25  1  0  0  0
 25 26  2  0  0  0
 25 27  1  0  0  0
 27 28  1  0  0  0
 27 32  1  0  0  0
 28 29  1  0  0  0
 29 30  1  0  0  0
 30 31  1  0  0  0
 30 33  1  0  0  0
 31 32  1  0  0  0
 33 34  4  0  0  0
 33 38  4  0  0  0
 34 35  4  0  0  0
 35 36  4  0  0  0
 36 37  4  0  0  0
 36 39  1  0  0  0
 37 38  4  0  0  0
 39 40  4  0  0  0
 39 44  4  0  0  0
 40 41  4  0  0  0
 41 42  4  0  0  0
 42 43  4  0  0  0
 43 44  4  0  0  0
  3 45  1  0  0  0
  5 46  1  0  0  0
  9 47  1  0  0  0
 10 48  1  0  0  0
 12 49  1  0  0  0
 13 50  1  0  0  0
 17 51  1  0  0  0
 18 52  1  0  0  0
 19 53  1  0  0  0
 20 54  1  0  0  0
 20 55  1  0  0  0
 21 56  1  0  0  0
 21 57  1  0  0  0
 22 58  1  0  0  0
 23 59  1  0  0  0
 23 60  1  0  0  0
 24 61  1  0  0  0
 24 62  1  0  0  0
 28 63  1  0  0  0
 28 64  1  0  0  0
 29 65  1  0  0  0
 29 66  1  0  0  0
 31 67  1  0  0  0
 31 68  1  0  0  0
 32 69  1  0  0  0
 32 70  1  0  0  0
 34 71  1  0  0  0
 35 72  1  0  0  0
 37 73  1  0  0  0
 38 74  1  0  0  0
 41 75  1  0  0  0
 42 76  1  0  0  0
 43 77  1  0  0  0
M  END
$$$$
