6i0c_ligand
  -I-interpret- 

 69 73  0  0  0  0  0  0  0  0999 V2000
  130.0620  113.5790   44.3570 C   0  0  0  0  0
  130.1330  112.5110   43.4590 C   0  0  0  0  0
  130.7680  112.7060   42.2680 C   0  0  0  0  0
  131.3640  113.9260   41.9290 C   0  0  0  0  0
  131.2910  114.9850   42.8700 C   0  0  0  0  0
  132.4690  116.4500   41.4840 C   0  0  0  0  0
  133.0510  117.8280   41.3430 C   0  0  0  0  0
  133.9170  118.0790   40.1250 C   0  0  0  0  0
  133.3970  117.3000   38.9170 C   0  0  0  0  0
  133.3250  115.7910   39.2130 C   0  0  0  0  0
  132.6040  115.4360   40.4620 C   0  0  0  0  0
  132.0570  114.1660   40.6830 C   0  0  0  0  0
  133.3090  112.3440   39.4120 C   0  0  0  0  0
  133.4250  111.0180   40.1780 C   0  0  0  0  0
  134.7020  110.8560   41.0690 C   0  0  0  0  0
  135.0450  109.3980   41.4500 C   0  0  0  0  0
  136.5220  109.1000   41.6500 C   0  0  0  0  0
  137.2040  108.1920   40.5760 C   0  0  0  0  0
  138.1010  109.4100   38.3920 C   0  0  0  0  0
  139.6850  109.4820   38.8020 C   0  0  0  0  0
  140.3000  110.8470   38.4340 C   0  0  0  0  0
  139.9060  111.9130   39.4400 C   0  0  0  0  0
  140.7090  112.3730   40.4760 C   0  0  0  0  0
  138.7890  113.5370   40.7000 C   0  0  0  0  0
  138.6620  112.6480   39.5690 C   0  0  0  0  0
  137.4540  112.6730   38.8630 C   0  0  0  0  0
  136.4570  113.5450   39.2640 C   0  0  0  0  0
  136.6000  114.4090   40.3870 C   0  0  0  0  0
  137.7690  114.4180   41.1210 C   0  0  0  0  0
  130.6140  114.7760   44.1030 C   0  0  0  0  0
  131.8450  116.2380   42.6340 N   0  0  0  0  0
  132.1440  113.1210   39.7250 N   0  0  0  0  0
  137.0910  108.8210   39.2380 N   0  0  0  0  0
  139.9490  109.3110   40.2330 N   0  3  0  0  0
  140.0530  113.3460   41.2370 N   0  0  0  0  0
  137.7650  109.8770   37.3150 O   0  0  0  0  0
  129.2430  113.3230   45.8220 Cl  0  0  0  0  0
  129.6915  111.5451   43.7045 H   0  0  0  0  0
  130.8129  111.8827   41.5550 H   0  0  0  0  0
  132.8599  118.6081   42.0799 H   0  0  0  0  0
  134.7928  118.7277   40.1121 H   0  0  0  0  0
  133.1135  117.7546   37.9678 H   0  0  0  0  0
  133.7685  115.0417   38.5572 H   0  0  0  0  0
  133.2463  112.0929   38.3532 H   0  0  0  0  0
  134.1743  112.9460   39.6894 H   0  0  0  0  0
  133.4725  110.2308   39.4256 H   0  0  0  0  0
  132.5707  110.9769   40.8537 H   0  0  0  0  0
  134.5085  111.3894   41.9997 H   0  0  0  0  0
  135.5427  111.2381   40.4900 H   0  0  0  0  0
  134.7140  108.7754   40.6188 H   0  0  0  0  0
  134.5588  109.2060   42.4065 H   0  0  0  0  0
  136.5948  108.5579   42.5928 H   0  0  0  0  0
  137.0327  110.0616   41.5996 H   0  0  0  0  0
  136.7093  107.2209   40.5597 H   0  0  0  0  0
  138.2574  108.0675   40.8269 H   0  0  0  0  0
  140.1275  108.6556   38.2459 H   0  0  0  0  0
  139.9319  111.1418   37.4513 H   0  0  0  0  0
  141.3858  110.7517   38.4341 H   0  0  0  0  0
  141.7218  112.0204   40.6711 H   0  0  0  0  0
  137.3003  112.0142   38.0083 H   0  0  0  0  0
  135.5258  113.5716   38.6981 H   0  0  0  0  0
  135.7795  115.0687   40.6693 H   0  0  0  0  0
  137.8983  115.0727   41.9828 H   0  0  0  0  0
  130.5439  115.5804   44.8352 H   0  0  0  0  0
  131.2930  112.9008   39.2076 H   0  0  0  0  0
  136.1465  108.8406   38.8533 H   0  0  0  0  0
  140.9533  109.3689   40.4015 H   0  0  0  0  0
  139.4724  110.0459   40.7556 H   0  0  0  0  0
  139.6044  108.3995   40.5345 H   0  0  0  0  0
  2  1  4  0  0  0
 30  1  4  0  0  0
  1 37  1  0  0  0
  3  2  4  0  0  0
  4  3  4  0  0  0
  4  5  4  0  0  0
 12  4  4  0  0  0
  5 30  4  0  0  0
  5 31  4  0  0  0
  6  7  4  0  0  0
 11  6  4  0  0  0
  6 31  4  0  0  0
  7  8  4  0  0  0
  9  8  4  0  0  0
 10  9  4  0  0  0
 11 10  4  0  0  0
 12 11  4  0  0  0
 32 12  1  0  0  0
 14 13  1  0  0  0
 13 32  1  0  0  0
 15 14  1  0  0  0
 16 15  1  0  0  0
 17 16  1  0  0  0
 18 17  1  0  0  0
 33 18  1  0  0  0
 19 20  1  0  0  0
 19 33  1  0  0  0
 19 36  2  0  0  0
 20 21  1  0  0  0
 20 34  1  0  0  0
 21 22  1  0  0  0
 22 23  4  0  0  0
 22 25  4  0  0  0
 23 35  4  0  0  0
 25 24  4  0  0  0
 24 29  4  0  0  0
 24 35  4  0  0  0
 25 26  4  0  0  0
 26 27  4  0  0  0
 27 28  4  0  0  0
 28 29  4  0  0  0
  2 38  1  0  0  0
  3 39  1  0  0  0
  7 40  1  0  0  0
  8 41  1  0  0  0
  9 42  1  0  0  0
 10 43  1  0  0  0
 13 44  1  0  0  0
 13 45  1  0  0  0
 14 46  1  0  0  0
 14 47  1  0  0  0
 15 48  1  0  0  0
 15 49  1  0  0  0
 16 50  1  0  0  0
 16 51  1  0  0  0
 17 52  1  0  0  0
 17 53  1  0  0  0
 18 54  1  0  0  0
 18 55  1  0  0  0
 20 56  1  0  0  0
 21 57  1  0  0  0
 21 58  1  0  0  0
 23 59  1  0  0  0
 26 60  1  0  0  0
 27 61  1  0  0  0
 28 62  1  0  0  0
 29 63  1  0  0  0
 30 64  1  0  0  0
 32 65  1  0  0  0
 33 66  1  0  0  0
 34 67  1  0  0  0
 34 68  1  0  0  0
 34 69  1  0  0  0
M  END
$$$$
