6ep4_ligand
  -I-interpret- 

 56 55  0  0  0  0  0  0  0  0999 V2000
  -17.8870  -45.8650  -24.0380 N   0  3  0  0  0
  -19.0390  -45.6190  -23.1640 C   0  0  0  0  0
  -19.6540  -44.2480  -23.4230 C   0  0  0  0  0
  -20.9180  -44.0850  -22.5840 C   0  0  0  0  0
  -21.4700  -42.7000  -22.8360 C   0  0  0  0  0
  -22.8290  -42.4610  -22.1730 C   0  0  0  0  0
  -23.1060  -41.0160  -22.5470 C   0  0  0  0  0
  -22.0730  -40.1740  -21.7990 C   0  0  0  0  0
  -22.1350  -38.7240  -22.2480 C   0  0  0  0  0
  -21.6340  -38.7270  -23.6880 C   0  0  0  0  0
  -21.6470  -37.3250  -24.2810 C   0  0  0  0  0
  -21.0290  -37.3500  -25.6110 N   0  3  0  0  0
  -18.3850  -46.0040  -25.4130 C   0  0  0  0  0
  -17.0080  -44.6900  -24.0510 C   0  0  0  0  0
  -17.1540  -47.0630  -23.6060 C   0  0  0  0  0
  -21.1850  -36.0380  -26.2460 C   0  0  0  0  0
  -21.5100  -38.4510  -26.4530 C   0  0  0  0  0
  -19.5890  -37.5470  -25.3870 C   0  0  0  0  0
  -18.7009  -45.6558  -22.1284 H   0  0  0  0  0
  -19.7936  -46.3795  -23.3649 H   0  0  0  0  0
  -19.9074  -44.1593  -24.4794 H   0  0  0  0  0
  -18.9373  -43.4731  -23.1511 H   0  0  0  0  0
  -20.6872  -44.2119  -21.5263 H   0  0  0  0  0
  -21.6539  -44.8400  -22.8607 H   0  0  0  0  0
  -21.6040  -42.5891  -23.9120 H   0  0  0  0  0
  -20.7663  -41.9827  -22.4137 H   0  0  0  0  0
  -22.8240  -42.6375  -21.0974 H   0  0  0  0  0
  -23.6027  -43.1519  -22.5080 H   0  0  0  0  0
  -24.1205  -40.7274  -22.2721 H   0  0  0  0  0
  -23.0272  -40.8677  -23.6240 H   0  0  0  0  0
  -21.0784  -40.5663  -22.0112 H   0  0  0  0  0
  -22.2863  -40.2215  -20.7311 H   0  0  0  0  0
  -21.5260  -38.0809  -21.6127 H   0  0  0  0  0
  -23.1466  -38.3246  -22.1760 H   0  0  0  0  0
  -22.2912  -39.3614  -24.2827 H   0  0  0  0  0
  -20.6093  -39.0986  -23.6981 H   0  0  0  0  0
  -21.0864  -36.6515  -23.6328 H   0  0  0  0  0
  -22.6762  -36.9761  -24.3654 H   0  0  0  0  0
  -18.9308  -45.1031  -25.6932 H   0  0  0  0  0
  -17.5429  -46.1457  -26.0905 H   0  0  0  0  0
  -19.0495  -46.8660  -25.4720 H   0  0  0  0  0
  -16.1917  -44.8563  -24.7539 H   0  0  0  0  0
  -17.5795  -43.8136  -24.3567 H   0  0  0  0  0
  -16.6022  -44.5304  -23.0520 H   0  0  0  0  0
  -17.8166  -47.9275  -23.6474 H   0  0  0  0  0
  -16.3024  -47.2244  -24.2669 H   0  0  0  0  0
  -16.8011  -46.9227  -22.5843 H   0  0  0  0  0
  -22.2457  -35.8058  -26.3414 H   0  0  0  0  0
  -20.6993  -35.2789  -25.6328 H   0  0  0  0  0
  -20.7256  -36.0572  -27.2343 H   0  0  0  0  0
  -21.2869  -39.4015  -25.9684 H   0  0  0  0  0
  -22.5870  -38.3566  -26.5921 H   0  0  0  0  0
  -21.0122  -38.4100  -27.4218 H   0  0  0  0  0
  -19.1999  -36.7241  -24.7874 H   0  0  0  0  0
  -19.4299  -38.4884  -24.8611 H   0  0  0  0  0
  -19.0736  -37.5741  -26.3471 H   0  0  0  0  0
  1  2  1  0  0  0
  1 13  1  0  0  0
  1 14  1  0  0  0
  1 15  1  0  0  0
  2  3  1  0  0  0
  3  4  1  0  0  0
  4  5  1  0  0  0
  5  6  1  0  0  0
  6  7  1  0  0  0
  7  8  1  0  0  0
  8  9  1  0  0  0
  9 10  1  0  0  0
 10 11  1  0  0  0
 11 12  1  0  0  0
 12 16  1  0  0  0
 12 17  1  0  0  0
 12 18  1  0  0  0
  2 19  1  0  0  0
  2 20  1  0  0  0
  3 21  1  0  0  0
  3 22  1  0  0  0
  4 23  1  0  0  0
  4 24  1  0  0  0
  5 25  1  0  0  0
  5 26  1  0  0  0
  6 27  1  0  0  0
  6 28  1  0  0  0
  7 29  1  0  0  0
  7 30  1  0  0  0
  8 31  1  0  0  0
  8 32  1  0  0  0
  9 33  1  0  0  0
  9 34  1  0  0  0
 10 35  1  0  0  0
 10 36  1  0  0  0
 11 37  1  0  0  0
 11 38  1  0  0  0
 13 39  1  0  0  0
 13 40  1  0  0  0
 13 41  1  0  0  0
 14 42  1  0  0  0
 14 43  1  0  0  0
 14 44  1  0  0  0
 15 45  1  0  0  0
 15 46  1  0  0  0
 15 47  1  0  0  0
 16 48  1  0  0  0
 16 49  1  0  0  0
 16 50  1  0  0  0
 17 51  1  0  0  0
 17 52  1  0  0  0
 17 53  1  0  0  0
 18 54  1  0  0  0
 18 55  1  0  0  0
 18 56  1  0  0  0
M  END
$$$$
