2ksa_ligand
  -I-interpret- 

194197  0  0  0  0  0  0  0  0999 V2000
  -23.0160  -15.9410  -26.3650 N   0  3  0  0  0
  -22.4480  -14.9550  -27.3260 C   0  0  0  0  0
  -22.9260  -13.5500  -26.9330 C   0  0  0  0  0
  -24.1090  -13.3640  -26.6490 O   0  0  0  0  0
  -22.9410  -15.2990  -28.7360 C   0  0  0  0  0
  -23.3700  -14.0230  -29.4620 C   0  0  0  0  0
  -22.4580  -13.7960  -30.6700 C   0  0  0  0  0
  -22.3220  -12.3690  -30.9390 N   0  0  0  0  0
  -22.2800  -11.9070  -32.1850 C   0  0  0  0  0
  -22.3610  -12.7340  -33.1900 N   0  0  0  0  0
  -22.1580  -10.6260  -32.4010 N   0  0  0  0  0
  -22.0580  -12.5560  -26.9000 N   0  0  0  0  0
  -22.4660  -11.1680  -26.5170 C   0  0  0  0  0
  -23.4030  -10.5440  -27.5520 C   0  0  0  0  0
  -23.2550  -10.7710  -28.7530 O   0  0  0  0  0
  -21.1360  -10.4050  -26.4140 C   0  0  0  0  0
  -20.1960  -11.1530  -27.3020 C   0  0  0  0  0
  -20.6170  -12.6210  -27.2240 C   0  0  0  0  0
  -24.3610   -9.7550  -27.0780 N   0  0  0  0  0
  -25.3110   -9.1030  -27.9730 C   0  0  0  0  0
  -24.5980   -7.9960  -28.7790 C   0  0  0  0  0
  -23.9170   -7.1580  -28.1910 O   0  0  0  0  0
  -26.4570   -8.5110  -27.1470 C   0  0  0  0  0
  -26.6420   -9.3040  -25.8350 C   0  0  0  0  0
  -26.4370   -8.3750  -24.6370 C   0  0  0  0  0
  -27.6410   -8.4610  -23.6940 C   0  0  0  0  0
  -27.1630   -8.6670  -22.2970 N   0  3  0  0  0
  -24.6970   -7.9850  -30.1000 N   0  0  0  0  0
  -23.9940   -6.9650  -30.9540 C   0  0  0  0  0
  -24.5410   -5.5350  -30.8210 C   0  0  0  0  0
  -23.8630   -4.5780  -31.1900 O   0  0  0  0  0
  -24.1780   -7.5010  -32.3840 C   0  0  0  0  0
  -25.4270   -8.3160  -32.3350 C   0  0  0  0  0
  -25.4890   -8.9200  -30.9300 C   0  0  0  0  0
  -25.7670   -5.3890  -30.3340 N   0  0  0  0  0
  -26.3710   -4.0560  -30.2180 C   0  0  0  0  0
  -25.5260   -3.1250  -29.3400 C   0  0  0  0  0
  -25.3990   -1.9360  -29.6330 O   0  0  0  0  0
  -27.8200   -4.1350  -29.6740 C   0  0  0  0  0
  -28.6820   -2.9820  -30.2060 C   0  0  0  0  0
  -29.2290   -2.1430  -29.0560 C   0  0  0  0  0
  -30.3760   -2.3250  -28.6480 O   0  0  0  0  0
  -28.4830   -1.2240  -28.5110 N   0  0  0  0  0
  -24.9620   -3.6620  -28.2720 N   0  0  0  0  0
  -24.1440   -2.8650  -27.3670 C   0  0  0  0  0
  -22.8180   -2.5020  -28.0240 C   0  0  0  0  0
  -22.0580   -1.6890  -27.5010 O   0  0  0  0  0
  -23.8930   -3.6480  -26.0720 C   0  0  0  0  0
  -24.7560   -3.0760  -24.9400 C   0  0  0  0  0
  -25.9000   -4.0270  -24.6150 C   0  0  0  0  0
  -25.9950   -5.1120  -25.1890 O   0  0  0  0  0
  -26.7750   -3.6780  -23.7160 N   0  0  0  0  0
  -22.5380   -3.1230  -29.1620 N   0  0  0  0  0
  -21.2900   -2.8670  -29.8610 C   0  0  0  0  0
  -21.1720   -1.3880  -30.2080 C   0  0  0  0  0
  -20.1290   -0.7680  -29.9960 O   0  0  0  0  0
  -21.2290   -3.6890  -31.1470 C   0  0  0  0  0
  -20.7530   -5.0870  -30.8300 C   0  0  0  0  0
  -20.9870   -5.6330  -29.5610 C   0  0  0  0  0
  -20.0830   -5.8380  -31.8030 C   0  0  0  0  0
  -20.5470   -6.9300  -29.2660 C   0  0  0  0  0
  -19.6450   -7.1350  -31.5070 C   0  0  0  0  0
  -19.8770   -7.6800  -30.2400 C   0  0  0  0  0
  -22.2510   -0.8310  -30.7420 N   0  0  0  0  0
  -22.2750    0.5760  -31.1190 C   0  0  0  0  0
  -22.0560    1.4550  -29.9060 C   0  0  0  0  0
  -21.2260    2.3640  -29.9220 O   0  0  0  0  0
  -23.6310    0.9110  -31.7200 C   0  0  0  0  0
  -23.6730    2.3720  -32.0970 C   0  0  0  0  0
  -22.6110    2.9420  -32.8110 C   0  0  0  0  0
  -24.7730    3.1570  -31.7340 C   0  0  0  0  0
  -22.6490    4.2970  -33.1590 C   0  0  0  0  0
  -24.8110    4.5130  -32.0850 C   0  0  0  0  0
  -23.7500    5.0820  -32.7970 C   0  0  0  0  0
  -22.8100    1.1700  -28.8540 N   0  0  0  0  0
  -22.7110    1.9260  -27.6150 C   0  0  0  0  0
  -22.2970    1.0060  -26.4840 C   0  0  0  0  0
  -23.1250    0.5710  -25.6830 O   0  0  0  0  0
  -21.0110    0.6970  -26.4370 N   0  0  0  0  0
  -20.4960   -0.1930  -25.4110 C   0  0  0  0  0
  -20.7390    0.4050  -24.0250 C   0  0  0  0  0
  -21.1210   -0.3030  -23.0920 O   0  0  0  0  0
  -18.9900   -0.4340  -25.6210 C   0  0  0  0  0
  -18.7530   -1.8420  -26.2300 C   0  0  0  0  0
  -17.6460   -1.7820  -27.2920 C   0  0  0  0  0
  -18.3390   -2.8370  -25.1290 C   0  0  0  0  0
  -20.5170    1.7080  -23.9010 N   0  0  0  0  0
  -20.7170    2.3890  -22.6280 C   0  0  0  0  0
  -22.1540    2.2160  -22.1490 C   0  0  0  0  0
  -22.9920    3.0040  -22.5550 O   0  0  0  0  0
  -20.4010    3.8780  -22.7760 C   0  0  0  0  0
  -20.2520    4.5100  -21.3900 C   0  0  0  0  0
  -18.6770    5.3970  -21.3010 S   0  0  0  0  0
  -18.2400    5.2600  -23.0520 C   0  0  0  0  0
  -22.3960    1.2980  -21.3840 O   0  0  0  0  0
  -22.6934  -15.7204  -25.4228 H   0  0  0  0  0
  -24.0345  -15.8963  -26.3961 H   0  0  0  0  0
  -22.7077  -16.8792  -26.6202 H   0  0  0  0  0
  -21.3586  -14.9859  -27.3059 H   0  0  0  0  0
  -23.7923  -15.9759  -28.6644 H   0  0  0  0  0
  -22.1345  -15.7761  -29.2928 H   0  0  0  0  0
  -23.2934  -13.1739  -28.7828 H   0  0  0  0  0
  -24.4019  -14.1244  -29.7983 H   0  0  0  0  0
  -22.8941  -14.2830  -31.5422 H   0  0  0  0  0
  -21.4740  -14.2138  -30.4571 H   0  0  0  0  0
  -22.2581  -11.7151  -30.1588 H   0  0  0  0  0
  -22.4566  -13.7352  -33.0202 H   0  0  0  0  0
  -22.1259  -10.2707  -33.3566 H   0  0  0  0  0
  -22.0947   -9.9799  -31.6143 H   0  0  0  0  0
  -23.0313  -11.1433  -25.5854 H   0  0  0  0  0
  -20.7735  -10.3589  -25.3871 H   0  0  0  0  0
  -21.2410   -9.3641  -26.7199 H   0  0  0  0  0
  -19.1626  -11.0219  -26.9812 H   0  0  0  0  0
  -20.2435  -10.7834  -28.3263 H   0  0  0  0  0
  -20.4235  -13.1588  -28.1521 H   0  0  0  0  0
  -20.0482  -13.1775  -26.4791 H   0  0  0  0  0
  -24.4335   -9.6026  -26.0721 H   0  0  0  0  0
  -25.7164   -9.8328  -28.6739 H   0  0  0  0  0
  -27.3779   -8.5662  -27.7275 H   0  0  0  0  0
  -26.2211   -7.4748  -26.9048 H   0  0  0  0  0
  -25.9109  -10.1115  -25.7950 H   0  0  0  0  0
  -27.6497   -9.7182  -25.8025 H   0  0  0  0  0
  -26.3328   -7.3498  -24.9924 H   0  0  0  0  0
  -25.5384   -8.6770  -24.0991 H   0  0  0  0  0
  -28.2748   -9.2974  -23.9886 H   0  0  0  0  0
  -28.2135   -7.5351  -23.7497 H   0  0  0  0  0
  -27.9651   -8.7242  -21.6694 H   0  0  0  0  0
  -26.6277   -9.5338  -22.2464 H   0  0  0  0  0
  -26.5703   -7.8835  -22.0227 H   0  0  0  0  0
  -22.9527   -6.8591  -30.6497 H   0  0  0  0  0
  -23.3218   -8.0939  -32.7058 H   0  0  0  0  0
  -24.2522   -6.6926  -33.1113 H   0  0  0  0  0
  -25.4176   -9.0951  -33.0972 H   0  0  0  0  0
  -26.3046   -7.7021  -32.5375 H   0  0  0  0  0
  -26.5129   -9.0238  -30.5709 H   0  0  0  0  0
  -25.0926   -9.9349  -30.8999 H   0  0  0  0  0
  -26.2943   -6.2103  -30.0377 H   0  0  0  0  0
  -26.4037   -3.6370  -31.2237 H   0  0  0  0  0
  -27.7855   -4.0680  -28.5866 H   0  0  0  0  0
  -28.2615   -5.0764  -30.0009 H   0  0  0  0  0
  -29.5184   -3.3975  -30.7680 H   0  0  0  0  0
  -28.0668   -2.3473  -30.8438 H   0  0  0  0  0
  -28.8497   -0.6563  -27.7470 H   0  0  0  0  0
  -27.5324   -1.0724  -28.8484 H   0  0  0  0  0
  -25.1021   -4.6535  -28.0776 H   0  0  0  0  0
  -24.6759   -1.9429  -27.1328 H   0  0  0  0  0
  -22.8410   -3.5640  -25.7994 H   0  0  0  0  0
  -24.1535   -4.6948  -26.2287 H   0  0  0  0  0
  -25.1687   -2.1181  -25.2566 H   0  0  0  0  0
  -24.1376   -2.9467  -24.0518 H   0  0  0  0  0
  -27.5452   -4.3050  -23.4835 H   0  0  0  0  0
  -26.6902   -2.7776  -23.2443 H   0  0  0  0  0
  -23.2064   -3.7880  -29.5511 H   0  0  0  0  0
  -20.4660   -3.1519  -29.2068 H   0  0  0  0  0
  -20.5364   -3.2194  -31.8455 H   0  0  0  0  0
  -22.2216   -3.7363  -31.5950 H   0  0  0  0  0
  -21.5108   -5.0493  -28.8041 H   0  0  0  0  0
  -19.9023   -5.4136  -32.7906 H   0  0  0  0  0
  -20.7263   -7.3551  -28.2784 H   0  0  0  0  0
  -19.1231   -7.7199  -32.2644 H   0  0  0  0  0
  -19.5359   -8.6895  -30.0107 H   0  0  0  0  0
  -23.0833   -1.4011  -30.8922 H   0  0  0  0  0
  -21.4798    0.7555  -31.8425 H   0  0  0  0  0
  -24.4118    0.7039  -30.9882 H   0  0  0  0  0
  -23.7919    0.3032  -32.6104 H   0  0  0  0  0
  -21.7550    2.3301  -33.0955 H   0  0  0  0  0
  -25.5997    2.7140  -31.1786 H   0  0  0  0  0
  -21.8213    4.7411  -33.7119 H   0  0  0  0  0
  -25.6679    5.1248  -31.8030 H   0  0  0  0  0
  -23.7805    6.1368  -33.0700 H   0  0  0  0  0
  -23.4770    0.4007  -28.9146 H   0  0  0  0  0
  -23.6803    2.3677  -27.3839 H   0  0  0  0  0
  -21.9652    2.7124  -27.7312 H   0  0  0  0  0
  -20.3734    1.0888  -27.1301 H   0  0  0  0  0
  -21.0191   -1.1466  -25.4828 H   0  0  0  0  0
  -18.4808   -0.3706  -24.6594 H   0  0  0  0  0
  -18.5994    0.3207  -26.3037 H   0  0  0  0  0
  -19.6826   -2.1755  -26.6911 H   0  0  0  0  0
  -17.9419   -1.0952  -28.0850 H   0  0  0  0  0
  -16.7219   -1.4317  -26.8323 H   0  0  0  0  0
  -17.4911   -2.7766  -27.7101 H   0  0  0  0  0
  -17.4186   -2.4927  -24.6573 H   0  0  0  0  0
  -19.1301   -2.9000  -24.3818 H   0  0  0  0  0
  -18.1764   -3.8197  -25.5716 H   0  0  0  0  0
  -20.2010    2.2418  -24.7107 H   0  0  0  0  0
  -20.0450    1.9480  -21.8917 H   0  0  0  0  0
  -22.5751    3.6379  -23.1432 H   0  0  0  0  0
  -21.2122    4.3693  -23.3133 H   0  0  0  0  0
  -19.4707    3.9979  -23.3312 H   0  0  0  0  0
  -20.2740    3.7295  -20.6295 H   0  0  0  0  0
  -21.0725    5.2064  -21.2171 H   0  0  0  0  0
  -18.1656    4.2074  -23.3253 H   0  0  0  0  0
  -19.0100    5.7400  -23.6560 H   0  0  0  0  0
  -17.2821    5.7503  -23.2255 H   0  0  0  0  0
  1  2  1  0  0  0
  2  3  1  0  0  0
  2  5  1  0  0  0
  3  4  2  0  0  0
  3 12  1  0  0  0
  5  6  1  0  0  0
  6  7  1  0  0  0
  7  8  1  0  0  0
  8  9  1  0  0  0
  9 10  2  0  0  0
  9 11  1  0  0  0
 12 13  1  0  0  0
 12 18  1  0  0  0
 13 14  1  0  0  0
 13 16  1  0  0  0
 14 15  2  0  0  0
 14 19  1  0  0  0
 16 17  1  0  0  0
 17 18  1  0  0  0
 19 20  1  0  0  0
 20 21  1  0  0  0
 20 23  1  0  0  0
 21 22  2  0  0  0
 21 28  1  0  0  0
 23 24  1  0  0  0
 24 25  1  0  0  0
 25 26  1  0  0  0
 26 27  1  0  0  0
 28 29  1  0  0  0
 28 34  1  0  0  0
 29 30  1  0  0  0
 29 32  1  0  0  0
 30 31  2  0  0  0
 30 35  1  0  0  0
 32 33  1  0  0  0
 33 34  1  0  0  0
 35 36  1  0  0  0
 36 37  1  0  0  0
 36 39  1  0  0  0
 37 38  2  0  0  0
 37 44  1  0  0  0
 39 40  1  0  0  0
 40 41  1  0  0  0
 41 42  2  0  0  0
 41 43  1  0  0  0
 44 45  1  0  0  0
 45 46  1  0  0  0
 45 48  1  0  0  0
 46 47  2  0  0  0
 46 53  1  0  0  0
 48 49  1  0  0  0
 49 50  1  0  0  0
 50 51  2  0  0  0
 50 52  1  0  0  0
 53 54  1  0  0  0
 54 55  1  0  0  0
 54 57  1  0  0  0
 55 56  2  0  0  0
 55 64  1  0  0  0
 57 58  1  0  0  0
 58 59  4  0  0  0
 58 60  4  0  0  0
 59 61  4  0  0  0
 60 62  4  0  0  0
 61 63  4  0  0  0
 62 63  4  0  0  0
 64 65  1  0  0  0
 65 66  1  0  0  0
 65 68  1  0  0  0
 66 67  2  0  0  0
 66 75  1  0  0  0
 68 69  1  0  0  0
 69 70  4  0  0  0
 69 71  4  0  0  0
 70 72  4  0  0  0
 71 73  4  0  0  0
 72 74  4  0  0  0
 73 74  4  0  0  0
 75 76  1  0  0  0
 76 77  1  0  0  0
 77 78  2  0  0  0
 77 79  1  0  0  0
 79 80  1  0  0  0
 80 81  1  0  0  0
 80 83  1  0  0  0
 81 82  2  0  0  0
 81 87  1  0  0  0
 83 84  1  0  0  0
 84 85  1  0  0  0
 84 86  1  0  0  0
 87 88  1  0  0  0
 88 89  1  0  0  0
 88 91  1  0  0  0
 89 90  1  0  0  0
 89 95  2  0  0  0
 91 92  1  0  0  0
 92 93  1  0  0  0
 93 94  1  0  0  0
  1 96  1  0  0  0
  1 97  1  0  0  0
  1 98  1  0  0  0
  2 99  1  0  0  0
  5100  1  0  0  0
  5101  1  0  0  0
  6102  1  0  0  0
  6103  1  0  0  0
  7104  1  0  0  0
  7105  1  0  0  0
  8106  1  0  0  0
 10107  1  0  0  0
 11108  1  0  0  0
 11109  1  0  0  0
 13110  1  0  0  0
 16111  1  0  0  0
 16112  1  0  0  0
 17113  1  0  0  0
 17114  1  0  0  0
 18115  1  0  0  0
 18116  1  0  0  0
 19117  1  0  0  0
 20118  1  0  0  0
 23119  1  0  0  0
 23120  1  0  0  0
 24121  1  0  0  0
 24122  1  0  0  0
 25123  1  0  0  0
 25124  1  0  0  0
 26125  1  0  0  0
 26126  1  0  0  0
 27127  1  0  0  0
 27128  1  0  0  0
 27129  1  0  0  0
 29130  1  0  0  0
 32131  1  0  0  0
 32132  1  0  0  0
 33133  1  0  0  0
 33134  1  0  0  0
 34135  1  0  0  0
 34136  1  0  0  0
 35137  1  0  0  0
 36138  1  0  0  0
 39139  1  0  0  0
 39140  1  0  0  0
 40141  1  0  0  0
 40142  1  0  0  0
 43143  1  0  0  0
 43144  1  0  0  0
 44145  1  0  0  0
 45146  1  0  0  0
 48147  1  0  0  0
 48148  1  0  0  0
 49149  1  0  0  0
 49150  1  0  0  0
 52151  1  0  0  0
 52152  1  0  0  0
 53153  1  0  0  0
 54154  1  0  0  0
 57155  1  0  0  0
 57156  1  0  0  0
 59157  1  0  0  0
 60158  1  0  0  0
 61159  1  0  0  0
 62160  1  0  0  0
 63161  1  0  0  0
 64162  1  0  0  0
 65163  1  0  0  0
 68164  1  0  0  0
 68165  1  0  0  0
 70166  1  0  0  0
 71167  1  0  0  0
 72168  1  0  0  0
 73169  1  0  0  0
 74170  1  0  0  0
 75171  1  0  0  0
 76172  1  0  0  0
 76173  1  0  0  0
 79174  1  0  0  0
 80175  1  0  0  0
 83176  1  0  0  0
 83177  1  0  0  0
 84178  1  0  0  0
 85179  1  0  0  0
 85180  1  0  0  0
 85181  1  0  0  0
 86182  1  0  0  0
 86183  1  0  0  0
 86184  1  0  0  0
 87185  1  0  0  0
 88186  1  0  0  0
 90187  1  0  0  0
 91188  1  0  0  0
 91189  1  0  0  0
 92190  1  0  0  0
 92191  1  0  0  0
 94192  1  0  0  0
 94193  1  0  0  0
 94194  1  0  0  0
M  END
$$$$
