### 
### Created by X-TOOL on Mon Sep 10 21:13:05 2018
### 

@<TRIPOS>MOLECULE
2ksa_ligand
  194   197     1     0     0
SMALL
GAST_HUCK


@<TRIPOS>ATOM
      1 N         -23.0160  -15.9410  -26.3650 N.4       1 ARG         0.2379
      2 CA        -22.4480  -14.9550  -27.3260 C.3       1 ARG         0.0653
      3 C         -22.9260  -13.5500  -26.9330 C.2       1 ARG         0.2292
      4 O         -24.1090  -13.3640  -26.6490 O.2       1 ARG        -0.3905
      5 CB        -22.9410  -15.2990  -28.7360 C.3       1 ARG         0.0110
      6 CG        -23.3700  -14.0230  -29.4620 C.3       1 ARG        -0.0125
      7 CD        -22.4580  -13.7960  -30.6700 C.3       1 ARG         0.0629
      8 NE        -22.3220  -12.3690  -30.9390 N.pl3     1 ARG        -0.2723
      9 CZ        -22.2800  -11.9070  -32.1850 C.cat     1 ARG         0.2882
     10 NH1       -22.3610  -12.7340  -33.1900 N.pl3     1 ARG        -0.2849
     11 NH2       -22.1580  -10.6260  -32.4010 N.pl3     1 ARG        -0.2849
     12 N         -22.0580  -12.5560  -26.9000 N.am      1 PRO        -0.2471
     13 CA        -22.4660  -11.1680  -26.5170 C.3       1 PRO         0.1339
     14 C         -23.4030  -10.5440  -27.5520 C.2       1 PRO         0.2041
     15 O         -23.2550  -10.7710  -28.7530 O.2       1 PRO        -0.3944
     16 CB        -21.1360  -10.4050  -26.4140 C.3       1 PRO        -0.0104
     17 CG        -20.1960  -11.1530  -27.3020 C.3       1 PRO        -0.0281
     18 CD        -20.6170  -12.6210  -27.2240 C.3       1 PRO         0.0371
     19 N         -24.3610   -9.7550  -27.0780 N.am      1 LYS        -0.2637
     20 CA        -25.3110   -9.1030  -27.9730 C.3       1 LYS         0.1312
     21 C         -24.5980   -7.9960  -28.7790 C.2       1 LYS         0.2064
     22 O         -23.9170   -7.1580  -28.1910 O.2       1 LYS        -0.3942
     23 CB        -26.4570   -8.5110  -27.1470 C.3       1 LYS        -0.0122
     24 CG        -26.6420   -9.3040  -25.8350 C.3       1 LYS        -0.0440
     25 CD        -26.4370   -8.3750  -24.6370 C.3       1 LYS        -0.0124
     26 CE        -27.6410   -8.4610  -23.6940 C.3       1 LYS        -0.0354
     27 NZ        -27.1630   -8.6670  -22.2970 N.4       1 LYS         0.2185
     28 N         -24.6970   -7.9850  -30.1000 N.am      1 PRO        -0.2498
     29 CA        -23.9940   -6.9650  -30.9540 C.3       1 PRO         0.1338
     30 C         -24.5410   -5.5350  -30.8210 C.2       1 PRO         0.2041
     31 O         -23.8630   -4.5780  -31.1900 O.2       1 PRO        -0.3944
     32 CB        -24.1780   -7.5010  -32.3840 C.3       1 PRO        -0.0104
     33 CG        -25.4270   -8.3160  -32.3350 C.3       1 PRO        -0.0281
     34 CD        -25.4890   -8.9200  -30.9300 C.3       1 PRO         0.0369
     35 N         -25.7670   -5.3890  -30.3340 N.am      1 GLN        -0.2636
     36 CA        -26.3710   -4.0560  -30.2180 C.3       1 GLN         0.1330
     37 C         -25.5260   -3.1250  -29.3400 C.2       1 GLN         0.2040
     38 O         -25.3990   -1.9360  -29.6330 O.2       1 GLN        -0.3944
     39 CB        -27.8200   -4.1350  -29.6740 C.3       1 GLN         0.0045
     40 CG        -28.6820   -2.9820  -30.2060 C.3       1 GLN         0.0412
     41 CD        -29.2290   -2.1430  -29.0560 C.2       1 GLN         0.1737
     42 OE1       -30.3760   -2.3250  -28.6480 O.2       1 GLN        -0.3973
     43 NE2       -28.4830   -1.2240  -28.5110 N.am      1 GLN        -0.3009
     44 N         -24.9620   -3.6620  -28.2720 N.am      1 GLN        -0.2636
     45 CA        -24.1440   -2.8650  -27.3670 C.3       1 GLN         0.1330
     46 C         -22.8180   -2.5020  -28.0240 C.2       1 GLN         0.2042
     47 O         -22.0580   -1.6890  -27.5010 O.2       1 GLN        -0.3944
     48 CB        -23.8930   -3.6480  -26.0720 C.3       1 GLN         0.0045
     49 CG        -24.7560   -3.0760  -24.9400 C.3       1 GLN         0.0412
     50 CD        -25.9000   -4.0270  -24.6150 C.2       1 GLN         0.1737
     51 OE1       -25.9950   -5.1120  -25.1890 O.2       1 GLN        -0.3973
     52 NE2       -26.7750   -3.6780  -23.7160 N.am      1 GLN        -0.3009
     53 N         -22.5380   -3.1230  -29.1620 N.am      1 PHE        -0.2619
     54 CA        -21.2900   -2.8670  -29.8610 C.3       1 PHE         0.1404
     55 C         -21.1720   -1.3880  -30.2080 C.2       1 PHE         0.2061
     56 O         -20.1290   -0.7680  -29.9960 O.2       1 PHE        -0.3942
     57 CB        -21.2290   -3.6890  -31.1470 C.3       1 PHE         0.0214
     58 CG        -20.7530   -5.0870  -30.8300 C.ar      1 PHE        -0.0386
     59 CD1       -20.9870   -5.6330  -29.5610 C.ar      1 PHE        -0.0601
     60 CD2       -20.0830   -5.8380  -31.8030 C.ar      1 PHE        -0.0601
     61 CE1       -20.5470   -6.9300  -29.2660 C.ar      1 PHE        -0.0686
     62 CE2       -19.6450   -7.1350  -31.5070 C.ar      1 PHE        -0.0686
     63 CZ        -19.8770   -7.6800  -30.2400 C.ar      1 PHE        -0.0687
     64 N         -22.2510   -0.8310  -30.7420 N.am      1 PHE        -0.2618
     65 CA        -22.2750    0.5760  -31.1190 C.3       1 PHE         0.1404
     66 C         -22.0560    1.4550  -29.9060 C.2       1 PHE         0.2058
     67 O         -21.2260    2.3640  -29.9220 O.2       1 PHE        -0.3942
     68 CB        -23.6310    0.9110  -31.7200 C.3       1 PHE         0.0214
     69 CG        -23.6730    2.3720  -32.0970 C.ar      1 PHE        -0.0386
     70 CD1       -22.6110    2.9420  -32.8110 C.ar      1 PHE        -0.0601
     71 CD2       -24.7730    3.1570  -31.7340 C.ar      1 PHE        -0.0601
     72 CE1       -22.6490    4.2970  -33.1590 C.ar      1 PHE        -0.0686
     73 CE2       -24.8110    4.5130  -32.0850 C.ar      1 PHE        -0.0686
     74 CZ        -23.7500    5.0820  -32.7970 C.ar      1 PHE        -0.0687
     75 N         -22.8100    1.1700  -28.8540 N.am      1 GLY        -0.2663
     76 CA        -22.7110    1.9260  -27.6150 C.3       1 GLY         0.1201
     77 C         -22.2970    1.0060  -26.4840 C.2       1 GLY         0.2007
     78 O         -23.1250    0.5710  -25.6830 O.2       1 GLY        -0.3947
     79 N         -21.0110    0.6970  -26.4370 N.am      1 LEU        -0.2640
     80 CA        -20.4960   -0.1930  -25.4110 C.3       1 LEU         0.1312
     81 C         -20.7390    0.4050  -24.0250 C.2       1 LEU         0.2033
     82 O         -21.1210   -0.3030  -23.0920 O.2       1 LEU        -0.3944
     83 CB        -18.9900   -0.4340  -25.6210 C.3       1 LEU        -0.0101
     84 CG        -18.7530   -1.8420  -26.2300 C.3       1 LEU        -0.0425
     85 CD1       -17.6460   -1.7820  -27.2920 C.3       1 LEU        -0.0625
     86 CD2       -18.3390   -2.8370  -25.1290 C.3       1 LEU        -0.0625
     87 N         -20.5170    1.7080  -23.9010 N.am      1 MET        -0.2695
     88 CA        -20.7170    2.3890  -22.6280 C.3       1 MET         0.0951
     89 C         -22.1540    2.2160  -22.1490 C.2       1 MET         0.0601
     90 O         -22.9920    3.0040  -22.5550 O.co2     1 MET        -0.5666
     91 CB        -20.4010    3.8780  -22.7760 C.3       1 MET        -0.0089
     92 CG        -20.2520    4.5100  -21.3900 C.3       1 MET        -0.0030
     93 SD        -18.6770    5.3970  -21.3010 S.3       1 MET        -0.1639
     94 CE        -18.2400    5.2600  -23.0520 C.3       1 MET        -0.0181
     95 OXT       -22.3960    1.2980  -21.3840 O.co2     1 MET        -0.5666
     96 H1        -22.7083  -16.8681  -26.6137 H         1 ARG         0.2015
     97 H2        -24.0226  -15.9009  -26.3981 H         1 ARG         0.2015
     98 H3        -22.7014  -15.7214  -25.4329 H         1 ARG         0.2015
     99 H4        -21.3491  -14.9942  -27.2977 H         1 ARG         0.1098
    100 H5        -23.7983  -15.9846  -28.6657 H         1 ARG         0.0347
    101 H6        -22.1292  -15.7834  -29.2984 H         1 ARG         0.0347
    102 H7        -23.2914  -13.1663  -28.7765 H         1 ARG         0.0302
    103 H8        -24.4110  -14.1263  -29.8021 H         1 ARG         0.0302
    104 H9        -22.8920  -14.2917  -31.5508 H         1 ARG         0.0689
    105 H10       -21.4657  -14.2222  -30.4610 H         1 ARG         0.0689
    106 H11       -22.2575  -11.7086  -30.1512 H         1 ARG         0.2642
    107 H12       -22.3285  -12.3762  -34.1553 H         1 ARG         0.2615
    108 H13       -22.4575  -13.7450  -33.0185 H         1 ARG         0.2615
    109 H14       -22.0941   -9.9736  -31.6066 H         1 ARG         0.2615
    110 H15       -22.1256  -10.2672  -33.3660 H         1 ARG         0.2615
    111 H16       -22.9750  -11.1770  -25.5419 H         1 PRO         0.0802
    112 H17       -20.7699  -10.4030  -25.3767 H         1 PRO         0.0313
    113 H18       -21.2560   -9.3686  -26.7625 H         1 PRO         0.0313
    114 H19       -19.1609  -11.0334  -26.9494 H         1 PRO         0.0287
    115 H20       -20.2755  -10.7875  -28.3364 H         1 PRO         0.0287
    116 H21       -20.4539  -13.1274  -28.1868 H         1 PRO         0.0524
    117 H22       -20.0608  -13.1470  -26.4342 H         1 PRO         0.0524
    118 H23       -24.4321   -9.6056  -26.0918 H         1 LYS         0.1883
    119 H24       -25.7190   -9.8476  -28.6723 H         1 LYS         0.0800
    120 H25       -27.3871   -8.5574  -27.7324 H         1 LYS         0.0312
    121 H26       -26.2266   -7.4625  -26.9071 H         1 LYS         0.0312
    122 H27       -25.9060  -10.1205  -25.7945 H         1 LYS         0.0269
    123 H28       -27.6580   -9.7242  -25.8020 H         1 LYS         0.0269
    124 H29       -26.3269   -7.3402  -24.9934 H         1 LYS         0.0317
    125 H30       -25.5280   -8.6749  -24.0950 H         1 LYS         0.0317
    126 H31       -28.2802   -9.3054  -23.9912 H         1 LYS         0.0813
    127 H32       -28.2184   -7.5264  -23.7501 H         1 LYS         0.0813
    128 H33       -27.9549   -8.7237  -21.6759 H         1 LYS         0.1994
    129 H34       -26.5772   -7.8932  -22.0247 H         1 LYS         0.1994
    130 H35       -26.6338   -9.5234  -22.2457 H         1 LYS         0.1994
    131 H36       -22.9256   -6.9443  -30.6931 H         1 PRO         0.0802
    132 H37       -23.3206   -8.1252  -32.6759 H         1 PRO         0.0313
    133 H38       -24.2865   -6.6704  -33.0970 H         1 PRO         0.0313
    134 H39       -25.3916   -9.1137  -33.0915 H         1 PRO         0.0287
    135 H40       -26.3053   -7.6787  -32.5150 H         1 PRO         0.0287
    136 H41       -26.5283   -8.9741  -30.5737 H         1 PRO         0.0524
    137 H42       -25.0443   -9.9260  -30.9175 H         1 PRO         0.0524
    138 H43       -26.2839   -6.1942  -30.0435 H         1 GLN         0.1883
    139 H44       -26.4126   -3.6211  -31.2275 H         1 GLN         0.0801
    140 H45       -27.7931   -4.0842  -28.5755 H         1 GLN         0.0337
    141 H46       -28.2678   -5.0900  -29.9861 H         1 GLN         0.0337
    142 H47       -29.5224   -3.3957  -30.7827 H         1 GLN         0.0504
    143 H48       -28.0684   -2.3437  -30.8586 H         1 GLN         0.0504
    144 H49       -28.8397   -0.6727  -27.7568 H         1 GLN         0.1814
    145 H50       -27.5538   -1.0701  -28.8470 H         1 GLN         0.1814
    146 H51       -25.0993   -4.6340  -28.0814 H         1 GLN         0.1883
    147 H52       -24.6838   -1.9378  -27.1242 H         1 GLN         0.0801
    148 H53       -22.8310   -3.5675  -25.7972 H         1 GLN         0.0337
    149 H54       -24.1519   -4.7055  -26.2292 H         1 GLN         0.0337
    150 H55       -25.1687   -2.1057  -25.2532 H         1 GLN         0.0504
    151 H56       -24.1336   -2.9376  -24.0437 H         1 GLN         0.0504
    152 H57       -27.5323   -4.2910  -23.4909 H         1 GLN         0.1814
    153 H58       -26.6897   -2.7970  -23.2507 H         1 GLN         0.1814
    154 H59       -23.1933   -3.7750  -29.5434 H         1 PHE         0.1885
    155 H60       -20.4509   -3.1527  -29.2096 H         1 PHE         0.0823
    156 H61       -20.5303   -3.2151  -31.8521 H         1 PHE         0.0474
    157 H62       -22.2305   -3.7367  -31.5994 H         1 PHE         0.0474
    158 H63       -21.5080   -5.0525  -28.8082 H         1 PHE         0.0557
    159 H64       -19.9032   -5.4159  -32.7851 H         1 PHE         0.0557
    160 H65       -20.7253   -7.3527  -28.2839 H         1 PHE         0.0599
    161 H66       -19.1260   -7.7167  -32.2602 H         1 PHE         0.0599
    162 H67       -19.5378   -8.6840  -30.0120 H         1 PHE         0.0559
    163 H68       -23.0670   -1.3900  -30.8892 H         1 PHE         0.1885
    164 H69       -21.4836    0.7681  -31.8585 H         1 PHE         0.0823
    165 H70       -24.4198    0.7008  -30.9828 H         1 PHE         0.0474
    166 H71       -23.7950    0.2968  -32.6177 H         1 PHE         0.0474
    167 H72       -21.7597    2.3335  -33.0940 H         1 PHE         0.0557
    168 H73       -25.5951    2.7164  -31.1817 H         1 PHE         0.0557
    169 H74       -21.8258    4.7387  -33.7089 H         1 PHE         0.0599
    170 H75       -25.6632    5.1214  -31.8046 H         1 PHE         0.0599
    171 H76       -23.7803    6.1310  -33.0685 H         1 PHE         0.0559
    172 H77       -23.4639    0.4158  -28.9134 H         1 GLY         0.1881
    173 H78       -23.6879    2.3746  -27.3818 H         1 GLY         0.0763
    174 H79       -21.9606    2.7218  -27.7317 H         1 GLY         0.0763
    175 H80       -20.3859    1.0811  -27.1165 H         1 LEU         0.1883
    176 H81       -21.0229   -1.1561  -25.4802 H         1 LEU         0.0800
    177 H82       -18.4723   -0.3649  -24.6529 H         1 LEU         0.0315
    178 H83       -18.5916    0.3297  -26.3052 H         1 LEU         0.0315
    179 H84       -19.6853   -2.1895  -26.6990 H         1 LEU         0.0298
    180 H85       -17.4887   -2.7853  -27.7147 H         1 LEU         0.0232
    181 H86       -16.7127   -1.4286  -26.8293 H         1 LEU         0.0232
    182 H87       -17.9434   -1.0892  -28.0930 H         1 LEU         0.0232
    183 H88       -19.1275   -2.8858  -24.3636 H         1 LEU         0.0232
    184 H89       -17.3991   -2.5017  -24.6662 H         1 LEU         0.0232
    185 H90       -18.1949   -3.8339  -25.5710 H         1 LEU         0.0232
    186 H91       -20.2072    2.2313  -24.6948 H         1 MET         0.1875
    187 H92       -20.0379    1.9516  -21.8814 H         1 MET         0.0726
    188 H93       -21.2192    4.3740  -23.3187 H         1 MET         0.0313
    189 H94       -19.4625    3.9994  -23.3367 H         1 MET         0.0313
    190 H95       -20.2733    3.7219  -20.6229 H         1 MET         0.0378
    191 H96       -21.0797    5.2133  -21.2163 H         1 MET         0.0378
    192 H97       -17.2734    5.7545  -23.2284 H         1 MET         0.0340
    193 H98       -19.0163    5.7441  -23.6627 H         1 MET         0.0340
    194 H99       -18.1646    4.1982  -23.3291 H         1 MET         0.0340
@<TRIPOS>BOND
     1    1    2 1  
     2    2    3 1  
     3    2    5 1  
     4    3    4 2  
     5    3   12 am 
     6    5    6 1  
     7    6    7 1  
     8    7    8 1  
     9    8    9 ar 
    10    9   10 ar 
    11    9   11 ar 
    12   12   13 1  
    13   12   18 1  
    14   13   14 1  
    15   13   16 1  
    16   14   15 2  
    17   14   19 am 
    18   16   17 1  
    19   17   18 1  
    20   19   20 1  
    21   20   21 1  
    22   20   23 1  
    23   21   22 2  
    24   21   28 am 
    25   23   24 1  
    26   24   25 1  
    27   25   26 1  
    28   26   27 1  
    29   28   29 1  
    30   28   34 1  
    31   29   30 1  
    32   29   32 1  
    33   30   31 2  
    34   30   35 am 
    35   32   33 1  
    36   33   34 1  
    37   35   36 1  
    38   36   37 1  
    39   36   39 1  
    40   37   38 2  
    41   37   44 am 
    42   39   40 1  
    43   40   41 1  
    44   41   42 2  
    45   41   43 am 
    46   44   45 1  
    47   45   46 1  
    48   45   48 1  
    49   46   47 2  
    50   46   53 am 
    51   48   49 1  
    52   49   50 1  
    53   50   51 2  
    54   50   52 am 
    55   53   54 1  
    56   54   55 1  
    57   54   57 1  
    58   55   56 2  
    59   55   64 am 
    60   57   58 1  
    61   58   59 ar 
    62   58   60 ar 
    63   59   61 ar 
    64   60   62 ar 
    65   61   63 ar 
    66   62   63 ar 
    67   64   65 1  
    68   65   66 1  
    69   65   68 1  
    70   66   67 2  
    71   66   75 am 
    72   68   69 1  
    73   69   70 ar 
    74   69   71 ar 
    75   70   72 ar 
    76   71   73 ar 
    77   72   74 ar 
    78   73   74 ar 
    79   75   76 1  
    80   76   77 1  
    81   77   78 2  
    82   77   79 am 
    83   79   80 1  
    84   80   81 1  
    85   80   83 1  
    86   81   82 2  
    87   81   87 am 
    88   83   84 1  
    89   84   85 1  
    90   84   86 1  
    91   87   88 1  
    92   88   89 1  
    93   88   91 1  
    94   89   90 ar 
    95   89   95 ar 
    96   91   92 1  
    97   92   93 1  
    98   93   94 1  
    99    1   96 1  
   100    1   97 1  
   101    1   98 1  
   102    2   99 1  
   103    5  100 1  
   104    5  101 1  
   105    6  102 1  
   106    6  103 1  
   107    7  104 1  
   108    7  105 1  
   109    8  106 1  
   110   10  107 1  
   111   10  108 1  
   112   11  109 1  
   113   11  110 1  
   114   13  111 1  
   115   16  112 1  
   116   16  113 1  
   117   17  114 1  
   118   17  115 1  
   119   18  116 1  
   120   18  117 1  
   121   19  118 1  
   122   20  119 1  
   123   23  120 1  
   124   23  121 1  
   125   24  122 1  
   126   24  123 1  
   127   25  124 1  
   128   25  125 1  
   129   26  126 1  
   130   26  127 1  
   131   27  128 1  
   132   27  129 1  
   133   27  130 1  
   134   29  131 1  
   135   32  132 1  
   136   32  133 1  
   137   33  134 1  
   138   33  135 1  
   139   34  136 1  
   140   34  137 1  
   141   35  138 1  
   142   36  139 1  
   143   39  140 1  
   144   39  141 1  
   145   40  142 1  
   146   40  143 1  
   147   43  144 1  
   148   43  145 1  
   149   44  146 1  
   150   45  147 1  
   151   48  148 1  
   152   48  149 1  
   153   49  150 1  
   154   49  151 1  
   155   52  152 1  
   156   52  153 1  
   157   53  154 1  
   158   54  155 1  
   159   57  156 1  
   160   57  157 1  
   161   59  158 1  
   162   60  159 1  
   163   61  160 1  
   164   62  161 1  
   165   63  162 1  
   166   64  163 1  
   167   65  164 1  
   168   68  165 1  
   169   68  166 1  
   170   70  167 1  
   171   71  168 1  
   172   72  169 1  
   173   73  170 1  
   174   74  171 1  
   175   75  172 1  
   176   76  173 1  
   177   76  174 1  
   178   79  175 1  
   179   80  176 1  
   180   83  177 1  
   181   83  178 1  
   182   84  179 1  
   183   85  180 1  
   184   85  181 1  
   185   85  182 1  
   186   86  183 1  
   187   86  184 1  
   188   86  185 1  
   189   87  186 1  
   190   88  187 1  
   191   91  188 1  
   192   91  189 1  
   193   92  190 1  
   194   92  191 1  
   195   94  192 1  
   196   94  193 1  
   197   94  194 1  
@<TRIPOS>SUBSTRUCTURE
     1 ARG         1

