5j1v_ligand
  -I-interpret- 

 25 27  0  0  0  0  0  0  0  0999 V2000
   -5.9800   26.3390   -8.1710 C   0  0  0  0  0
   -5.9360   27.7000   -7.8680 C   0  0  0  0  0
   -5.8170   28.3240   -6.6120 C   0  0  0  0  0
   -5.8020   29.6240   -6.4110 N   0  0  0  0  0
   -5.9050   30.3900   -7.4940 C   0  0  0  0  0
   -6.0290   28.6200   -8.9390 C   0  0  0  0  0
   -5.8350   31.7200   -7.3050 N   0  0  0  0  0
   -6.1470   28.1490  -10.2820 C   0  0  0  0  0
   -6.1360   26.7750  -10.5500 C   0  0  0  0  0
   -6.0240   29.9550   -8.7420 N   0  0  0  0  0
   -6.2270   29.0090  -11.2920 N   0  0  0  0  0
   -6.1490   26.2440  -11.8590 C   0  0  0  0  0
   -6.0700   25.8610   -9.4760 C   0  0  0  0  0
   -6.0290   24.4870   -9.8000 C   0  0  0  0  0
   -6.0590   24.0120  -11.0430 N   0  0  0  0  0
   -6.1140   24.8980  -12.0370 C   0  0  0  0  0
   -5.9424   25.6200   -7.3526 H   0  0  0  0  0
   -5.7305   27.6795   -5.7372 H   0  0  0  0  0
   -5.7086   32.0956   -6.3651 H   0  0  0  0  0
   -5.9083   32.3529   -8.1016 H   0  0  0  0  0
   -6.2043   30.0125  -11.1104 H   0  0  0  0  0
   -6.3111   28.6656  -12.2488 H   0  0  0  0  0
   -6.1869   26.9103  -12.7208 H   0  0  0  0  0
   -5.9690   23.7706   -8.9807 H   0  0  0  0  0
   -6.1321   24.5180  -13.0585 H   0  0  0  0  0
  1  2  4  0  0  0
  1 13  4  0  0  0
  2  3  4  0  0  0
  2  6  4  0  0  0
  3  4  4  0  0  0
  4  5  4  0  0  0
  5  7  1  0  0  0
  5 10  4  0  0  0
  6  8  4  0  0  0
  6 10  4  0  0  0
  8  9  4  0  0  0
  8 11  1  0  0  0
  9 12  4  0  0  0
  9 13  4  0  0  0
 12 16  4  0  0  0
 13 14  4  0  0  0
 14 15  4  0  0  0
 15 16  4  0  0  0
  1 17  1  0  0  0
  3 18  1  0  0  0
  7 19  1  0  0  0
  7 20  1  0  0  0
 11 21  1  0  0  0
 11 22  1  0  0  0
 12 23  1  0  0  0
 14 24  1  0  0  0
 16 25  1  0  0  0
M  END
$$$$
