2eh8_ligand
  -I-interpret- 

150153  0  0  0  0  0  0  0  0999 V2000
   29.8400   -1.4950   49.3930 N   0  3  0  0  0
   29.5570   -1.1390   47.9740 C   0  0  0  0  0
   30.0620   -2.2320   47.0300 C   0  0  0  0  0
   30.9930   -2.9710   47.3610 O   0  0  0  0  0
   30.2150    0.1940   47.6390 C   0  0  0  0  0
   29.4430   -2.3340   45.8550 N   0  0  0  0  0
   29.8330   -3.3460   44.8790 C   0  0  0  0  0
   31.3360   -3.4110   44.6270 C   0  0  0  0  0
   31.9670   -2.4120   44.2750 O   0  0  0  0  0
   29.0960   -3.1240   43.5550 C   0  0  0  0  0
   29.6870   -3.9340   42.4150 C   0  0  0  0  0
   30.1840   -5.0430   42.6130 O   0  0  0  0  0
   29.6090   -3.3900   41.2090 N   0  0  0  0  0
   31.8930   -4.6060   44.8140 N   0  0  0  0  0
   33.3170   -4.8560   44.6130 C   0  0  0  0  0
   33.5540   -5.6280   43.3180 C   0  0  0  0  0
   34.6890   -5.7270   42.8470 O   0  0  0  0  0
   33.8900   -5.6540   45.7880 C   0  0  0  0  0
   33.3010   -6.9420   45.8600 O   0  0  0  0  0
   32.4880   -6.1940   42.7570 N   0  0  0  0  0
   32.6040   -6.9330   41.5080 C   0  0  0  0  0
   32.8150   -5.9660   40.3430 C   0  0  0  0  0
   33.4840   -6.2970   39.3660 O   0  0  0  0  0
   31.3530   -7.7790   41.2600 C   0  0  0  0  0
   31.3240   -9.0440   42.1000 C   0  0  0  0  0
   32.2920   -9.8060   42.1320 O   0  0  0  0  0
   30.2010   -9.2830   42.7710 N   0  0  0  0  0
   32.2470   -4.7680   40.4580 N   0  0  0  0  0
   32.3770   -3.7550   39.4180 C   0  0  0  0  0
   32.4170   -2.3620   40.0550 C   0  0  0  0  0
   31.5300   -1.5400   39.8480 O   0  0  0  0  0
   31.2040   -3.8690   38.4310 C   0  0  0  0  0
   31.1900   -5.1980   37.6940 C   0  0  0  0  0
   32.0980   -5.5050   36.9170 O   0  0  0  0  0
   30.1640   -5.9990   37.9430 N   0  0  0  0  0
   33.4800   -2.0740   40.8160 N   0  0  0  0  0
   33.6570   -0.7880   41.4970 C   0  0  0  0  0
   33.2410    0.4730   40.7250 C   0  0  0  0  0
   32.5480    1.3350   41.2760 O   0  0  0  0  0
   35.1470   -0.7920   41.8600 C   0  0  0  0  0
   35.7580   -1.6910   40.8310 C   0  0  0  0  0
   34.7520   -2.8140   40.7810 C   0  0  0  0  0
   33.6490    0.5810   39.4590 N   0  0  0  0  0
   33.3230    1.7660   38.6570 C   0  0  0  0  0
   31.8290    2.0040   38.4260 C   0  0  0  0  0
   31.4460    2.9110   37.6890 O   0  0  0  0  0
   34.0780    1.7380   37.3160 C   0  0  0  0  0
   33.6360    0.6130   36.4050 C   0  0  0  0  0
   33.4080   -0.5200   36.8890 O   0  0  0  0  0
   33.5380    0.8650   35.1880 O   0  0  0  0  0
   30.9930    1.2000   39.0760 N   0  0  0  0  0
   29.5450    1.3430   38.9720 C   0  0  0  0  0
   28.9980    2.1720   40.1350 C   0  0  0  0  0
   27.7850    2.2620   40.3270 O   0  0  0  0  0
   28.8730   -0.0350   38.9550 C   0  0  0  0  0
   28.8710   -0.6830   37.6000 C   0  0  0  0  0
   29.9360   -0.8280   36.7610 C   0  0  0  0  0
   27.7500   -1.2760   36.9310 C   0  0  0  0  0
   29.5510   -1.4730   35.6090 N   0  0  0  0  0
   28.2140   -1.7620   35.6870 C   0  0  0  0  0
   26.3990   -1.4460   37.2620 C   0  0  0  0  0
   27.3770   -2.4060   34.7720 C   0  0  0  0  0
   25.5640   -2.0880   36.3520 C   0  0  0  0  0
   26.0600   -2.5600   35.1200 C   0  0  0  0  0
   29.9070    2.7650   40.9100 N   0  0  0  0  0
   29.5510    3.6040   42.0560 C   0  0  0  0  0
   30.0570    5.0210   41.7910 C   0  0  0  0  0
   31.2640    5.2310   41.6500 O   0  0  0  0  0
   30.1810    3.0400   43.3340 C   0  0  0  0  0
   29.4230    1.8370   43.8810 C   0  0  0  0  0
   30.0660    0.9370   44.4690 O   0  0  0  0  0
   28.1790    1.7970   43.7320 O   0  0  0  0  0
   29.1420    5.9910   41.7270 N   0  0  0  0  0
   29.5200    7.3780   41.4380 C   0  0  0  0  0
   28.5600    8.4490   41.9650 C   0  0  0  0  0
   29.0550    9.5260   42.3760 O   0  0  0  0  0
   29.6970    7.5400   39.9250 C   0  0  0  0  0
   28.6410    6.8330   39.1130 C   0  0  0  0  0
   27.3680    7.3770   38.9710 C   0  0  0  0  0
   28.9100    5.5960   38.5290 C   0  0  0  0  0
   26.3830    6.7020   38.2650 C   0  0  0  0  0
   27.9310    4.9120   37.8220 C   0  0  0  0  0
   26.6660    5.4630   37.6890 C   0  0  0  0  0
   27.3330    8.1890   41.9560 O   0  0  0  0  0
   29.3980   -2.3875   49.6130 H   0  0  0  0  0
   30.8481   -1.5709   49.5287 H   0  0  0  0  0
   29.4670   -0.7694   50.0052 H   0  0  0  0  0
   28.4785   -1.0500   47.8432 H   0  0  0  0  0
   31.2957    0.1014   47.7464 H   0  0  0  0  0
   29.9729    0.4695   46.6126 H   0  0  0  0  0
   29.8454    0.9613   48.3193 H   0  0  0  0  0
   28.6818   -1.6923   45.6333 H   0  0  0  0  0
   29.5479   -4.3042   45.3134 H   0  0  0  0  0
   29.1816   -2.0686   43.2963 H   0  0  0  0  0
   28.0615   -3.4398   43.6899 H   0  0  0  0  0
   29.9692   -3.8933   40.3982 H   0  0  0  0  0
   29.1888   -2.4680   41.0916 H   0  0  0  0  0
   31.2988   -5.3802   45.1106 H   0  0  0  0  0
   33.8201   -3.8911   44.5495 H   0  0  0  0  0
   33.6760   -5.1185   46.7130 H   0  0  0  0  0
   34.9645   -5.7674   45.6439 H   0  0  0  0  0
   33.6748   -7.4225   46.6022 H   0  0  0  0  0
   31.5773   -6.1088   43.2083 H   0  0  0  0  0
   33.4640   -7.5985   41.5831 H   0  0  0  0  0
   31.3515   -8.0742   40.2107 H   0  0  0  0  0
   30.4843   -7.1785   41.5298 H   0  0  0  0  0
   30.1167  -10.1248   43.3408 H   0  0  0  0  0
   29.4240   -8.6245   42.7158 H   0  0  0  0  0
   31.7065   -4.5530   41.2959 H   0  0  0  0  0
   33.3061   -3.9124   38.8701 H   0  0  0  0  0
   31.3089   -3.0755   37.6912 H   0  0  0  0  0
   30.2774   -3.7902   38.9996 H   0  0  0  0  0
   30.1040   -6.9084   37.4849 H   0  0  0  0  0
   29.4343   -5.7061   38.5927 H   0  0  0  0  0
   32.9806   -0.7193   42.3489 H   0  0  0  0  0
   35.3271   -1.1400   42.8771 H   0  0  0  0  0
   35.5809    0.2079   41.8502 H   0  0  0  0  0
   36.7672   -2.0188   41.0805 H   0  0  0  0  0
   35.9207   -1.2065   39.8683 H   0  0  0  0  0
   34.8586   -3.4553   39.9061 H   0  0  0  0  0
   34.8604   -3.5321   41.5939 H   0  0  0  0  0
   34.1962   -0.1721   39.0421 H   0  0  0  0  0
   33.6559    2.6124   39.2578 H   0  0  0  0  0
   35.1351    1.5887   37.5356 H   0  0  0  0  0
   33.8738    2.6777   36.8028 H   0  0  0  0  0
   33.5422   -0.4937   37.8392 H   0  0  0  0  0
   31.3758    0.4607   39.6653 H   0  0  0  0  0
   29.3214    1.8601   38.0389 H   0  0  0  0  0
   27.8339    0.1032   39.2539 H   0  0  0  0  0
   29.4358   -0.6826   39.6273 H   0  0  0  0  0
   30.9477   -0.4822   36.9730 H   0  0  0  0  0
   26.0098   -1.0827   38.2131 H   0  0  0  0  0
   27.7567   -2.7719   33.8180 H   0  0  0  0  0
   24.5109   -2.2278   36.5958 H   0  0  0  0  0
   25.3811   -3.0587   34.4283 H   0  0  0  0  0
   30.8946    2.6279   40.6948 H   0  0  0  0  0
   28.4694    3.6189   42.1901 H   0  0  0  0  0
   30.1586    3.8229   44.0921 H   0  0  0  0  0
   31.1938    2.7166   43.0936 H   0  0  0  0  0
   27.8893    2.5798   43.2577 H   0  0  0  0  0
   28.1601    5.7627   41.8823 H   0  0  0  0  0
   30.4510    7.5487   41.9786 H   0  0  0  0  0
   30.0101    9.4934   42.2845 H   0  0  0  0  0
   30.6595    7.1023   39.6604 H   0  0  0  0  0
   29.6237    8.6040   39.7000 H   0  0  0  0  0
   27.1423    8.3444   39.4196 H   0  0  0  0  0
   29.9038    5.1596   38.6291 H   0  0  0  0  0
   25.3898    7.1387   38.1604 H   0  0  0  0  0
   28.1561    3.9447   37.3728 H   0  0  0  0  0
   25.8936    4.9292   37.1353 H   0  0  0  0  0
  1  2  1  0  0  0
  2  3  1  0  0  0
  2  5  1  0  0  0
  3  4  2  0  0  0
  3  6  1  0  0  0
  6  7  1  0  0  0
  7  8  1  0  0  0
  7 10  1  0  0  0
  8  9  2  0  0  0
  8 14  1  0  0  0
 10 11  1  0  0  0
 11 12  2  0  0  0
 11 13  1  0  0  0
 14 15  1  0  0  0
 15 16  1  0  0  0
 15 18  1  0  0  0
 16 17  2  0  0  0
 16 20  1  0  0  0
 18 19  1  0  0  0
 20 21  1  0  0  0
 21 22  1  0  0  0
 21 24  1  0  0  0
 22 23  2  0  0  0
 22 28  1  0  0  0
 24 25  1  0  0  0
 25 26  2  0  0  0
 25 27  1  0  0  0
 28 29  1  0  0  0
 29 30  1  0  0  0
 29 32  1  0  0  0
 30 31  2  0  0  0
 30 36  1  0  0  0
 32 33  1  0  0  0
 33 34  2  0  0  0
 33 35  1  0  0  0
 36 37  1  0  0  0
 36 42  1  0  0  0
 37 38  1  0  0  0
 37 40  1  0  0  0
 38 39  2  0  0  0
 38 43  1  0  0  0
 40 41  1  0  0  0
 41 42  1  0  0  0
 43 44  1  0  0  0
 44 45  1  0  0  0
 44 47  1  0  0  0
 45 46  2  0  0  0
 45 51  1  0  0  0
 47 48  1  0  0  0
 48 49  1  0  0  0
 48 50  2  0  0  0
 51 52  1  0  0  0
 52 53  1  0  0  0
 52 55  1  0  0  0
 53 54  2  0  0  0
 53 65  1  0  0  0
 55 56  1  0  0  0
 56 57  4  0  0  0
 56 58  4  0  0  0
 57 59  4  0  0  0
 58 60  4  0  0  0
 58 61  4  0  0  0
 59 60  4  0  0  0
 60 62  4  0  0  0
 61 63  4  0  0  0
 62 64  4  0  0  0
 63 64  4  0  0  0
 65 66  1  0  0  0
 66 67  1  0  0  0
 66 69  1  0  0  0
 67 68  2  0  0  0
 67 73  1  0  0  0
 69 70  1  0  0  0
 70 71  2  0  0  0
 70 72  1  0  0  0
 73 74  1  0  0  0
 74 75  1  0  0  0
 74 77  1  0  0  0
 75 76  1  0  0  0
 75 84  2  0  0  0
 77 78  1  0  0  0
 78 79  4  0  0  0
 78 80  4  0  0  0
 79 81  4  0  0  0
 80 82  4  0  0  0
 81 83  4  0  0  0
 82 83  4  0  0  0
  1 85  1  0  0  0
  1 86  1  0  0  0
  1 87  1  0  0  0
  2 88  1  0  0  0
  5 89  1  0  0  0
  5 90  1  0  0  0
  5 91  1  0  0  0
  6 92  1  0  0  0
  7 93  1  0  0  0
 10 94  1  0  0  0
 10 95  1  0  0  0
 13 96  1  0  0  0
 13 97  1  0  0  0
 14 98  1  0  0  0
 15 99  1  0  0  0
 18100  1  0  0  0
 18101  1  0  0  0
 19102  1  0  0  0
 20103  1  0  0  0
 21104  1  0  0  0
 24105  1  0  0  0
 24106  1  0  0  0
 27107  1  0  0  0
 27108  1  0  0  0
 28109  1  0  0  0
 29110  1  0  0  0
 32111  1  0  0  0
 32112  1  0  0  0
 35113  1  0  0  0
 35114  1  0  0  0
 37115  1  0  0  0
 40116  1  0  0  0
 40117  1  0  0  0
 41118  1  0  0  0
 41119  1  0  0  0
 42120  1  0  0  0
 42121  1  0  0  0
 43122  1  0  0  0
 44123  1  0  0  0
 47124  1  0  0  0
 47125  1  0  0  0
 49126  1  0  0  0
 51127  1  0  0  0
 52128  1  0  0  0
 55129  1  0  0  0
 55130  1  0  0  0
 57131  1  0  0  0
 61132  1  0  0  0
 62133  1  0  0  0
 63134  1  0  0  0
 64135  1  0  0  0
 65136  1  0  0  0
 66137  1  0  0  0
 69138  1  0  0  0
 69139  1  0  0  0
 72140  1  0  0  0
 73141  1  0  0  0
 74142  1  0  0  0
 76143  1  0  0  0
 77144  1  0  0  0
 77145  1  0  0  0
 79146  1  0  0  0
 80147  1  0  0  0
 81148  1  0  0  0
 82149  1  0  0  0
 83150  1  0  0  0
M  END
$$$$
