### 
### Created by X-TOOL on Mon Sep 10 21:12:57 2018
### 

@<TRIPOS>MOLECULE
2eh8_ligand
  148   151     1     0     0
SMALL
GAST_HUCK


@<TRIPOS>ATOM
      1 N          29.8400   -1.4950   49.3930 N.4       1 ALA         0.2377
      2 CA         29.5570   -1.1390   47.9740 C.3       1 ALA         0.0621
      3 C          30.0620   -2.2320   47.0300 C.2       1 ALA         0.2265
      4 O          30.9930   -2.9710   47.3610 O.2       1 ALA        -0.3907
      5 CB         30.2150    0.1940   47.6390 C.3       1 ALA        -0.0040
      6 N          29.4430   -2.3340   45.8550 N.am      1 ASN        -0.2589
      7 CA         29.8330   -3.3460   44.8790 C.3       1 ASN         0.1477
      8 C          31.3360   -3.4110   44.6270 C.2       1 ASN         0.2063
      9 O          31.9670   -2.4120   44.2750 O.2       1 ASN        -0.3942
     10 CB         29.0960   -3.1240   43.5550 C.3       1 ASN         0.0773
     11 CG         29.6870   -3.9340   42.4150 C.2       1 ASN         0.1780
     12 OD1        30.1840   -5.0430   42.6130 O.2       1 ASN        -0.3970
     13 ND2        29.6090   -3.3900   41.2090 N.am      1 ASN        -0.3007
     14 N          31.8930   -4.6060   44.8140 N.am      1 SER        -0.2614
     15 CA         33.3170   -4.8560   44.6130 C.3       1 SER         0.1539
     16 C          33.5540   -5.6280   43.3180 C.2       1 SER         0.2063
     17 O          34.6890   -5.7270   42.8470 O.2       1 SER        -0.3943
     18 CB         33.8900   -5.6540   45.7880 C.3       1 SER         0.0843
     19 OG         33.3010   -6.9420   45.8600 O.3       1 SER        -0.3903
     20 N          32.4880   -6.1940   42.7570 N.am      1 ASN        -0.2615
     21 CA         32.6040   -6.9330   41.5080 C.3       1 ASN         0.1476
     22 C          32.8150   -5.9660   40.3430 C.2       1 ASN         0.2064
     23 O          33.4840   -6.2970   39.3660 O.2       1 ASN        -0.3942
     24 CB         31.3530   -7.7790   41.2600 C.3       1 ASN         0.0773
     25 CG         31.3240   -9.0440   42.1000 C.2       1 ASN         0.1780
     26 OD1        32.2920   -9.8060   42.1320 O.2       1 ASN        -0.3970
     27 ND2        30.2010   -9.2830   42.7710 N.am      1 ASN        -0.3007
     28 N          32.2470   -4.7680   40.4580 N.am      1 ASN        -0.2615
     29 CA         32.3770   -3.7550   39.4180 C.3       1 ASN         0.1478
     30 C          32.4170   -2.3620   40.0550 C.2       1 ASN         0.2088
     31 O          31.5300   -1.5400   39.8480 O.2       1 ASN        -0.3940
     32 CB         31.2040   -3.8690   38.4310 C.3       1 ASN         0.0773
     33 CG         31.1900   -5.1980   37.6940 C.2       1 ASN         0.1780
     34 OD1        32.0980   -5.5050   36.9170 O.2       1 ASN        -0.3970
     35 ND2        30.1640   -5.9990   37.9430 N.am      1 ASN        -0.3007
     36 N          33.4800   -2.0740   40.8160 N.am      1 PRO        -0.2497
     37 CA         33.6570   -0.7880   41.4970 C.3       1 PRO         0.1338
     38 C          33.2410    0.4730   40.7250 C.2       1 PRO         0.2042
     39 O          32.5480    1.3350   41.2760 O.2       1 PRO        -0.3944
     40 CB         35.1470   -0.7920   41.8600 C.3       1 PRO        -0.0104
     41 CG         35.7580   -1.6910   40.8310 C.3       1 PRO        -0.0281
     42 CD         34.7520   -2.8140   40.7810 C.3       1 PRO         0.0369
     43 N          33.6490    0.5810   39.4590 N.am      1 ASP        -0.2622
     44 CA         33.3230    1.7660   38.6570 C.3       1 ASP         0.1423
     45 C          31.8290    2.0040   38.4260 C.2       1 ASP         0.2057
     46 O          31.4460    2.9110   37.6890 O.2       1 ASP        -0.3943
     47 CB         34.0780    1.7380   37.3160 C.3       1 ASP         0.0406
     48 CG         33.6360    0.6130   36.4050 C.2       1 ASP         0.0393
     49 OD1        33.4080   -0.5200   36.8890 O.co2     1 ASP        -0.5688
     50 OD2        33.5380    0.8650   35.1880 O.co2     1 ASP        -0.5688
     51 N          30.9930    1.2000   39.0760 N.am      1 TRP        -0.2626
     52 CA         29.5450    1.3430   38.9720 C.3       1 TRP         0.1352
     53 C          28.9980    2.1720   40.1350 C.2       1 TRP         0.2052
     54 O          27.7850    2.2620   40.3270 O.2       1 TRP        -0.3942
     55 CB         28.8730   -0.0350   38.9550 C.3       1 TRP         0.0042
     56 CG         28.8710   -0.6830   37.6000 C.2       1 TRP        -0.0418
     57 CD1        29.9360   -0.8280   36.7610 C.2       1 TRP         0.0167
     58 CD2        27.7500   -1.2760   36.9310 C.ar      1 TRP        -0.0214
     59 NE1        29.5510   -1.4730   35.6090 N.pl3     1 TRP        -0.2890
     60 CE2        28.2140   -1.7620   35.6870 C.ar      1 TRP         0.0603
     61 CE3        26.3990   -1.4460   37.2620 C.ar      1 TRP        -0.0747
     62 CZ2        27.3770   -2.4060   34.7720 C.ar      1 TRP        -0.0443
     63 CZ3        25.5640   -2.0880   36.3520 C.ar      1 TRP        -0.0792
     64 CH2        26.0600   -2.5600   35.1200 C.ar      1 TRP        -0.0768
     65 N          29.9070    2.7650   40.9100 N.am      1 ASP        -0.2621
     66 CA         29.5510    3.6040   42.0560 C.3       1 ASP         0.1423
     67 C          30.0570    5.0210   41.7910 C.2       1 ASP         0.2052
     68 O          31.2640    5.2310   41.6500 O.2       1 ASP        -0.3943
     69 CB         30.1810    3.0400   43.3340 C.3       1 ASP         0.0406
     70 CG         29.4230    1.8370   43.8810 C.2       1 ASP         0.0393
     71 OD1        30.0660    0.9370   44.4690 O.co2     1 ASP        -0.5688
     72 OD2        28.1790    1.7970   43.7320 O.co2     1 ASP        -0.5688
     73 N          29.1420    5.9910   41.7270 N.am      1 PHE        -0.2676
     74 CA         29.5200    7.3780   41.4380 C.3       1 PHE         0.1039
     75 C          28.5600    8.4490   41.9650 C.2       1 PHE         0.0621
     76 O          29.0550    9.5260   42.3760 O.co2     1 PHE        -0.5664
     77 CB         29.6970    7.5400   39.9250 C.3       1 PHE         0.0159
     78 CG         28.6410    6.8330   39.1130 C.ar      1 PHE        -0.0392
     79 CD1        27.3680    7.3770   38.9710 C.ar      1 PHE        -0.0602
     80 CD2        28.9100    5.5960   38.5290 C.ar      1 PHE        -0.0602
     81 CE1        26.3830    6.7020   38.2650 C.ar      1 PHE        -0.0686
     82 CE2        27.9310    4.9120   37.8220 C.ar      1 PHE        -0.0686
     83 CZ         26.6660    5.4630   37.6890 C.ar      1 PHE        -0.0687
     84 OXT        27.3330    8.1890   41.9560 O.co2     1 PHE        -0.5664
     85 H1         29.5000   -0.7633   49.9972 H         1 ALA         0.2015
     86 H2         30.8342   -1.6015   49.5209 H         1 ALA         0.2015
     87 H3         29.3772   -2.3610   49.6209 H         1 ALA         0.2015
     88 H4         28.4691   -1.0396   47.8453 H         1 ALA         0.1095
     89 H5         30.0042    0.4538   46.5911 H         1 ALA         0.0310
     90 H6         31.3022    0.1132   47.7851 H         1 ALA         0.0310
     91 H7         29.8135    0.9772   48.2988 H         1 ALA         0.0310
     92 H8         28.6967   -1.7049   45.6376 H         1 ASN         0.1886
     93 H9         29.5248   -4.3224   45.2809 H         1 ASN         0.0826
     94 H10        29.1524   -2.0567   43.2950 H         1 ASN         0.0551
     95 H11        28.0431   -3.4147   43.6848 H         1 ASN         0.0551
     96 H12        29.9803   -3.8745   40.4170 H         1 ASN         0.1814
     97 H13        29.1788   -2.4950   41.0911 H         1 ASN         0.1814
     98 H14        31.3105   -5.3650   45.1047 H         1 SER         0.1884
     99 H15        33.8379   -3.8892   44.5507 H         1 SER         0.0823
    100 H16        33.6876   -5.1126   46.7239 H         1 SER         0.0606
    101 H17        34.9765   -5.7618   45.6544 H         1 SER         0.0606
    102 H18        32.3626   -6.8537   45.9788 H         1 SER         0.2097
    103 H19        31.5951   -6.1105   43.1995 H         1 ASN         0.1885
    104 H20        33.4742   -7.6024   41.5754 H         1 ASN         0.0826
    105 H21        31.3245   -8.0617   40.1973 H         1 ASN         0.0551
    106 H22        30.4662   -7.1752   41.5028 H         1 ASN         0.0551
    107 H23        30.1236  -10.1010   43.3410 H         1 ASN         0.1814
    108 H24        29.4339   -8.6448   42.7055 H         1 ASN         0.1814
    109 H25        31.7171   -4.5572   41.2795 H         1 ASN         0.1885
    110 H26        33.3170   -3.9218   38.8715 H         1 ASN         0.0826
    111 H27        31.2839   -3.0573   37.6929 H         1 ASN         0.0551
    112 H28        30.2619   -3.7655   38.9893 H         1 ASN         0.0551
    113 H29        30.1008   -6.8869   37.4873 H         1 ASN         0.1814
    114 H30        29.4530   -5.7155   38.5866 H         1 ASN         0.1814
    115 H31        33.0591   -0.8005   42.4202 H         1 PRO         0.0802
    116 H32        35.3033   -1.1914   42.8729 H         1 PRO         0.0313
    117 H33        35.5694    0.2217   41.7963 H         1 PRO         0.0313
    118 H34        36.7476   -2.0514   41.1484 H         1 PRO         0.0287
    119 H35        35.8463   -1.1865   39.8575 H         1 PRO         0.0287
    120 H36        34.8502   -3.3998   39.8552 H         1 PRO         0.0524
    121 H37        34.8521   -3.4814   41.6496 H         1 PRO         0.0524
    122 H38        34.1855   -0.1574   39.0503 H         1 ASP         0.1884
    123 H39        33.6923    2.6344   39.2222 H         1 ASP         0.0819
    124 H40        35.1520    1.6192   37.5221 H         1 ASP         0.0478
    125 H41        33.9074    2.6938   36.7989 H         1 ASP         0.0478
    126 H42        31.3683    0.4752   39.6538 H         1 TRP         0.1884
    127 H43        29.3115    1.8612   38.0303 H         1 TRP         0.0815
    128 H44        27.8308    0.0816   39.2868 H         1 TRP         0.0397
    129 H45        29.4093   -0.6927   39.6548 H         1 TRP         0.0397
    130 H46        30.9468   -0.4825   36.9728 H         1 TRP         0.0795
    131 H47        30.1676   -1.7017   34.8163 H         1 TRP         0.2216
    132 H48        26.0119   -1.0847   38.2079 H         1 TRP         0.0540
    133 H49        27.7546   -2.7699   33.8233 H         1 TRP         0.0541
    134 H50        24.5166   -2.2270   36.5944 H         1 TRP         0.0510
    135 H51        25.3848   -3.0560   34.4321 H         1 TRP         0.0530
    136 H52        30.8752    2.6306   40.6990 H         1 ASP         0.1884
    137 H53        28.4573    3.6223   42.1721 H         1 ASP         0.0819
    138 H54        30.1891    3.8291   44.1003 H         1 ASP         0.0478
    139 H55        31.2139    2.7339   43.1119 H         1 ASP         0.0478
    140 H56        28.1793    5.7672   41.8792 H         1 PHE         0.1877
    141 H57        30.4930    7.5550   41.9197 H         1 PHE         0.0749
    142 H58        30.6803    7.1343   39.6448 H         1 PHE         0.0467
    143 H59        29.6606    8.6126   39.6837 H         1 PHE         0.0467
    144 H60        27.1436    8.3391   39.4171 H         1 PHE         0.0557
    145 H61        29.8983    5.1620   38.6286 H         1 PHE         0.0557
    146 H62        25.3952    7.1363   38.1610 H         1 PHE         0.0599
    147 H63        28.1548    3.9500   37.3753 H         1 PHE         0.0599
    148 H64        25.8978    4.9322   37.1384 H         1 PHE         0.0559
@<TRIPOS>BOND
     1    1    2 1  
     2    2    3 1  
     3    2    5 1  
     4    3    4 2  
     5    3    6 am 
     6    6    7 1  
     7    7    8 1  
     8    7   10 1  
     9    8    9 2  
    10    8   14 am 
    11   10   11 1  
    12   11   12 2  
    13   11   13 am 
    14   14   15 1  
    15   15   16 1  
    16   15   18 1  
    17   16   17 2  
    18   16   20 am 
    19   18   19 1  
    20   20   21 1  
    21   21   22 1  
    22   21   24 1  
    23   22   23 2  
    24   22   28 am 
    25   24   25 1  
    26   25   26 2  
    27   25   27 am 
    28   28   29 1  
    29   29   30 1  
    30   29   32 1  
    31   30   31 2  
    32   30   36 am 
    33   32   33 1  
    34   33   34 2  
    35   33   35 am 
    36   36   37 1  
    37   36   42 1  
    38   37   38 1  
    39   37   40 1  
    40   38   39 2  
    41   38   43 am 
    42   40   41 1  
    43   41   42 1  
    44   43   44 1  
    45   44   45 1  
    46   44   47 1  
    47   45   46 2  
    48   45   51 am 
    49   47   48 1  
    50   48   49 ar 
    51   48   50 ar 
    52   51   52 1  
    53   52   53 1  
    54   52   55 1  
    55   53   54 2  
    56   53   65 am 
    57   55   56 1  
    58   56   57 2  
    59   56   58 1  
    60   57   59 1  
    61   58   60 ar 
    62   58   61 ar 
    63   59   60 1  
    64   60   62 ar 
    65   61   63 ar 
    66   62   64 ar 
    67   63   64 ar 
    68   65   66 1  
    69   66   67 1  
    70   66   69 1  
    71   67   68 2  
    72   67   73 am 
    73   69   70 1  
    74   70   71 ar 
    75   70   72 ar 
    76   73   74 1  
    77   74   75 1  
    78   74   77 1  
    79   75   76 ar 
    80   75   84 ar 
    81   77   78 1  
    82   78   79 ar 
    83   78   80 ar 
    84   79   81 ar 
    85   80   82 ar 
    86   81   83 ar 
    87   82   83 ar 
    88    1   85 1  
    89    1   86 1  
    90    1   87 1  
    91    2   88 1  
    92    5   89 1  
    93    5   90 1  
    94    5   91 1  
    95    6   92 1  
    96    7   93 1  
    97   10   94 1  
    98   10   95 1  
    99   13   96 1  
   100   13   97 1  
   101   14   98 1  
   102   15   99 1  
   103   18  100 1  
   104   18  101 1  
   105   19  102 1  
   106   20  103 1  
   107   21  104 1  
   108   24  105 1  
   109   24  106 1  
   110   27  107 1  
   111   27  108 1  
   112   28  109 1  
   113   29  110 1  
   114   32  111 1  
   115   32  112 1  
   116   35  113 1  
   117   35  114 1  
   118   37  115 1  
   119   40  116 1  
   120   40  117 1  
   121   41  118 1  
   122   41  119 1  
   123   42  120 1  
   124   42  121 1  
   125   43  122 1  
   126   44  123 1  
   127   47  124 1  
   128   47  125 1  
   129   51  126 1  
   130   52  127 1  
   131   55  128 1  
   132   55  129 1  
   133   57  130 1  
   134   59  131 1  
   135   61  132 1  
   136   62  133 1  
   137   63  134 1  
   138   64  135 1  
   139   65  136 1  
   140   66  137 1  
   141   69  138 1  
   142   69  139 1  
   143   73  140 1  
   144   74  141 1  
   145   77  142 1  
   146   77  143 1  
   147   79  144 1  
   148   80  145 1  
   149   81  146 1  
   150   82  147 1  
   151   83  148 1  
@<TRIPOS>SUBSTRUCTURE
     1 ALA         1

