6hs4_ligand
  -I-interpret- 

 56 59  0  0  0  0  0  0  0  0999 V2000
  -45.9020   10.6660   -1.2780 C   0  0  0  0  0
  -45.8570   12.6110   -2.6940 C   0  0  0  0  0
  -47.8530   11.4310   -3.6900 C   0  0  0  0  0
  -47.8880   10.4100   -4.6300 C   0  0  0  0  0
  -48.9330    9.4990   -4.6430 C   0  0  0  0  0
  -49.9230   10.6250   -2.7740 C   0  0  0  0  0
  -45.4690   12.8150   -0.3100 C   0  0  0  0  0
  -45.3550   12.2280    0.9460 C   0  0  0  0  0
  -46.0090   13.0760    8.3830 C   0  0  0  0  0
  -46.4710   11.6210    8.2380 C   0  0  0  0  0
  -45.3260   10.7650    7.9940 C   0  0  0  0  0
  -44.9300   10.6220    6.5240 C   0  0  0  0  0
  -45.8190    9.8970    4.6230 C   0  0  0  0  0
  -45.9470   10.8760    3.4510 C   0  0  0  0  0
  -45.5200   10.8590    1.0890 C   0  0  0  0  0
  -45.7920   10.0850   -0.0280 C   0  0  0  0  0
  -45.7510   12.0350   -1.4310 C   0  0  0  0  0
  -46.4740   13.1680   -4.7650 C   0  0  0  0  0
  -46.7930   12.3400   -3.6970 C   0  0  0  0  0
  -49.9540    9.6050   -3.7140 C   0  0  0  0  0
  -48.8750   11.5370   -2.7620 C   0  0  0  0  0
  -47.0670   11.3740    5.8070 C   0  0  0  0  0
  -47.5340   11.5420    7.2550 C   0  0  0  0  0
  -44.6890   13.3610    8.9190 N   0  0  0  0  0
  -46.0840   10.3340    5.7280 N   0  3  0  0  0
  -45.0410   13.5430   -3.1670 N   0  0  0  0  0
  -45.4200   13.8870   -4.4290 N   0  0  0  0  0
  -46.7300   13.9660    8.0750 O   0  0  0  0  0
  -45.4050   10.2270    2.3370 O   0  0  0  0  0
  -45.3010   14.2030   -0.4290 O   0  0  0  0  0
  -46.1088   10.0433   -2.1484 H   0  0  0  0  0
  -47.0870   10.3238   -5.3642 H   0  0  0  0  0
  -48.9507    8.6999   -5.3841 H   0  0  0  0  0
  -50.7251   10.7113   -2.0410 H   0  0  0  0  0
  -45.1359   12.8445    1.8178 H   0  0  0  0  0
  -46.9109   11.2469    9.1625 H   0  0  0  0  0
  -45.5959    9.7694    8.3462 H   0  0  0  0  0
  -44.4779   11.2192    8.5063 H   0  0  0  0  0
  -44.2147    9.8055    6.4246 H   0  0  0  0  0
  -44.4841   11.5559    6.1818 H   0  0  0  0  0
  -44.7696    9.6042    4.6582 H   0  0  0  0  0
  -46.5401    9.1022    4.4321 H   0  0  0  0  0
  -45.4190   11.8068    3.6580 H   0  0  0  0  0
  -46.9885   11.1473    3.2786 H   0  0  0  0  0
  -45.9204    9.0080    0.0798 H   0  0  0  0  0
  -47.0031   13.2158   -5.7168 H   0  0  0  0  0
  -50.7776    8.8911   -3.7210 H   0  0  0  0  0
  -48.8574   12.3366   -2.0214 H   0  0  0  0  0
  -46.6285   12.3097    5.4602 H   0  0  0  0  0
  -47.9205   11.1096    5.1828 H   0  0  0  0  0
  -48.0766   12.4862    7.3025 H   0  0  0  0  0
  -48.1230   10.6581    7.4996 H   0  0  0  0  0
  -44.3816   14.3271    9.0307 H   0  0  0  0  0
  -44.0697   12.5949    9.1836 H   0  0  0  0  0
  -46.5601    9.5343    6.1453 H   0  0  0  0  0
  -45.4076   14.4595   -1.3479 H   0  0  0  0  0
 16  1  4  0  0  0
  1 17  4  0  0  0
 17  2  1  0  0  0
  2 19  4  0  0  0
  2 26  4  0  0  0
  3  4  4  0  0  0
 19  3  1  0  0  0
  3 21  4  0  0  0
  4  5  4  0  0  0
  5 20  4  0  0  0
  6 20  4  0  0  0
 21  6  4  0  0  0
  8  7  4  0  0  0
  7 17  4  0  0  0
  7 30  1  0  0  0
 15  8  4  0  0  0
 10  9  1  0  0  0
  9 24  1  0  0  0
  9 28  2  0  0  0
 11 10  1  0  0  0
 10 23  1  0  0  0
 12 11  1  0  0  0
 25 12  1  0  0  0
 14 13  1  0  0  0
 13 25  1  0  0  0
 29 14  1  0  0  0
 15 16  4  0  0  0
 15 29  1  0  0  0
 19 18  4  0  0  0
 18 27  4  0  0  0
 23 22  1  0  0  0
 22 25  1  0  0  0
 26 27  4  0  0  0
  1 31  1  0  0  0
  4 32  1  0  0  0
  5 33  1  0  0  0
  6 34  1  0  0  0
  8 35  1  0  0  0
 10 36  1  0  0  0
 11 37  1  0  0  0
 11 38  1  0  0  0
 12 39  1  0  0  0
 12 40  1  0  0  0
 13 41  1  0  0  0
 13 42  1  0  0  0
 14 43  1  0  0  0
 14 44  1  0  0  0
 16 45  1  0  0  0
 18 46  1  0  0  0
 20 47  1  0  0  0
 21 48  1  0  0  0
 22 49  1  0  0  0
 22 50  1  0  0  0
 23 51  1  0  0  0
 23 52  1  0  0  0
 24 53  1  0  0  0
 24 54  1  0  0  0
 25 55  1  0  0  0
 30 56  1  0  0  0
M  END
$$$$
