5eek_ligand
  -I-interpret- 

 44 44  0  0  0  0  0  0  0  0999 V2000
   -9.0830   25.2290   -3.8200 O   0  0  0  0  0
   -7.0580   25.4010   -5.7880 O   0  0  0  0  0
    0.0180   26.4510   -4.8850 O   0  0  0  0  0
   -8.1250   26.2210   -3.9840 N   0  0  0  0  0
    1.5440   30.0120   -9.9050 N   0  0  0  0  0
    0.1460   28.2360   -6.4360 C   0  0  0  0  0
    1.0520   27.5640   -7.2450 C   0  0  0  0  0
    1.5100   28.1570   -8.4120 C   0  0  0  0  0
    1.0780   29.4310   -8.7660 C   0  0  0  0  0
    0.1770   30.1090   -7.9490 C   0  0  0  0  0
   -0.2900   29.5150   -6.7820 C   0  0  0  0  0
   -0.3490   27.5840   -5.1810 C   0  0  0  0  0
   -1.3440   28.3140   -4.3250 C   0  0  0  0  0
   -2.6460   27.5830   -4.5530 C   0  0  0  0  0
   -3.8820   28.1030   -4.5030 C   0  0  0  0  0
   -4.9990   27.1600   -4.7140 C   0  0  0  0  0
   -6.2980   27.4540   -4.8130 C   0  0  0  0  0
   -7.1900   26.2700   -4.9370 C   0  0  0  0  0
   -0.9480   28.2200   -2.8510 C   0  0  0  0  0
   -4.1380   29.5490   -4.1480 C   0  0  0  0  0
    1.1160   31.3510  -10.2720 C   0  0  0  0  0
    2.4890   29.2990  -10.7550 C   0  0  0  0  0
   -9.6299   25.4366   -3.0588 H   0  0  0  0  0
   -8.1364   26.9873   -3.3109 H   0  0  0  0  0
    1.4031   26.5713   -6.9633 H   0  0  0  0  0
    2.2107   27.6231   -9.0539 H   0  0  0  0  0
   -0.1628   31.1073   -8.2249 H   0  0  0  0  0
   -0.9933   30.0461   -6.1406 H   0  0  0  0  0
   -1.4051   29.3733   -4.5746 H   0  0  0  0  0
   -2.5739   26.5199   -4.7826 H   0  0  0  0  0
   -4.7334   26.1062   -4.7984 H   0  0  0  0  0
   -6.6736   28.4772   -4.8037 H   0  0  0  0  0
   -0.9198   27.1728   -2.5497 H   0  0  0  0  0
    0.0367   28.6662   -2.7115 H   0  0  0  0  0
   -1.6796   28.7542   -2.2448 H   0  0  0  0  0
   -3.7523   29.7502   -3.1486 H   0  0  0  0  0
   -3.6354   30.1933   -4.8694 H   0  0  0  0  0
   -5.2103   29.7430   -4.1708 H   0  0  0  0  0
    0.0332   31.3637  -10.3961 H   0  0  0  0  0
    1.4012   32.0504   -9.4861 H   0  0  0  0  0
    1.5937   31.6399  -11.2082 H   0  0  0  0  0
    3.3910   29.0755  -10.1854 H   0  0  0  0  0
    2.0359   28.3696  -11.0999 H   0  0  0  0  0
    2.7444   29.9206  -11.6132 H   0  0  0  0  0
  4  1  1  0  0  0
 18  2  2  0  0  0
 12  3  2  0  0  0
 18  4  1  0  0  0
  9  5  1  0  0  0
  5 21  1  0  0  0
  5 22  1  0  0  0
  6  7  4  0  0  0
  6 11  4  0  0  0
 12  6  1  0  0  0
  7  8  4  0  0  0
  8  9  4  0  0  0
 10  9  4  0  0  0
 11 10  4  0  0  0
 13 12  1  0  0  0
 14 13  1  0  0  0
 13 19  1  0  0  0
 15 14  2  0  0  0
 16 15  1  0  0  0
 15 20  1  0  0  0
 17 16  2  0  0  0
 17 18  1  0  0  0
  1 23  1  0  0  0
  4 24  1  0  0  0
  7 25  1  0  0  0
  8 26  1  0  0  0
 10 27  1  0  0  0
 11 28  1  0  0  0
 13 29  1  0  0  0
 14 30  1  0  0  0
 16 31  1  0  0  0
 17 32  1  0  0  0
 19 33  1  0  0  0
 19 34  1  0  0  0
 19 35  1  0  0  0
 20 36  1  0  0  0
 20 37  1  0  0  0
 20 38  1  0  0  0
 21 39  1  0  0  0
 21 40  1  0  0  0
 21 41  1  0  0  0
 22 42  1  0  0  0
 22 43  1  0  0  0
 22 44  1  0  0  0
M  END
$$$$
