6dj5_ligand
  -I-interpret- 

 82 86  0  0  0  0  0  0  0  0999 V2000
   20.9830   27.6060   15.0380 C   0  0  0  0  0
   19.6300   27.5470   14.6920 C   0  0  0  0  0
   18.8650   26.4170   14.9590 C   0  0  0  0  0
   19.4480   25.3420   15.6340 C   0  0  0  0  0
   20.7940   25.4020   15.9710 C   0  0  0  0  0
   21.5710   26.5210   15.6830 C   0  0  0  0  0
   18.5090   23.9090   16.0160 S   0  0  0  0  0
   17.4440   23.7580   14.9800 O   0  0  0  0  0
   19.4150   22.7230   16.0720 O   0  0  0  0  0
   17.8140   24.0520   17.4890 N   0  0  0  0  0
   18.7620   24.4740   18.5150 C   0  0  0  0  0
   18.5230   23.7040   19.8200 C   0  0  0  0  0
   18.2710   22.2150   19.5780 C   0  0  0  0  0
   19.6770   23.8930   20.8100 C   0  0  0  0  0
   16.6000   24.8640   17.4650 C   0  0  0  0  0
   15.4170   24.0340   17.9430 C   0  0  0  0  0
   14.2560   24.8170   18.1890 O   0  0  0  0  0
   15.0820   22.8750   17.0010 C   0  0  0  0  0
   14.1400   21.9800   17.6980 N   0  0  0  0  0
   14.3580   20.7000   17.9960 C   0  0  0  0  0
   15.4050   20.1090   17.7310 O   0  0  0  0  0
   13.3390   20.0450   18.6220 O   0  0  0  0  0
   13.6370   18.6660   18.8500 C   0  0  0  0  0
   13.2050   18.3390   20.2830 C   0  0  0  0  0
   11.7720   18.3190   20.2330 O   0  0  0  0  0
   11.3740   17.9240   18.9240 C   0  0  0  0  0
   10.5200   18.9000   18.3520 O   0  0  0  0  0
   11.0120   19.3520   17.0990 C   0  0  0  0  0
   12.2130   18.4950   16.7360 C   0  0  0  0  0
   12.6160   17.8350   18.0580 C   0  0  0  0  0
   14.3640   23.3830   15.7390 C   0  0  0  0  0
   12.7270   21.7120   14.7900 C   0  0  0  0  0
   12.4080   20.6320   13.9800 C   0  0  0  0  0
   13.3970   20.0130   13.2200 C   0  0  0  0  0
   14.7030   20.4820   13.2690 C   0  0  0  0  0
   15.0210   21.5740   14.0760 C   0  0  0  0  0
   14.0330   22.1890   14.8310 C   0  0  0  0  0
   21.7040   28.7330   14.7830 O   0  0  0  0  0
   23.0930   28.5410   15.0220 C   0  0  0  0  0
   10.0300   19.0770   16.0870 O   0  0  0  0  0
   10.1220   17.6540   15.8880 C   0  0  0  0  0
   11.6310   17.4420   15.7820 C   0  0  0  0  0
   19.1656   28.4035   14.2034 H   0  0  0  0  0
   17.8222   26.3706   14.6451 H   0  0  0  0  0
   21.2539   24.5513   16.4738 H   0  0  0  0  0
   22.6252   26.5473   15.9587 H   0  0  0  0  0
   18.6276   25.5391   18.7036 H   0  0  0  0  0
   19.7743   24.2712   18.1655 H   0  0  0  0  0
   17.6199   24.1266   20.2603 H   0  0  0  0  0
   17.3895   22.0946   18.9482 H   0  0  0  0  0
   19.1368   21.7774   19.0810 H   0  0  0  0  0
   18.1077   21.7155   20.5330 H   0  0  0  0  0
   20.6018   23.5300   20.3616 H   0  0  0  0  0
   19.7788   24.9515   21.0496 H   0  0  0  0  0
   19.4684   23.3315   21.7207 H   0  0  0  0  0
   16.4138   25.2049   16.4466 H   0  0  0  0  0
   16.7275   25.7234   18.1232 H   0  0  0  0  0
   15.7412   23.6086   18.8928 H   0  0  0  0  0
   13.5437   24.2464   18.4867 H   0  0  0  0  0
   16.0083   22.3731   16.7213 H   0  0  0  0  0
   13.2422   22.3759   17.9766 H   0  0  0  0  0
   14.6839   18.4752   18.6141 H   0  0  0  0  0
   13.5777   19.0721   20.9984 H   0  0  0  0  0
   13.6142   17.3884   20.6252 H   0  0  0  0  0
   10.8520   16.9689   18.9822 H   0  0  0  0  0
   11.2490   20.4142   17.1592 H   0  0  0  0  0
   13.0607   19.0119   16.2863 H   0  0  0  0  0
   13.0172   16.8445   17.8434 H   0  0  0  0  0
   15.0106   24.0799   15.2058 H   0  0  0  0  0
   13.4435   23.8933   16.0223 H   0  0  0  0  0
   11.9542   22.1869   15.3944 H   0  0  0  0  0
   11.3816   20.2674   13.9384 H   0  0  0  0  0
   13.1463   19.1614   12.5875 H   0  0  0  0  0
   15.4792   19.9970   12.6771 H   0  0  0  0  0
   16.0455   21.9442   14.1135 H   0  0  0  0  0
   23.2462   28.2664   16.0657 H   0  0  0  0  0
   23.4647   27.7447   14.3771 H   0  0  0  0  0
   23.6288   29.4653   14.8057 H   0  0  0  0  0
    9.5756   17.3055   15.0116 H   0  0  0  0  0
    9.6613   17.0764   16.6894 H   0  0  0  0  0
   11.9287   16.4281   16.0494 H   0  0  0  0  0
   11.9969   17.5571   14.7617 H   0  0  0  0  0
  2  1  4  0  0  0
  6  1  4  0  0  0
  1 38  1  0  0  0
  3  2  4  0  0  0
  4  3  4  0  0  0
  4  5  4  0  0  0
  7  4  1  0  0  0
  5  6  4  0  0  0
  7  8  2  0  0  0
  7  9  2  0  0  0
 10  7  1  0  0  0
 10 11  1  0  0  0
 15 10  1  0  0  0
 11 12  1  0  0  0
 12 13  1  0  0  0
 12 14  1  0  0  0
 16 15  1  0  0  0
 16 17  1  0  0  0
 18 16  1  0  0  0
 18 19  1  0  0  0
 31 18  1  0  0  0
 19 20  1  0  0  0
 20 21  2  0  0  0
 20 22  1  0  0  0
 22 23  1  0  0  0
 23 24  1  0  0  0
 23 30  1  0  0  0
 24 25  1  0  0  0
 26 25  1  0  0  0
 26 27  1  0  0  0
 30 26  1  0  0  0
 28 27  1  0  0  0
 29 28  1  0  0  0
 28 40  1  0  0  0
 30 29  1  0  0  0
 29 42  1  0  0  0
 37 31  1  0  0  0
 32 33  4  0  0  0
 32 37  4  0  0  0
 33 34  4  0  0  0
 34 35  4  0  0  0
 35 36  4  0  0  0
 36 37  4  0  0  0
 38 39  1  0  0  0
 40 41  1  0  0  0
 41 42  1  0  0  0
  2 43  1  0  0  0
  3 44  1  0  0  0
  5 45  1  0  0  0
  6 46  1  0  0  0
 11 47  1  0  0  0
 11 48  1  0  0  0
 12 49  1  0  0  0
 13 50  1  0  0  0
 13 51  1  0  0  0
 13 52  1  0  0  0
 14 53  1  0  0  0
 14 54  1  0  0  0
 14 55  1  0  0  0
 15 56  1  0  0  0
 15 57  1  0  0  0
 16 58  1  0  0  0
 17 59  1  0  0  0
 18 60  1  0  0  0
 19 61  1  0  0  0
 23 62  1  0  0  0
 24 63  1  0  0  0
 24 64  1  0  0  0
 26 65  1  0  0  0
 28 66  1  0  0  0
 29 67  1  0  0  0
 30 68  1  0  0  0
 31 69  1  0  0  0
 31 70  1  0  0  0
 32 71  1  0  0  0
 33 72  1  0  0  0
 34 73  1  0  0  0
 35 74  1  0  0  0
 36 75  1  0  0  0
 39 76  1  0  0  0
 39 77  1  0  0  0
 39 78  1  0  0  0
 41 79  1  0  0  0
 41 80  1  0  0  0
 42 81  1  0  0  0
 42 82  1  0  0  0
M  END
$$$$
