6f7c_ligand
  -I-interpret- 

 47 49  0  0  0  0  0  0  0  0999 V2000
   17.0230   63.4740   47.0070 C   0  0  0  0  0
   16.6520   67.1580   41.2260 C   0  0  0  0  0
   16.4620   62.5640   46.0720 C   0  0  0  0  0
   16.5890   62.7770   44.7240 C   0  0  0  0  0
   18.5830   65.9760   44.5750 C   0  0  0  0  0
   17.9440   65.7040   47.4610 C   0  0  0  0  0
   17.4960   65.6190   48.7610 C   0  0  0  0  0
   16.8110   64.4740   49.2180 C   0  0  0  0  0
   16.5840   63.4280   48.3610 C   0  0  0  0  0
   18.9960   67.9860   41.6370 C   0  0  0  0  0
   17.9150   67.5460   40.7450 C   0  0  0  0  0
   18.5180   66.2830   43.3320 N   0  0  0  0  0
   19.2540   67.3480   42.8850 N   0  0  0  0  0
   17.7220   64.6220   46.5420 C   0  0  0  0  0
   17.2820   63.8970   44.2310 C   0  0  0  0  0
   15.6680   66.7620   40.3190 C   0  0  0  0  0
   15.9450   66.7510   38.9520 C   0  0  0  0  0
   17.2050   67.1320   38.4720 C   0  0  0  0  0
   18.1880   67.5340   39.3760 C   0  0  0  0  0
   18.7270   66.7510   36.6040 C   0  0  0  0  0
   17.8440   64.8240   45.1020 C   0  0  0  0  0
   14.8950   64.9460   37.8030 C   0  0  0  0  0
   13.9560   66.5570   42.0750 C   0  0  0  0  0
   19.7050   68.9330   41.2650 O   0  0  0  0  0
   14.4050   66.3670   40.7350 O   0  0  0  0  0
   14.9850   66.3450   38.0600 O   0  0  0  0  0
   17.4450   67.1090   37.1070 O   0  0  0  0  0
   16.4437   67.1664   42.2959 H   0  0  0  0  0
   15.9243   61.6862   46.4305 H   0  0  0  0  0
   16.1465   62.0682   44.0241 H   0  0  0  0  0
   19.1942   66.5778   45.2476 H   0  0  0  0  0
   18.4705   66.5982   47.1273 H   0  0  0  0  0
   17.6734   66.4482   49.4459 H   0  0  0  0  0
   16.4630   64.4207   50.2496 H   0  0  0  0  0
   16.0577   62.5447   48.7228 H   0  0  0  0  0
   20.0152   67.6976   43.4670 H   0  0  0  0  0
   17.3796   64.0400   43.1548 H   0  0  0  0  0
   19.1697   67.8389   39.0135 H   0  0  0  0  0
   19.4733   67.4475   36.9862 H   0  0  0  0  0
   18.9731   65.7395   36.9270 H   0  0  0  0  0
   18.7132   66.7928   35.5149 H   0  0  0  0  0
   15.8427   64.5905   37.3985 H   0  0  0  0  0
   14.6752   64.4206   38.7324 H   0  0  0  0  0
   14.0985   64.7608   37.0823 H   0  0  0  0  0
   14.6159   66.0213   42.7574 H   0  0  0  0  0
   13.9698   67.6204   42.3141 H   0  0  0  0  0
   12.9403   66.1741   42.1742 H   0  0  0  0  0
  1  3  4  0  0  0
  1  9  4  0  0  0
 14  1  4  0  0  0
 11  2  4  0  0  0
  2 16  4  0  0  0
  3  4  4  0  0  0
  4 15  4  0  0  0
  5 12  2  0  0  0
 21  5  1  0  0  0
  6  7  4  0  0  0
 14  6  4  0  0  0
  7  8  4  0  0  0
  9  8  4  0  0  0
 10 11  1  0  0  0
 13 10  1  0  0  0
 10 24  2  0  0  0
 11 19  4  0  0  0
 12 13  1  0  0  0
 14 21  4  0  0  0
 15 21  4  0  0  0
 16 17  4  0  0  0
 16 25  1  0  0  0
 17 18  4  0  0  0
 17 26  1  0  0  0
 18 19  4  0  0  0
 18 27  1  0  0  0
 27 20  1  0  0  0
 26 22  1  0  0  0
 25 23  1  0  0  0
  2 28  1  0  0  0
  3 29  1  0  0  0
  4 30  1  0  0  0
  5 31  1  0  0  0
  6 32  1  0  0  0
  7 33  1  0  0  0
  8 34  1  0  0  0
  9 35  1  0  0  0
 13 36  1  0  0  0
 15 37  1  0  0  0
 19 38  1  0  0  0
 20 39  1  0  0  0
 20 40  1  0  0  0
 20 41  1  0  0  0
 22 42  1  0  0  0
 22 43  1  0  0  0
 22 44  1  0  0  0
 23 45  1  0  0  0
 23 46  1  0  0  0
 23 47  1  0  0  0
M  END
$$$$
