4mw6_ligand
  -I-interpret- 

 61 63  0  0  0  0  0  0  0  0999 V2000
  -36.9930  -15.0110   -7.1020 Cl  0  0  0  0  0
  -38.6980  -14.6780   -7.2380 C   0  0  0  0  0
  -39.5960  -15.7130   -7.0970 C   0  0  0  0  0
  -39.1180  -13.3800   -7.4370 C   0  0  0  0  0
  -40.4810  -13.0850   -7.4550 C   0  0  0  0  0
  -41.3910  -14.1290   -7.2290 C   0  0  0  0  0
  -42.7340  -13.8050   -7.0010 O   0  0  0  0  0
  -43.7490  -14.8090   -7.1660 C   0  0  0  0  0
  -45.1500  -14.2680   -7.1890 C   0  0  0  0  0
  -45.5690  -13.2960   -6.2920 C   0  0  0  0  0
  -46.9070  -12.9470   -6.2010 C   0  0  0  0  0
  -47.8400  -13.5550   -7.0140 C   0  0  0  0  0
  -47.4340  -14.5000   -7.9280 C   0  0  0  0  0
  -46.0970  -14.8490   -8.0210 C   0  0  0  0  0
  -40.9660  -15.4580   -7.1050 C   0  0  0  0  0
  -41.7830  -16.7360   -7.1320 C   0  0  0  0  0
  -41.3090  -17.6600   -6.1590 C   0  0  0  0  0
  -41.5950  -17.6560   -5.0100 C   0  0  0  0  0
  -40.9670  -11.6980   -7.8200 C   0  0  0  0  0
  -41.2360  -11.5240   -9.2600 N   0  3  0  0  0
  -42.5630  -10.9550   -9.5670 C   0  0  0  0  0
  -43.6410  -12.0160   -9.7790 C   0  0  0  0  0
  -44.3140  -12.0200  -11.1450 C   0  0  0  0  0
  -43.6150  -12.8390  -12.1320 N   0  0  0  0  0
  -44.2570  -13.6810  -12.9710 C   0  0  0  0  0
  -45.4680  -13.6060  -13.2040 O   0  0  0  0  0
  -43.4400  -14.6300  -13.6020 N   0  0  0  0  0
  -43.8350  -15.6880  -14.4950 C   0  0  0  0  0
  -42.8290  -16.5860  -14.9760 C   0  0  0  0  0
  -43.3040  -17.5650  -15.7760 C   0  0  0  0  0
  -45.0110  -17.4250  -15.9570 S   0  0  0  0  0
  -45.0890  -16.0380  -14.9680 C   0  0  0  0  0
  -39.2340  -16.7343   -6.9788 H   0  0  0  0  0
  -38.3857  -12.5854   -7.5801 H   0  0  0  0  0
  -43.6777  -15.4825   -6.3120 H   0  0  0  0  0
  -43.5734  -15.2895   -8.1285 H   0  0  0  0  0
  -44.8380  -12.8017   -5.6521 H   0  0  0  0  0
  -47.2230  -12.1891   -5.4841 H   0  0  0  0  0
  -48.8938  -13.2884   -6.9331 H   0  0  0  0  0
  -48.1665  -14.9751   -8.5805 H   0  0  0  0  0
  -45.7843  -15.5896   -8.7571 H   0  0  0  0  0
  -41.6940  -17.1890   -8.1194 H   0  0  0  0  0
  -42.8221  -16.4935   -6.9093 H   0  0  0  0  0
  -40.6249  -18.4370   -6.5003 H   0  0  0  0  0
  -42.2756  -16.8989   -4.6204 H   0  0  0  0  0
  -41.1777  -18.4094   -4.3419 H   0  0  0  0  0
  -40.1799  -10.9947   -7.5481 H   0  0  0  0  0
  -41.9052  -11.5315   -7.2907 H   0  0  0  0  0
  -41.2015  -12.4504   -9.6854 H   0  0  0  0  0
  -40.5396  -10.8705   -9.6181 H   0  0  0  0  0
  -42.4720  -10.3881  -10.4935 H   0  0  0  0  0
  -42.8646  -10.3445   -8.7159 H   0  0  0  0  0
  -44.4252  -11.8052   -9.0520 H   0  0  0  0  0
  -43.1444  -12.9812   -9.6796 H   0  0  0  0  0
  -44.3186  -10.9939  -11.5126 H   0  0  0  0  0
  -45.3128  -12.4378  -11.0186 H   0  0  0  0  0
  -42.5988  -12.7723  -12.1902 H   0  0  0  0  0
  -42.4418  -14.5623  -13.4037 H   0  0  0  0  0
  -41.7741  -16.4883  -14.7195 H   0  0  0  0  0
  -42.6918  -18.3368  -16.2425 H   0  0  0  0  0
  -46.0068  -15.4969  -14.7378 H   0  0  0  0  0
  1  2  1  0  0  0
  2  3  4  0  0  0
  2  4  4  0  0  0
  3 15  4  0  0  0
  4  5  4  0  0  0
  5  6  4  0  0  0
  5 19  1  0  0  0
  6  7  1  0  0  0
  6 15  4  0  0  0
  7  8  1  0  0  0
  8  9  1  0  0  0
  9 10  4  0  0  0
  9 14  4  0  0  0
 10 11  4  0  0  0
 11 12  4  0  0  0
 12 13  4  0  0  0
 13 14  4  0  0  0
 15 16  1  0  0  0
 16 17  1  0  0  0
 17 18  2  0  0  0
 19 20  1  0  0  0
 20 21  1  0  0  0
 21 22  1  0  0  0
 22 23  1  0  0  0
 23 24  1  0  0  0
 24 25  1  0  0  0
 25 26  2  0  0  0
 25 27  1  0  0  0
 27 28  1  0  0  0
 28 29  4  0  0  0
 28 32  4  0  0  0
 29 30  4  0  0  0
 30 31  4  0  0  0
 31 32  4  0  0  0
  3 33  1  0  0  0
  4 34  1  0  0  0
  8 35  1  0  0  0
  8 36  1  0  0  0
 10 37  1  0  0  0
 11 38  1  0  0  0
 12 39  1  0  0  0
 13 40  1  0  0  0
 14 41  1  0  0  0
 16 42  1  0  0  0
 16 43  1  0  0  0
 17 44  1  0  0  0
 18 45  1  0  0  0
 18 46  1  0  0  0
 19 47  1  0  0  0
 19 48  1  0  0  0
 20 49  1  0  0  0
 20 50  1  0  0  0
 21 51  1  0  0  0
 21 52  1  0  0  0
 22 53  1  0  0  0
 22 54  1  0  0  0
 23 55  1  0  0  0
 23 56  1  0  0  0
 24 57  1  0  0  0
 27 58  1  0  0  0
 29 59  1  0  0  0
 30 60  1  0  0  0
 32 61  1  0  0  0
M  END
$$$$
