2ay2_ligand
  -I-interpret- 

 27 27  0  0  0  0  0  0  0  0999 V2000
  101.0710   44.8070   11.6360 C   0  0  0  0  0
   99.9520   45.4070   12.4900 C   0  0  0  0  0
   99.1340   44.3550   13.2350 C   0  0  0  0  0
   98.5830   43.3040   12.2700 C   0  0  0  0  0
   99.7010   42.6700   11.4360 C   0  0  0  0  0
  100.4930   43.7440   10.7020 C   0  0  0  0  0
  101.9090   45.8550   10.8950 C   0  0  0  0  0
  103.1460   46.3530   11.6580 C   0  0  0  0  0
  102.8110   47.1200   12.9290 C   0  0  0  0  0
  102.1190   48.1570   12.8460 O   0  0  0  0  0
  103.2200   46.6910   14.0230 O   0  0  0  0  0
  101.7797   44.3280   12.3115 H   0  0  0  0  0
   99.2753   45.9390   11.8213 H   0  0  0  0  0
  100.4156   46.0535   13.2351 H   0  0  0  0  0
   98.2972   44.8485   13.7294 H   0  0  0  0  0
   99.7794   43.8594   13.9602 H   0  0  0  0  0
   97.8797   43.7899   11.5937 H   0  0  0  0  0
   98.0982   42.5201   12.8519 H   0  0  0  0  0
   99.2576   41.9946   10.7043 H   0  0  0  0  0
  100.3729   42.1257   12.0996 H   0  0  0  0  0
  101.3279   43.2548   10.2003 H   0  0  0  0  0
   99.8127   44.2438   10.0124 H   0  0  0  0  0
  101.2652   46.7206   10.7392 H   0  0  0  0  0
  102.2711   45.3813    9.9825 H   0  0  0  0  0
  103.6845   47.0335   10.9983 H   0  0  0  0  0
  103.7251   45.4765   11.9486 H   0  0  0  0  0
  101.9029   48.3233   11.9255 H   0  0  0  0  0
  1  2  1  0  0  0
  1  6  1  0  0  0
  1  7  1  0  0  0
  2  3  1  0  0  0
  3  4  1  0  0  0
  4  5  1  0  0  0
  5  6  1  0  0  0
  7  8  1  0  0  0
  8  9  1  0  0  0
  9 10  1  0  0  0
  9 11  2  0  0  0
  1 12  1  0  0  0
  2 13  1  0  0  0
  2 14  1  0  0  0
  3 15  1  0  0  0
  3 16  1  0  0  0
  4 17  1  0  0  0
  4 18  1  0  0  0
  5 19  1  0  0  0
  5 20  1  0  0  0
  6 21  1  0  0  0
  6 22  1  0  0  0
  7 23  1  0  0  0
  7 24  1  0  0  0
  8 25  1  0  0  0
  8 26  1  0  0  0
 10 27  1  0  0  0
M  END
$$$$
