3zlo_ligand
  -I-interpret- 

 63 68  0  0  0  0  0  0  0  0999 V2000
    8.7650  -31.1510    6.8190 O   0  0  0  0  0
    9.3840  -32.2090    6.5020 C   0  0  0  0  0
    8.9180  -32.9600    5.6190 O   0  0  0  0  0
   10.6860  -32.6750    7.1060 C   0  0  0  0  0
   11.2810  -33.8560    6.7660 N   0  0  0  0  0
   11.4020  -31.9310    8.0640 C   0  0  0  0  0
   11.0520  -30.6070    8.6790 C   0  0  0  0  0
   10.6100  -30.8470   10.1190 C   0  0  0  0  0
    9.9610  -29.5800   10.6550 C   0  0  0  0  0
   10.9550  -28.4360   10.5340 C   0  0  0  0  0
   10.4910  -27.1580   11.2200 C   0  0  0  0  0
   10.4450  -27.0840   12.6120 C   0  0  0  0  0
   10.0160  -25.9030   13.2200 C   0  0  0  0  0
    9.6510  -24.8010   12.4500 C   0  0  0  0  0
    9.7000  -24.8720   11.0590 C   0  0  0  0  0
   10.1220  -26.0540   10.4490 C   0  0  0  0  0
   12.8500  -32.7850    8.5250 S   0  0  0  0  0
   12.4450  -34.0800    7.4360 C   0  0  0  0  0
   13.4040  -35.1170    7.1980 C   0  0  0  0  0
   13.3440  -35.8120    6.0040 C   0  0  0  0  0
   14.2550  -36.8280    5.7420 C   0  0  0  0  0
   15.2420  -37.1510    6.6620 C   0  0  0  0  0
   16.2260  -38.2580    6.3250 C   0  0  0  0  0
   16.6510  -39.0450    7.5620 C   0  0  0  0  0
   17.1500  -38.1490    8.6900 C   0  0  0  0  0
   14.3980  -35.4330    8.1310 C   0  0  0  0  0
   15.3120  -36.4630    7.8690 C   0  0  0  0  0
   16.4220  -36.8230    8.8110 C   0  0  0  0  0
   16.8080  -36.0010    9.6820 N   0  0  0  0  0
   17.8100  -36.2560   10.5090 N   0  0  0  0  0
   18.3820  -35.2210   11.1660 C   0  0  0  0  0
   17.9650  -33.5530   10.8620 S   0  0  0  0  0
   19.0920  -33.1100   12.0460 C   0  0  0  0  0
   19.4150  -31.8270   12.4790 C   0  0  0  0  0
   20.3710  -31.6950   13.4820 C   0  0  0  0  0
   19.2590  -35.4410   12.0550 N   0  0  0  0  0
   19.7000  -34.2400   12.6000 C   0  0  0  0  0
   20.6560  -34.0870   13.6080 C   0  0  0  0  0
   20.9900  -32.8130   14.0440 C   0  0  0  0  0
    9.2518  -30.6906    7.5065 H   0  0  0  0  0
   10.2471  -30.1350    8.1155 H   0  0  0  0  0
   11.9186  -29.9461    8.6600 H   0  0  0  0  0
   11.4745  -31.1046   10.7309 H   0  0  0  0  0
    9.8947  -31.6688   10.1520 H   0  0  0  0  0
    9.6819  -29.7197   11.6994 H   0  0  0  0  0
    9.0624  -29.3526   10.0815 H   0  0  0  0  0
   11.0748  -28.2151    9.4734 H   0  0  0  0  0
   11.8799  -28.7514   11.0169 H   0  0  0  0  0
   10.7410  -27.9396   13.2189 H   0  0  0  0  0
    9.9662  -25.8425   14.3072 H   0  0  0  0  0
    9.3264  -23.8812   12.9365 H   0  0  0  0  0
    9.4115  -24.0127   10.4535 H   0  0  0  0  0
   10.1639  -26.1159    9.3616 H   0  0  0  0  0
   12.5807  -35.5624    5.2670 H   0  0  0  0  0
   14.1935  -37.3776    4.8027 H   0  0  0  0  0
   16.5865  -38.4661    5.3176 H   0  0  0  0  0
   16.6028  -40.1317    7.6314 H   0  0  0  0  0
   17.9636  -38.4374    9.3555 H   0  0  0  0  0
   14.4618  -34.8757    9.0656 H   0  0  0  0  0
   18.9331  -30.9509   12.0450 H   0  0  0  0  0
   20.6414  -30.7000   13.8353 H   0  0  0  0  0
   21.1353  -34.9615   14.0480 H   0  0  0  0  0
   21.7373  -32.6847   14.8270 H   0  0  0  0  0
  1  2  1  0  0  0
  2  3  2  0  0  0
  2  4  1  0  0  0
  4  5  4  0  0  0
  4  6  4  0  0  0
  5 18  4  0  0  0
  6  7  1  0  0  0
  6 17  4  0  0  0
  7  8  1  0  0  0
  8  9  1  0  0  0
  9 10  1  0  0  0
 10 11  1  0  0  0
 11 12  4  0  0  0
 11 16  4  0  0  0
 12 13  4  0  0  0
 13 14  4  0  0  0
 14 15  4  0  0  0
 15 16  4  0  0  0
 17 18  4  0  0  0
 18 19  1  0  0  0
 19 20  4  0  0  0
 19 26  4  0  0  0
 20 21  4  0  0  0
 21 22  4  0  0  0
 22 23  4  0  0  0
 22 27  4  0  0  0
 23 24  4  0  0  0
 24 25  4  0  0  0
 25 28  4  0  0  0
 26 27  4  0  0  0
 27 28  4  0  0  0
 28 29  1  0  0  0
 29 30  2  0  0  0
 30 31  1  0  0  0
 31 32  4  0  0  0
 31 36  4  0  0  0
 32 33  4  0  0  0
 33 34  4  0  0  0
 33 37  4  0  0  0
 34 35  4  0  0  0
 35 39  4  0  0  0
 36 37  4  0  0  0
 37 38  4  0  0  0
 38 39  4  0  0  0
  1 40  1  0  0  0
  7 41  1  0  0  0
  7 42  1  0  0  0
  8 43  1  0  0  0
  8 44  1  0  0  0
  9 45  1  0  0  0
  9 46  1  0  0  0
 10 47  1  0  0  0
 10 48  1  0  0  0
 12 49  1  0  0  0
 13 50  1  0  0  0
 14 51  1  0  0  0
 15 52  1  0  0  0
 16 53  1  0  0  0
 20 54  1  0  0  0
 21 55  1  0  0  0
 23 56  1  0  0  0
 24 57  1  0  0  0
 25 58  1  0  0  0
 26 59  1  0  0  0
 34 60  1  0  0  0
 35 61  1  0  0  0
 38 62  1  0  0  0
 39 63  1  0  0  0
M  END
$$$$
