1tom_ligand
  -I-interpret- 

 64 66  0  0  0  0  0  0  0  0999 V2000
   10.3160  -12.8040   23.5250 N   0  3  0  0  0
   11.3220  -12.7910   22.5040 C   0  0  0  0  0
   12.5960  -13.2860   23.1240 C   0  0  0  0  0
   13.7450  -13.2510   22.1460 C   0  0  0  0  0
   13.9200  -11.8380   21.5900 C   0  0  0  0  0
   12.6590  -11.3000   20.9420 C   0  0  0  0  0
   11.5480  -11.3550   21.9740 C   0  0  0  0  0
   14.9980  -11.8090   20.5710 C   0  0  0  0  0
   16.3250  -11.9530   21.1710 N   0  0  0  0  0
   17.1170  -13.0170   20.9440 C   0  0  0  0  0
   16.7290  -13.9670   20.2610 O   0  0  0  0  0
   18.5150  -13.0970   21.5690 C   0  0  0  0  0
   19.5800  -13.0850   20.5050 C   0  0  0  0  0
   20.5550  -14.1330   20.9450 C   0  0  0  0  0
   19.7010  -15.1760   21.6260 C   0  0  0  0  0
   18.6620  -14.3740   22.2720 N   0  0  0  0  0
   17.8220  -14.8100   23.2150 C   0  0  0  0  0
   16.9480  -14.0710   23.6920 O   0  0  0  0  0
   15.8190  -17.0230   22.6010 C   0  0  0  0  0
   16.6180  -16.8730   23.8320 N   0  3  0  0  0
   17.9320  -16.2260   23.7760 C   0  0  0  0  0
   18.5320  -16.1970   25.2170 C   0  0  0  0  0
   19.8880  -15.5410   25.3810 C   0  0  0  0  0
   21.0020  -16.1550   24.8590 C   0  0  0  0  0
   22.2210  -15.5290   24.9600 C   0  0  0  0  0
   22.3090  -14.3140   25.6040 C   0  0  0  0  0
   21.1840  -13.7160   26.1340 C   0  0  0  0  0
   19.9680  -14.3310   26.0350 C   0  0  0  0  0
   10.1842  -13.7588   23.8587 H   0  0  0  0  0
   10.6116  -12.2097   24.2995 H   0  0  0  0  0
    9.4388  -12.4527   23.1408 H   0  0  0  0  0
   11.0096  -13.4190   21.6696 H   0  0  0  0  0
   12.4454  -14.3185   23.4392 H   0  0  0  0  0
   12.8421  -12.6383   23.9654 H   0  0  0  0  0
   13.5354  -13.9351   21.3237 H   0  0  0  0  0
   14.6597  -13.5492   22.6584 H   0  0  0  0  0
   14.1703  -11.2108   22.4456 H   0  0  0  0  0
   12.3960  -11.8993   20.0703 H   0  0  0  0  0
   12.8137  -10.2745   20.6065 H   0  0  0  0  0
   11.8311  -10.7215   22.8146 H   0  0  0  0  0
   10.6260  -11.0164   21.5014 H   0  0  0  0  0
   14.9579  -10.8469   20.0602 H   0  0  0  0  0
   14.8417  -12.6425   19.8862 H   0  0  0  0  0
   16.6643  -11.2150   21.7879 H   0  0  0  0  0
   18.6244  -12.2427   22.2370 H   0  0  0  0  0
   20.0480  -12.1058   20.4041 H   0  0  0  0  0
   19.1734  -13.2927   19.5152 H   0  0  0  0  0
   21.3181  -13.7295   21.6106 H   0  0  0  0  0
   21.1179  -14.5465   20.1082 H   0  0  0  0  0
   20.2624  -15.7895   22.3306 H   0  0  0  0  0
   19.2974  -15.9128   20.9315 H   0  0  0  0  0
   15.6121  -16.0385   22.1815 H   0  0  0  0  0
   16.3767  -17.6177   21.8776 H   0  0  0  0  0
   14.8799  -17.5232   22.8376 H   0  0  0  0  0
   16.0579  -16.2633   24.4277 H   0  0  0  0  0
   16.8161  -17.8293   24.1264 H   0  0  0  0  0
   18.5859  -16.7906   23.1113 H   0  0  0  0  0
   18.6676  -17.2394   25.5051 H   0  0  0  0  0
   17.8398  -15.6062   25.8170 H   0  0  0  0  0
   20.9192  -17.1262   24.3712 H   0  0  0  0  0
   23.1119  -15.9902   24.5338 H   0  0  0  0  0
   23.2766  -13.8205   25.6957 H   0  0  0  0  0
   21.2657  -12.7504   26.6330 H   0  0  0  0  0
   19.0776  -13.8728   26.4655 H   0  0  0  0  0
  1  2  1  0  0  0
  2  7  1  0  0  0
  2  3  1  0  0  0
  3  4  1  0  0  0
  4  5  1  0  0  0
  5  8  1  0  0  0
  5  6  1  0  0  0
  6  7  1  0  0  0
  8  9  1  0  0  0
  9 10  1  0  0  0
 10 12  1  0  0  0
 10 11  2  0  0  0
 12 16  1  0  0  0
 12 13  1  0  0  0
 13 14  1  0  0  0
 14 15  1  0  0  0
 15 16  1  0  0  0
 16 17  1  0  0  0
 17 21  1  0  0  0
 17 18  2  0  0  0
 21 22  1  0  0  0
 21 20  1  0  0  0
 20 19  1  0  0  0
 22 23  1  0  0  0
 23 28  4  0  0  0
 23 24  4  0  0  0
 24 25  4  0  0  0
 25 26  4  0  0  0
 26 27  4  0  0  0
 27 28  4  0  0  0
  1 29  1  0  0  0
  1 30  1  0  0  0
  1 31  1  0  0  0
  2 32  1  0  0  0
  3 33  1  0  0  0
  3 34  1  0  0  0
  4 35  1  0  0  0
  4 36  1  0  0  0
  5 37  1  0  0  0
  6 38  1  0  0  0
  6 39  1  0  0  0
  7 40  1  0  0  0
  7 41  1  0  0  0
  8 42  1  0  0  0
  8 43  1  0  0  0
  9 44  1  0  0  0
 12 45  1  0  0  0
 13 46  1  0  0  0
 13 47  1  0  0  0
 14 48  1  0  0  0
 14 49  1  0  0  0
 15 50  1  0  0  0
 15 51  1  0  0  0
 19 52  1  0  0  0
 19 53  1  0  0  0
 19 54  1  0  0  0
 20 55  1  0  0  0
 20 56  1  0  0  0
 21 57  1  0  0  0
 22 58  1  0  0  0
 22 59  1  0  0  0
 24 60  1  0  0  0
 25 61  1  0  0  0
 26 62  1  0  0  0
 27 63  1  0  0  0
 28 64  1  0  0  0
M  END
$$$$
