5n84_ligand
  -I-interpret- 

 49 52  0  0  0  0  0  0  0  0999 V2000
   40.7220   38.1560   38.3590 O   0  0  0  0  0
   39.7260   38.2670   37.6810 C   0  0  0  0  0
   39.3880   37.3260   36.7770 N   0  0  0  0  0
   40.1460   36.0750   36.5860 C   0  0  0  0  0
   39.8290   35.4370   35.2240 C   0  0  0  0  0
   41.2470   35.9220   35.5140 C   0  0  0  0  0
   38.9340   39.5460   37.9080 C   0  0  0  0  0
   38.0180   40.0750   36.9620 C   0  0  0  0  0
   37.3230   41.2770   37.2280 C   0  0  0  0  0
   37.5210   41.9610   38.4080 C   0  0  0  0  0
   38.4230   41.4500   39.3490 C   0  0  0  0  0
   39.1320   40.2600   39.1100 C   0  0  0  0  0
   36.7340   43.1960   38.6070 C   0  0  0  0  0
   36.1750   43.4530   39.8070 N   0  0  0  0  0
   36.1610   42.8470   41.0320 C   0  0  0  0  0
   35.4680   43.4040   42.1310 C   0  0  0  0  0
   34.7830   44.5600   42.0130 N   0  0  0  0  0
   34.7610   45.2200   40.8250 C   0  0  0  0  0
   35.4960   44.6280   39.6520 C   0  0  0  0  0
   35.6210   45.0750   38.3690 N   0  0  0  0  0
   36.3900   44.1790   37.7010 C   0  0  0  0  0
   34.1170   46.4090   40.6700 N   0  0  0  0  0
   33.5470   47.1520   41.7940 C   0  0  0  0  0
   34.5740   48.0650   42.5100 C   0  0  0  0  0
   35.0580   49.2210   41.6210 C   0  0  0  0  0
   34.0460   48.6010   43.8430 C   0  0  0  0  0
   38.5659   37.4872   36.1951 H   0  0  0  0  0
   40.1512   35.8305   37.6482 H   0  0  0  0  0
   39.0824   35.5323   34.4356 H   0  0  0  0  0
   39.3382   34.5429   34.8395 H   0  0  0  0  0
   42.2688   35.5499   35.4398 H   0  0  0  0  0
   42.0148   36.5324   35.0387 H   0  0  0  0  0
   37.8488   39.5499   36.0219 H   0  0  0  0  0
   36.6218   41.6677   36.4906 H   0  0  0  0  0
   38.5785   41.9856   40.2855 H   0  0  0  0  0
   39.8361   39.8876   39.8541 H   0  0  0  0  0
   36.6990   41.9084   41.1652 H   0  0  0  0  0
   35.4875   42.8897   43.0918 H   0  0  0  0  0
   36.6802   44.2262   36.6514 H   0  0  0  0  0
   34.0281   46.7981   39.7313 H   0  0  0  0  0
   33.1897   46.4241   42.5224 H   0  0  0  0  0
   32.7572   47.7912   41.3994 H   0  0  0  0  0
   35.4333   47.4283   42.7206 H   0  0  0  0  0
   35.5346   48.8161   40.7282 H   0  0  0  0  0
   34.2062   49.8368   41.3322 H   0  0  0  0  0
   35.7753   49.8273   42.1741 H   0  0  0  0  0
   33.1417   49.1833   43.6664 H   0  0  0  0  0
   33.8181   47.7652   44.5045 H   0  0  0  0  0
   34.8036   49.2348   44.3040 H   0  0  0  0  0
  1  2  2  0  0  0
  2  3  1  0  0  0
  2  7  1  0  0  0
  3  4  1  0  0  0
  4  5  1  0  0  0
  4  6  1  0  0  0
  5  6  1  0  0  0
  7  8  4  0  0  0
  7 12  4  0  0  0
  8  9  4  0  0  0
  9 10  4  0  0  0
 10 11  4  0  0  0
 10 13  1  0  0  0
 11 12  4  0  0  0
 13 14  4  0  0  0
 13 21  4  0  0  0
 14 15  4  0  0  0
 14 19  4  0  0  0
 15 16  4  0  0  0
 16 17  4  0  0  0
 17 18  4  0  0  0
 18 19  4  0  0  0
 18 22  1  0  0  0
 19 20  4  0  0  0
 20 21  4  0  0  0
 22 23  1  0  0  0
 23 24  1  0  0  0
 24 25  1  0  0  0
 24 26  1  0  0  0
  3 27  1  0  0  0
  4 28  1  0  0  0
  5 29  1  0  0  0
  5 30  1  0  0  0
  6 31  1  0  0  0
  6 32  1  0  0  0
  8 33  1  0  0  0
  9 34  1  0  0  0
 11 35  1  0  0  0
 12 36  1  0  0  0
 15 37  1  0  0  0
 16 38  1  0  0  0
 21 39  1  0  0  0
 22 40  1  0  0  0
 23 41  1  0  0  0
 23 42  1  0  0  0
 24 43  1  0  0  0
 25 44  1  0  0  0
 25 45  1  0  0  0
 25 46  1  0  0  0
 26 47  1  0  0  0
 26 48  1  0  0  0
 26 49  1  0  0  0
M  END
$$$$
