1ypj_ligand
  -I-interpret- 

 66 70  0  0  0  0  0  0  0  0999 V2000
   10.7290  -11.8010   24.3240 N   0  0  0  0  0
   11.4620  -10.7700   23.8820 C   0  0  0  0  0
   11.0720   -9.5970   24.4620 N   0  0  0  0  0
   12.5100  -10.9090   22.9150 C   0  0  0  0  0
   13.2720   -9.8170   22.4530 C   0  0  0  0  0
   14.2890   -9.9680   21.5290 C   0  0  0  0  0
   14.6190  -11.2340   20.9920 C   0  0  0  0  0
   15.6990  -11.3800   19.9560 C   0  0  0  0  0
   17.1830  -11.5280   20.3580 C   0  0  0  0  0
   17.8840  -12.0380   19.0830 C   0  0  0  0  0
   16.7300  -12.6320   18.2390 C   0  0  0  0  0
   16.9380  -14.1140   17.8350 C   0  0  0  0  0
   16.7210  -11.7930   16.9430 C   0  0  0  0  0
   15.4930  -12.4940   19.0230 N   0  3  0  0  0
   14.2700  -12.3660   18.2020 C   0  0  0  0  0
   18.9360  -13.0570   19.5920 C   0  0  0  0  0
   18.5190  -13.3720   20.9510 N   0  0  0  0  0
   19.0410  -14.5060   21.7870 C   0  0  0  0  0
   20.0430  -14.0770   22.8530 C   0  0  0  0  0
   19.5990  -13.6360   24.1380 C   0  0  0  0  0
   20.4930  -13.3270   25.1870 C   0  0  0  0  0
   21.8550  -13.4770   24.8710 C   0  0  0  0  0
   22.3080  -13.9030   23.6100 C   0  0  0  0  0
   21.4120  -14.2160   22.5680 C   0  0  0  0  0
   23.7000  -13.9730   23.5350 O   0  0  0  0  0
   24.1030  -13.5500   24.8690 C   0  0  0  0  0
   22.9300  -13.2350   25.6950 O   0  0  0  0  0
   17.4350  -12.6540   21.3730 C   0  0  0  0  0
   16.8700  -12.7620   22.4930 O   0  0  0  0  0
   20.3330  -12.4110   19.6630 C   0  0  0  0  0
   20.8750  -12.2520   18.2290 C   0  0  0  0  0
   13.8890  -12.3290   21.4710 C   0  0  0  0  0
   12.8400  -12.1640   22.3880 C   0  0  0  0  0
   10.9059  -12.7412   23.9704 H   0  0  0  0  0
   10.3086   -9.5916   25.1385 H   0  0  0  0  0
   11.5441   -8.7261   24.2188 H   0  0  0  0  0
   13.0522   -8.8208   22.8369 H   0  0  0  0  0
   14.8498   -9.0906   21.2067 H   0  0  0  0  0
   15.5642  -10.3805   19.5425 H   0  0  0  0  0
   17.5185  -10.5791   20.7765 H   0  0  0  0  0
   18.4145  -11.3158   18.4625 H   0  0  0  0  0
   17.8483  -14.2033   17.2422 H   0  0  0  0  0
   17.0264  -14.7251   18.7332 H   0  0  0  0  0
   16.0850  -14.4520   17.2465 H   0  0  0  0  0
   16.5451  -10.7462   17.1906 H   0  0  0  0  0
   17.6833  -11.8922   16.4408 H   0  0  0  0  0
   15.9282  -12.1504   16.2858 H   0  0  0  0  0
   15.3165  -13.3547   19.5411 H   0  0  0  0  0
   13.3983  -12.3244   18.8550 H   0  0  0  0  0
   14.3256  -11.4528   17.6095 H   0  0  0  0  0
   14.1877  -13.2267   17.5383 H   0  0  0  0  0
   18.9947  -13.9248   18.9350 H   0  0  0  0  0
   19.5559  -15.1934   21.1158 H   0  0  0  0  0
   18.1884  -14.9480   22.3025 H   0  0  0  0  0
   18.5284  -13.5341   24.3154 H   0  0  0  0  0
   20.1525  -12.9968   26.1684 H   0  0  0  0  0
   21.7630  -14.5488   21.5912 H   0  0  0  0  0
   24.7209  -12.6563   24.7819 H   0  0  0  0  0
   24.6572  -14.3609   25.3416 H   0  0  0  0  0
   21.0043  -13.0419   20.2456 H   0  0  0  0  0
   20.2666  -11.4355   20.1448 H   0  0  0  0  0
   20.9424  -13.2320   17.7567 H   0  0  0  0  0
   20.2004  -11.6164   17.6554 H   0  0  0  0  0
   21.8642  -11.7955   18.2644 H   0  0  0  0  0
   14.1412  -13.3310   21.1239 H   0  0  0  0  0
   12.2659  -13.0368   22.6989 H   0  0  0  0  0
  1  2  2  0  0  0
  2  3  1  0  0  0
  2  4  1  0  0  0
  4  5  4  0  0  0
  4 33  4  0  0  0
  5  6  4  0  0  0
  6  7  4  0  0  0
  7  8  1  0  0  0
  7 32  4  0  0  0
  8  9  1  0  0  0
  8 14  1  0  0  0
  9 10  1  0  0  0
  9 28  1  0  0  0
 10 11  1  0  0  0
 10 16  1  0  0  0
 11 12  1  0  0  0
 11 13  1  0  0  0
 11 14  1  0  0  0
 14 15  1  0  0  0
 16 17  1  0  0  0
 16 30  1  0  0  0
 17 18  1  0  0  0
 17 28  1  0  0  0
 18 19  1  0  0  0
 19 20  4  0  0  0
 19 24  4  0  0  0
 20 21  4  0  0  0
 21 22  4  0  0  0
 22 23  4  0  0  0
 22 27  1  0  0  0
 23 24  4  0  0  0
 23 25  1  0  0  0
 25 26  1  0  0  0
 26 27  1  0  0  0
 28 29  2  0  0  0
 30 31  1  0  0  0
 32 33  4  0  0  0
  1 34  1  0  0  0
  3 35  1  0  0  0
  3 36  1  0  0  0
  5 37  1  0  0  0
  6 38  1  0  0  0
  8 39  1  0  0  0
  9 40  1  0  0  0
 10 41  1  0  0  0
 12 42  1  0  0  0
 12 43  1  0  0  0
 12 44  1  0  0  0
 13 45  1  0  0  0
 13 46  1  0  0  0
 13 47  1  0  0  0
 14 48  1  0  0  0
 15 49  1  0  0  0
 15 50  1  0  0  0
 15 51  1  0  0  0
 16 52  1  0  0  0
 18 53  1  0  0  0
 18 54  1  0  0  0
 20 55  1  0  0  0
 21 56  1  0  0  0
 24 57  1  0  0  0
 26 58  1  0  0  0
 26 59  1  0  0  0
 30 60  1  0  0  0
 30 61  1  0  0  0
 31 62  1  0  0  0
 31 63  1  0  0  0
 31 64  1  0  0  0
 32 65  1  0  0  0
 33 66  1  0  0  0
M  END
$$$$
