3nf6_ligand
  -I-interpret- 

 36 39  0  0  0  0  0  0  0  0999 V2000
   13.1170  -46.8860    1.7890 O   0  0  0  0  0
   13.7520  -46.0050    1.1450 C   0  0  0  0  0
   14.8230  -45.5000    1.5690 O   0  0  0  0  0
   13.1980  -45.4790   -0.1630 C   0  0  0  0  0
   11.8310  -45.3030   -0.3960 C   0  0  0  0  0
   10.8130  -45.6550    0.6650 C   0  0  0  0  0
    9.4450  -45.2520    0.4100 N   0  0  0  0  0
    8.4900  -46.0140   -0.2420 C   0  0  0  0  0
    8.5980  -47.1390   -0.7170 O   0  0  0  0  0
    7.2390  -45.1990   -0.3390 C   0  0  0  0  0
    7.6620  -43.9170    0.3200 C   0  0  0  0  0
    6.9070  -42.7860    0.5100 C   0  0  0  0  0
    7.5220  -41.7140    1.1470 C   0  0  0  0  0
    8.8400  -41.7980    1.5750 C   0  0  0  0  0
    9.6000  -42.9390    1.3750 C   0  0  0  0  0
    8.9670  -43.9840    0.7390 C   0  0  0  0  0
   11.3700  -44.8010   -1.6100 C   0  0  0  0  0
   12.2630  -44.4750   -2.6150 C   0  0  0  0  0
   13.6050  -44.6640   -2.3730 C   0  0  0  0  0
   14.6200  -44.4010   -3.2580 O   0  0  0  0  0
   15.7670  -44.6070   -2.4450 C   0  0  0  0  0
   15.4510  -45.2410   -1.1920 O   0  0  0  0  0
   14.0620  -45.1480   -1.1940 C   0  0  0  0  0
   12.3324  -47.1377    1.2963 H   0  0  0  0  0
   11.1206  -45.1235    1.5655 H   0  0  0  0  0
   10.8007  -46.7435    0.7212 H   0  0  0  0  0
    6.3761  -45.6677    0.1341 H   0  0  0  0  0
    6.8836  -45.0667   -1.3609 H   0  0  0  0  0
    5.8709  -42.7310    0.1761 H   0  0  0  0  0
    6.9611  -40.7942    1.3128 H   0  0  0  0  0
    9.2888  -40.9437    2.0818 H   0  0  0  0  0
   10.6377  -43.0058    1.7017 H   0  0  0  0  0
   10.3004  -44.6642   -1.7693 H   0  0  0  0  0
   11.9146  -44.0805   -3.5695 H   0  0  0  0  0
   16.2030  -43.6321   -2.2270 H   0  0  0  0  0
   16.4502  -45.2599   -2.9882 H   0  0  0  0  0
  1  2  1  0  0  0
  2  3  2  0  0  0
  2  4  1  0  0  0
  4  5  4  0  0  0
  4 23  4  0  0  0
  5  6  1  0  0  0
  5 17  4  0  0  0
  6  7  1  0  0  0
  7  8  1  0  0  0
  7 16  1  0  0  0
  8  9  2  0  0  0
  8 10  1  0  0  0
 10 11  1  0  0  0
 11 12  4  0  0  0
 11 16  4  0  0  0
 12 13  4  0  0  0
 13 14  4  0  0  0
 14 15  4  0  0  0
 15 16  4  0  0  0
 17 18  4  0  0  0
 18 19  4  0  0  0
 19 20  1  0  0  0
 19 23  4  0  0  0
 20 21  1  0  0  0
 21 22  1  0  0  0
 22 23  1  0  0  0
  1 24  1  0  0  0
  6 25  1  0  0  0
  6 26  1  0  0  0
 10 27  1  0  0  0
 10 28  1  0  0  0
 12 29  1  0  0  0
 13 30  1  0  0  0
 14 31  1  0  0  0
 15 32  1  0  0  0
 17 33  1  0  0  0
 18 34  1  0  0  0
 21 35  1  0  0  0
 21 36  1  0  0  0
M  END
$$$$
