3rl8_ligand
  -I-interpret- 

101101  0  0  0  0  0  0  0  0999 V2000
   58.3730   -7.4220   50.7610 N   0  3  0  0  0
   59.7190   -7.6770   51.3880 C   0  0  0  0  0
   60.8010   -6.7700   50.7930 C   0  0  0  0  0
   61.5260   -6.1030   51.5260 O   0  0  0  0  0
   60.1190   -9.1470   51.2670 C   0  0  0  0  0
   59.9820   -9.9610   52.5390 C   0  0  0  0  0
   60.2630   -9.4030   53.7890 C   0  0  0  0  0
   59.6150  -11.3080   52.4870 C   0  0  0  0  0
   60.1510  -10.1570   54.9560 C   0  0  0  0  0
   59.5080  -12.0760   53.6500 C   0  0  0  0  0
   59.7780  -11.4940   54.8790 C   0  0  0  0  0
   59.6710  -12.2420   56.0280 O   0  0  0  0  0
   60.9080   -6.7650   49.4660 N   0  0  0  0  0
   61.6700   -5.7490   48.7380 C   0  0  0  0  0
   60.7080   -4.7770   48.0280 C   0  0  0  0  0
   61.0330   -3.6070   47.8180 O   0  0  0  0  0
   62.6380   -6.4100   47.7390 C   0  0  0  0  0
   63.8370   -5.7230   47.0450 C   0  0  0  0  0
   63.3950   -4.7810   45.9060 C   0  0  0  0  0
   64.7910   -5.0220   48.0250 C   0  0  0  0  0
   59.5190   -5.2470   47.6710 N   0  0  0  0  0
   58.5750   -4.3740   46.9850 C   0  0  0  0  0
   57.8570   -3.4610   47.9740 C   0  0  0  0  0
   57.5300   -3.8480   49.0980 O   0  0  0  0  0
   57.5660   -5.1260   46.0340 C   0  0  0  0  0
   58.3080   -5.8630   44.9130 C   0  0  0  0  0
   56.6610   -6.0710   46.7970 C   0  0  0  0  0
   57.6560   -2.2230   47.5530 N   0  0  0  0  0
   56.8630   -1.2860   48.3250 C   0  0  0  0  0
   55.5620   -1.0990   47.5480 C   0  0  0  0  0
   55.5640   -0.4780   46.4800 O   0  0  0  0  0
   57.6240    0.0400   48.5210 C   0  0  0  0  0
   58.8160   -0.2090   49.2890 O   0  0  0  0  0
   56.7580    1.0650   49.2480 C   0  0  0  0  0
   54.4690   -1.6090   48.1260 N   0  0  0  0  0
   53.1610   -1.6850   47.4690 C   0  0  0  0  0
   52.1440   -0.7230   48.0930 C   0  0  0  0  0
   51.9950   -0.6700   49.3130 O   0  0  0  0  0
   52.6380   -3.1300   47.5060 C   0  0  0  0  0
   51.2440   -3.2090   47.2110 O   0  0  0  0  0
   51.4490    0.0290   47.2460 N   0  0  0  0  0
   50.4850    1.0310   47.6820 C   0  0  0  0  0
   49.0630    0.6880   47.1800 C   0  0  0  0  0
   48.0610    1.3490   47.5360 O   0  0  0  0  0
   50.9060    2.4970   47.2660 C   0  0  0  0  0
   52.2890    2.8870   47.8270 C   0  0  0  0  0
   50.8640    2.6950   45.7620 C   0  0  0  0  0
   48.8720   -0.2860   46.4210 O   0  0  0  0  0
   58.1356   -6.4348   50.8581 H   0  0  0  0  0
   58.4077   -7.6689   49.7719 H   0  0  0  0  0
   57.6677   -7.9903   51.2300 H   0  0  0  0  0
   59.6296   -7.4365   52.4474 H   0  0  0  0  0
   61.1752   -9.1625   50.9981 H   0  0  0  0  0
   59.4466   -9.5948   50.5353 H   0  0  0  0  0
   60.5750   -8.3605   53.8525 H   0  0  0  0  0
   59.4082  -11.7688   51.5211 H   0  0  0  0  0
   60.3549   -9.7004   55.9245 H   0  0  0  0  0
   59.2146  -13.1241   53.5911 H   0  0  0  0  0
   59.4065  -13.1369   55.8025 H   0  0  0  0  0
   60.4398   -7.4992   48.9348 H   0  0  0  0  0
   62.2687   -5.1780   49.4477 H   0  0  0  0  0
   61.9808   -6.6209   46.8954 H   0  0  0  0  0
   63.1351   -7.1512   48.3648 H   0  0  0  0  0
   64.4104   -6.5321   46.5925 H   0  0  0  0  0
   62.8516   -5.3527   45.1537 H   0  0  0  0  0
   62.7477   -4.0028   46.3104 H   0  0  0  0  0
   64.2745   -4.3243   45.4520 H   0  0  0  0  0
   64.2461   -4.2539   48.5739 H   0  0  0  0  0
   65.1932   -5.7543   48.7250 H   0  0  0  0  0
   65.6079   -4.5623   47.4687 H   0  0  0  0  0
   59.2674   -6.2141   47.8757 H   0  0  0  0  0
   59.1742   -3.7558   46.3165 H   0  0  0  0  0
   56.9295   -4.3665   45.5799 H   0  0  0  0  0
   58.8758   -5.1448   44.3215 H   0  0  0  0  0
   58.9880   -6.5948   45.3491 H   0  0  0  0  0
   57.5859   -6.3715   44.2742 H   0  0  0  0  0
   57.2671   -6.8183   47.3091 H   0  0  0  0  0
   56.0827   -5.5068   47.5287 H   0  0  0  0  0
   55.9842   -6.5656   46.1003 H   0  0  0  0  0
   58.0664   -1.9220   46.6690 H   0  0  0  0  0
   56.6559   -1.6558   49.3292 H   0  0  0  0  0
   57.8829    0.4414   47.5412 H   0  0  0  0  0
   59.2931    0.6147   49.4134 H   0  0  0  0  0
   55.8594    1.2601   48.6626 H   0  0  0  0  0
   56.4782    0.6739   50.2262 H   0  0  0  0  0
   57.3201    1.9906   49.3726 H   0  0  0  0  0
   54.5503   -1.9654   49.0783 H   0  0  0  0  0
   53.2924   -1.3777   46.4315 H   0  0  0  0  0
   52.7935   -3.5203   48.5118 H   0  0  0  0  0
   53.1764   -3.7040   46.7518 H   0  0  0  0  0
   50.9623   -4.1261   47.2454 H   0  0  0  0  0
   51.5971   -0.1011   46.2452 H   0  0  0  0  0
   50.4747    1.0090   48.7717 H   0  0  0  0  0
   48.3393    2.0642   48.1127 H   0  0  0  0  0
   50.1678    3.1634   47.7122 H   0  0  0  0  0
   52.2654    2.8367   48.9156 H   0  0  0  0  0
   53.0419    2.1968   47.4463 H   0  0  0  0  0
   52.5335    3.9021   47.5141 H   0  0  0  0  0
   51.5501    1.9949   45.2853 H   0  0  0  0  0
   49.8511    2.5157   45.4014 H   0  0  0  0  0
   51.1607    3.7162   45.5228 H   0  0  0  0  0
  1  2  1  0  0  0
  2  3  1  0  0  0
  2  5  1  0  0  0
  3  4  2  0  0  0
  3 13  1  0  0  0
  5  6  1  0  0  0
  6  7  4  0  0  0
  6  8  4  0  0  0
  7  9  4  0  0  0
  8 10  4  0  0  0
  9 11  4  0  0  0
 10 11  4  0  0  0
 11 12  1  0  0  0
 13 14  1  0  0  0
 14 15  1  0  0  0
 14 17  1  0  0  0
 15 16  2  0  0  0
 15 21  1  0  0  0
 17 18  1  0  0  0
 18 19  1  0  0  0
 18 20  1  0  0  0
 21 22  1  0  0  0
 22 23  1  0  0  0
 22 25  1  0  0  0
 23 24  2  0  0  0
 23 28  1  0  0  0
 25 26  1  0  0  0
 25 27  1  0  0  0
 28 29  1  0  0  0
 29 30  1  0  0  0
 29 32  1  0  0  0
 30 31  2  0  0  0
 30 35  1  0  0  0
 32 33  1  0  0  0
 32 34  1  0  0  0
 35 36  1  0  0  0
 36 37  1  0  0  0
 36 39  1  0  0  0
 37 38  2  0  0  0
 37 41  1  0  0  0
 39 40  1  0  0  0
 41 42  1  0  0  0
 42 43  1  0  0  0
 42 45  1  0  0  0
 43 44  1  0  0  0
 43 48  2  0  0  0
 45 46  1  0  0  0
 45 47  1  0  0  0
  1 49  1  0  0  0
  1 50  1  0  0  0
  1 51  1  0  0  0
  2 52  1  0  0  0
  5 53  1  0  0  0
  5 54  1  0  0  0
  7 55  1  0  0  0
  8 56  1  0  0  0
  9 57  1  0  0  0
 10 58  1  0  0  0
 12 59  1  0  0  0
 13 60  1  0  0  0
 14 61  1  0  0  0
 17 62  1  0  0  0
 17 63  1  0  0  0
 18 64  1  0  0  0
 19 65  1  0  0  0
 19 66  1  0  0  0
 19 67  1  0  0  0
 20 68  1  0  0  0
 20 69  1  0  0  0
 20 70  1  0  0  0
 21 71  1  0  0  0
 22 72  1  0  0  0
 25 73  1  0  0  0
 26 74  1  0  0  0
 26 75  1  0  0  0
 26 76  1  0  0  0
 27 77  1  0  0  0
 27 78  1  0  0  0
 27 79  1  0  0  0
 28 80  1  0  0  0
 29 81  1  0  0  0
 32 82  1  0  0  0
 33 83  1  0  0  0
 34 84  1  0  0  0
 34 85  1  0  0  0
 34 86  1  0  0  0
 35 87  1  0  0  0
 36 88  1  0  0  0
 39 89  1  0  0  0
 39 90  1  0  0  0
 40 91  1  0  0  0
 41 92  1  0  0  0
 42 93  1  0  0  0
 44 94  1  0  0  0
 45 95  1  0  0  0
 46 96  1  0  0  0
 46 97  1  0  0  0
 46 98  1  0  0  0
 47 99  1  0  0  0
 47100  1  0  0  0
 47101  1  0  0  0
M  END
$$$$
