6f5w_ligand
  -I-interpret- 

 27 27  0  0  0  0  0  0  0  0999 V2000
   25.3250  -38.0090   48.8680 O   0  0  0  0  0
   25.0430  -39.3270   48.3840 C   0  0  0  0  0
   23.6880  -39.4090   47.6500 C   0  0  0  0  0
   23.5870  -38.4510   46.4810 C   0  0  0  0  0
   22.6300  -39.1100   48.5620 O   0  0  0  0  0
   25.0350  -40.2680   49.5810 C   0  0  0  0  0
   26.1880  -40.0060   50.3630 O   0  0  0  0  0
   23.8270  -39.9650   50.4550 C   0  0  0  0  0
   23.7950  -40.9130   51.4970 O   0  0  0  0  0
   22.5370  -40.0200   49.6530 C   0  0  0  0  0
   22.3450  -41.3540   49.2000 O   0  0  0  0  0
   21.1140  -41.7040   48.5280 C   0  0  0  0  0
   20.8910  -42.9240   48.3130 C   0  0  0  0  0
   20.7130  -44.1510   48.0560 C   0  0  0  0  0
   25.3359  -37.3941   48.1308 H   0  0  0  0  0
   25.8091  -39.6051   47.6602 H   0  0  0  0  0
   23.6078  -40.4243   47.2616 H   0  0  0  0  0
   22.6215  -38.5778   45.9914 H   0  0  0  0  0
   23.6806  -37.4271   46.8429 H   0  0  0  0  0
   24.3865  -38.6612   45.7705 H   0  0  0  0  0
   25.0096  -41.2999   49.2309 H   0  0  0  0  0
   26.9741  -40.1867   49.8425 H   0  0  0  0  0
   23.9131  -38.9559   50.8579 H   0  0  0  0  0
   24.6146  -40.8675   51.9948 H   0  0  0  0  0
   21.6821  -39.7315   50.2646 H   0  0  0  0  0
   21.1776  -41.2412   47.5432 H   0  0  0  0  0
   20.3152  -41.3742   49.1923 H   0  0  0  0  0
  1  2  1  0  0  0
  2  3  1  0  0  0
  2  6  1  0  0  0
  3  4  1  0  0  0
  3  5  1  0  0  0
  5 10  1  0  0  0
  6  7  1  0  0  0
  6  8  1  0  0  0
  8  9  1  0  0  0
  8 10  1  0  0  0
 10 11  1  0  0  0
 11 12  1  0  0  0
 12 13  1  0  0  0
 13 14  3  0  0  0
  1 15  1  0  0  0
  2 16  1  0  0  0
  3 17  1  0  0  0
  4 18  1  0  0  0
  4 19  1  0  0  0
  4 20  1  0  0  0
  6 21  1  0  0  0
  7 22  1  0  0  0
  8 23  1  0  0  0
  9 24  1  0  0  0
 10 25  1  0  0  0
 12 26  1  0  0  0
 12 27  1  0  0  0
M  END
$$$$
