5cuh_ligand
  -I-interpret- 

 48 50  0  0  0  0  0  0  0  0999 V2000
   10.8250   19.3110   -4.9840 O   0  0  0  0  0
   11.5740   18.3740   -5.3030 C   0  0  0  0  0
   11.5920   17.3080   -4.5390 N   0  0  0  0  0
   10.7030   17.3790   -3.4730 O   0  0  0  0  0
   12.5300   18.4110   -6.4890 C   0  0  0  0  0
   11.7690   18.3830   -7.8100 C   0  0  0  0  0
   11.4300   20.1140   -8.1450 S   0  0  0  0  0
   12.7930   20.7430   -7.2020 C   0  0  0  0  0
   13.3920   19.6170   -6.4610 N   0  0  0  0  0
   14.7910   19.6470   -5.6590 S   0  0  0  0  0
   15.4340   18.3410   -5.4970 O   0  0  0  0  0
   15.5580   20.6130   -6.3860 O   0  0  0  0  0
   14.4300   20.2460   -4.2540 N   0  0  0  0  0
   13.9830   19.4150   -3.1100 C   0  0  0  0  0
   14.5570   19.9320   -1.8080 C   0  0  0  0  0
   14.2710   21.6980   -4.1810 C   0  0  0  0  0
   14.4550   22.2610   -2.7750 C   0  0  0  0  0
   14.3100   21.3630   -1.6450 N   0  0  0  0  0
   14.2210   22.0120   -0.3850 C   0  0  0  0  0
   15.1750   21.6190    0.5630 C   0  0  0  0  0
   15.2620   22.2380    1.8160 C   0  0  0  0  0
   13.3540   23.0690   -0.0440 C   0  0  0  0  0
   12.3010   23.6280   -0.9370 C   0  0  0  0  0
   13.4150   23.6960    1.1920 C   0  0  0  0  0
   14.3570   23.2670    2.1270 C   0  0  0  0  0
   14.5000   23.8750    3.2440 C   0  0  0  0  0
   14.6020   24.4550    4.2580 N   0  0  0  0  0
   12.1986   16.5060   -4.7103 H   0  0  0  0  0
   10.7627   16.5737   -2.9538 H   0  0  0  0  0
   13.1577   17.5234   -6.4094 H   0  0  0  0  0
   10.8593   17.7853   -7.7525 H   0  0  0  0  0
   12.3405   17.9098   -8.6084 H   0  0  0  0  0
   12.4491   21.5102   -6.5083 H   0  0  0  0  0
   13.5323   21.1946   -7.8635 H   0  0  0  0  0
   14.3290   18.3928   -3.2636 H   0  0  0  0  0
   12.8952   19.4541   -3.0529 H   0  0  0  0  0
   15.6343   19.7661   -1.8154 H   0  0  0  0  0
   14.0772   19.4027   -0.9847 H   0  0  0  0  0
   13.2545   21.9324   -4.4971 H   0  0  0  0  0
   15.0375   22.1436   -4.8150 H   0  0  0  0  0
   13.6605   22.9979   -2.6570 H   0  0  0  0  0
   15.4899   22.6011   -2.7376 H   0  0  0  0  0
   15.8660   20.8120    0.3192 H   0  0  0  0  0
   16.0180   21.9273    2.5371 H   0  0  0  0  0
   12.7640   24.0142   -1.8451 H   0  0  0  0  0
   11.5910   22.8424   -1.1954 H   0  0  0  0  0
   11.7802   24.4351   -0.4217 H   0  0  0  0  0
   12.7350   24.5140    1.4296 H   0  0  0  0  0
  1  2  2  0  0  0
  2  3  1  0  0  0
  2  5  1  0  0  0
  3  4  1  0  0  0
  5  6  1  0  0  0
  5  9  1  0  0  0
  6  7  1  0  0  0
  7  8  1  0  0  0
  8  9  1  0  0  0
  9 10  1  0  0  0
 10 11  2  0  0  0
 10 12  2  0  0  0
 10 13  1  0  0  0
 13 14  1  0  0  0
 13 16  1  0  0  0
 14 15  1  0  0  0
 15 18  1  0  0  0
 16 17  1  0  0  0
 17 18  1  0  0  0
 18 19  1  0  0  0
 19 20  4  0  0  0
 19 22  4  0  0  0
 20 21  4  0  0  0
 21 25  4  0  0  0
 22 23  1  0  0  0
 22 24  4  0  0  0
 24 25  4  0  0  0
 25 26  1  0  0  0
 26 27  3  0  0  0
  3 28  1  0  0  0
  4 29  1  0  0  0
  5 30  1  0  0  0
  6 31  1  0  0  0
  6 32  1  0  0  0
  8 33  1  0  0  0
  8 34  1  0  0  0
 14 35  1  0  0  0
 14 36  1  0  0  0
 15 37  1  0  0  0
 15 38  1  0  0  0
 16 39  1  0  0  0
 16 40  1  0  0  0
 17 41  1  0  0  0
 17 42  1  0  0  0
 20 43  1  0  0  0
 21 44  1  0  0  0
 23 45  1  0  0  0
 23 46  1  0  0  0
 23 47  1  0  0  0
 24 48  1  0  0  0
M  END
$$$$
